data_PCOD9102430
_publ_section_title
;
Structure prediction by ZEFSAII (Michael W. Deem and Ramdas Pophale) SiO2 
 PCOD9102430
Probable space group: P -1
;
_chemical_formula_sum "Si O2"
_cell_formula_units_Z 12
_cell_length_a 9.124854
_cell_length_b 14.215200
_cell_length_c 14.444415
_cell_angle_alpha 159.290478
_cell_angle_beta 61.907999
_cell_angle_gamma 114.240186
_cell_volume 581.818997
_symmetry_space_group_name_H-M "P -1"
_symmetry_group_IT_number 2
_symmetry_cell_setting 'triclinic'
loop_
_space_group_symop_operation_xyz
x,y,z
-x,-y,-z
loop_
_atom_site_type_symbol
_atom_site_label
_atom_site_fract_x
_atom_site_fract_y
_atom_site_fract_z
Si Si1 0.956414 0.058632 0.914492
Si Si2 0.631613 0.926131 0.812622
Si Si3 0.842412 0.335562 0.382747
Si Si4 0.797136 0.747292 0.353661
Si Si5 0.470315 0.492983 0.686125
Si Si6 0.992066 0.169122 0.797211
O O1 0.019507 0.157883 0.888899
O O2 0.815653 0.873510 0.751563
O O3 0.107453 0.923836 0.806661
O O4 0.848873 0.250871 0.195494
O O5 0.587159 0.668675 0.534280
O O6 0.608828 0.200820 0.011872
O O7 0.500000 0.000000 0.000000
O O8 0.669444 0.476790 0.601993
O O9 0.000000 0.500000 0.500000
O O10 0.608661 0.679730 0.368390
O O11 0.841969 0.852324 0.335674
O O12 0.878391 0.944652 0.583895
O O13 0.898235 0.458796 0.072129
#
# Coordination Sequence:
#
# PCOD9102430 Si02
#       6
#     2   2   2   2   2   2
#     4  11  23  41  59  90 123 169 200 250 311 373
#     4  12  23  37  64  92 118 159 210 259 303 357
#     4  11  27  40  59  87 133 171 200 248 314 373
#     4  10  20  38  62  98 116 154 202 266 306 353
#     4  12  23  40  63  92 125 156 208 261 300 361
#     4  10  21  37  65  90 125 151 204 257 315 356
#
# _framework density 20.624970999999999
#
# number of rings (size 3 to 8) (size 9 to 14) (size 15 to 20)
#    0.000    1.000    5.000    1.500    7.000    0.000 
#    0.000    0.833    0.000    1.000    0.000    0.000 
#    0.000    0.000    0.000    0.000    0.000    0.000 
#
# Total GULP energy -66942.734319 kJ/mol
# GULP energy per Si atom -5578.561193 kJ/mol
# Density = 2.057803 g / cm^3
# Si number density = 20.624971 Si / 1000 Ang^3
#
#
#
# Elastic Constant Matrix: (Units=GPa)
#
#
# Indices 1 2 3 4 5 6 
#
# 1 69.5013 39.1694 26.4763 -3.3537 0.4070 10.9458
# 2 39.1694 167.4307 6.3490 -17.8178 2.1779 8.3284
# 3 26.4763 6.3490 67.2356 11.6151 -2.2143 10.1832
# 4 -3.3537 -17.8178 11.6151 34.9413 3.1875 2.4165
# 5 0.4070 2.1779 -2.2143 3.1875 24.0820 -0.1501
# 6 10.9458 8.3284 10.1832 2.4165 -0.1501 32.3512
#
#
#
# Elastic Compliance Matrix: (Units=1/GPa)
#
#
# Indices 1 2 3 4 5 6 
#
# 1 0.020205 -0.003948 -0.007546 0.002785 -0.001070 -0.003657
# 2 -0.003948 0.007299 0.000390 0.003369 -0.001009 -0.000922
# 3 -0.007546 0.000390 0.019604 -0.007079 0.002812 -0.003176
# 4 0.002785 0.003369 -0.007079 0.033603 -0.005464 -0.002117
# 5 -0.001070 -0.001009 0.002812 -0.005464 0.042618 0.000342
# 6 -0.003657 -0.000922 -0.003176 -0.002117 0.000342 0.033545
#
#
# Mechanical properties :
#
#
# Convention : Reuss Voigt Hill
#
# Bulk Modulus (GPa) = 40.16141 49.79524 44.97832
# Shear Modulus (GPa) = 26.68342 33.75309 30.21825
#
# Velocity S-wave (km/s) = 3.60077 4.04978 3.83185
# Velocity P-wave (km/s) = 6.06645 6.78699 6.43681
#
# Compressibility (1/GPa) = 0.02489953
#
# Stress axis : x y z
#
# Youngs Moduli (GPa) = 49.49356 137.00308 51.00928
#
# Poissons Ratio (x) = 0.54095 0.38490
# Poissons Ratio (y) = 0.19542 -0.01989
# Poissons Ratio (z) = 0.37347 -0.05343
#
# Static dielectric constant tensor:
#      x y z
#    x 1.723460 0.006750 -0.006920 
#    y 0.006750 1.871930 0.019660 
#    z -0.006920 0.019660 1.778970 
# 
# From -- ./inp_files/28188.got.cif
#   From: 2010.05.17/outbox.cif.g08.bks.cpg/sg2_15_cif.got.tgz:28188.got - 2010.06.03 11:33:40.
