data_PCOD9102975
_publ_section_title
;
Structure prediction by ZEFSAII (Michael W. Deem and Ramdas Pophale) SiO2 
 PCOD9102975
Probable space group: P -1
;
_chemical_formula_sum "Si O2"
_cell_formula_units_Z 12
_cell_length_a 8.293592
_cell_length_b 11.496143
_cell_length_c 13.725560
_cell_angle_alpha 30.031041
_cell_angle_beta 132.905098
_cell_angle_gamma 136.782847
_cell_volume 443.709736
_symmetry_space_group_name_H-M "P -1"
_symmetry_group_IT_number 2
_symmetry_cell_setting 'triclinic'
loop_
_space_group_symop_operation_xyz
x,y,z
-x,-y,-z
loop_
_atom_site_type_symbol
_atom_site_label
_atom_site_fract_x
_atom_site_fract_y
_atom_site_fract_z
Si Si1 0.396646 0.647342 0.774466
Si Si2 0.676379 0.330034 0.597351
Si Si3 0.867150 0.722941 0.236268
Si Si4 0.774948 0.165376 0.252832
Si Si5 0.837213 0.695460 0.832028
Si Si6 0.753201 0.157982 0.942372
O O1 0.232466 0.457517 0.765639
O O2 0.258711 0.769887 0.696964
O O3 0.638430 0.801015 0.704136
O O4 0.500000 0.500000 0.000000
O O5 0.721440 0.583815 0.373300
O O6 0.856721 0.237182 0.675564
O O7 0.420514 0.107152 0.651091
O O8 0.739786 0.368254 0.710189
O O9 0.824602 0.977362 0.030133
O O10 0.032727 0.203720 0.288988
O O11 0.726217 0.389282 0.009175
O O12 0.041427 0.761144 0.951002
O O13 0.500000 0.000000 0.000000
#
# Coordination Sequence:
#
# PCOD9102975 Si02
#       6
#     2   2   2   2   2   2
#     4  10  20  39  66  92 134 175 218 279 329 403
#     4  11  23  45  69 100 137 174 230 284 334 410
#     4  11  26  43  68 104 133 178 232 277 343 405
#     4  10  20  38  64  94 133 172 221 273 337 395
#     4  10  21  38  66 101 128 175 230 274 335 411
#     4  12  23  42  72  95 135 182 219 283 341 400
#
# _framework density 27.044706999999999
#
# number of rings (size 3 to 8) (size 9 to 14) (size 15 to 20)
#    0.000    1.333    1.667    5.500    2.333    1.333 
#    0.000    2.500    0.000    0.000    0.000    0.000 
#    0.000    0.000    0.000    0.000    0.000    0.000 
#
# Total GULP energy -67241.676516 kJ/mol
# GULP energy per Si atom -5603.473043 kJ/mol
# Density = 2.698315 g / cm^3
# Si number density = 27.044707 Si / 1000 Ang^3
#
#
#
# Elastic Constant Matrix: (Units=GPa)
#
#
# Indices 1 2 3 4 5 6 
#
# 1 222.6243 41.8120 27.4085 -6.6010 -17.6445 6.8126
# 2 41.8120 106.2948 17.8033 5.6826 -4.7860 5.4709
# 3 27.4085 17.8033 107.5585 1.4347 -45.3275 1.5752
# 4 -6.6010 5.6826 1.4347 18.7139 4.7810 -14.2183
# 5 -17.6445 -4.7860 -45.3275 4.7810 46.3036 -6.4235
# 6 6.8126 5.4709 1.5752 -14.2183 -6.4235 52.2044
#
#
#
# Elastic Compliance Matrix: (Units=1/GPa)
#
#
# Indices 1 2 3 4 5 6 
#
# 1 0.005080 -0.002005 -0.000612 0.002482 0.000922 0.000355
# 2 -0.002005 0.010836 -0.001579 -0.005483 -0.000962 -0.002438
# 3 -0.000612 -0.001579 0.016762 -0.004924 0.016581 0.000439
# 4 0.002482 -0.005483 -0.004924 0.073350 -0.009348 0.019227
# 5 0.000922 -0.000962 0.016581 -0.009348 0.039291 0.001769
# 6 0.000355 -0.002438 0.000439 0.019227 0.001769 0.024806
#
#
# Mechanical properties :
#
#
# Convention : Reuss Voigt Hill
#
# Bulk Modulus (GPa) = 41.17880 67.83613 54.50747
# Shear Modulus (GPa) = 26.79356 46.74129 36.76743
#
# Velocity S-wave (km/s) = 3.15098 4.16179 3.69115
# Velocity P-wave (km/s) = 5.33830 6.94488 6.19390
#
# Compressibility (1/GPa) = 0.02428434
#
# Stress axis : x y z
#
# Youngs Moduli (GPa) = 196.86515 92.28235 59.66043
#
# Poissons Ratio (x) = 0.18503 0.03653
# Poissons Ratio (y) = 0.39471 0.09422
# Poissons Ratio (z) = 0.12053 0.14574
#
# Static dielectric constant tensor:
#      x y z
#    x 2.169340 0.034890 -0.015450 
#    y 0.034890 2.090520 0.016810 
#    z -0.015450 0.016810 2.175910 
# 
# From -- ./inp_files/306121.got.cif
#   From: 2010.05.17/outbox.cif.g08.bks.cpg/sg2_154_cif.got.tgz:306121.got - 2010.06.03 11:33:40.
