data_PCOD9102648
_publ_section_title
;
Structure prediction by ZEFSAII (Michael W. Deem and Ramdas Pophale) SiO2 
 PCOD9102648
Probable space group: P -1
;
_chemical_formula_sum "Si O2"
_cell_formula_units_Z 16
_cell_length_a 11.977947
_cell_length_b 9.167242
_cell_length_c 11.757201
_cell_angle_alpha 56.078747
_cell_angle_beta 45.549832
_cell_angle_gamma 78.685005
_cell_volume 722.298956
_symmetry_space_group_name_H-M "P -1"
_symmetry_group_IT_number 2
_symmetry_cell_setting 'triclinic'
loop_
_space_group_symop_operation_xyz
x,y,z
-x,-y,-z
loop_
_atom_site_type_symbol
_atom_site_label
_atom_site_fract_x
_atom_site_fract_y
_atom_site_fract_z
Si Si1 0.216022 0.073558 0.921728
Si Si2 0.133912 0.258291 0.698383
Si Si3 0.347626 0.386664 0.080273
Si Si4 0.652790 0.108466 0.920686
Si Si5 0.826304 0.032271 0.629206
Si Si6 0.825333 0.526070 0.639671
Si Si7 0.133999 0.610140 0.698672
Si Si8 0.218696 0.424660 0.920877
O O1 0.242398 0.168505 0.737978
O O2 0.204567 0.235475 0.945135
O O3 0.348665 0.988254 0.915522
O O4 0.045300 0.900105 0.113628
O O5 0.198008 0.326858 0.497753
O O6 0.120165 0.438875 0.697244
O O7 0.191043 0.415682 0.245503
O O8 0.312370 0.166688 0.205824
O O9 0.500000 0.500000 0.000000
O O10 0.345649 0.448430 0.924247
O O11 0.808818 0.086992 0.748153
O O12 0.687422 0.326113 0.807064
O O13 0.500000 0.000000 0.000000
O O14 0.805313 0.195785 0.495390
O O15 0.000000 0.000000 0.500000
O O16 0.000000 0.500000 0.500000
O O17 0.245984 0.582355 0.736282
O O18 0.956837 0.594372 0.886836
#
# Coordination Sequence:
#
# PCOD9102648 Si02
#       8
#     2   2   2   2   2   2   2   2
#     4  10  21  38  62  90 128 160 203 258 316 367
#     4  10  21  38  61  96 121 157 210 265 304 357
#     4  12  26  42  61  93 133 168 202 256 321 372
#     4  12  24  40  61  93 129 162 201 256 321 367
#     4  12  22  41  67  94 120 164 222 254 299 368
#     4  12  23  39  64  94 122 160 215 259 296 364
#     4  10  20  38  63  94 119 160 211 265 298 365
#     4  10  21  38  62  89 127 163 206 252 319 362
#
# _framework density 22.151494
#
# number of rings (size 3 to 8) (size 9 to 14) (size 15 to 20)
#    0.000    1.000    5.000    2.250    1.750    0.000 
#    0.000    2.500    0.000    0.000    0.000    0.000 
#    0.000    0.000    0.000    0.000    0.000    0.000 
#
# Total GULP energy -89453.468046 kJ/mol
# GULP energy per Si atom -5590.841753 kJ/mol
# Density = 2.210108 g / cm^3
# Si number density = 22.151494 Si / 1000 Ang^3
#
#
#
# Elastic Constant Matrix: (Units=GPa)
#
#
# Indices 1 2 3 4 5 6 
#
# 1 176.5774 23.9236 56.4761 -32.3892 43.3078 11.7998
# 2 23.9236 79.7221 27.1006 -17.2153 6.7578 13.7364
# 3 56.4761 27.1006 62.9383 -26.3662 26.9021 -3.1836
# 4 -32.3892 -17.2153 -26.3662 44.8369 -6.6397 2.9098
# 5 43.3078 6.7578 26.9021 -6.6397 49.0655 -3.7315
# 6 11.7998 13.7364 -3.1836 2.9098 -3.7315 31.9256
#
#
#
# Elastic Compliance Matrix: (Units=1/GPa)
#
#
# Indices 1 2 3 4 5 6 
#
# 1 0.009726 0.001244 -0.005569 0.003765 -0.005626 -0.005686
# 2 0.001244 0.017005 -0.007608 0.003606 0.000550 -0.008799
# 3 -0.005569 -0.007608 0.033458 0.010766 -0.010433 0.006467
# 4 0.003765 0.003606 0.010766 0.032239 -0.005777 -0.005483
# 5 -0.005626 0.000550 -0.010433 -0.005777 0.030582 0.004903
# 6 -0.005686 -0.008799 0.006467 -0.005483 0.004903 0.038928
#
#
# Mechanical properties :
#
#
# Convention : Reuss Voigt Hill
#
# Bulk Modulus (GPa) = 27.53018 59.35984 43.44501
# Shear Modulus (GPa) = 25.26377 39.28142 32.27259
#
# Velocity S-wave (km/s) = 3.38079 4.21563 3.82108
# Velocity P-wave (km/s) = 5.26258 7.10991 6.25482
#
# Compressibility (1/GPa) = 0.03632377
#
# Stress axis : x y z
#
# Youngs Moduli (GPa) = 102.81516 58.80718 29.88784
#
# Poissons Ratio (x) = -0.07316 0.16645
# Poissons Ratio (y) = -0.12790 0.22738
# Poissons Ratio (z) = 0.57259 0.44739
#
# Static dielectric constant tensor:
#      x y z
#    x 1.870760 -0.038540 -0.025220 
#    y -0.038540 1.833070 0.036310 
#    z -0.025220 0.036310 1.841890 
# 
# From -- ./inp_files/272227.got.cif
#   From: 2010.05.17/outbox.cif.g08.bks.cpg/sg2_137_cif.got.tgz:272227.got - 2010.06.03 11:33:40.
