data_PCOD9102487
_publ_section_title
;
Structure prediction by ZEFSAII (Michael W. Deem and Ramdas Pophale) SiO2 
 PCOD9102487
Probable space group: P -1
;
_chemical_formula_sum "Si O2"
_cell_formula_units_Z 16
_cell_length_a 12.196195
_cell_length_b 11.835628
_cell_length_c 12.099435
_cell_angle_alpha 128.001321
_cell_angle_beta 36.410696
_cell_angle_gamma 131.973360
_cell_volume 758.774681
_symmetry_space_group_name_H-M "P -1"
_symmetry_group_IT_number 2
_symmetry_cell_setting 'triclinic'
loop_
_space_group_symop_operation_xyz
x,y,z
-x,-y,-z
loop_
_atom_site_type_symbol
_atom_site_label
_atom_site_fract_x
_atom_site_fract_y
_atom_site_fract_z
Si Si1 0.467815 0.119871 0.511496
Si Si2 0.727917 0.013965 0.794044
Si Si3 0.836644 0.128456 0.136701
Si Si4 0.632511 0.459863 0.537442
Si Si5 0.044129 0.727772 0.085580
Si Si6 0.319515 0.545243 0.756639
Si Si7 0.033944 0.911407 0.758484
Si Si8 0.060897 0.217989 0.483267
O O1 0.605928 0.100920 0.289549
O O2 0.563986 0.302794 0.568691
O O3 0.500000 0.000000 0.500000
O O4 0.232438 0.058605 0.652154
O O5 0.859748 0.101354 0.844561
O O6 0.850023 0.127383 0.662805
O O7 0.783386 0.860860 0.646673
O O8 0.500000 0.000000 0.000000
O O9 0.902548 0.164949 0.232338
O O10 0.957790 0.266603 0.041377
O O11 0.878279 0.978134 0.977077
O O12 0.474534 0.543326 0.721661
O O13 0.604354 0.404002 0.398096
O O14 0.844221 0.596957 0.464176
O O15 0.827881 0.631805 0.245517
O O16 0.187472 0.641467 0.956314
O O17 0.965705 0.811508 0.644373
#
# Coordination Sequence:
#
# PCOD9102487 Si02
#       8
#     2   2   2   2   2   2   2   2
#     4  10  22  40  65  88 118 167 222 260 303 375
#     4  11  24  38  60  90 135 172 204 253 325 385
#     4  10  20  38  63  87 117 161 218 259 298 364
#     4  11  21  39  58  93 131 159 203 267 322 371
#     4  11  19  38  59  92 118 164 215 253 303 385
#     4  10  22  33  63  90 124 161 204 260 319 368
#     4  10  22  39  63  90 118 165 214 263 306 368
#     4  11  24  39  59  95 133 165 209 257 327 383
#
# _framework density 21.086628999999999
#
# number of rings (size 3 to 8) (size 9 to 14) (size 15 to 20)
#    0.000    1.500    3.750    1.500    1.750    1.000 
#    0.000    2.500    0.000   10.500    0.000    0.000 
#    0.000    0.000    0.000    0.000    0.000    0.000 
#
# Total GULP energy -89076.692365 kJ/mol
# GULP energy per Si atom -5567.293273 kJ/mol
# Density = 2.103863 g / cm^3
# Si number density = 21.086629 Si / 1000 Ang^3
#
#
#
# Elastic Constant Matrix: (Units=GPa)
#
#
# Indices 1 2 3 4 5 6 
#
# 1 60.9611 31.5430 26.4852 -7.2608 15.4945 -9.3134
# 2 31.5430 123.2940 15.9259 -8.3555 -3.7745 -6.6522
# 3 26.4852 15.9259 89.8536 -9.2299 -10.4302 0.6511
# 4 -7.2608 -8.3555 -9.2299 23.0214 -0.8849 3.0623
# 5 15.4945 -3.7745 -10.4302 -0.8849 35.0101 -2.8647
# 6 -9.3134 -6.6522 0.6511 3.0623 -2.8647 25.5548
#
#
#
# Elastic Compliance Matrix: (Units=1/GPa)
#
#
# Indices 1 2 3 4 5 6 
#
# 1 0.028748 -0.006159 -0.009059 0.001651 -0.015457 0.007174
# 2 -0.006159 0.009882 0.000746 0.002031 0.004108 0.000526
# 3 -0.009059 0.000746 0.015101 0.004198 0.008445 -0.003048
# 4 0.001651 0.002031 0.004198 0.047029 0.001564 -0.004437
# 5 -0.015457 0.004108 0.008445 0.001564 0.038348 -0.000668
# 6 0.007174 0.000526 -0.003048 -0.004437 -0.000668 0.042418
#
#
# Mechanical properties :
#
#
# Convention : Reuss Voigt Hill
#
# Bulk Modulus (GPa) = 40.34475 46.89077 43.61776
# Shear Modulus (GPa) = 22.85917 30.06091 26.46004
#
# Velocity S-wave (km/s) = 3.29608 3.77980 3.54619
# Velocity P-wave (km/s) = 5.80172 6.42920 6.12350
#
# Compressibility (1/GPa) = 0.02478637
#
# Stress axis : x y z
#
# Youngs Moduli (GPa) = 34.78538 101.19619 66.22165
#
# Poissons Ratio (x) = 0.62325 0.59988
# Poissons Ratio (y) = 0.21424 -0.04937
# Poissons Ratio (z) = 0.31511 -0.07544
#
# Static dielectric constant tensor:
#      x y z
#    x 1.840480 -0.038640 -0.012860 
#    y -0.038640 1.826380 -0.016530 
#    z -0.012860 -0.016530 1.877450 
# 
# From -- ./inp_files/428654.got.cif
#   From: 2010.05.17/outbox.cif.g08.bks.cpg/sg2_215_cif.got.tgz:428654.got - 2010.06.03 11:33:40.
