data_PCOD9102163
_publ_section_title
;
Structure prediction by ZEFSAII (Michael W. Deem and Ramdas Pophale) SiO2 
 PCOD9102163
Probable space group: P -1
;
_chemical_formula_sum "Si O2"
_cell_formula_units_Z 16
_cell_length_a 12.051559
_cell_length_b 8.989041
_cell_length_c 14.451929
_cell_angle_alpha 84.119164
_cell_angle_beta 130.293739
_cell_angle_gamma 128.152591
_cell_volume 815.791715
_symmetry_space_group_name_H-M "P -1"
_symmetry_group_IT_number 2
_symmetry_cell_setting 'triclinic'
loop_
_space_group_symop_operation_xyz
x,y,z
-x,-y,-z
loop_
_atom_site_type_symbol
_atom_site_label
_atom_site_fract_x
_atom_site_fract_y
_atom_site_fract_z
Si Si1 0.451593 0.552285 0.064638
Si Si2 0.659739 0.939769 0.660717
Si Si3 0.988334 0.637325 0.424396
Si Si4 0.568952 0.941406 0.408476
Si Si5 0.774983 0.766010 0.365359
Si Si6 0.057607 0.448514 0.811440
Si Si7 0.342602 0.369221 0.211707
Si Si8 0.123965 0.493595 0.142188
O O1 0.668906 0.765103 0.218450
O O2 0.346182 0.371863 0.101039
O O3 0.500000 0.500000 0.000000
O O4 0.287917 0.563428 0.957994
O O5 0.601248 0.874544 0.525488
O O6 0.673522 0.801102 0.736522
O O7 0.482947 0.924591 0.601699
O O8 0.881875 0.195488 0.765516
O O9 0.000000 0.500000 0.500000
O O10 0.812872 0.622772 0.363633
O O11 0.955887 0.565138 0.305341
O O12 0.211111 0.891091 0.536036
O O13 0.363306 0.733621 0.258299
O O14 0.581416 0.613864 0.343934
O O15 0.000000 0.000000 0.500000
O O16 0.985758 0.546997 0.816805
O O17 0.159658 0.347031 0.146641
O O18 0.000000 0.500000 0.000000
#
# Coordination Sequence:
#
# PCOD9102163 Si02
#       8
#     2   2   2   2   2   2   2   2
#     4  10  20  38  62  87 114 159 198 243 290 359
#     4   9  19  37  56  88 113 148 197 250 285 350
#     4  11  21  37  62  86 113 157 200 242 289 362
#     4   9  20  35  58  80 118 151 189 240 302 343
#     4  10  21  36  59  85 116 157 195 240 296 346
#     4  10  20  39  62  84 118 154 196 241 307 348
#     4  10  21  35  62  87 115 153 203 240 294 355
#     4  11  20  37  57  84 118 160 185 242 304 354
#
# _framework density 19.612848
#
# number of rings (size 3 to 8) (size 9 to 14) (size 15 to 20)
#    0.750    1.250    2.500    2.250    0.000    1.000 
#    0.000    2.500    0.000    1.500    0.000    0.000 
#    0.000    0.000    0.000    0.000    0.000    0.000 
#
# Total GULP energy -89160.176107 kJ/mol
# GULP energy per Si atom -5572.511007 kJ/mol
# Density = 1.956821 g / cm^3
# Si number density = 19.612848 Si / 1000 Ang^3
#
#
#
# Elastic Constant Matrix: (Units=GPa)
#
#
# Indices 1 2 3 4 5 6 
#
# 1 131.5023 37.1501 46.6994 -19.8687 19.1033 -11.3033
# 2 37.1501 49.7958 28.8019 -32.8011 -7.4403 1.6718
# 3 46.6994 28.8019 118.7961 -7.6768 9.5098 1.1528
# 4 -19.8687 -32.8011 -7.6768 34.2361 -1.3186 3.4039
# 5 19.1033 -7.4403 9.5098 -1.3186 32.1946 -0.0887
# 6 -11.3033 1.6718 1.1528 3.4039 -0.0887 12.2021
#
#
#
# Elastic Compliance Matrix: (Units=1/GPa)
#
#
# Indices 1 2 3 4 5 6 
#
# 1 0.020220 -0.041876 0.001674 -0.032205 -0.023398 0.033124
# 2 -0.041876 0.194750 -0.025379 0.170779 0.084043 -0.110105
# 3 0.001674 -0.025379 0.013345 -0.021770 -0.011665 0.009756
# 4 -0.032205 0.170779 -0.021770 0.182126 0.072188 -0.101455
# 5 -0.023398 0.084043 -0.011665 0.072188 0.070628 -0.051711
# 6 0.033124 -0.110105 0.009756 -0.101455 -0.051711 0.154727
#
#
# Mechanical properties :
#
#
# Convention : Reuss Voigt Hill
#
# Bulk Modulus (GPa) = 10.29274 58.37744 34.33509
# Shear Modulus (GPa) = 6.25516 28.22274 17.23895
#
# Velocity S-wave (km/s) = 1.78780 3.79752 2.96795
# Velocity P-wave (km/s) = 3.08561 7.00412 5.41197
#
# Compressibility (1/GPa) = 0.09715586
#
# Stress axis : x y z
#
# Youngs Moduli (GPa) = 49.45540 5.13478 74.93506
#
# Poissons Ratio (x) = 0.21502 -0.12548
# Poissons Ratio (y) = 2.07097 1.90175
# Poissons Ratio (z) = -0.08281 0.13031
#
# Static dielectric constant tensor:
#      x y z
#    x 1.738220 -0.026500 -0.018540 
#    y -0.026500 1.669950 0.043010 
#    z -0.018540 0.043010 1.726130 
# 
# From -- ./inp_files/515548.got.cif
#   From: 2010.05.17/outbox.cif.g08.bks.cpg/sg2_258_cif.got.tgz:515548.got - 2010.06.03 11:33:40.
