data_PCOD9102081
_publ_section_title
;
Structure prediction by ZEFSAII (Michael W. Deem and Ramdas Pophale) SiO2 
 PCOD9102081
Probable space group: P -1
;
_chemical_formula_sum "Si O2"
_cell_formula_units_Z 16
_cell_length_a 9.399657
_cell_length_b 16.031187
_cell_length_c 15.115862
_cell_angle_alpha 140.823126
_cell_angle_beta 40.739478
_cell_angle_gamma 147.866006
_cell_volume 729.789159
_symmetry_space_group_name_H-M "P -1"
_symmetry_group_IT_number 2
_symmetry_cell_setting 'triclinic'
loop_
_space_group_symop_operation_xyz
x,y,z
-x,-y,-z
loop_
_atom_site_type_symbol
_atom_site_label
_atom_site_fract_x
_atom_site_fract_y
_atom_site_fract_z
Si Si1 0.913052 0.774721 0.571144
Si Si2 0.634007 0.105015 0.897098
Si Si3 0.694629 0.423936 0.110720
Si Si4 0.787486 0.032868 0.591552
Si Si5 0.712216 0.745641 0.977308
Si Si6 0.084456 0.762919 0.950412
Si Si7 0.292981 0.560018 0.689859
Si Si8 0.792492 0.076481 0.255291
O O1 0.611170 0.730248 0.665014
O O2 0.815158 0.585329 0.449609
O O3 0.099546 0.879900 0.485162
O O4 0.065346 0.859648 0.662116
O O5 0.784145 0.132321 0.757198
O O6 0.353755 0.915506 0.891992
O O7 0.548720 0.226673 0.039845
O O8 0.849007 0.159142 0.919414
O O9 0.540500 0.416795 0.091014
O O10 0.697754 0.499698 0.264699
O O11 0.000000 0.500000 0.000000
O O12 0.446176 0.901808 0.628062
O O13 0.000000 0.000000 0.500000
O O14 0.810282 0.711340 0.990952
O O15 0.965533 0.827914 0.854379
O O16 0.663006 0.880025 0.138373
O O17 0.093051 0.609033 0.825328
#
# Coordination Sequence:
#
# PCOD9102081 Si02
#       8
#     2   2   2   2   2   2   2   2
#     4  11  24  42  63  90 139 177 208 259 319 403
#     4  10  20  38  61  97 124 162 216 268 318 371
#     4  11  21  40  67  92 127 165 215 272 327 380
#     4  12  24  39  63  97 133 169 214 265 316 387
#     4  11  21  39  71  96 124 162 218 284 313 370
#     4  10  21  37  69  93 126 162 220 277 311 373
#     4  10  23  42  63  93 129 179 214 252 333 391
#     4  11  23  42  64 101 126 166 221 264 329 374
#
# _framework density 21.924140000000001
#
# number of rings (size 3 to 8) (size 9 to 14) (size 15 to 20)
#    0.000    1.250    3.750    2.625    5.250    0.000 
#    0.000    5.625    0.000    0.000    0.000    0.000 
#    0.000    0.000    0.000    0.000    0.000    0.000 
#
# Total GULP energy -89264.933363 kJ/mol
# GULP energy per Si atom -5579.058335 kJ/mol
# Density = 2.187424 g / cm^3
# Si number density = 21.924140 Si / 1000 Ang^3
#
#
#
# Elastic Constant Matrix: (Units=GPa)
#
#
# Indices 1 2 3 4 5 6 
#
# 1 141.1533 25.1800 38.2023 2.2111 15.6697 38.2407
# 2 25.1800 44.3767 18.7464 -7.7207 5.9398 15.2047
# 3 38.2023 18.7464 97.6363 -1.1934 22.9961 11.5047
# 4 2.2111 -7.7207 -1.1934 28.5535 2.0324 -0.0518
# 5 15.6697 5.9398 22.9961 2.0324 50.3609 -5.2756
# 6 38.2407 15.2047 11.5047 -0.0518 -5.2756 28.1216
#
#
#
# Elastic Compliance Matrix: (Units=1/GPa)
#
#
# Indices 1 2 3 4 5 6 
#
# 1 0.012987 0.000085 -0.001799 -0.000729 -0.005078 -0.017925
# 2 0.000085 0.031623 -0.002948 0.008712 -0.004526 -0.016840
# 3 -0.001799 -0.002948 0.013031 0.000259 -0.005292 -0.002283
# 4 -0.000729 0.008712 0.000259 0.037643 -0.002889 -0.004298
# 5 -0.005078 -0.004526 -0.005292 -0.002889 0.026225 0.016432
# 6 -0.017925 -0.016840 -0.002283 -0.004298 0.016432 0.073048
#
#
# Mechanical properties :
#
#
# Convention : Reuss Voigt Hill
#
# Bulk Modulus (GPa) = 20.69655 49.71374 35.20514
# Shear Modulus (GPa) = 22.72861 34.80970 28.76916
#
# Velocity S-wave (km/s) = 3.22327 3.98896 3.62638
# Velocity P-wave (km/s) = 4.82837 6.62875 5.79886
#
# Compressibility (1/GPa) = 0.04831724
#
# Stress axis : x y z
#
# Youngs Moduli (GPa) = 76.99788 31.62250 76.74200
#
# Poissons Ratio (x) = -0.00269 0.13803
# Poissons Ratio (y) = -0.00654 0.22625
# Poissons Ratio (z) = 0.13850 0.09323
#
# Static dielectric constant tensor:
#      x y z
#    x 1.841500 0.005210 -0.004200 
#    y 0.005210 1.872600 0.001550 
#    z -0.004200 0.001550 1.796160 
# 
# From -- ./inp_files/507304.got.cif
#   From: 2010.05.17/outbox.cif.g08.bks.cpg/sg2_254_cif.got.tgz:507304.got - 2010.06.03 11:33:40.
