data_PCOD9102135
_publ_section_title
;
Structure prediction by ZEFSAII (Michael W. Deem and Ramdas Pophale) SiO2 
 PCOD9102135
Probable space group: P -1
;
_chemical_formula_sum "Si O2"
_cell_formula_units_Z 14
_cell_length_a 11.537135
_cell_length_b 20.532580
_cell_length_c 8.780193
_cell_angle_alpha 148.670016
_cell_angle_beta 35.388176
_cell_angle_gamma 147.452694
_cell_volume 547.095923
_symmetry_space_group_name_H-M "P -1"
_symmetry_group_IT_number 2
_symmetry_cell_setting 'triclinic'
loop_
_space_group_symop_operation_xyz
x,y,z
-x,-y,-z
loop_
_atom_site_type_symbol
_atom_site_label
_atom_site_fract_x
_atom_site_fract_y
_atom_site_fract_z
Si Si1 0.367634 0.787943 0.790523
Si Si2 0.376983 0.149426 0.840384
Si Si3 0.601563 0.559900 0.676823
Si Si4 0.063677 0.067973 0.292257
Si Si5 0.118414 0.481384 0.492709
Si Si6 0.271211 0.313272 0.771529
Si Si7 0.683883 0.086264 0.199356
O O1 0.207659 0.647687 0.777833
O O2 0.577811 0.756640 0.470396
O O3 0.273962 0.800295 0.751131
O O4 0.476558 0.937442 0.060130
O O5 0.599351 0.133344 0.533915
O O6 0.400790 0.290383 0.014917
O O7 0.289789 0.148692 0.103436
O O8 0.163937 0.009219 0.715606
O O9 0.500000 0.500000 0.500000
O O10 0.851706 0.577591 0.489285
O O11 0.420562 0.436792 0.736640
O O12 0.068032 0.181269 0.634649
O O13 0.105499 0.943786 0.070843
O O14 0.000000 0.500000 0.500000
O O15 0.225629 0.394225 0.115988
#
# Coordination Sequence:
#
# PCOD9102135 Si02
#       7
#     2   2   2   2   2   2   2
#     4   9  20  38  58  89 117 165 206 250 316 386
#     4  11  22  39  62  91 124 169 208 264 315 377
#     4  11  22  43  67  88 124 174 214 250 322 385
#     4  10  23  38  61  93 125 160 216 260 314 380
#     4  11  24  38  64  95 127 159 212 268 315 372
#     4  10  20  43  63  87 127 168 205 263 318 380
#     4  10  20  38  62  85 125 162 207 257 318 374
#
# _framework density 25.589663000000002
#
# number of rings (size 3 to 8) (size 9 to 14) (size 15 to 20)
#    0.000    1.714    1.429    3.857    4.000    0.000 
#    0.000    3.571    0.000    0.000    0.000    0.000 
#    0.000    0.000    0.000    0.000    0.000    0.000 
#
# Total GULP energy -78007.615634 kJ/mol
# GULP energy per Si atom -5571.972545 kJ/mol
# Density = 2.553142 g / cm^3
# Si number density = 25.589663 Si / 1000 Ang^3
#
#
#
# Elastic Constant Matrix: (Units=GPa)
#
#
# Indices 1 2 3 4 5 6 
#
# 1 107.3624 4.8272 9.1150 -4.4484 3.5366 -12.4716
# 2 4.8272 70.6622 38.1896 19.7536 3.7741 -13.6195
# 3 9.1150 38.1896 116.7774 10.9095 -0.1766 -22.1279
# 4 -4.4484 19.7536 10.9095 29.8460 -7.4332 -6.4989
# 5 3.5366 3.7741 -0.1766 -7.4332 38.6472 6.8177
# 6 -12.4716 -13.6195 -22.1279 -6.4989 6.8177 33.6699
#
#
#
# Elastic Compliance Matrix: (Units=1/GPa)
#
#
# Indices 1 2 3 4 5 6 
#
# 1 0.009962 -0.000465 -0.000068 0.002441 -0.001131 0.004158
# 2 -0.000465 0.021571 -0.005102 -0.012969 -0.005245 0.003759
# 3 -0.000068 -0.005102 0.011232 0.000361 -0.000333 0.005430
# 4 0.002441 -0.012969 0.000361 0.045225 0.009258 0.002750
# 5 -0.001131 -0.005245 -0.000333 0.009258 0.029495 -0.006944
# 6 0.004158 0.003759 0.005430 0.002750 -0.006944 0.038266
#
#
# Mechanical properties :
#
#
# Convention : Reuss Voigt Hill
#
# Bulk Modulus (GPa) = 31.74952 44.34063 38.04508
# Shear Modulus (GPa) = 28.16600 36.61064 32.38832
#
# Velocity S-wave (km/s) = 3.32125 3.78654 3.56150
# Velocity P-wave (km/s) = 5.20977 6.04006 5.64021
#
# Compressibility (1/GPa) = 0.03149654
#
# Stress axis : x y z
#
# Youngs Moduli (GPa) = 100.37916 46.35808 89.03291
#
# Poissons Ratio (x) = 0.02154 0.00601
# Poissons Ratio (y) = 0.04664 0.45427
# Poissons Ratio (z) = 0.00678 0.23653
#
# Static dielectric constant tensor:
#      x y z
#    x 2.215830 -0.064540 -0.025000 
#    y -0.064540 2.533100 -0.100540 
#    z -0.025000 -0.100540 1.949370 
# 
# From -- ./inp_files/282514.got.cif
#   From: 2010.05.17/outbox.cif.g08.bks.cpg/sg2_142_cif.got.tgz:282514.got - 2010.06.03 11:33:40.
