data_PCOD9102170
_publ_section_title
;
Structure prediction by ZEFSAII (Michael W. Deem and Ramdas Pophale) SiO2 
 PCOD9102170
Probable space group: P -1
;
_chemical_formula_sum "Si O2"
_cell_formula_units_Z 13
_cell_length_a 6.865411
_cell_length_b 11.525927
_cell_length_c 8.807931
_cell_angle_alpha 43.511938
_cell_angle_beta 69.786231
_cell_angle_gamma 75.651985
_cell_volume 450.310923
_symmetry_space_group_name_H-M "P -1"
_symmetry_group_IT_number 2
_symmetry_cell_setting 'triclinic'
loop_
_space_group_symop_operation_xyz
x,y,z
-x,-y,-z
loop_
_atom_site_type_symbol
_atom_site_label
_atom_site_fract_x
_atom_site_fract_y
_atom_site_fract_z
Si Si1 0.375845 0.822393 0.053973
Si Si2 0.947785 0.683086 0.224105
Si Si3 0.508551 0.666794 0.446090
Si Si4 0.500000 0.000000 0.500000
Si Si5 0.892253 0.004659 0.280411
Si Si6 0.631688 0.649735 0.894647
Si Si7 0.067010 0.647975 0.665117
O O1 0.454424 0.825356 0.200547
O O2 0.166673 0.711269 0.219734
O O3 0.303688 0.970871 0.815140
O O4 0.541424 0.717393 0.012491
O O5 0.753617 0.681054 0.392115
O O6 0.959582 0.515088 0.282055
O O7 0.949440 0.851733 0.957638
O O8 0.500000 0.500000 0.500000
O O9 0.314584 0.648271 0.628069
O O10 0.752489 0.056598 0.411610
O O11 0.417970 0.191239 0.349943
O O12 0.009828 0.831325 0.434411
O O13 0.877395 0.627332 0.853709
O O14 0.500000 0.500000 0.000000
#
# Coordination Sequence:
#
# PCOD9102170 Si02
#       7
#     2   2   2   1   2   2   2
#     4   9  19  37  58  80 108 146 180 219 277 320
#     4   9  19  37  54  77 113 144 175 224 273 312
#     4  10  22  36  56  81 113 146 179 225 268 322
#     4   8  14  26  52  82 108 128 182 218 268 314
#     4   8  17  31  55  82 101 147 177 222 266 324
#     4  10  16  32  56  81 105 141 178 223 269 318
#     4  10  18  32  58  81 108 142 184 221 268 319
#
# _framework density 28.868941
#
# number of rings (size 3 to 8) (size 9 to 14) (size 15 to 20)
#    0.923    1.846    1.538    0.000    0.000    3.692 
#    0.000    3.077    6.769    8.308    0.000    0.000 
#    0.000    0.000    0.000    0.000    0.000    0.000 
#
# Total GULP energy -72450.504375 kJ/mol
# GULP energy per Si atom -5573.115721 kJ/mol
# Density = 2.880323 g / cm^3
# Si number density = 28.868941 Si / 1000 Ang^3
#
#
#
# Elastic Constant Matrix: (Units=GPa)
#
#
# Indices 1 2 3 4 5 6 
#
# 1 178.7810 56.4807 52.6639 16.6640 -20.0337 -55.8435
# 2 56.4807 111.7517 28.4777 11.0762 -20.4424 -45.0548
# 3 52.6639 28.4777 146.7303 -9.9543 -2.8160 -24.6703
# 4 16.6640 11.0762 -9.9543 52.9209 -34.0265 -12.2281
# 5 -20.0337 -20.4424 -2.8160 -34.0265 61.4574 28.2628
# 6 -55.8435 -45.0548 -24.6703 -12.2281 28.2628 64.9752
#
#
#
# Elastic Compliance Matrix: (Units=1/GPa)
#
#
# Indices 1 2 3 4 5 6 
#
# 1 0.008525 -0.001534 -0.001994 -0.002668 -0.002001 0.005875
# 2 -0.001534 0.012893 -0.000790 -0.000643 0.000106 0.007155
# 3 -0.001994 -0.000790 0.008081 0.002939 0.000574 0.001110
# 4 -0.002668 -0.000643 0.002939 0.031123 0.017920 -0.003560
# 5 -0.002001 0.000106 0.000574 0.017920 0.030887 -0.011491
# 6 0.005875 0.007155 0.001110 -0.003560 -0.011491 0.030150
#
#
# Mechanical properties :
#
#
# Convention : Reuss Voigt Hill
#
# Bulk Modulus (GPa) = 47.93165 79.16751 63.54958
# Shear Modulus (GPa) = 36.43049 55.84673 46.13861
#
# Velocity S-wave (km/s) = 3.55621 4.40306 4.00210
# Velocity P-wave (km/s) = 5.78804 7.30286 6.58913
#
# Compressibility (1/GPa) = 0.02086304
#
# Stress axis : x y z
#
# Youngs Moduli (GPa) = 117.30810 77.56415 123.74352
#
# Poissons Ratio (x) = 0.11895 0.24670
# Poissons Ratio (y) = 0.17991 0.09781
# Poissons Ratio (z) = 0.23387 0.06131
#
# Static dielectric constant tensor:
#      x y z
#    x 2.239200 0.094060 0.007350 
#    y 0.094060 1.934450 -0.019980 
#    z 0.007350 -0.019980 2.513170 
# 
# From -- ./inp_files/388729.got.cif
#   From: 2010.05.17/outbox.cif.g08.bks.cpg/sg2_195_cif.got.tgz:388729.got - 2010.06.03 11:33:40.
