data_PCOD9102845
_publ_section_title
;
Structure prediction by ZEFSAII (Michael W. Deem and Ramdas Pophale) SiO2 
 PCOD9102845
Probable space group: P -1
;
_chemical_formula_sum "Si O2"
_cell_formula_units_Z 15
_cell_length_a 7.148576
_cell_length_b 7.733616
_cell_length_c 12.536530
_cell_angle_alpha 91.118574
_cell_angle_beta 103.471416
_cell_angle_gamma 57.106194
_cell_volume 561.068042
_symmetry_space_group_name_H-M "P -1"
_symmetry_group_IT_number 2
_symmetry_cell_setting 'triclinic'
loop_
_space_group_symop_operation_xyz
x,y,z
-x,-y,-z
loop_
_atom_site_type_symbol
_atom_site_label
_atom_site_fract_x
_atom_site_fract_y
_atom_site_fract_z
Si Si1 0.699775 0.497606 0.787893
Si Si2 0.461865 0.747278 0.548992
Si Si3 0.980366 0.955600 0.119728
Si Si4 0.902016 0.838966 0.699902
Si Si5 0.459652 0.207530 0.049350
Si Si6 0.000000 0.000000 0.500000
Si Si7 0.386215 0.122724 0.624345
Si Si8 0.318594 0.405219 0.808097
O O1 0.609358 0.592193 0.660606
O O2 0.938006 0.276788 0.840434
O O3 0.511332 0.449374 0.801232
O O4 0.688601 0.671692 0.865491
O O5 0.235851 0.756958 0.481333
O O6 0.606272 0.734309 0.463516
O O7 0.265045 0.002177 0.573052
O O8 0.133276 0.011611 0.206426
O O9 0.000000 0.000000 0.000000
O O10 0.718391 0.126446 0.117529
O O11 0.010198 0.887289 0.617820
O O12 0.067438 0.603521 0.752166
O O13 0.641841 0.914514 0.640626
O O14 0.358804 0.361316 0.938078
O O15 0.500000 0.000000 0.000000
O O16 0.342205 0.223557 0.734083
#
# Coordination Sequence:
#
# PCOD9102845 Si02
#       8
#     2   2   2   2   2   1   2   2
#     4  12  23  40  68  92 120 166 213 249 304 375
#     4  10  22  42  64  93 129 160 205 255 307 367
#     4  12  23  40  64  91 122 164 208 254 307 364
#     4  11  22  38  64  92 122 163 206 253 305 367
#     4  12  26  42  62  93 130 160 205 263 309 360
#     4  10  20  38  64  90 124 164 200 246 308 366
#     4  10  23  42  63  93 130 159 199 264 309 355
#     4  12  22  40  67  92 122 166 209 253 307 370
#
# _framework density 26.734725999999998
#
# number of rings (size 3 to 8) (size 9 to 14) (size 15 to 20)
#    0.000    0.800    5.333    2.000    0.000    3.200 
#    0.000    6.000    0.000    0.000    0.000    0.000 
#    0.000    0.000    0.000    0.000    0.000    0.000 
#
# Total GULP energy -83799.601297 kJ/mol
# GULP energy per Si atom -5586.640086 kJ/mol
# Density = 2.667388 g / cm^3
# Si number density = 26.734726 Si / 1000 Ang^3
#
#
#
# Elastic Constant Matrix: (Units=GPa)
#
#
# Indices 1 2 3 4 5 6 
#
# 1 87.2039 20.3700 27.8597 -10.1135 -12.2151 -7.8259
# 2 20.3700 135.0382 54.6448 -11.5375 -1.3774 -14.6820
# 3 27.8597 54.6448 149.4364 -29.9260 -11.1417 -15.8248
# 4 -10.1135 -11.5375 -29.9260 69.9834 6.0617 12.2074
# 5 -12.2151 -1.3774 -11.1417 6.0617 33.2530 -0.7664
# 6 -7.8259 -14.6820 -15.8248 12.2074 -0.7664 33.3310
#
#
#
# Elastic Compliance Matrix: (Units=1/GPa)
#
#
# Indices 1 2 3 4 5 6 
#
# 1 0.012983 -0.001104 -0.001428 0.000398 0.004214 0.001835
# 2 -0.001104 0.008993 -0.002954 -0.000276 -0.000918 0.002379
# 3 -0.001428 -0.002954 0.008886 0.002655 0.001884 0.001653
# 4 0.000398 -0.000276 0.002655 0.016462 -0.002088 -0.004845
# 5 0.004214 -0.000918 0.001884 -0.002088 0.032664 0.002996
# 6 0.001835 0.002379 0.001653 -0.004845 0.002996 0.034109
#
#
# Mechanical properties :
#
#
# Convention : Reuss Voigt Hill
#
# Bulk Modulus (GPa) = 50.28150 64.15861 57.22006
# Shear Modulus (GPa) = 37.96519 45.23374 41.59947
#
# Velocity S-wave (km/s) = 3.77247 4.11779 3.94891
# Velocity P-wave (km/s) = 6.15010 6.83071 6.49932
#
# Compressibility (1/GPa) = 0.01988803
#
# Stress axis : x y z
#
# Youngs Moduli (GPa) = 77.02503 111.19579 112.54130
#
# Poissons Ratio (x) = 0.12274 0.16076
# Poissons Ratio (y) = 0.08502 0.33250
# Poissons Ratio (z) = 0.11003 0.32852
#
# Static dielectric constant tensor:
#      x y z
#    x -1.544320 -2.447080 -1.811040 
#    y -2.447080 0.681590 -1.195880 
#    z -1.811040 -1.195880 1.081600 
# 
# From -- ./inp_files/177165.got.cif
#   From: 2010.05.17/outbox.cif.g08.bks.cpg/sg2_89_cif.got.tgz:177165.got - 2010.06.03 11:33:40.
