data_PCOD9102008
_publ_section_title
;
Structure prediction by ZEFSAII (Michael W. Deem and Ramdas Pophale) SiO2 
 PCOD9102008
Probable space group: P -1
;
_chemical_formula_sum "Si O2"
_cell_formula_units_Z 12
_cell_length_a 7.505655
_cell_length_b 7.175438
_cell_length_c 12.818942
_cell_angle_alpha 46.444417
_cell_angle_beta 63.668133
_cell_angle_gamma 87.710269
_cell_volume 409.176494
_symmetry_space_group_name_H-M "P -1"
_symmetry_group_IT_number 2
_symmetry_cell_setting 'triclinic'
loop_
_space_group_symop_operation_xyz
x,y,z
-x,-y,-z
loop_
_atom_site_type_symbol
_atom_site_label
_atom_site_fract_x
_atom_site_fract_y
_atom_site_fract_z
Si Si1 0.630547 0.946442 0.583456
Si Si2 0.863650 0.664365 0.357450
Si Si3 0.236457 0.242563 0.867353
Si Si4 0.410299 0.904485 0.242640
Si Si5 0.848068 0.734436 0.896058
Si Si6 0.131113 0.421629 0.272583
O O1 0.511067 0.980117 0.705696
O O2 0.883822 0.174935 0.436681
O O3 0.500000 0.000000 0.500000
O O4 0.687774 0.671267 0.688834
O O5 0.713285 0.597967 0.318514
O O6 0.759479 0.415163 0.562339
O O7 0.913077 0.343584 0.742754
O O8 0.928144 0.976937 0.265651
O O9 0.411959 0.112061 0.874116
O O10 0.209037 0.386305 0.925725
O O11 0.000000 0.000000 0.000000
O O12 0.316769 0.124902 0.144501
O O13 0.836707 0.540903 0.875061
#
# Coordination Sequence:
#
# PCOD9102008 Si02
#       6
#     2   2   2   2   2   2
#     4   9  19  34  61  87 123 159 193 257 307 348
#     4  10  21  39  61  93 121 156 205 256 297 360
#     4  10  22  37  59  88 124 165 199 245 311 364
#     4  10  20  38  61  91 118 158 214 245 299 369
#     4  10  21  39  66  84 126 167 187 258 315 353
#     4   9  20  39  58  90 126 153 206 247 307 364
#
# _framework density 29.327195
#
# number of rings (size 3 to 8) (size 9 to 14) (size 15 to 20)
#    0.000    2.333    0.000    2.500    4.667    0.667 
#    6.000    0.000    0.000    9.000    0.000    0.000 
#    0.000    0.000    0.000    0.000    0.000    0.000 
#
# Total GULP energy -67211.094674 kJ/mol
# GULP energy per Si atom -5600.924556 kJ/mol
# Density = 2.926045 g / cm^3
# Si number density = 29.327195 Si / 1000 Ang^3
#
#
#
# Elastic Constant Matrix: (Units=GPa)
#
#
# Indices 1 2 3 4 5 6 
#
# 1 172.0409 13.0714 39.5207 3.0952 21.0974 -9.4433
# 2 13.0714 136.9463 35.3441 31.9099 -2.3353 18.0099
# 3 39.5207 35.3441 148.1193 25.2573 5.5158 6.9599
# 4 3.0952 31.9099 25.2573 54.9907 12.8323 1.5884
# 5 21.0974 -2.3353 5.5158 12.8323 66.5279 11.3640
# 6 -9.4433 18.0099 6.9599 1.5884 11.3640 38.3788
#
#
#
# Elastic Compliance Matrix: (Units=1/GPa)
#
#
# Indices 1 2 3 4 5 6 
#
# 1 0.006843 -0.001039 -0.001912 0.001686 -0.002940 0.003319
# 2 -0.001039 0.009681 -0.000932 -0.005615 0.002718 -0.005202
# 3 -0.001912 -0.000932 0.008075 -0.003200 0.000795 -0.001600
# 4 0.001686 -0.005615 -0.003200 0.024058 -0.005853 0.004367
# 5 -0.002940 0.002718 0.000795 -0.005853 0.018376 -0.007342
# 6 0.003319 -0.005202 -0.001600 0.004367 -0.007342 0.031597
#
#
# Mechanical properties :
#
#
# Convention : Reuss Voigt Hill
#
# Bulk Modulus (GPa) = 59.40890 70.33100 64.86995
# Shear Modulus (GPa) = 44.63992 56.59083 50.61537
#
# Velocity S-wave (km/s) = 3.90569 4.39753 4.15888
# Velocity P-wave (km/s) = 6.37498 7.05818 6.72526
#
# Compressibility (1/GPa) = 0.01683250
#
# Stress axis : x y z
#
# Youngs Moduli (GPa) = 146.13183 103.29827 123.83844
#
# Poissons Ratio (x) = 0.10736 0.23676
# Poissons Ratio (y) = 0.15187 0.11542
# Poissons Ratio (z) = 0.27939 0.09628
#
# Static dielectric constant tensor:
#      x y z
#    x 2.368780 0.022210 0.049160 
#    y 0.022210 2.319680 -0.081460 
#    z 0.049160 -0.081460 2.309360 
# 
# From -- ./inp_files/377897.got.cif
#   From: 2010.05.17/outbox.cif.g08.bks.cpg/sg2_189_cif.got.tgz:377897.got - 2010.06.03 11:33:40.
