data_PCOD9102597
_publ_section_title
;
Structure prediction by ZEFSAII (Michael W. Deem and Ramdas Pophale) SiO2 
 PCOD9102597
Probable space group: P -1
;
_chemical_formula_sum "Si O2"
_cell_formula_units_Z 14
_cell_length_a 5.400800
_cell_length_b 17.132131
_cell_length_c 10.103288
_cell_angle_alpha 37.585346
_cell_angle_beta 94.114728
_cell_angle_gamma 102.516694
_cell_volume 548.736096
_symmetry_space_group_name_H-M "P -1"
_symmetry_group_IT_number 2
_symmetry_cell_setting 'triclinic'
loop_
_space_group_symop_operation_xyz
x,y,z
-x,-y,-z
loop_
_atom_site_type_symbol
_atom_site_label
_atom_site_fract_x
_atom_site_fract_y
_atom_site_fract_z
Si Si1 0.118099 0.932420 0.213464
Si Si2 0.037592 0.382333 0.393011
Si Si3 0.370382 0.464503 0.858020
Si Si4 0.671376 0.816540 0.731426
Si Si5 0.492607 0.843013 0.988786
Si Si6 0.749815 0.620013 0.325667
Si Si7 0.138861 0.946281 0.731170
O O1 0.051719 0.775303 0.419521
O O2 0.017262 0.978824 0.283971
O O3 0.412889 0.015970 0.124318
O O4 0.000000 0.000000 0.000000
O O5 0.334578 0.449282 0.270007
O O6 0.044843 0.396989 0.534753
O O7 0.829256 0.449981 0.228674
O O8 0.233871 0.392720 0.814316
O O9 0.386627 0.334347 0.117293
O O10 0.537072 0.826647 0.854036
O O11 0.632990 0.931957 0.478815
O O12 0.974234 0.869359 0.707561
O O13 0.192288 0.832197 0.983305
O O14 0.637933 0.745464 0.189657
O O15 0.500000 0.500000 0.500000
#
# Coordination Sequence:
#
# PCOD9102597 Si02
#       7
#     2   2   2   2   2   2   2
#     4  11  24  40  57  92 130 168 214 250 316 388
#     4  11  23  41  60  91 129 171 210 258 316 383
#     4  10  23  39  65  90 124 165 215 268 316 374
#     4   9  21  41  63  97 118 159 216 273 320 369
#     4  10  20  38  63  92 122 165 206 265 315 376
#     4   9  19  35  58  93 122 162 209 261 318 374
#     4  10  22  39  67  89 126 164 212 266 321 374
#
# _framework density 25.513176000000001
#
# number of rings (size 3 to 8) (size 9 to 14) (size 15 to 20)
#    0.000    2.000    1.429    0.857    8.000    2.857 
#    0.000    1.429    0.000    0.000    0.000    0.000 
#    0.000    0.000    0.000    0.000    0.000    0.000 
#
# Total GULP energy -78038.137458 kJ/mol
# GULP energy per Si atom -5574.152676 kJ/mol
# Density = 2.545511 g / cm^3
# Si number density = 25.513176 Si / 1000 Ang^3
#
#
#
# Elastic Constant Matrix: (Units=GPa)
#
#
# Indices 1 2 3 4 5 6 
#
# 1 78.5870 22.0424 45.8629 -23.3611 20.6697 8.3325
# 2 22.0424 72.3107 22.1114 -13.7189 1.0280 9.7936
# 3 45.8629 22.1114 149.8679 -33.7630 11.4467 10.0959
# 4 -23.3611 -13.7189 -33.7630 49.6778 3.3583 -6.8394
# 5 20.6697 1.0280 11.4467 3.3583 38.4928 1.7812
# 6 8.3325 9.7936 10.0959 -6.8394 1.7812 30.7350
#
#
#
# Elastic Compliance Matrix: (Units=1/GPa)
#
#
# Indices 1 2 3 4 5 6 
#
# 1 0.020677 -0.003647 -0.003323 0.007010 -0.010575 -0.001179
# 2 -0.003647 0.015933 -0.000784 0.001536 0.001798 -0.003593
# 3 -0.003323 -0.000784 0.008903 0.004246 -0.001177 -0.000761
# 4 0.007010 0.001536 0.004246 0.027637 -0.007609 0.002806
# 5 -0.010575 0.001798 -0.001177 -0.007609 0.032665 -0.000906
# 6 -0.001179 -0.003593 -0.000761 0.002806 -0.000906 0.034928
#
#
# Mechanical properties :
#
#
# Convention : Reuss Voigt Hill
#
# Bulk Modulus (GPa) = 33.32726 53.42210 43.37468
# Shear Modulus (GPa) = 30.07460 37.83106 33.95283
#
# Velocity S-wave (km/s) = 3.43707 3.85490 3.65197
# Velocity P-wave (km/s) = 5.37051 6.38734 5.90087
#
# Compressibility (1/GPa) = 0.03000546
#
# Stress axis : x y z
#
# Youngs Moduli (GPa) = 48.36222 62.76233 112.32148
#
# Poissons Ratio (x) = 0.22888 0.37327
# Poissons Ratio (y) = 0.17637 0.08806
# Poissons Ratio (z) = 0.16072 0.04920
#
# Static dielectric constant tensor:
#      x y z
#    x 2.218780 -0.019550 -0.059100 
#    y -0.019550 2.006490 0.026330 
#    z -0.059100 0.026330 2.172400 
# 
# From -- ./inp_files/64703.got.cif
#   From: 2010.05.17/outbox.cif.g08.bks.cpg/sg2_33_cif.got.tgz:64703.got - 2010.06.03 11:33:40.
