data_PCOD9102671
_publ_section_title
;
Structure prediction by ZEFSAII (Michael W. Deem and Ramdas Pophale) SiO2 
 PCOD9102671
Probable space group: P -1
;
_chemical_formula_sum "Si O2"
_cell_formula_units_Z 16
_cell_length_a 9.069364
_cell_length_b 21.477250
_cell_length_c 10.215137
_cell_angle_alpha 29.282631
_cell_angle_beta 90.544351
_cell_angle_gamma 68.749581
_cell_volume 634.769722
_symmetry_space_group_name_H-M "P -1"
_symmetry_group_IT_number 2
_symmetry_cell_setting 'triclinic'
loop_
_space_group_symop_operation_xyz
x,y,z
-x,-y,-z
loop_
_atom_site_type_symbol
_atom_site_label
_atom_site_fract_x
_atom_site_fract_y
_atom_site_fract_z
Si Si1 0.572029 0.433996 0.292025
Si Si2 0.804856 0.482280 0.360995
Si Si3 0.220690 0.222140 0.461114
Si Si4 0.699024 0.846150 0.684950
Si Si5 0.103572 0.021230 0.572262
Si Si6 0.172102 0.357703 0.465782
Si Si7 0.106298 0.795720 0.494026
Si Si8 0.404574 0.391059 0.610483
O O1 0.655243 0.521738 0.169642
O O2 0.781309 0.226028 0.600738
O O3 0.501408 0.430222 0.439682
O O4 0.339117 0.576262 0.949389
O O5 0.744038 0.464920 0.532853
O O6 0.058813 0.311854 0.622004
O O7 0.771765 0.654590 0.067124
O O8 0.384371 0.089507 0.584611
O O9 0.320000 0.221950 0.590890
O O10 0.085768 0.183406 0.571521
O O11 0.030635 0.433706 0.996235
O O12 0.500000 0.000000 0.500000
O O13 0.893966 0.827251 0.729015
O O14 0.369072 0.819093 0.945361
O O15 0.000000 0.000000 0.500000
O O16 0.984965 0.073130 0.617186
O O17 0.282051 0.372311 0.548635
#
# Coordination Sequence:
#
# PCOD9102671 Si02
#       8
#     2   2   2   2   2   2   2   2
#     4  11  23  40  69  99 127 170 223 266 327 374
#     4  11  22  40  65  93 133 167 217 270 322 380
#     4   9  18  37  66  89 126 161 219 263 319 374
#     4  10  21  41  67  95 124 174 221 257 320 399
#     4  11  25  47  67  92 135 176 212 262 333 392
#     4  10  20  38  63  95 124 168 208 274 321 367
#     4  10  21  41  67  95 128 175 216 266 316 397
#     4  12  24  41  63  99 134 167 219 270 321 384
#
# _framework density 25.205991000000001
#
# number of rings (size 3 to 8) (size 9 to 14) (size 15 to 20)
#    0.000    1.500    3.750    1.500    0.000    0.500 
#    2.250    2.500    0.000    0.000    0.000    0.000 
#    0.000    0.000    0.000    0.000    0.000    0.000 
#
# Total GULP energy -89328.420624 kJ/mol
# GULP energy per Si atom -5583.026289 kJ/mol
# Density = 2.514862 g / cm^3
# Si number density = 25.205991 Si / 1000 Ang^3
#
#
#
# Elastic Constant Matrix: (Units=GPa)
#
#
# Indices 1 2 3 4 5 6 
#
# 1 101.4270 58.0488 -3.6459 7.7764 12.6172 0.6743
# 2 58.0488 229.7500 -3.0779 -0.5669 19.7161 -3.5866
# 3 -3.6459 -3.0779 25.2010 -1.2202 12.5209 3.5784
# 4 7.7764 -0.5669 -1.2202 22.6765 1.9191 4.4230
# 5 12.6172 19.7161 12.5209 1.9191 25.9569 9.4792
# 6 0.6743 -3.5866 3.5784 4.4230 9.4792 50.0385
#
#
#
# Elastic Compliance Matrix: (Units=1/GPa)
#
#
# Indices 1 2 3 4 5 6 
#
# 1 0.012548 -0.002572 0.004305 -0.003773 -0.006257 0.000858
# 2 -0.002572 0.005444 0.002472 0.001342 -0.004537 0.000989
# 3 0.004305 0.002472 0.056542 0.003998 -0.032206 0.001823
# 4 -0.003773 0.001342 0.003998 0.046626 -0.003228 -0.003649
# 5 -0.006257 -0.004537 -0.032206 -0.003228 0.064384 -0.009849
# 6 0.000858 0.000989 0.001823 -0.003649 -0.009849 0.022102
#
#
# Mechanical properties :
#
#
# Convention : Reuss Voigt Hill
#
# Bulk Modulus (GPa) = 12.05631 51.00313 31.52972
# Shear Modulus (GPa) = 22.03791 40.07124 31.05457
#
# Velocity S-wave (km/s) = 2.96009 3.99149 3.51384
# Velocity P-wave (km/s) = 4.05910 6.44369 5.38505
#
# Compressibility (1/GPa) = 0.08294410
#
# Stress axis : x y z
#
# Youngs Moduli (GPa) = 79.69513 183.70341 17.68610
#
# Poissons Ratio (x) = 0.47242 -0.07615
# Poissons Ratio (y) = 0.20495 -0.04372
# Poissons Ratio (z) = -0.34313 -0.45406
#
# Static dielectric constant tensor:
#      x y z
#    x 2.003910 -0.053750 -0.043620 
#    y -0.053750 2.117160 -0.031680 
#    z -0.043620 -0.031680 2.176600 
# 
# From -- ./inp_files/406130.got.cif
#   From: 2010.05.17/outbox.cif.g08.bks.cpg/sg2_204_cif.got.tgz:406130.got - 2010.06.03 11:33:40.
