data_PCOD9102404
_publ_section_title
;
Structure prediction by ZEFSAII (Michael W. Deem and Ramdas Pophale) SiO2 
 PCOD9102404
Probable space group: P -1
;
_chemical_formula_sum "Si O2"
_cell_formula_units_Z 16
_cell_length_a 14.362601
_cell_length_b 27.024418
_cell_length_c 7.586415
_cell_angle_alpha 45.373870
_cell_angle_beta 127.792317
_cell_angle_gamma 159.999506
_cell_volume 703.116496
_symmetry_space_group_name_H-M "P -1"
_symmetry_group_IT_number 2
_symmetry_cell_setting 'triclinic'
loop_
_space_group_symop_operation_xyz
x,y,z
-x,-y,-z
loop_
_atom_site_type_symbol
_atom_site_label
_atom_site_fract_x
_atom_site_fract_y
_atom_site_fract_z
Si Si1 0.798919 0.581267 0.684714
Si Si2 0.416253 0.851004 0.245282
Si Si3 0.723297 0.397243 0.929344
Si Si4 0.244247 0.498452 0.649944
Si Si5 0.257971 0.095928 0.363167
Si Si6 0.755761 0.777264 0.759048
Si Si7 0.528895 0.511313 0.244349
Si Si8 0.385096 0.932035 0.337051
O O1 0.770877 0.484236 0.909289
O O2 0.556715 0.475941 0.535073
O O3 0.764118 0.606723 0.759142
O O4 0.068039 0.744094 0.478879
O O5 0.531976 0.835256 0.439468
O O6 0.480934 0.924268 0.325314
O O7 0.085237 0.678915 0.259199
O O8 0.562521 0.970018 0.957874
O O9 0.712645 0.430217 0.648726
O O10 0.442624 0.205953 0.128092
O O11 0.000000 0.500000 0.000000
O O12 0.453208 0.637686 0.689430
O O13 0.376099 0.491665 0.786935
O O14 0.170727 0.126146 0.251779
O O15 0.975173 0.900649 0.544293
O O16 0.733286 0.687193 0.032097
O O17 0.500000 0.000000 0.500000
#
# Coordination Sequence:
#
# PCOD9102404 Si02
#       8
#     2   2   2   2   2   2   2   2
#     4  10  20  38  62  96 122 173 221 271 331 396
#     4  11  24  46  68  98 141 173 223 284 337 398
#     4  11  20  42  66  87 130 175 217 265 336 401
#     4  11  24  42  67 100 126 176 228 278 333 401
#     4  11  24  44  65  93 135 181 213 278 337 398
#     4  11  25  41  65  96 130 172 226 271 337 402
#     4  10  20  39  67  87 130 169 220 277 332 396
#     4  11  24  41  68 101 132 171 226 276 336 394
#
# _framework density 22.75583
#
# number of rings (size 3 to 8) (size 9 to 14) (size 15 to 20)
#    0.000    1.250    5.000    1.125    3.500    2.000 
#    4.500    0.000    0.000    0.000    0.000    0.000 
#    0.000    0.000    0.000    0.000    0.000    0.000 
#
# Total GULP energy -89175.604379 kJ/mol
# GULP energy per Si atom -5573.475274 kJ/mol
# Density = 2.270404 g / cm^3
# Si number density = 22.755830 Si / 1000 Ang^3
#
#
#
# Elastic Constant Matrix: (Units=GPa)
#
#
# Indices 1 2 3 4 5 6 
#
# 1 84.8135 9.4949 41.6996 7.6997 -1.6545 11.2037
# 2 9.4949 58.5420 23.6774 -1.7096 -6.0215 6.9070
# 3 41.6996 23.6774 162.0095 -19.4711 -9.5104 13.9670
# 4 7.6997 -1.7096 -19.4711 35.3693 9.8867 -4.4747
# 5 -1.6545 -6.0215 -9.5104 9.8867 46.7732 3.7247
# 6 11.2037 6.9070 13.9670 -4.4747 3.7247 22.2500
#
#
#
# Elastic Compliance Matrix: (Units=1/GPa)
#
#
# Indices 1 2 3 4 5 6 
#
# 1 0.015378 -0.000057 -0.004095 -0.006950 0.001718 -0.006841
# 2 -0.000057 0.018883 -0.002353 -0.001791 0.002741 -0.005175
# 3 -0.004095 -0.002353 0.008325 0.005097 0.000283 -0.001456
# 4 -0.006950 -0.001791 0.005097 0.035862 -0.007766 0.009368
# 5 0.001718 0.002741 0.000283 -0.007766 0.024089 -0.007488
# 6 -0.006841 -0.005175 -0.001456 0.009368 -0.007488 0.054047
#
#
# Mechanical properties :
#
#
# Convention : Reuss Voigt Hill
#
# Bulk Modulus (GPa) = 33.81095 50.56765 42.18930
# Shear Modulus (GPa) = 27.86253 36.24471 32.05362
#
# Velocity S-wave (km/s) = 3.50296 3.99528 3.75719
# Velocity P-wave (km/s) = 5.59029 6.59947 6.11573
#
# Compressibility (1/GPa) = 0.02957622
#
# Stress axis : x y z
#
# Youngs Moduli (GPa) = 65.02677 52.95770 120.11926
#
# Poissons Ratio (x) = 0.00303 0.49184
# Poissons Ratio (y) = 0.00373 0.28266
# Poissons Ratio (z) = 0.26626 0.12462
#
# Static dielectric constant tensor:
#      x y z
#    x 1.956740 -0.044790 -0.053550 
#    y -0.044790 1.895570 0.025430 
#    z -0.053550 0.025430 1.905570 
# 
# From -- ./inp_files/321039.got.cif
#   From: 2010.05.17/outbox.cif.g08.bks.cpg/sg2_161_cif.got.tgz:321039.got - 2010.06.03 11:33:40.
