data_PCOD9102907
_publ_section_title
;
Structure prediction by ZEFSAII (Michael W. Deem and Ramdas Pophale) SiO2 
 PCOD9102907
Probable space group: P -1
;
_chemical_formula_sum "Si O2"
_cell_formula_units_Z 14
_cell_length_a 18.006620
_cell_length_b 11.795275
_cell_length_c 10.523086
_cell_angle_alpha 138.384627
_cell_angle_beta 29.038567
_cell_angle_gamma 150.518129
_cell_volume 533.073050
_symmetry_space_group_name_H-M "P -1"
_symmetry_group_IT_number 2
_symmetry_cell_setting 'triclinic'
loop_
_space_group_symop_operation_xyz
x,y,z
-x,-y,-z
loop_
_atom_site_type_symbol
_atom_site_label
_atom_site_fract_x
_atom_site_fract_y
_atom_site_fract_z
Si Si1 0.725520 0.732689 0.814387
Si Si2 0.277839 0.911855 0.791108
Si Si3 0.366434 0.812594 0.931359
Si Si4 0.148231 0.389494 0.268770
Si Si5 0.320534 0.430623 0.802682
Si Si6 0.772847 0.016012 0.354212
Si Si7 0.070388 0.426350 0.679621
O O1 0.868420 0.792385 0.772088
O O2 0.816221 0.663530 0.519680
O O3 0.500000 0.500000 0.000000
O O4 0.716796 0.927395 0.983571
O O5 0.199226 0.931622 0.792088
O O6 0.139236 0.652551 0.830797
O O7 0.500000 0.000000 0.500000
O O8 0.259105 0.556221 0.925557
O O9 0.539657 0.897408 0.639526
O O10 0.171143 0.777418 0.154470
O O11 0.500000 0.000000 0.000000
O O12 0.164629 0.528382 0.479046
O O13 0.942600 0.249604 0.375624
O O14 0.338698 0.518269 0.993816
O O15 0.500000 0.500000 0.500000
O O16 0.207924 0.167757 0.784282
#
# Coordination Sequence:
#
# PCOD9102907 Si02
#       7
#     2   2   2   2   2   2   2
#     4  10  21  41  63  91 129 162 213 264 319 379
#     4  12  23  41  69  93 125 171 220 266 317 388
#     4  11  22  38  57  94 138 164 207 266 324 380
#     4  10  20  38  64  92 129 167 208 264 323 382
#     4  10  22  35  57  93 132 169 202 261 324 372
#     4  11  22  39  62  95 129 167 213 266 320 381
#     4  10  23  37  65  95 126 170 215 260 324 375
#
# _framework density 26.262816999999998
#
# number of rings (size 3 to 8) (size 9 to 14) (size 15 to 20)
#    0.857    0.571    4.286    1.286    4.000    1.143 
#    2.571    0.714    0.000    0.857    0.000    0.000 
#    0.000    0.000    0.000    0.000    0.000    0.000 
#
# Total GULP energy -78115.365632 kJ/mol
# GULP energy per Si atom -5579.668974 kJ/mol
# Density = 2.620304 g / cm^3
# Si number density = 26.262817 Si / 1000 Ang^3
#
#
#
# Elastic Constant Matrix: (Units=GPa)
#
#
# Indices 1 2 3 4 5 6 
#
# 1 70.7370 31.0991 12.1265 -4.9565 8.3102 -10.7686
# 2 31.0991 149.0459 80.9393 10.4436 -8.4619 -4.8596
# 3 12.1265 80.9393 128.7553 8.4319 -23.3640 -14.3424
# 4 -4.9565 10.4436 8.4319 49.2887 -6.7604 -1.4150
# 5 8.3102 -8.4619 -23.3640 -6.7604 42.3685 -9.8180
# 6 -10.7686 -4.8596 -14.3424 -1.4150 -9.8180 40.1801
#
#
#
# Elastic Compliance Matrix: (Units=1/GPa)
#
#
# Indices 1 2 3 4 5 6 
#
# 1 0.016830 -0.004148 0.000862 0.002201 -0.002422 0.003803
# 2 -0.004148 0.011528 -0.007407 -0.001944 -0.001952 -0.002907
# 3 0.000862 -0.007407 0.014461 0.000449 0.007891 0.006441
# 4 0.002201 -0.001944 0.000449 0.021360 0.003318 0.002078
# 5 -0.002422 -0.001952 0.007891 0.003318 0.030786 0.009571
# 6 0.003803 -0.002907 0.006441 0.002078 0.009571 0.030267
#
#
# Mechanical properties :
#
#
# Convention : Reuss Voigt Hill
#
# Bulk Modulus (GPa) = 46.65283 66.31870 56.48576
# Shear Modulus (GPa) = 32.51816 41.32569 36.92192
#
# Velocity S-wave (km/s) = 3.52260 3.97109 3.75355
# Velocity P-wave (km/s) = 5.86066 6.80683 6.35139
#
# Compressibility (1/GPa) = 0.02143493
#
# Stress axis : x y z
#
# Youngs Moduli (GPa) = 59.41734 86.74883 69.14954
#
# Poissons Ratio (x) = 0.35980 -0.05962
# Poissons Ratio (y) = 0.24644 0.51217
# Poissons Ratio (z) = -0.05123 0.64252
#
# Static dielectric constant tensor:
#      x y z
#    x 2.060740 -0.025220 0.021440 
#    y -0.025220 2.073960 0.054720 
#    z 0.021440 0.054720 2.202190 
# 
# From -- ./inp_files/464097.got.cif
#   From: 2010.05.17/outbox.cif.g08.bks.cpg/sg2_233_cif.got.tgz:464097.got - 2010.06.03 11:33:40.
