data_PCOD9102911
_publ_section_title
;
Structure prediction by ZEFSAII (Michael W. Deem and Ramdas Pophale) SiO2 
 PCOD9102911
Probable space group: P -1
;
_chemical_formula_sum "Si O2"
_cell_formula_units_Z 16
_cell_length_a 17.125889
_cell_length_b 7.849249
_cell_length_c 18.202841
_cell_angle_alpha 125.968498
_cell_angle_beta 20.709922
_cell_angle_gamma 120.090293
_cell_volume 690.410967
_symmetry_space_group_name_H-M "P -1"
_symmetry_group_IT_number 2
_symmetry_cell_setting 'triclinic'
loop_
_space_group_symop_operation_xyz
x,y,z
-x,-y,-z
loop_
_atom_site_type_symbol
_atom_site_label
_atom_site_fract_x
_atom_site_fract_y
_atom_site_fract_z
Si Si1 0.649633 0.623676 0.680461
Si Si2 0.825385 0.009430 0.589385
Si Si3 0.426675 0.339362 0.896705
Si Si4 0.609444 0.265990 0.506099
Si Si5 0.091036 0.076132 0.070038
Si Si6 0.503855 0.157377 0.421746
Si Si7 0.160123 0.040320 0.595832
Si Si8 0.882247 0.465010 0.670219
O O1 0.630393 0.872270 0.741505
O O2 0.494458 0.560517 0.866118
O O3 0.606252 0.471745 0.612615
O O4 0.909877 0.568146 0.463484
O O5 0.932144 0.914231 0.393548
O O6 0.765311 0.262737 0.704694
O O7 0.000000 0.000000 0.500000
O O8 0.643430 0.161873 0.645310
O O9 0.232614 0.266752 0.999844
O O10 0.307864 0.358356 0.084605
O O11 0.497207 0.308868 0.536359
O O12 0.868758 0.156785 0.240090
O O13 0.513268 0.075173 0.584679
O O14 0.008398 0.019890 0.209927
O O15 0.260733 0.879607 0.837036
O O16 0.299580 0.201965 0.554987
O O17 0.000000 0.500000 0.500000
#
# Coordination Sequence:
#
# PCOD9102911 Si02
#       8
#     2   2   2   2   2   2   2   2
#     4  11  21  38  56  83 120 150 185 236 286 344
#     4  10  24  41  58  81 116 156 191 236 290 345
#     4  11  19  35  62  84 111 148 192 241 286 332
#     4  10  17  33  55  91 118 148 189 228 289 336
#     4  10  16  32  58  88 118 146 187 238 286 327
#     4   9  19  30  59  89 117 146 191 237 277 339
#     4  10  20  38  58  86 115 151 194 241 283 330
#     4  11  23  39  61  84 108 149 197 240 289 336
#
# _framework density 23.174603000000001
#
# number of rings (size 3 to 8) (size 9 to 14) (size 15 to 20)
#    0.000    1.750    5.000    1.875    0.000    2.500 
#    0.000    9.375    0.000    0.750    0.000    0.000 
#    0.000    0.000    0.000    0.000    0.000    0.000 
#
# Total GULP energy -89228.594672 kJ/mol
# GULP energy per Si atom -5576.787167 kJ/mol
# Density = 2.312186 g / cm^3
# Si number density = 23.174603 Si / 1000 Ang^3
#
#
#
# Elastic Constant Matrix: (Units=GPa)
#
#
# Indices 1 2 3 4 5 6 
#
# 1 152.5953 17.6440 27.1159 -1.6823 15.9446 37.7283
# 2 17.6440 73.5449 24.4131 -16.8719 10.0156 18.3231
# 3 27.1159 24.4131 114.1381 -17.1756 16.2762 6.6208
# 4 -1.6823 -16.8719 -17.1756 21.2101 3.9183 2.5129
# 5 15.9446 10.0156 16.2762 3.9183 27.1082 4.0560
# 6 37.7283 18.3231 6.6208 2.5129 4.0560 27.4685
#
#
#
# Elastic Compliance Matrix: (Units=1/GPa)
#
#
# Indices 1 2 3 4 5 6 
#
# 1 0.011410 0.004605 -0.000604 0.007429 -0.006380 -0.018335
# 2 0.004605 0.026489 0.000660 0.027327 -0.013144 -0.024712
# 3 -0.000604 0.000660 0.011894 0.011938 -0.008407 -0.002328
# 4 0.007429 0.027327 0.011938 0.088696 -0.029201 -0.035113
# 5 -0.006380 -0.013144 -0.008407 -0.029201 0.052603 0.014461
# 6 -0.018335 -0.024712 -0.002328 -0.035113 0.014461 0.079712
#
#
# Mechanical properties :
#
#
# Convention : Reuss Voigt Hill
#
# Bulk Modulus (GPa) = 16.91629 53.18048 35.04838
# Shear Modulus (GPa) = 17.78175 33.23105 25.50640
#
# Velocity S-wave (km/s) = 2.77301 3.79085 3.32116
# Velocity P-wave (km/s) = 4.19144 6.49294 5.46473
#
# Compressibility (1/GPa) = 0.05911463
#
# Stress axis : x y z
#
# Youngs Moduli (GPa) = 87.64154 37.75109 84.07653
#
# Poissons Ratio (x) = -0.17382 0.05080
# Poissons Ratio (y) = -0.40355 -0.05552
# Poissons Ratio (z) = 0.05295 -0.02493
#
# Static dielectric constant tensor:
#      x y z
#    x 2.027410 -0.061760 0.003190 
#    y -0.061760 1.951930 0.004650 
#    z 0.003190 0.004650 1.838290 
# 
# From -- ./inp_files/575559.got.cif
#   From: 2010.05.17/outbox.cif.g08.bks.cpg/sg2_288_cif.got.tgz:575559.got - 2010.06.03 11:33:40.
