data_PCOD9102313
_publ_section_title
;
Structure prediction by ZEFSAII (Michael W. Deem and Ramdas Pophale) SiO2 
 PCOD9102313
Probable space group: P -1
;
_chemical_formula_sum "Si O2"
_cell_formula_units_Z 12
_cell_length_a 11.315341
_cell_length_b 9.639498
_cell_length_c 11.920307
_cell_angle_alpha 35.416776
_cell_angle_beta 58.719192
_cell_angle_gamma 50.940274
_cell_volume 585.030506
_symmetry_space_group_name_H-M "P -1"
_symmetry_group_IT_number 2
_symmetry_cell_setting 'triclinic'
loop_
_space_group_symop_operation_xyz
x,y,z
-x,-y,-z
loop_
_atom_site_type_symbol
_atom_site_label
_atom_site_fract_x
_atom_site_fract_y
_atom_site_fract_z
Si Si1 0.847596 0.169846 0.330135
Si Si2 0.344375 0.709985 0.989358
Si Si3 0.035727 0.771387 0.990711
Si Si4 0.116179 0.606184 0.616497
Si Si5 0.330158 0.059138 0.581117
Si Si6 0.196581 0.642727 0.303014
O O1 0.932400 0.275762 0.127000
O O2 0.799923 0.353828 0.340762
O O3 0.721152 0.123165 0.351246
O O4 0.961777 0.876386 0.505959
O O5 0.197891 0.673735 0.036567
O O6 0.329447 0.979458 0.763552
O O7 0.500000 0.500000 0.000000
O O8 0.331026 0.689951 0.142299
O O9 0.951423 0.091009 0.829274
O O10 0.934294 0.631176 0.181911
O O11 0.200316 0.604902 0.459515
O O12 0.213190 0.363431 0.430096
O O13 0.500000 0.000000 0.500000
#
# Coordination Sequence:
#
# PCOD9102313 Si02
#       6
#     2   2   2   2   2   2
#     4   9  21  37  60  92 119 158 200 244 301 358
#     4  11  22  36  56  90 125 157 198 244 302 357
#     4  10  21  36  63  90 123 155 202 253 295 353
#     4  10  20  38  62  91 122 154 198 251 301 355
#     4  11  22  39  62  85 122 160 199 249 301 357
#     4  11  22  38  62  92 122 154 203 253 303 349
#
# _framework density 20.511749999999999
#
# number of rings (size 3 to 8) (size 9 to 14) (size 15 to 20)
#    0.000    1.667    1.667    3.000    0.000    9.333 
#    0.000    0.833    0.000    2.000    0.000    0.000 
#    0.000    0.000    0.000    0.000    0.000    0.000 
#
# Total GULP energy -66915.823622 kJ/mol
# GULP energy per Si atom -5576.318635 kJ/mol
# Density = 2.046506 g / cm^3
# Si number density = 20.511750 Si / 1000 Ang^3
#
#
#
# Elastic Constant Matrix: (Units=GPa)
#
#
# Indices 1 2 3 4 5 6 
#
# 1 60.1953 57.9475 34.1220 12.8903 -5.7440 7.0654
# 2 57.9475 122.9136 66.7655 23.0091 -1.1719 4.0079
# 3 34.1220 66.7655 171.8172 25.5016 -0.2765 6.1769
# 4 12.8903 23.0091 25.5016 41.2385 -6.2922 5.1504
# 5 -5.7440 -1.1719 -0.2765 -6.2922 23.4717 -0.9136
# 6 7.0654 4.0079 6.1769 5.1504 -0.9136 21.1611
#
#
#
# Elastic Compliance Matrix: (Units=1/GPa)
#
#
# Indices 1 2 3 4 5 6 
#
# 1 0.032770 -0.014955 -0.000472 0.000445 0.007084 -0.007774
# 2 -0.014955 0.017656 -0.003417 -0.004073 -0.003775 0.003475
# 3 -0.000472 -0.003417 0.007676 -0.002738 -0.000961 -0.000811
# 4 0.000445 -0.004073 -0.002738 0.029939 0.007684 -0.005533
# 5 0.007084 -0.003775 -0.000961 0.007684 0.046150 -0.001247
# 6 -0.007774 0.003475 -0.000811 -0.005533 -0.001247 0.050723
#
#
# Mechanical properties :
#
#
# Convention : Reuss Voigt Hill
#
# Bulk Modulus (GPa) = 48.98812 74.73290 61.86051
# Shear Modulus (GPa) = 21.79534 30.24700 26.02117
#
# Velocity S-wave (km/s) = 3.26326 3.84424 3.56560
# Velocity P-wave (km/s) = 6.17521 7.49784 6.86844
#
# Compressibility (1/GPa) = 0.02041311
#
# Stress axis : x y z
#
# Youngs Moduli (GPa) = 30.51565 56.63833 130.28228
#
# Poissons Ratio (x) = 0.84705 0.06145
# Poissons Ratio (y) = 0.45637 0.44520
# Poissons Ratio (z) = 0.01439 0.19354
#
# Static dielectric constant tensor:
#      x y z
#    x 1.726610 0.019780 0.023680 
#    y 0.019780 1.789530 0.018610 
#    z 0.023680 0.018610 1.810730 
# 
# From -- ./inp_files/244277.got.cif
#   From: 2010.05.17/outbox.cif.g08.bks.cpg/sg2_123_cif.got.tgz:244277.got - 2010.06.03 11:33:40.
