data_PCOD9102440
_publ_section_title
;
Structure prediction by ZEFSAII (Michael W. Deem and Ramdas Pophale) SiO2 
 PCOD9102440
Probable space group: P -1
;
_chemical_formula_sum "Si O2"
_cell_formula_units_Z 12
_cell_length_a 5.320628
_cell_length_b 6.920581
_cell_length_c 14.978655
_cell_angle_alpha 106.128466
_cell_angle_beta 111.930568
_cell_angle_gamma 85.398240
_cell_volume 491.322093
_symmetry_space_group_name_H-M "P -1"
_symmetry_group_IT_number 2
_symmetry_cell_setting 'triclinic'
loop_
_space_group_symop_operation_xyz
x,y,z
-x,-y,-z
loop_
_atom_site_type_symbol
_atom_site_label
_atom_site_fract_x
_atom_site_fract_y
_atom_site_fract_z
Si Si1 0.453956 0.758351 0.739211
Si Si2 0.316776 0.366944 0.766778
Si Si3 0.087360 0.954899 0.406166
Si Si4 0.730983 0.365156 0.968415
Si Si5 0.919052 0.234309 0.149738
Si Si6 0.499245 0.736332 0.541418
O O1 0.417737 0.516871 0.720814
O O2 0.271074 0.849208 0.806011
O O3 0.381451 0.790455 0.630456
O O4 0.769036 0.813514 0.804160
O O5 0.123506 0.523548 0.813475
O O6 0.135968 0.179538 0.689325
O O7 0.576688 0.301122 0.849337
O O8 0.346623 0.817586 0.444533
O O9 0.205370 0.156799 0.403323
O O10 0.000000 0.000000 0.500000
O O11 0.808593 0.198558 0.030418
O O12 0.500000 0.500000 0.000000
O O13 0.000000 0.500000 0.000000
O O14 0.500000 0.500000 0.500000
#
# Coordination Sequence:
#
# PCOD9102440 Si02
#       6
#     2   2   2   2   2   2
#     4  10  20  34  62  89 123 167 214 261 323 387
#     4   9  20  33  61  91 130 167 216 266 328 385
#     4  11  25  43  63  99 132 171 225 277 330 396
#     4  10  16  32  56  95 127 164 213 267 320 392
#     4   9  18  33  59  95 123 165 219 260 321 391
#     4  11  25  43  67  91 134 178 225 274 335 393
#
# _framework density 24.423894000000001
#
# number of rings (size 3 to 8) (size 9 to 14) (size 15 to 20)
#    1.000    1.000    1.667    2.000    2.333    2.667 
#    0.000    0.000    0.000    2.000    0.000    0.000 
#    0.000    0.000    0.000    0.000    0.000    0.000 
#
# Total GULP energy -67019.447971 kJ/mol
# GULP energy per Si atom -5584.953998 kJ/mol
# Density = 2.436830 g / cm^3
# Si number density = 24.423894 Si / 1000 Ang^3
#
#
#
# Elastic Constant Matrix: (Units=GPa)
#
#
# Indices 1 2 3 4 5 6 
#
# 1 120.1002 26.8569 29.5463 2.7838 24.9093 35.2790
# 2 26.8569 81.7749 40.9423 -1.7161 6.7262 19.7829
# 3 29.5463 40.9423 156.4387 -10.1656 38.4547 23.0693
# 4 2.7838 -1.7161 -10.1656 38.8373 6.2916 -4.7440
# 5 24.9093 6.7262 38.4547 6.2916 39.6896 -0.0823
# 6 35.2790 19.7829 23.0693 -4.7440 -0.0823 45.4357
#
#
#
# Elastic Compliance Matrix: (Units=1/GPa)
#
#
# Indices 1 2 3 4 5 6 
#
# 1 0.013518 -0.002045 0.002022 -0.000199 -0.010087 -0.010671
# 2 -0.002045 0.015386 -0.003855 -0.000995 0.002562 -0.003253
# 3 0.002022 -0.003855 0.010918 0.003839 -0.011813 -0.005056
# 4 -0.000199 -0.000995 0.003839 0.028194 -0.007892 0.001568
# 5 -0.010087 0.002562 -0.011813 -0.007892 0.043814 0.011970
# 6 -0.010671 -0.003253 -0.005056 0.001568 0.011970 0.034464
#
#
# Mechanical properties :
#
#
# Convention : Reuss Voigt Hill
#
# Bulk Modulus (GPa) = 31.18568 61.44496 46.31532
# Shear Modulus (GPa) = 30.35142 42.19041 36.27092
#
# Velocity S-wave (km/s) = 3.52901 4.16074 3.85783
# Velocity P-wave (km/s) = 5.42231 6.94944 6.23282
#
# Compressibility (1/GPa) = 0.03206600
#
# Stress axis : x y z
#
# Youngs Moduli (GPa) = 73.97794 64.99470 91.59022
#
# Poissons Ratio (x) = 0.13291 -0.18523
# Poissons Ratio (y) = 0.15128 0.35311
# Poissons Ratio (z) = -0.14961 0.25057
#
# Static dielectric constant tensor:
#      x y z
#    x 2.056240 -0.075710 0.008760 
#    y -0.075710 1.960000 -0.075950 
#    z 0.008760 -0.075950 1.970200 
# 
# From -- ./inp_files/547327.got.cif
#   From: 2010.05.17/outbox.cif.g08.bks.cpg/sg2_274_cif.got.tgz:547327.got - 2010.06.03 11:33:40.
