data_PCOD9102162
_publ_section_title
;
Structure prediction by ZEFSAII (Michael W. Deem and Ramdas Pophale) SiO2 
 PCOD9102162
Probable space group: P -1
;
_chemical_formula_sum "Si O2"
_cell_formula_units_Z 16
_cell_length_a 7.057446
_cell_length_b 11.636127
_cell_length_c 20.464052
_cell_angle_alpha 152.813881
_cell_angle_beta 106.266787
_cell_angle_gamma 88.816772
_cell_volume 629.121586
_symmetry_space_group_name_H-M "P -1"
_symmetry_group_IT_number 2
_symmetry_cell_setting 'triclinic'
loop_
_space_group_symop_operation_xyz
x,y,z
-x,-y,-z
loop_
_atom_site_type_symbol
_atom_site_label
_atom_site_fract_x
_atom_site_fract_y
_atom_site_fract_z
Si Si1 0.044589 0.192746 0.462689
Si Si2 0.176574 0.998327 0.965487
Si Si3 0.577489 0.458915 0.824157
Si Si4 0.655466 0.287150 0.345885
Si Si5 0.177312 0.461851 0.743788
Si Si6 0.266772 0.245053 0.882780
Si Si7 0.317582 0.815192 0.481905
Si Si8 0.262832 0.356125 0.332540
O O1 0.187044 0.482178 0.578071
O O2 0.176946 0.270800 0.584519
O O3 0.802887 0.145684 0.444234
O O4 0.957265 0.910040 0.264714
O O5 0.268956 0.797539 0.901478
O O6 0.340070 0.322214 0.118216
O O7 0.005351 0.818163 0.798410
O O8 0.000000 0.000000 0.000000
O O9 0.327384 0.430703 0.797928
O O10 0.519243 0.132094 0.640700
O O11 0.745007 0.606332 0.976090
O O12 0.384817 0.166684 0.246196
O O13 0.704422 0.486519 0.515884
O O14 0.700786 0.025560 0.229542
O O15 0.903522 0.331328 0.661784
O O16 0.500000 0.500000 0.000000
O O17 0.386022 0.592861 0.405077
#
# Coordination Sequence:
#
# PCOD9102162 Si02
#       8
#     2   2   2   2   2   2   2   2
#     4  10  20  38  62  87 114 152 203 235 288 347
#     4  11  24  38  58  86 124 153 195 242 293 345
#     4  12  22  37  64  89 118 152 194 248 299 331
#     4  11  21  36  66  83 114 162 196 232 291 354
#     4   9  21  40  59  86 114 156 200 240 277 361
#     4  12  21  36  62  97 118 143 192 252 296 335
#     4   9  20  40  59  82 120 150 192 243 289 343
#     4  10  22  41  55  86 120 158 197 233 285 363
#
# _framework density 25.432285
#
# number of rings (size 3 to 8) (size 9 to 14) (size 15 to 20)
#    0.750    0.750    2.500    2.625    3.500    0.000 
#    0.000    5.000    0.000    4.500    0.000    0.000 
#    0.000    0.000    0.000    0.000    0.000    0.000 
#
# Total GULP energy -89369.203363 kJ/mol
# GULP energy per Si atom -5585.575210 kJ/mol
# Density = 2.537440 g / cm^3
# Si number density = 25.432285 Si / 1000 Ang^3
#
#
#
# Elastic Constant Matrix: (Units=GPa)
#
#
# Indices 1 2 3 4 5 6 
#
# 1 46.2281 15.7081 6.7338 0.5015 -2.0096 3.9601
# 2 15.7081 67.8316 23.4813 7.6022 2.4592 6.6318
# 3 6.7338 23.4813 102.0459 10.4519 2.9034 15.2517
# 4 0.5015 7.6022 10.4519 58.1617 5.2350 4.0928
# 5 -2.0096 2.4592 2.9034 5.2350 13.4228 1.5696
# 6 3.9601 6.6318 15.2517 4.0928 1.5696 27.2985
#
#
#
# Elastic Compliance Matrix: (Units=1/GPa)
#
#
# Indices 1 2 3 4 5 6 
#
# 1 0.023917 -0.005465 -0.000128 0.000268 0.004784 -0.002386
# 2 -0.005465 0.017508 -0.003265 -0.001325 -0.002652 -0.001285
# 3 -0.000128 -0.003265 0.011510 -0.001188 -0.000817 -0.005394
# 4 0.000268 -0.001325 -0.001188 0.018255 -0.006413 -0.001422
# 5 0.004784 -0.002652 -0.000817 -0.006413 0.078750 -0.003160
# 6 -0.002386 -0.001285 -0.005394 -0.001422 -0.003160 0.040699
#
#
# Mechanical properties :
#
#
# Convention : Reuss Voigt Hill
#
# Bulk Modulus (GPa) = 28.39208 34.21689 31.30449
# Shear Modulus (GPa) = 22.71758 31.12210 26.91984
#
# Velocity S-wave (km/s) = 2.99198 3.50197 3.25698
# Velocity P-wave (km/s) = 4.80874 5.46215 5.14583
#
# Compressibility (1/GPa) = 0.03522109
#
# Stress axis : x y z
#
# Youngs Moduli (GPa) = 41.81169 57.11537 86.87890
#
# Poissons Ratio (x) = 0.31211 0.01110
# Poissons Ratio (y) = 0.22848 0.28365
# Poissons Ratio (z) = 0.00534 0.18647
#
# Static dielectric constant tensor:
#      x y z
#    x 2.026510 0.000520 0.033400 
#    y 0.000520 2.047780 -0.036350 
#    z 0.033400 -0.036350 2.095550 
# 
# From -- ./inp_files/607678.got.cif
#   From: 2010.05.17/outbox.cif.g08.bks.cpg/sg2_304_cif.got.tgz:607678.got - 2010.06.03 11:33:40.
