data_PCOD9102046
_publ_section_title
;
Structure prediction by ZEFSAII (Michael W. Deem and Ramdas Pophale) SiO2 
 PCOD9102046
Probable space group: P -1
;
_chemical_formula_sum "Si O2"
_cell_formula_units_Z 16
_cell_length_a 11.136394
_cell_length_b 9.670293
_cell_length_c 8.158326
_cell_angle_alpha 69.131906
_cell_angle_beta 63.472150
_cell_angle_gamma 54.128947
_cell_volume 631.561872
_symmetry_space_group_name_H-M "P -1"
_symmetry_group_IT_number 2
_symmetry_cell_setting 'triclinic'
loop_
_space_group_symop_operation_xyz
x,y,z
-x,-y,-z
loop_
_atom_site_type_symbol
_atom_site_label
_atom_site_fract_x
_atom_site_fract_y
_atom_site_fract_z
Si Si1 0.820317 0.550478 0.069190
Si Si2 0.611064 0.860191 0.855805
Si Si3 0.232778 0.928314 0.297082
Si Si4 0.670840 0.325262 0.943752
Si Si5 0.629575 0.094562 0.301839
Si Si6 0.116263 0.575138 0.416850
Si Si7 0.661839 0.756117 0.400320
Si Si8 0.906359 0.220834 0.329777
O O1 0.722883 0.683443 0.215878
O O2 0.830521 0.372556 0.180974
O O3 0.725370 0.662698 0.924203
O O4 0.000000 0.500000 0.000000
O O5 0.500540 0.876681 0.768976
O O6 0.721512 0.936606 0.728168
O O7 0.500000 0.000000 0.000000
O O8 0.339138 0.778526 0.166631
O O9 0.204777 0.843386 0.507853
O O10 0.067599 0.052544 0.253092
O O11 0.817149 0.351192 0.795241
O O12 0.500000 0.500000 0.000000
O O13 0.702503 0.198570 0.133011
O O14 0.521921 0.162734 0.498647
O O15 0.722793 0.887825 0.345691
O O16 0.270131 0.405197 0.454844
O O17 0.063591 0.700366 0.554530
O O18 0.000000 0.500000 0.500000
#
# Coordination Sequence:
#
# PCOD9102046 Si02
#       8
#     2   2   2   2   2   2   2   2
#     4  11  21  39  64  97 129 170 219 270 324 386
#     4  12  22  39  67  98 126 167 225 262 315 400
#     4  10  20  38  61  93 125 171 211 266 327 386
#     4  11  21  39  63  92 128 169 217 267 330 385
#     4  11  23  40  66  93 130 173 213 269 332 388
#     4  10  22  39  64  94 126 169 217 264 326 395
#     4  10  22  40  62  94 130 169 213 269 332 385
#     4   9  21  38  62  88 130 167 208 267 331 381
#
# _framework density 25.334015999999998
#
# number of rings (size 3 to 8) (size 9 to 14) (size 15 to 20)
#    0.000    1.500    5.000    0.000    1.750    0.000 
#    0.000    2.500    0.000    0.000    0.000    0.000 
#    0.000    0.000    0.000    0.000    0.000    0.000 
#
# Total GULP energy -89406.465053 kJ/mol
# GULP energy per Si atom -5587.904066 kJ/mol
# Density = 2.527635 g / cm^3
# Si number density = 25.334016 Si / 1000 Ang^3
#
#
#
# Elastic Constant Matrix: (Units=GPa)
#
#
# Indices 1 2 3 4 5 6 
#
# 1 70.0392 28.3906 31.7402 5.3702 -22.6038 15.3504
# 2 28.3906 151.1368 54.2499 -15.1820 -6.5512 -6.1936
# 3 31.7402 54.2499 122.4751 -24.2213 -22.9026 4.1120
# 4 5.3702 -15.1820 -24.2213 57.7870 12.5308 -1.3595
# 5 -22.6038 -6.5512 -22.9026 12.5308 28.8610 -15.7949
# 6 15.3504 -6.1936 4.1120 -1.3595 -15.7949 40.3332
#
#
#
# Elastic Compliance Matrix: (Units=1/GPa)
#
#
# Indices 1 2 3 4 5 6 
#
# 1 0.024054 -0.003681 -0.002810 -0.008328 0.017912 -0.002700
# 2 -0.003681 0.008562 -0.003113 0.002047 -0.003310 0.001806
# 3 -0.002810 -0.003113 0.012013 0.003153 0.006323 0.001949
# 4 -0.008328 0.002047 0.003153 0.023045 -0.014517 -0.001746
# 5 0.017912 -0.003310 0.006323 -0.014517 0.069515 0.018763
# 6 -0.002700 0.001806 0.001949 -0.001746 0.018763 0.033189
#
#
# Mechanical properties :
#
#
# Convention : Reuss Voigt Hill
#
# Bulk Modulus (GPa) = 39.33916 63.60140 51.47028
# Shear Modulus (GPa) = 25.24508 40.68095 32.96301
#
# Velocity S-wave (km/s) = 3.16015 4.01157 3.61104
# Velocity P-wave (km/s) = 5.37376 6.82763 6.14385
#
# Compressibility (1/GPa) = 0.02541997
#
# Stress axis : x y z
#
# Youngs Moduli (GPa) = 41.57293 116.80186 83.24493
#
# Poissons Ratio (x) = 0.42989 0.23395
# Poissons Ratio (y) = 0.15301 0.25917
# Poissons Ratio (z) = 0.11684 0.36364
#
# Static dielectric constant tensor:
#      x y z
#    x 2.139840 0.042140 -0.008060 
#    y 0.042140 2.020460 0.022130 
#    z -0.008060 0.022130 2.116290 
# 
# From -- ./inp_files/242873.got.cif
#   From: 2010.05.17/outbox.cif.g08.bks.cpg/sg2_122_cif.got.tgz:242873.got - 2010.06.03 11:33:40.
