data_PCOD9102534
_publ_section_title
;
Structure prediction by ZEFSAII (Michael W. Deem and Ramdas Pophale) SiO2 
 PCOD9102534
Probable space group: P -1
;
_chemical_formula_sum "Si O2"
_cell_formula_units_Z 16
_cell_length_a 15.284121
_cell_length_b 7.939617
_cell_length_c 8.947886
_cell_angle_alpha 99.252005
_cell_angle_beta 87.474319
_cell_angle_gamma 136.950142
_cell_volume 727.223007
_symmetry_space_group_name_H-M "P -1"
_symmetry_group_IT_number 2
_symmetry_cell_setting 'triclinic'
loop_
_space_group_symop_operation_xyz
x,y,z
-x,-y,-z
loop_
_atom_site_type_symbol
_atom_site_label
_atom_site_fract_x
_atom_site_fract_y
_atom_site_fract_z
Si Si1 0.628758 0.365094 0.445659
Si Si2 0.629428 0.771060 0.088167
Si Si3 0.232772 0.122399 0.601775
Si Si4 0.668957 0.078250 0.562852
Si Si5 0.192353 0.177168 0.095033
Si Si6 0.011737 0.923035 0.786552
Si Si7 0.375193 0.844994 0.883937
Si Si8 0.228989 0.588202 0.136745
O O1 0.706419 0.651250 0.481187
O O2 0.692041 0.295856 0.516499
O O3 0.624046 0.291460 0.265538
O O4 0.482077 0.179725 0.485117
O O5 0.681246 0.760992 0.235589
O O6 0.619180 0.955556 0.148565
O O7 0.500000 0.500000 0.000000
O O8 0.730216 0.879276 0.959874
O O9 0.244626 0.951372 0.507652
O O10 0.091216 0.977960 0.645667
O O11 0.696831 0.159819 0.744590
O O12 0.284061 0.474462 0.148151
O O13 0.082991 0.047607 0.210393
O O14 0.113781 0.101946 0.936521
O O15 0.914682 0.638740 0.818184
O O16 0.249643 0.647149 0.969396
O O17 0.500000 0.000000 0.000000
#
# Coordination Sequence:
#
# PCOD9102534 Si02
#       8
#     2   2   2   2   2   2   2   2
#     4  11  24  41  63  88 133 167 204 265 315 367
#     4  11  22  34  62  95 123 157 214 260 303 382
#     4  11  22  44  64  90 125 176 207 250 321 373
#     4  11  24  41  59  95 129 166 210 255 316 381
#     4   8  17  37  58  88 120 162 196 257 311 349
#     4   8  18  38  67  87 123 167 206 258 309 366
#     4  12  21  38  60  96 122 161 211 259 314 364
#     4  10  20  38  63  89 126 162 203 262 308 364
#
# _framework density 22.001504000000001
#
# number of rings (size 3 to 8) (size 9 to 14) (size 15 to 20)
#    0.750    1.000    2.500    3.375    0.000    0.500 
#    2.250    4.375    0.000    0.000    0.000    0.000 
#    0.000    0.000    0.000    0.000    0.000    0.000 
#
# Total GULP energy -89220.409156 kJ/mol
# GULP energy per Si atom -5576.275572 kJ/mol
# Density = 2.195143 g / cm^3
# Si number density = 22.001504 Si / 1000 Ang^3
#
#
#
# Elastic Constant Matrix: (Units=GPa)
#
#
# Indices 1 2 3 4 5 6 
#
# 1 83.4356 23.3820 14.8439 -5.7850 -25.1573 -2.5870
# 2 23.3820 79.1501 -6.1656 -12.6040 0.9549 -4.6027
# 3 14.8439 -6.1656 55.6489 0.4504 -14.4577 2.2244
# 4 -5.7850 -12.6040 0.4504 29.5587 -0.9734 -2.5372
# 5 -25.1573 0.9549 -14.4577 -0.9734 30.9637 -3.3808
# 6 -2.5870 -4.6027 2.2244 -2.5372 -3.3808 28.7395
#
#
#
# Elastic Compliance Matrix: (Units=1/GPa)
#
#
# Indices 1 2 3 4 5 6 
#
# 1 0.018447 -0.005263 -0.001822 0.002124 0.014680 0.002873
# 2 -0.005263 0.015390 0.002109 0.005554 -0.003382 0.001920
# 3 -0.001822 0.002109 0.020819 0.000456 0.008142 -0.000440
# 4 0.002124 0.005554 0.000456 0.037127 0.003451 0.004729
# 5 0.014680 -0.003382 0.008142 0.003451 0.048915 0.006208
# 6 0.002873 0.001920 -0.000440 0.004729 0.006208 0.036543
#
#
# Mechanical properties :
#
#
# Convention : Reuss Voigt Hill
#
# Bulk Modulus (GPa) = 22.36997 31.37281 26.87139
# Shear Modulus (GPa) = 24.74081 30.26400 27.50240
#
# Velocity S-wave (km/s) = 3.35700 3.71285 3.53940
# Velocity P-wave (km/s) = 5.02150 5.71583 5.37988
#
# Compressibility (1/GPa) = 0.04470279
#
# Stress axis : x y z
#
# Youngs Moduli (GPa) = 54.20945 64.97656 48.03409
#
# Poissons Ratio (x) = 0.34199 0.08751
# Poissons Ratio (y) = 0.28532 -0.10129
# Poissons Ratio (z) = 0.09876 -0.13702
#
# Static dielectric constant tensor:
#      x y z
#    x 1.831590 0.016860 0.006970 
#    y 0.016860 1.820350 -0.029870 
#    z 0.006970 -0.029870 1.853400 
# 
# From -- ./inp_files/329308.got.cif
#   From: 2010.05.17/outbox.cif.g08.bks.cpg/sg2_165_cif.got.tgz:329308.got - 2010.06.03 11:33:40.
