data_PCOD9102506
_publ_section_title
;
Structure prediction by ZEFSAII (Michael W. Deem and Ramdas Pophale) SiO2 
 PCOD9102506
Probable space group: P -1
;
_chemical_formula_sum "Si O2"
_cell_formula_units_Z 16
_cell_length_a 15.232031
_cell_length_b 14.608368
_cell_length_c 8.806268
_cell_angle_alpha 116.323876
_cell_angle_beta 106.247142
_cell_angle_gamma 29.559953
_cell_volume 841.218241
_symmetry_space_group_name_H-M "P -1"
_symmetry_group_IT_number 2
_symmetry_cell_setting 'triclinic'
loop_
_space_group_symop_operation_xyz
x,y,z
-x,-y,-z
loop_
_atom_site_type_symbol
_atom_site_label
_atom_site_fract_x
_atom_site_fract_y
_atom_site_fract_z
Si Si1 0.605420 0.973637 0.919547
Si Si2 0.191507 0.370217 0.446498
Si Si3 0.956732 0.658290 0.054576
Si Si4 0.672263 0.296417 0.040026
Si Si5 0.115924 0.626118 0.361479
Si Si6 0.963705 0.162403 0.236711
Si Si7 0.800328 0.484159 0.187027
Si Si8 0.576801 0.634695 0.930330
O O1 0.675856 0.844737 0.711913
O O2 0.775527 0.842532 0.006640
O O3 0.500000 0.000000 0.000000
O O4 0.498027 0.178257 0.975428
O O5 0.168916 0.474733 0.376028
O O6 0.268482 0.364344 0.616921
O O7 0.000000 0.500000 0.500000
O O8 0.962075 0.729002 0.251306
O O9 0.000000 0.500000 0.000000
O O10 0.112772 0.540320 0.927821
O O11 0.500000 0.500000 0.000000
O O12 0.786375 0.266087 0.178332
O O13 0.580669 0.297647 0.101916
O O14 0.842840 0.082512 0.869724
O O15 0.057373 0.769407 0.556542
O O16 0.275784 0.512830 0.243728
O O17 0.948175 0.273197 0.194240
O O18 0.662784 0.543565 0.074702
#
# Coordination Sequence:
#
# PCOD9102506 Si02
#       8
#     2   2   2   2   2   2   2   2
#     4  12  22  37  57  94 130 166 210 258 317 364
#     4  11  20  36  60  86 126 168 212 253 299 381
#     4  11  19  37  59  85 127 176 203 248 311 376
#     4  11  23  45  70  95 125 160 213 269 329 374
#     4  10  22  41  62  93 126 165 216 252 316 383
#     4  10  23  44  70  93 124 164 211 267 321 382
#     4  10  20  38  63  88 122 168 211 251 313 376
#     4  11  23  40  64  93 128 165 207 269 316 376
#
# _framework density 19.020033999999999
#
# number of rings (size 3 to 8) (size 9 to 14) (size 15 to 20)
#    0.000    1.250    5.000    1.500    1.750    1.000 
#    4.500    0.625    0.000    0.000    0.000    0.000 
#    0.000    0.000    0.000    0.000    0.000    0.000 
#
# Total GULP energy -89163.131475 kJ/mol
# GULP energy per Si atom -5572.695717 kJ/mol
# Density = 1.897674 g / cm^3
# Si number density = 19.020034 Si / 1000 Ang^3
#
#
#
# Elastic Constant Matrix: (Units=GPa)
#
#
# Indices 1 2 3 4 5 6 
#
# 1 109.0547 15.8490 34.9542 0.5050 3.2015 -12.8687
# 2 15.8490 92.4225 45.6837 0.4434 8.3517 -4.6358
# 3 34.9542 45.6837 149.2720 -5.4147 18.6870 -0.1264
# 4 0.5050 0.4434 -5.4147 28.7213 0.0294 3.4331
# 5 3.2015 8.3517 18.6870 0.0294 22.0862 -3.6962
# 6 -12.8687 -4.6358 -0.1264 3.4331 -3.6962 23.3998
#
#
#
# Elastic Compliance Matrix: (Units=1/GPa)
#
#
# Indices 1 2 3 4 5 6 
#
# 1 0.010791 -0.000361 -0.002705 -0.001457 0.001929 0.006367
# 2 -0.000361 0.012983 -0.003770 -0.001181 -0.001277 0.002325
# 3 -0.002705 -0.003770 0.009412 0.002316 -0.006750 -0.003590
# 4 -0.001457 -0.001181 0.002316 0.036103 -0.002473 -0.006710
# 5 0.001929 -0.001277 -0.006750 -0.002473 0.052780 0.009471
# 6 0.006367 0.002325 -0.003590 -0.006710 0.009471 0.049158
#
#
# Mechanical properties :
#
#
# Convention : Reuss Voigt Hill
#
# Bulk Modulus (GPa) = 51.24654 60.41367 55.83011
# Shear Modulus (GPa) = 26.12285 31.79228 28.95757
#
# Velocity S-wave (km/s) = 3.71001 4.09285 3.90613
# Velocity P-wave (km/s) = 6.73455 7.35985 7.05413
#
# Compressibility (1/GPa) = 0.01951351
#
# Stress axis : x y z
#
# Youngs Moduli (GPa) = 92.67275 77.02482 106.24373
#
# Poissons Ratio (x) = 0.02783 0.28740
# Poissons Ratio (y) = 0.03348 0.40051
# Poissons Ratio (z) = 0.25069 0.29037
#
# Static dielectric constant tensor:
#      x y z
#    x 1.622590 0.007970 0.022650 
#    y 0.007970 1.616910 -0.024130 
#    z 0.022650 -0.024130 1.670630 
# 
# From -- ./inp_files/206678.got.cif
#   From: 2010.05.17/outbox.cif.g08.bks.cpg/sg2_104_cif.got.tgz:206678.got - 2010.06.03 11:33:40.
