data_PCOD9102089
_publ_section_title
;
Structure prediction by ZEFSAII (Michael W. Deem and Ramdas Pophale) SiO2 
 PCOD9102089
Probable space group: P -1
;
_chemical_formula_sum "Si O2"
_cell_formula_units_Z 14
_cell_length_a 9.244226
_cell_length_b 5.092788
_cell_length_c 20.527600
_cell_angle_alpha 119.558634
_cell_angle_beta 41.820539
_cell_angle_gamma 101.741697
_cell_volume 537.625224
_symmetry_space_group_name_H-M "P -1"
_symmetry_group_IT_number 2
_symmetry_cell_setting 'triclinic'
loop_
_space_group_symop_operation_xyz
x,y,z
-x,-y,-z
loop_
_atom_site_type_symbol
_atom_site_label
_atom_site_fract_x
_atom_site_fract_y
_atom_site_fract_z
Si Si1 0.199432 0.180019 0.901515
Si Si2 0.681047 0.487644 0.735360
Si Si3 0.754326 0.061112 0.016738
Si Si4 0.114822 0.096060 0.185226
Si Si5 0.167333 0.270845 0.689593
Si Si6 0.402976 0.209197 0.473999
Si Si7 0.329549 0.171428 0.350758
O O1 0.402876 0.009656 0.765998
O O2 0.305105 0.169109 0.937651
O O3 0.024261 0.968298 0.926225
O O4 0.000000 0.500000 0.000000
O O5 0.781608 0.701423 0.775249
O O6 0.773278 0.115170 0.666826
O O7 0.715903 0.573754 0.659681
O O8 0.412116 0.610168 0.860121
O O9 0.728611 0.041589 0.945978
O O10 0.907990 0.360685 0.254278
O O11 0.029818 0.840821 0.222762
O O12 0.241209 0.143424 0.576524
O O13 0.390470 0.110620 0.636658
O O14 0.500000 0.500000 0.500000
O O15 0.284744 0.286950 0.453566
#
# Coordination Sequence:
#
# PCOD9102089 Si02
#       7
#     2   2   2   2   2   2   2
#     4  10  20  38  62 100 132 163 221 274 334 389
#     4  11  25  45  63  99 139 186 223 257 325 405
#     4  10  23  38  65  98 137 179 220 270 326 392
#     4  12  25  44  68  97 139 183 224 267 316 403
#     4  11  26  43  70 103 127 165 230 280 338 394
#     4  11  25  47  75 101 130 164 222 292 351 393
#     4  11  25  42  70  95 137 174 219 283 338 387
#
# _framework density 26.040444000000001
#
# number of rings (size 3 to 8) (size 9 to 14) (size 15 to 20)
#    0.000    1.143    2.857    2.143    8.000    0.000 
#    0.000    7.857    0.000    0.000    0.000    0.000 
#    0.000    0.000    0.000    0.000    0.000    0.000 
#
# Total GULP energy -78161.448863 kJ/mol
# GULP energy per Si atom -5582.960633 kJ/mol
# Density = 2.598117 g / cm^3
# Si number density = 26.040444 Si / 1000 Ang^3
#
#
#
# Elastic Constant Matrix: (Units=GPa)
#
#
# Indices 1 2 3 4 5 6 
#
# 1 72.0365 -2.5398 40.0581 -17.3876 19.7583 4.3279
# 2 -2.5398 70.2364 19.5882 -21.7512 6.3176 -17.9873
# 3 40.0581 19.5882 71.8894 -34.8819 33.6022 -11.2350
# 4 -17.3876 -21.7512 -34.8819 38.2923 -18.0961 3.7640
# 5 19.7583 6.3176 33.6022 -18.0961 48.5906 4.6562
# 6 4.3279 -17.9873 -11.2350 3.7640 4.6562 23.1194
#
#
#
# Elastic Compliance Matrix: (Units=1/GPa)
#
#
# Indices 1 2 3 4 5 6 
#
# 1 0.023112 0.001916 -0.017400 -0.001795 0.002826 -0.011569
# 2 0.001916 0.022107 0.003261 0.013601 -0.002444 0.016704
# 3 -0.017400 0.003261 0.050257 0.026862 -0.020981 0.030069
# 4 -0.001795 0.013601 0.026862 0.055928 -0.000214 0.014909
# 5 0.002826 -0.002444 -0.020981 -0.000214 0.036081 -0.019858
# 6 -0.011569 0.016704 0.030069 0.014909 -0.019858 0.074599
#
#
# Mechanical properties :
#
#
# Convention : Reuss Voigt Hill
#
# Bulk Modulus (GPa) = 14.07868 36.48612 25.28240
# Shear Modulus (GPa) = 16.11823 32.47085 24.29454
#
# Velocity S-wave (km/s) = 2.49061 3.53503 3.05774
# Velocity P-wave (km/s) = 3.69987 5.54109 4.71130
#
# Compressibility (1/GPa) = 0.07102937
#
# Stress axis : x y z
#
# Youngs Moduli (GPa) = 43.26762 45.23440 19.89767
#
# Poissons Ratio (x) = -0.08665 0.34622
# Poissons Ratio (y) = -0.08289 -0.06489
# Poissons Ratio (z) = 0.75287 -0.14752
#
# Static dielectric constant tensor:
#      x y z
#    x 1.841030 0.010060 0.088180 
#    y 0.010060 2.182020 -0.007410 
#    z 0.088180 -0.007410 2.118920 
# 
# From -- ./inp_files/93124.got.cif
#   From: 2010.05.17/outbox.cif.g08.bks.cpg/sg2_47_cif.got.tgz:93124.got - 2010.06.03 11:33:40.
