data_PCOD9102754
_publ_section_title
;
Structure prediction by ZEFSAII (Michael W. Deem and Ramdas Pophale) SiO2 
 PCOD9102754
Probable space group: P -1
;
_chemical_formula_sum "Si O2"
_cell_formula_units_Z 16
_cell_length_a 8.142229
_cell_length_b 22.855991
_cell_length_c 7.150897
_cell_angle_alpha 98.454178
_cell_angle_beta 102.416451
_cell_angle_gamma 32.836672
_cell_volume 703.304863
_symmetry_space_group_name_H-M "P -1"
_symmetry_group_IT_number 2
_symmetry_cell_setting 'triclinic'
loop_
_space_group_symop_operation_xyz
x,y,z
-x,-y,-z
loop_
_atom_site_type_symbol
_atom_site_label
_atom_site_fract_x
_atom_site_fract_y
_atom_site_fract_z
Si Si1 0.685305 0.375534 0.812844
Si Si2 0.522018 0.436654 0.213019
Si Si3 0.192791 0.824861 0.671445
Si Si4 0.253457 0.036624 0.735613
Si Si5 0.678543 0.849176 0.223962
Si Si6 0.110195 0.201517 0.322779
Si Si7 0.034197 0.988894 0.272005
Si Si8 0.660790 0.602360 0.543867
O O1 0.605181 0.460787 0.733198
O O2 0.567677 0.356409 0.649633
O O3 0.051977 0.261993 0.878263
O O4 0.493447 0.432083 0.983919
O O5 0.364364 0.434681 0.304342
O O6 0.887693 0.321062 0.278656
O O7 0.517952 0.707601 0.614674
O O8 0.929036 0.903859 0.480198
O O9 0.079698 0.803527 0.761412
O O10 0.192278 0.890785 0.782648
O O11 0.346841 0.076137 0.823543
O O12 0.558341 0.907082 0.732623
O O13 0.040938 0.056796 0.817803
O O14 0.824047 0.811518 0.448277
O O15 0.356537 0.912880 0.222175
O O16 0.000000 0.000000 0.500000
O O17 0.000000 0.500000 0.500000
#
# Coordination Sequence:
#
# PCOD9102754 Si02
#       8
#     2   2   2   2   2   2   2   2
#     4  11  23  43  62  86 131 163 209 265 310 378
#     4  10  24  41  62  92 121 169 210 256 321 365
#     4   9  16  31  49  84 123 152 193 253 308 358
#     4  10  17  30  55  89 122 159 200 256 309 364
#     4  11  18  34  59  87 122 162 207 254 311 372
#     4  10  16  32  58  82 116 155 209 247 296 378
#     4  10  18  26  53  93 117 160 202 247 316 366
#     4  11  23  38  67  94 120 163 216 257 309 384
#
# _framework density 22.749734
#
# number of rings (size 3 to 8) (size 9 to 14) (size 15 to 20)
#    0.000    1.750    7.500    1.125    0.000    3.500 
#    0.000    0.625    0.000    0.750    0.000    0.000 
#    0.000    0.000    0.000    0.000    0.000    0.000 
#
# Total GULP energy -89246.825038 kJ/mol
# GULP energy per Si atom -5577.926565 kJ/mol
# Density = 2.269795 g / cm^3
# Si number density = 22.749734 Si / 1000 Ang^3
#
#
#
# Elastic Constant Matrix: (Units=GPa)
#
#
# Indices 1 2 3 4 5 6 
#
# 1 78.6713 19.4418 1.9047 8.3267 7.5971 -28.8840
# 2 19.4418 132.6070 -13.9185 2.2542 11.9501 -29.5021
# 3 1.9047 -13.9185 53.6539 6.5831 -4.6654 -10.4179
# 4 8.3267 2.2542 6.5831 20.0789 0.2694 -8.8132
# 5 7.5971 11.9501 -4.6654 0.2694 -0.3837 19.5101
# 6 -28.8840 -29.5021 -10.4179 -8.8132 19.5101 27.7625
#
#
#
# Elastic Compliance Matrix: (Units=1/GPa)
#
#
# Indices 1 2 3 4 5 6 
#
# 1 0.012035 -0.003358 0.000144 -0.005829 0.013388 -0.002252
# 2 -0.003358 0.006983 0.002487 -0.001287 0.009427 -0.002172
# 3 0.000144 0.002487 0.021363 -0.005794 0.007419 0.003755
# 4 -0.005829 -0.001287 -0.005794 0.054623 0.009435 0.001104
# 5 0.013388 0.009427 0.007419 0.009435 -0.016871 0.041581
# 6 -0.002252 -0.002172 0.003755 0.001104 0.041581 0.003908
#
#
# Mechanical properties :
#
#
# Convention : Reuss Voigt Hill
#
# Bulk Modulus (GPa) = 25.68905 31.08756 28.38831
# Shear Modulus (GPa) = 51.82871 26.65847 39.24359
#
# Velocity S-wave (km/s) = 4.77824 3.42689 4.15783
# Velocity P-wave (km/s) = 6.46209 5.41782 5.96286
#
# Compressibility (1/GPa) = 0.03892709
#
# Stress axis : x y z
#
# Youngs Moduli (GPa) = 83.09176 143.19561 46.80963
#
# Poissons Ratio (x) = 0.48080 -0.00673
# Poissons Ratio (y) = 0.27899 -0.11640
# Poissons Ratio (z) = -0.01195 -0.35607
#
# Static dielectric constant tensor:
#      x y z
#    x 1.891670 -0.009330 0.033540 
#    y -0.009330 1.889620 -0.003040 
#    z 0.033540 -0.003040 1.936770 
# 
# From -- ./inp_files/225439.got.cif
#   From: 2010.05.17/outbox.cif.g08.bks.cpg/sg2_113_cif.got.tgz:225439.got - 2010.06.03 11:33:40.
