data_PCOD9102119
_publ_section_title
;
Structure prediction by ZEFSAII (Michael W. Deem and Ramdas Pophale) SiO2 
 PCOD9102119
Probable space group: P -1
;
_chemical_formula_sum "Si O2"
_cell_formula_units_Z 16
_cell_length_a 7.046818
_cell_length_b 7.602470
_cell_length_c 16.026958
_cell_angle_alpha 124.692549
_cell_angle_beta 53.616317
_cell_angle_gamma 97.043201
_cell_volume 537.531650
_symmetry_space_group_name_H-M "P -1"
_symmetry_group_IT_number 2
_symmetry_cell_setting 'triclinic'
loop_
_space_group_symop_operation_xyz
x,y,z
-x,-y,-z
loop_
_atom_site_type_symbol
_atom_site_label
_atom_site_fract_x
_atom_site_fract_y
_atom_site_fract_z
Si Si1 0.557992 0.296354 0.025636
Si Si2 0.731576 0.835348 0.779143
Si Si3 0.940521 0.838416 0.041192
Si Si4 0.683283 0.080612 0.417931
Si Si5 0.936926 0.773596 0.537011
Si Si6 0.727558 0.262019 0.301577
Si Si7 0.302735 0.697791 0.282574
Si Si8 0.811690 0.585110 0.224950
O O1 0.422044 0.247217 0.133354
O O2 0.836553 0.250591 0.974508
O O3 0.385049 0.556844 0.137224
O O4 0.581450 0.105053 0.898666
O O5 0.785282 0.716431 0.640802
O O6 0.004841 0.800148 0.737539
O O7 0.954939 0.610411 0.928565
O O8 0.000000 0.000000 0.000000
O O9 0.723585 0.032258 0.194486
O O10 0.860205 0.824132 0.281915
O O11 0.500000 0.000000 0.500000
O O12 0.554159 0.251592 0.422717
O O13 0.820953 0.209127 0.473485
O O14 0.066168 0.661349 0.385731
O O15 0.783822 0.033385 0.629174
O O16 0.734736 0.459366 0.290787
O O17 0.565210 0.634092 0.245688
#
# Coordination Sequence:
#
# PCOD9102119 Si02
#       8
#     2   2   2   2   2   2   2   2
#     4   9  18  34  60  81 112 150 191 231 288 345
#     4   9  19  37  57  87 113 147 192 238 284 343
#     4   8  16  35  56  84 117 144 184 240 286 339
#     4  11  22  39  59  84 114 153 197 237 281 340
#     4  10  22  40  56  81 122 148 188 243 284 337
#     4   9  20  37  61  86 116 148 190 242 284 341
#     4  10  21  39  56  82 117 154 185 237 291 339
#     4  10  20  38  62  85 114 153 191 235 292 342
#
# _framework density 29.765688999999998
#
# number of rings (size 3 to 8) (size 9 to 14) (size 15 to 20)
#    0.000    2.500    1.250    0.000    1.750    2.000 
#    6.750    0.000    0.000    0.000    0.000    0.000 
#    0.000    0.000    0.000    0.000    0.000    0.000 
#
# Total GULP energy -89371.999869 kJ/mol
# GULP energy per Si atom -5585.749992 kJ/mol
# Density = 2.969794 g / cm^3
# Si number density = 29.765689 Si / 1000 Ang^3
#
#
#
# Elastic Constant Matrix: (Units=GPa)
#
#
# Indices 1 2 3 4 5 6 
#
# 1 68.1745 -4.3462 27.4454 12.9809 4.8849 1.1732
# 2 -4.3462 173.3689 5.9310 -12.3536 8.5904 -3.4489
# 3 27.4454 5.9310 122.7996 1.7111 9.2856 17.1287
# 4 12.9809 -12.3536 1.7111 58.9785 12.0748 5.1551
# 5 4.8849 8.5904 9.2856 12.0748 44.4418 7.6498
# 6 1.1732 -3.4489 17.1287 5.1551 7.6498 37.0505
#
#
#
# Elastic Compliance Matrix: (Units=1/GPa)
#
#
# Indices 1 2 3 4 5 6 
#
# 1 0.016992 0.000366 -0.004002 -0.003624 -0.000452 0.001944
# 2 0.000366 0.005993 -0.000387 0.001450 -0.001661 0.000866
# 3 -0.004002 -0.000387 0.009727 0.001117 -0.001074 -0.004340
# 4 -0.003624 0.001450 0.001117 0.019216 -0.005008 -0.001906
# 5 -0.000452 -0.001661 -0.001074 -0.005008 0.025171 -0.004144
# 6 0.001944 0.000866 -0.004340 -0.001906 -0.004144 0.030136
#
#
# Mechanical properties :
#
#
# Convention : Reuss Voigt Hill
#
# Bulk Modulus (GPa) = 40.53988 46.93374 43.73681
# Shear Modulus (GPa) = 40.48469 50.44832 45.46650
#
# Velocity S-wave (km/s) = 3.69197 4.12132 3.91254
# Velocity P-wave (km/s) = 5.64123 6.20073 5.92758
#
# Compressibility (1/GPa) = 0.02466707
#
# Stress axis : x y z
#
# Youngs Moduli (GPa) = 58.85268 166.85205 102.80234
#
# Poissons Ratio (x) = -0.06101 0.41138
# Poissons Ratio (y) = -0.02152 0.03975
# Poissons Ratio (z) = 0.23551 0.06451
#
# Static dielectric constant tensor:
#      x y z
#    x 2.325030 -0.039710 0.113760 
#    y -0.039710 2.453490 -0.054740 
#    z 0.113760 -0.054740 2.695630 
# 
# From -- ./inp_files/175364.got.cif
#   From: 2010.05.17/outbox.cif.g08.bks.cpg/sg2_88_cif.got.tgz:175364.got - 2010.06.03 11:33:40.
