data_PCOD9102375
_publ_section_title
;
Structure prediction by ZEFSAII (Michael W. Deem and Ramdas Pophale) SiO2 
 PCOD9102375
Probable space group: P -1
;
_chemical_formula_sum "Si O2"
_cell_formula_units_Z 10
_cell_length_a 9.442480
_cell_length_b 5.526585
_cell_length_c 10.554261
_cell_angle_alpha 56.045544
_cell_angle_beta 98.478037
_cell_angle_gamma 70.137708
_cell_volume 387.467046
_symmetry_space_group_name_H-M "P -1"
_symmetry_group_IT_number 2
_symmetry_cell_setting 'triclinic'
loop_
_space_group_symop_operation_xyz
x,y,z
-x,-y,-z
loop_
_atom_site_type_symbol
_atom_site_label
_atom_site_fract_x
_atom_site_fract_y
_atom_site_fract_z
Si Si1 0.086895 0.541754 0.375762
Si Si2 0.146137 0.652539 0.683487
Si Si3 0.627847 0.810214 0.959937
Si Si4 0.586328 0.713942 0.401998
Si Si5 0.082911 0.113001 0.082994
O O1 0.285466 0.274568 0.482484
O O2 0.000000 0.500000 0.500000
O O3 0.963098 0.529408 0.260899
O O4 0.084558 0.891639 0.266681
O O5 0.250461 0.568455 0.854531
O O6 0.288985 0.487469 0.641482
O O7 0.000000 0.000000 0.500000
O O8 0.733190 0.995150 0.903747
O O9 0.500000 0.000000 0.000000
O O10 0.535916 0.907559 0.783343
O O11 0.500000 0.500000 0.500000
O O12 0.000000 0.500000 0.000000
O O13 0.000000 0.000000 0.000000
#
# Coordination Sequence:
#
# PCOD9102375 Si02
#       5
#     2   2   2   2   2
#     4  10  22  40  68  98 141 183 237 288 356 426
#     4  10  22  40  66  94 134 186 239 287 353 431
#     4  10  22  42  67  99 147 186 234 298 366 422
#     4  10  20  38  62  93 138 179 230 295 357 419
#     4  12  26  46  75 108 143 192 248 297 358 437
#
# _framework density 25.808644999999999
#
# number of rings (size 3 to 8) (size 9 to 14) (size 15 to 20)
#    0.000    1.600    4.000    0.000    5.600    0.000 
#    0.000    7.000    0.000    0.000    0.000    0.000 
#    0.000    0.000    0.000    0.000    0.000    0.000 
#
# Total GULP energy -55697.242303 kJ/mol
# GULP energy per Si atom -5569.724230 kJ/mol
# Density = 2.574990 g / cm^3
# Si number density = 25.808645 Si / 1000 Ang^3
#
#
#
# Elastic Constant Matrix: (Units=GPa)
#
#
# Indices 1 2 3 4 5 6 
#
# 1 192.6989 25.3215 49.3421 2.6733 -21.7821 -4.2872
# 2 25.3215 61.5863 25.2739 7.8933 -6.0012 5.8888
# 3 49.3421 25.2739 199.5168 5.8890 0.1755 -4.4810
# 4 2.6733 7.8933 5.8890 31.8554 7.4366 -2.1811
# 5 -21.7821 -6.0012 0.1755 7.4366 60.9937 5.1956
# 6 -4.2872 5.8888 -4.4810 -2.1811 5.1956 23.5424
#
#
#
# Elastic Compliance Matrix: (Units=1/GPa)
#
#
# Indices 1 2 3 4 5 6 
#
# 1 0.005981 -0.001827 -0.001224 -0.000209 0.001911 0.000872
# 2 -0.001827 0.019357 -0.001994 -0.005301 0.002465 -0.006589
# 3 -0.001224 -0.001994 0.005606 -0.000161 -0.000757 0.001495
# 4 -0.000209 -0.005301 -0.000161 0.034365 -0.005263 0.005603
# 5 0.001911 0.002465 -0.000757 -0.005263 0.018386 -0.004958
# 6 0.000872 -0.006589 0.001495 0.005603 -0.004958 0.046181
#
#
# Mechanical properties :
#
#
# Convention : Reuss Voigt Hill
#
# Bulk Modulus (GPa) = 47.95132 72.63078 60.29105
# Shear Modulus (GPa) = 34.03263 46.86926 40.45094
#
# Velocity S-wave (km/s) = 3.63526 4.26611 3.96326
# Velocity P-wave (km/s) = 6.01997 7.24358 6.65994
#
# Compressibility (1/GPa) = 0.02085448
#
# Stress axis : x y z
#
# Youngs Moduli (GPa) = 167.19018 51.66188 178.37174
#
# Poissons Ratio (x) = 0.09441 0.21826
# Poissons Ratio (y) = 0.30553 0.35563
# Poissons Ratio (z) = 0.20458 0.10300
#
# Static dielectric constant tensor:
#      x y z
#    x 2.030510 0.039070 0.072630 
#    y 0.039070 2.215070 -0.019970 
#    z 0.072630 -0.019970 2.210700 
# 
# From -- ./inp_files/296533.got.cif
#   From: 2010.05.17/outbox.cif.g08.bks.cpg/sg2_149_cif.got.tgz:296533.got - 2010.06.03 11:33:40.
