data_PCOD9102552
_publ_section_title
;
Structure prediction by ZEFSAII (Michael W. Deem and Ramdas Pophale) SiO2 
 PCOD9102552
Probable space group: P -1
;
_chemical_formula_sum "Si O2"
_cell_formula_units_Z 15
_cell_length_a 9.565284
_cell_length_b 7.532167
_cell_length_c 12.725325
_cell_angle_alpha 110.591056
_cell_angle_beta 121.910016
_cell_angle_gamma 47.354532
_cell_volume 572.437066
_symmetry_space_group_name_H-M "P -1"
_symmetry_group_IT_number 2
_symmetry_cell_setting 'triclinic'
loop_
_space_group_symop_operation_xyz
x,y,z
-x,-y,-z
loop_
_atom_site_type_symbol
_atom_site_label
_atom_site_fract_x
_atom_site_fract_y
_atom_site_fract_z
Si Si1 0.439299 0.761958 0.055718
Si Si2 0.833087 0.519900 0.280392
Si Si3 0.225675 0.377392 0.290051
Si Si4 0.000000 0.500000 0.000000
Si Si5 0.874958 0.148399 0.636974
Si Si6 0.303486 0.807166 0.795595
Si Si7 0.636454 0.946498 0.438971
Si Si8 0.754080 0.311208 0.856062
O O1 0.656507 0.704485 0.161585
O O2 0.293846 0.828125 0.112094
O O3 0.500000 0.500000 0.000000
O O4 0.334417 0.908084 0.936627
O O5 0.797494 0.323913 0.243177
O O6 0.767794 0.677792 0.391634
O O7 0.064583 0.390821 0.306606
O O8 0.115028 0.459048 0.150117
O O9 0.247075 0.574944 0.386049
O O10 0.452321 0.125333 0.320753
O O11 0.092325 0.642113 0.024477
O O12 0.837201 0.167608 0.751353
O O13 0.785095 0.021903 0.527322
O O14 0.123100 0.016191 0.692667
O O15 0.533709 0.580639 0.803312
O O16 0.500000 0.000000 0.500000
#
# Coordination Sequence:
#
# PCOD9102552 Si02
#       8
#     2   2   2   1   2   2   2   2
#     4   8  16  34  59  89 122 156 206 260 311 366
#     4  10  22  40  66  95 122 166 215 262 314 365
#     4  11  25  43  64  95 131 165 208 260 319 379
#     4  10  20  40  66  94 130 164 202 256 322 384
#     4  11  25  40  60  90 125 169 206 250 316 374
#     4  10  20  38  63  90 123 161 208 260 311 371
#     4  12  26  44  66  92 125 169 221 264 302 366
#     4   9  19  36  59  90 126 163 203 257 312 368
#
# _framework density 26.203755999999998
#
# number of rings (size 3 to 8) (size 9 to 14) (size 15 to 20)
#    0.000    2.133    0.000    5.200    0.000    8.533 
#    0.000    4.000    0.000    0.800    0.000    0.000 
#    0.000    0.000    0.000    0.000    0.000    0.000 
#
# Total GULP energy -83752.760335 kJ/mol
# GULP energy per Si atom -5583.517356 kJ/mol
# Density = 2.614411 g / cm^3
# Si number density = 26.203756 Si / 1000 Ang^3
#
#
#
# Elastic Constant Matrix: (Units=GPa)
#
#
# Indices 1 2 3 4 5 6 
#
# 1 90.3269 24.5948 37.0179 6.5703 21.3505 -17.3827
# 2 24.5948 78.7628 18.9575 -10.5859 3.1329 -31.1724
# 3 37.0179 18.9575 103.7388 6.0479 14.9708 -16.4234
# 4 6.5703 -10.5859 6.0479 28.9996 -1.4875 1.5789
# 5 21.3505 3.1329 14.9708 -1.4875 43.4173 0.5711
# 6 -17.3827 -31.1724 -16.4234 1.5789 0.5711 36.6015
#
#
#
# Elastic Compliance Matrix: (Units=1/GPa)
#
#
# Indices 1 2 3 4 5 6 
#
# 1 0.015875 -0.003009 -0.003286 -0.004559 -0.006663 0.003803
# 2 -0.003009 0.021133 -0.000761 0.007703 0.000272 0.015892
# 3 -0.003286 -0.000761 0.011985 -0.002346 -0.002586 0.003311
# 4 -0.004559 0.007703 -0.002346 0.038925 0.003807 0.001605
# 5 -0.006663 0.000272 -0.002586 0.003807 0.027373 -0.004684
# 6 0.003803 0.015892 0.003311 0.001605 -0.004684 0.044151
#
#
# Mechanical properties :
#
#
# Convention : Reuss Voigt Hill
#
# Bulk Modulus (GPa) = 28.66732 48.21875 38.44303
# Shear Modulus (GPa) = 27.00065 34.62088 30.81077
#
# Velocity S-wave (km/s) = 3.21348 3.63880 3.43274
# Velocity P-wave (km/s) = 4.97318 6.00799 5.51491
#
# Compressibility (1/GPa) = 0.03488293
#
# Stress axis : x y z
#
# Youngs Moduli (GPa) = 62.99203 47.31925 83.43643
#
# Poissons Ratio (x) = 0.14238 0.27414
# Poissons Ratio (y) = 0.18954 0.06347
# Poissons Ratio (z) = 0.20696 0.03600
#
# Static dielectric constant tensor:
#      x y z
#    x 2.069170 0.007670 -0.059660 
#    y 0.007670 2.084010 -0.017080 
#    z -0.059660 -0.017080 2.034680 
# 
# From -- ./inp_files/513586.got.cif
#   From: 2010.05.17/outbox.cif.g08.bks.cpg/sg2_257_cif.got.tgz:513586.got - 2010.06.03 11:33:40.
