data_PCOD9102105
_publ_section_title
;
Structure prediction by ZEFSAII (Michael W. Deem and Ramdas Pophale) SiO2 
 PCOD9102105
Probable space group: P -1
;
_chemical_formula_sum "Si O2"
_cell_formula_units_Z 16
_cell_length_a 21.642165
_cell_length_b 8.860137
_cell_length_c 9.145412
_cell_angle_alpha 47.450700
_cell_angle_beta 121.694328
_cell_angle_gamma 141.963076
_cell_volume 795.935120
_symmetry_space_group_name_H-M "P -1"
_symmetry_group_IT_number 2
_symmetry_cell_setting 'triclinic'
loop_
_space_group_symop_operation_xyz
x,y,z
-x,-y,-z
loop_
_atom_site_type_symbol
_atom_site_label
_atom_site_fract_x
_atom_site_fract_y
_atom_site_fract_z
Si Si1 0.228670 0.966789 0.826723
Si Si2 0.219098 0.585505 0.828617
Si Si3 0.109529 0.143695 0.491935
Si Si4 0.795700 0.759319 0.733948
Si Si5 0.896518 0.361544 0.532315
Si Si6 0.389061 0.473425 0.489512
Si Si7 0.385526 0.088186 0.514482
Si Si8 0.219817 0.769498 0.268580
O O1 0.146894 0.991168 0.690106
O O2 0.331632 0.262775 0.694689
O O3 0.208425 0.730463 0.852236
O O4 0.233687 0.897451 0.044119
O O5 0.136020 0.483836 0.673398
O O6 0.324301 0.819264 0.723221
O O7 0.205224 0.340349 0.044129
O O8 0.117012 0.154323 0.317910
O O9 0.190533 0.473517 0.419556
O O10 0.000000 0.000000 0.500000
O O11 0.689411 0.515989 0.681631
O O12 0.816405 0.040719 0.583168
O O13 0.876740 0.322870 0.705183
O O14 0.000000 0.500000 0.500000
O O15 0.395371 0.317274 0.469476
O O16 0.501177 0.761542 0.475058
O O17 0.316678 0.982490 0.354463
#
# Coordination Sequence:
#
# PCOD9102105 Si02
#       8
#     2   2   2   2   2   2   2   2
#     4  10  21  39  60  84 121 156 192 243 293 348
#     4  10  20  38  62  83 119 158 195 236 294 356
#     4  11  23  38  60  86 118 158 197 237 297 356
#     4  11  20  39  63  85 115 161 197 233 295 357
#     4  11  23  40  59  86 122 151 198 252 287 340
#     4   9  18  39  64  83 117 163 189 233 299 362
#     4   9  19  38  61  88 120 151 195 242 294 344
#     4  11  22  37  60  92 117 149 197 254 285 340
#
# _framework density 20.102142000000001
#
# number of rings (size 3 to 8) (size 9 to 14) (size 15 to 20)
#    0.000    1.750    6.250    0.750    0.000    5.000 
#    0.000    2.500    0.000    0.000    0.000    0.000 
#    0.000    0.000    0.000    0.000    0.000    0.000 
#
# Total GULP energy -89176.905555 kJ/mol
# GULP energy per Si atom -5573.556597 kJ/mol
# Density = 2.005639 g / cm^3
# Si number density = 20.102142 Si / 1000 Ang^3
#
#
#
# Elastic Constant Matrix: (Units=GPa)
#
#
# Indices 1 2 3 4 5 6 
#
# 1 77.9511 21.5780 22.6818 4.6618 -12.8891 21.1803
# 2 21.5780 67.1975 27.2920 5.9863 0.1071 16.9783
# 3 22.6818 27.2920 135.8394 12.5718 -17.4639 9.6275
# 4 4.6618 5.9863 12.5718 10.3621 -9.1906 -2.0332
# 5 -12.8891 0.1071 -17.4639 -9.1906 27.0305 5.9976
# 6 21.1803 16.9783 9.6275 -2.0332 5.9976 33.8133
#
#
#
# Elastic Compliance Matrix: (Units=1/GPa)
#
#
# Indices 1 2 3 4 5 6 
#
# 1 0.019045 -0.003080 -0.000290 0.002104 0.012366 -0.012367
# 2 -0.003080 0.019953 -0.002504 -0.014185 -0.006415 -0.007092
# 3 -0.000290 -0.002504 0.009199 -0.006335 0.004172 -0.002301
# 4 0.002104 -0.014185 -0.006335 0.155698 0.048030 0.008451
# 5 0.012366 -0.006415 0.004172 0.048030 0.065133 -0.014377
# 6 -0.012367 -0.007092 -0.002301 0.008451 -0.014377 0.044595
#
#
# Mechanical properties :
#
#
# Convention : Reuss Voigt Hill
#
# Bulk Modulus (GPa) = 27.43553 47.12130 37.27842
# Shear Modulus (GPa) = 14.81394 28.20360 21.50877
#
# Velocity S-wave (km/s) = 2.71760 3.74975 3.27459
# Velocity P-wave (km/s) = 4.85024 6.49918 5.73429
#
# Compressibility (1/GPa) = 0.03644909
#
# Stress axis : x y z
#
# Youngs Moduli (GPa) = 52.50840 50.11722 108.70992
#
# Poissons Ratio (x) = 0.15438 0.03148
# Poissons Ratio (y) = 0.16174 0.27220
# Poissons Ratio (z) = 0.01520 0.12549
#
# Static dielectric constant tensor:
#      x y z
#    x 1.777890 -0.017520 -0.002040 
#    y -0.017520 1.754420 0.008840 
#    z -0.002040 0.008840 1.685660 
# 
# From -- ./inp_files/214235.got.cif
#   From: 2010.05.17/outbox.cif.g08.bks.cpg/sg2_108_cif.got.tgz:214235.got - 2010.06.03 11:33:40.
