data_PCOD9102293
_publ_section_title
;
Structure prediction by ZEFSAII (Michael W. Deem and Ramdas Pophale) SiO2 
 PCOD9102293
Probable space group: P -1
;
_chemical_formula_sum "Si O2"
_cell_formula_units_Z 14
_cell_length_a 6.819464
_cell_length_b 9.017675
_cell_length_c 13.045450
_cell_angle_alpha 68.265265
_cell_angle_beta 58.886915
_cell_angle_gamma 47.748292
_cell_volume 508.063881
_symmetry_space_group_name_H-M "P -1"
_symmetry_group_IT_number 2
_symmetry_cell_setting 'triclinic'
loop_
_space_group_symop_operation_xyz
x,y,z
-x,-y,-z
loop_
_atom_site_type_symbol
_atom_site_label
_atom_site_fract_x
_atom_site_fract_y
_atom_site_fract_z
Si Si1 0.184951 0.767320 0.932478
Si Si2 0.540595 0.336821 0.378116
Si Si3 0.611443 0.652331 0.360056
Si Si4 0.667977 0.944187 0.154952
Si Si5 0.000000 0.500000 0.500000
Si Si6 0.978907 0.130995 0.625332
Si Si7 0.500000 0.000000 0.000000
Si Si8 0.426028 0.663623 0.122310
O O1 0.335827 0.575445 0.871005
O O2 0.275530 0.909497 0.847672
O O3 0.272021 0.699261 0.044964
O O4 0.838708 0.897110 0.006650
O O5 0.659725 0.462045 0.340576
O O6 0.320048 0.396268 0.525310
O O7 0.265633 0.428146 0.358001
O O8 0.774771 0.103518 0.370741
O O9 0.735815 0.758069 0.247296
O O10 0.266609 0.817308 0.403325
O O11 0.372192 0.051463 0.148072
O O12 0.083081 0.261713 0.533188
O O13 0.802737 0.222054 0.755559
O O14 0.424257 0.230028 0.952584
#
# Coordination Sequence:
#
# PCOD9102293 Si02
#       8
#     2   2   2   2   1   2   1   2
#     4   9  22  40  59  89 131 165 214 261 317 387
#     4  10  23  43  66  94 133 161 221 273 320 397
#     4  10  22  42  65  96 127 171 217 266 332 384
#     4  10  20  41  62  92 124 175 213 266 328 374
#     4  10  24  42  62  98 124 168 216 266 328 388
#     4  11  22  42  64  97 127 171 214 273 325 388
#     4  10  20  38  62  90 126 158 220 266 306 390
#     4  10  21  40  60  91 126 166 211 264 320 384
#
# _framework density 27.555592000000001
#
# number of rings (size 3 to 8) (size 9 to 14) (size 15 to 20)
#    0.000    2.000    1.429    0.857    2.000    2.857 
#   18.000    0.000    0.000    0.000    0.000    0.000 
#    0.000    0.000    0.000    0.000    0.000    0.000 
#
# Total GULP energy -78014.131490 kJ/mol
# GULP energy per Si atom -5572.437964 kJ/mol
# Density = 2.749287 g / cm^3
# Si number density = 27.555592 Si / 1000 Ang^3
#
#
#
# Elastic Constant Matrix: (Units=GPa)
#
#
# Indices 1 2 3 4 5 6 
#
# 1 132.2243 61.6595 26.1178 -9.3921 -4.6686 14.7303
# 2 61.6595 288.1895 64.2209 -22.6491 -42.9531 6.9752
# 3 26.1178 64.2209 125.0733 -19.9936 -4.5750 31.5000
# 4 -9.3921 -22.6491 -19.9936 58.9369 13.3015 -13.6990
# 5 -4.6686 -42.9531 -4.5750 13.3015 55.4775 -16.2971
# 6 14.7303 6.9752 31.5000 -13.6990 -16.2971 49.0563
#
#
#
# Elastic Compliance Matrix: (Units=1/GPa)
#
#
# Indices 1 2 3 4 5 6 
#
# 1 0.008798 -0.002021 -0.000114 0.000334 -0.001725 -0.002761
# 2 -0.002021 0.005147 -0.002811 0.000464 0.004437 0.003284
# 3 -0.000114 -0.002811 0.011586 0.001919 -0.003980 -0.007792
# 4 0.000334 0.000464 0.001919 0.019252 -0.003216 0.002909
# 5 -0.001725 0.004437 -0.003980 -0.003216 0.024614 0.009722
# 6 -0.002761 0.003284 -0.007792 0.002909 0.009722 0.029793
#
#
# Mechanical properties :
#
#
# Convention : Reuss Voigt Hill
#
# Bulk Modulus (GPa) = 63.94150 94.38706 79.16428
# Shear Modulus (GPa) = 43.74630 58.92671 51.33650
#
# Velocity S-wave (km/s) = 3.98875 4.62937 4.32095
# Velocity P-wave (km/s) = 6.66846 7.93111 7.32703
#
# Compressibility (1/GPa) = 0.01563929
#
# Stress axis : x y z
#
# Youngs Moduli (GPa) = 113.65812 194.28442 86.30916
#
# Poissons Ratio (x) = 0.39267 0.00982
# Poissons Ratio (y) = 0.22972 0.24264
# Poissons Ratio (z) = 0.01293 0.54620
#
# Static dielectric constant tensor:
#      x y z
#    x 2.368860 -0.112220 0.085460 
#    y -0.112220 2.112790 0.013000 
#    z 0.085460 0.013000 2.415450 
# 
# From -- ./inp_files/196061.got.cif
#   From: 2010.05.17/outbox.cif.g08.bks.cpg/sg2_99_cif.got.tgz:196061.got - 2010.06.03 11:33:40.
