data_PCOD9102850
_publ_section_title
;
Structure prediction by ZEFSAII (Michael W. Deem and Ramdas Pophale) SiO2 
 PCOD9102850
Probable space group: P -1
;
_chemical_formula_sum "Si O2"
_cell_formula_units_Z 16
_cell_length_a 15.993128
_cell_length_b 9.026977
_cell_length_c 5.303824
_cell_angle_alpha 75.814642
_cell_angle_beta 80.478879
_cell_angle_gamma 58.360274
_cell_volume 631.390141
_symmetry_space_group_name_H-M "P -1"
_symmetry_group_IT_number 2
_symmetry_cell_setting 'triclinic'
loop_
_space_group_symop_operation_xyz
x,y,z
-x,-y,-z
loop_
_atom_site_type_symbol
_atom_site_label
_atom_site_fract_x
_atom_site_fract_y
_atom_site_fract_z
Si Si1 0.067901 0.443019 0.735734
Si Si2 0.407649 0.831838 0.999383
Si Si3 0.783736 0.879422 0.509961
Si Si4 0.873473 0.282005 0.307917
Si Si5 0.614611 0.857775 0.430068
Si Si6 0.517859 0.659146 0.506436
Si Si7 0.907173 0.960267 0.791790
Si Si8 0.250054 0.801098 0.873742
O O1 0.148562 0.242067 0.704406
O O2 0.126165 0.549364 0.656734
O O3 0.000000 0.500000 0.500000
O O4 0.000000 0.500000 0.000000
O O5 0.479210 0.710343 0.790049
O O6 0.326238 0.770421 0.066395
O O7 0.368045 0.034561 0.848738
O O8 0.459164 0.796285 0.253536
O O9 0.698592 0.830712 0.599158
O O10 0.854339 0.869122 0.706013
O O11 0.726219 0.089612 0.386413
O O12 0.888189 0.129896 0.561802
O O13 0.774903 0.336388 0.177016
O O14 0.979420 0.178874 0.158898
O O15 0.615788 0.675456 0.454345
O O16 0.500000 0.000000 0.500000
O O17 0.500000 0.500000 0.500000
O O18 0.855577 0.051918 0.035476
#
# Coordination Sequence:
#
# PCOD9102850 Si02
#       8
#     2   2   2   2   2   2   2   2
#     4  12  26  44  64  92 135 178 217 270 333 395
#     4  10  23  41  68  94 129 172 219 269 331 402
#     4  10  22  41  63  98 128 177 222 277 331 398
#     4  10  22  37  61  92 128 171 220 265 330 382
#     4   9  21  42  67  98 131 174 227 277 333 400
#     4  11  23  43  67  96 134 170 213 277 339 397
#     4  10  20  38  64  90 125 169 224 270 323 386
#     4  10  22  37  65  92 126 168 223 272 321 391
#
# _framework density 25.340909
#
# number of rings (size 3 to 8) (size 9 to 14) (size 15 to 20)
#    0.000    1.750    1.250    1.875    8.750    1.000 
#    2.250    0.000    0.000    0.000    0.000    0.000 
#    0.000    0.000    0.000    0.000    0.000    0.000 
#
# Total GULP energy -89215.049592 kJ/mol
# GULP energy per Si atom -5575.940599 kJ/mol
# Density = 2.528323 g / cm^3
# Si number density = 25.340909 Si / 1000 Ang^3
#
#
#
# Elastic Constant Matrix: (Units=GPa)
#
#
# Indices 1 2 3 4 5 6 
#
# 1 183.4743 38.6932 35.6740 15.9930 25.3052 57.8217
# 2 38.6932 88.5433 28.6350 22.1776 -6.0968 39.5811
# 3 35.6740 28.6350 96.0729 25.5451 7.2324 7.1913
# 4 15.9930 22.1776 25.5451 32.3162 0.6755 2.2784
# 5 25.3052 -6.0968 7.2324 0.6755 29.9204 15.4097
# 6 57.8217 39.5811 7.1913 2.2784 15.4097 56.7904
#
#
#
# Elastic Compliance Matrix: (Units=1/GPa)
#
#
# Indices 1 2 3 4 5 6 
#
# 1 0.009028 0.001634 -0.002146 -0.003190 -0.001856 -0.009428
# 2 0.001634 0.028757 -0.004571 -0.015519 0.019173 -0.025708
# 3 -0.002146 -0.004571 0.014583 -0.007590 -0.005163 0.005229
# 4 -0.003190 -0.015519 -0.007590 0.048263 -0.007510 0.015127
# 5 -0.001856 0.019173 -0.005163 -0.007510 0.053163 -0.024943
# 6 -0.009428 -0.025708 0.005229 0.015127 -0.024943 0.050624
#
#
# Mechanical properties :
#
#
# Convention : Reuss Voigt Hill
#
# Bulk Modulus (GPa) = 23.69440 63.78832 43.74136
# Shear Modulus (GPa) = 21.86734 41.47795 31.67264
#
# Velocity S-wave (km/s) = 2.94075 4.05013 3.53917
# Velocity P-wave (km/s) = 4.57179 6.86280 5.83092
#
# Compressibility (1/GPa) = 0.04220406
#
# Stress axis : x y z
#
# Youngs Moduli (GPa) = 110.76480 34.77372 68.57204
#
# Poissons Ratio (x) = -0.05683 0.14715
# Poissons Ratio (y) = -0.18102 0.31342
# Poissons Ratio (z) = 0.23769 0.15894
#
# Static dielectric constant tensor:
#      x y z
#    x 2.087820 0.005290 -0.051420 
#    y 0.005290 2.125010 -0.054640 
#    z -0.051420 -0.054640 2.004050 
# 
# From -- ./inp_files/51656.got.cif
#   From: 2010.05.17/outbox.cif.g08.bks.cpg/sg2_26_cif.got.tgz:51656.got - 2010.06.03 11:33:40.
