data_PCOD9102756
_publ_section_title
;
Structure prediction by ZEFSAII (Michael W. Deem and Ramdas Pophale) SiO2 
 PCOD9102756
Probable space group: P -1
;
_chemical_formula_sum "Si O2"
_cell_formula_units_Z 15
_cell_length_a 8.769097
_cell_length_b 12.733174
_cell_length_c 5.107429
_cell_angle_alpha 88.275181
_cell_angle_beta 80.732360
_cell_angle_gamma 97.148607
_cell_volume 557.735827
_symmetry_space_group_name_H-M "P -1"
_symmetry_group_IT_number 2
_symmetry_cell_setting 'triclinic'
loop_
_space_group_symop_operation_xyz
x,y,z
-x,-y,-z
loop_
_atom_site_type_symbol
_atom_site_label
_atom_site_fract_x
_atom_site_fract_y
_atom_site_fract_z
Si Si1 0.295372 0.930922 0.311030
Si Si2 0.844673 0.361134 0.583500
Si Si3 0.508510 0.423780 0.751853
Si Si4 0.312934 0.263814 0.513351
Si Si5 0.000000 0.500000 0.000000
Si Si6 0.005255 0.162674 0.775812
Si Si7 0.549930 0.137856 0.220443
Si Si8 0.911331 0.672429 0.847889
O O1 0.120463 0.936927 0.252178
O O2 0.323338 0.884935 0.594178
O O3 0.410123 0.040515 0.261999
O O4 0.368804 0.858775 0.080627
O O5 0.665063 0.369334 0.663239
O O6 0.917668 0.253876 0.649836
O O7 0.911373 0.448454 0.761414
O O8 0.922805 0.376144 0.267945
O O9 0.500000 0.500000 0.500000
O O10 0.377564 0.321723 0.753267
O O11 0.500000 0.500000 0.000000
O O12 0.461952 0.234600 0.320043
O O13 0.211310 0.327839 0.346613
O O14 0.181330 0.164111 0.625841
O O15 0.863708 0.581285 0.074909
O O16 0.035863 0.212351 0.052976
#
# Coordination Sequence:
#
# PCOD9102756 Si02
#       8
#     2   2   2   2   1   2   2   2
#     4  10  23  46  73 109 135 187 226 276 351 425
#     4  10  23  40  62  89 123 185 220 285 333 417
#     4  12  30  43  65  96 135 179 233 290 344 403
#     4  11  26  44  65 103 138 182 231 298 345 408
#     4  10  20  38  64  84 126 164 240 274 336 402
#     4  10  24  41  70  96 138 177 232 279 344 419
#     4  10  24  45  77 103 144 176 230 286 343 421
#     4  10  23  39  64  93 127 184 225 282 343 405
#
# _framework density 26.894452000000001
#
# number of rings (size 3 to 8) (size 9 to 14) (size 15 to 20)
#    0.000    1.600    0.000    2.000   18.667    0.533 
#    0.000    0.667    0.000    0.000    0.000    0.000 
#    0.000    0.000    0.000    0.000    0.000    0.000 
#
# Total GULP energy -83683.973280 kJ/mol
# GULP energy per Si atom -5578.931552 kJ/mol
# Density = 2.683324 g / cm^3
# Si number density = 26.894452 Si / 1000 Ang^3
#
#
#
# Elastic Constant Matrix: (Units=GPa)
#
#
# Indices 1 2 3 4 5 6 
#
# 1 38.4380 -10.6583 49.2853 26.0542 2.9491 0.9726
# 2 -10.6583 28.6183 20.9231 7.9164 10.5547 8.5422
# 3 49.2853 20.9231 141.6519 23.3170 16.2112 7.7914
# 4 26.0542 7.9164 23.3170 30.1185 -0.0371 7.4880
# 5 2.9491 10.5547 16.2112 -0.0371 50.5381 18.3752
# 6 0.9726 8.5422 7.7914 7.4880 18.3752 34.7979
#
#
#
# Elastic Compliance Matrix: (Units=1/GPa)
#
#
# Indices 1 2 3 4 5 6 
#
# 1 -0.100097 -0.088302 0.031941 0.087873 0.018166 -0.011179
# 2 -0.088302 -0.034155 0.023793 0.070702 0.010183 -0.015066
# 3 0.031941 0.023793 -0.001264 -0.034248 -0.008400 0.005355
# 4 0.087873 0.070702 -0.034248 -0.034920 -0.008973 0.000109
# 5 0.018166 0.010183 -0.008400 -0.008973 0.023509 -0.011610
# 6 -0.011179 -0.015066 0.005355 0.000109 -0.011610 0.037657
#
#
# Mechanical properties :
#
#
# Convention : Reuss Voigt Hill
#
# Bulk Modulus (GPa) = -4.98379 36.42315 15.71968
# Shear Modulus (GPa) = -45.03720 33.03478 -6.00121
#
# Velocity S-wave (km/s) = -4.09662 3.50853 -1.49541
# Velocity P-wave (km/s) = 4.92275 5.47590 1.69588
#
# Compressibility (1/GPa) = -0.20065062
#
# Stress axis : x y z
#
# Youngs Moduli (GPa) = -9.99028 -29.27832 -791.06291
#
# Poissons Ratio (x) = -2.58533 25.26766
# Poissons Ratio (y) = -0.88216 18.82198
# Poissons Ratio (z) = 0.31910 0.69663
#
# Static dielectric constant tensor:
#      x y z
#    x 2.177020 -0.029800 -0.029080 
#    y -0.029800 5.174980 -1.755290 
#    z -0.029080 -1.755290 3.097310 
# 
# From -- ./inp_files/39756.got.cif
#   From: 2010.05.17/outbox.cif.g08.bks.cpg/sg2_20_cif.got.tgz:39756.got - 2010.06.03 11:33:40.
