data_PCOD9102423
_publ_section_title
;
Structure prediction by ZEFSAII (Michael W. Deem and Ramdas Pophale) SiO2 
 PCOD9102423
Probable space group: P -1
;
_chemical_formula_sum "Si O2"
_cell_formula_units_Z 16
_cell_length_a 11.647919
_cell_length_b 21.222966
_cell_length_c 8.271511
_cell_angle_alpha 143.547443
_cell_angle_beta 129.418669
_cell_angle_gamma 35.936325
_cell_volume 712.230430
_symmetry_space_group_name_H-M "P -1"
_symmetry_group_IT_number 2
_symmetry_cell_setting 'triclinic'
loop_
_space_group_symop_operation_xyz
x,y,z
-x,-y,-z
loop_
_atom_site_type_symbol
_atom_site_label
_atom_site_fract_x
_atom_site_fract_y
_atom_site_fract_z
Si Si1 0.602961 0.612749 0.594385
Si Si2 0.321301 0.607564 0.180706
Si Si3 0.992808 0.081308 0.461262
Si Si4 0.811095 0.556444 0.339844
Si Si5 0.964413 0.668219 0.514715
Si Si6 0.508186 0.885108 0.075016
Si Si7 0.191579 0.045645 0.880000
Si Si8 0.176848 0.150621 0.540188
O O1 0.433924 0.603007 0.426525
O O2 0.643656 0.631389 0.482094
O O3 0.811015 0.472167 0.549197
O O4 0.527796 0.757314 0.898039
O O5 0.188709 0.763969 0.317080
O O6 0.500000 0.500000 0.000000
O O7 0.195308 0.558919 0.978111
O O8 0.163135 0.020381 0.619060
O O9 0.047284 0.115031 0.415733
O O10 0.926265 0.991598 0.204475
O O11 0.819855 0.640206 0.381408
O O12 0.000000 0.500000 0.500000
O O13 0.931728 0.718783 0.406229
O O14 0.906775 0.795716 0.839301
O O15 0.719759 0.838612 0.194744
O O16 0.349731 0.021067 0.320101
O O17 0.412783 0.939463 0.924811
#
# Coordination Sequence:
#
# PCOD9102423 Si02
#       8
#     2   2   2   2   2   2   2   2
#     4  10  20  39  66  90 131 162 213 266 314 364
#     4  10  20  38  62  97 130 154 207 268 316 360
#     4  11  22  41  68  93 119 176 205 263 319 382
#     4   9  19  35  63  94 123 163 206 261 313 367
#     4  10  22  42  63  95 124 174 205 264 314 389
#     4  10  22  44  59  94 127 169 207 272 304 374
#     4  10  22  41  67  92 124 155 225 254 323 375
#     4  10  25  43  64  87 134 170 214 256 319 382
#
# _framework density 22.464638000000001
#
# number of rings (size 3 to 8) (size 9 to 14) (size 15 to 20)
#    0.000    2.000    1.250    2.250    5.250    3.000 
#    4.500    1.875    0.000    0.000    0.000    0.000 
#    0.000    0.000    0.000    0.000    0.000    0.000 
#
# Total GULP energy -89274.605756 kJ/mol
# GULP energy per Si atom -5579.662860 kJ/mol
# Density = 2.241351 g / cm^3
# Si number density = 22.464638 Si / 1000 Ang^3
#
#
#
# Elastic Constant Matrix: (Units=GPa)
#
#
# Indices 1 2 3 4 5 6 
#
# 1 73.5652 28.2160 2.1557 -7.4374 29.7151 15.4954
# 2 28.2160 111.8130 48.5622 14.2985 11.4965 7.0440
# 3 2.1557 48.5622 75.2539 7.1235 41.3230 -13.2888
# 4 -7.4374 14.2985 7.1235 32.2876 -2.0891 2.6666
# 5 29.7151 11.4965 41.3230 -2.0891 39.7701 3.2309
# 6 15.4954 7.0440 -13.2888 2.6666 3.2309 24.9967
#
#
#
# Elastic Compliance Matrix: (Units=1/GPa)
#
#
# Indices 1 2 3 4 5 6 
#
# 1 -0.010776 0.022832 -0.058373 0.007855 0.065776 -0.040126
# 2 0.022832 -0.010353 0.044567 -0.005772 -0.062394 0.021137
# 3 -0.058373 0.044567 -0.093375 -0.000547 0.131209 -0.042915
# 4 0.007855 -0.005772 -0.000547 0.035980 -0.001155 -0.007223
# 5 0.065776 -0.062394 0.131209 -0.001155 -0.147701 0.065776
# 6 -0.040126 0.021137 -0.042915 -0.007223 0.065776 0.028377
#
#
# Mechanical properties :
#
#
# Convention : Reuss Voigt Hill
#
# Bulk Modulus (GPa) = -10.36805 46.49999 18.06597
# Shear Modulus (GPa) = -20.15723 31.52410 5.68343
#
# Velocity S-wave (km/s) = -2.99873 3.75010 1.59231
# Velocity P-wave (km/s) = 4.07616 6.28451 3.38231
#
# Compressibility (1/GPa) = -0.09645019
#
# Stress axis : x y z
#
# Youngs Moduli (GPa) = -92.80133 -96.59453 -10.70956
#
# Poissons Ratio (x) = 2.20543 -0.62515
# Poissons Ratio (y) = 2.11882 0.47729
# Poissons Ratio (z) = -5.41706 4.30494
#
# Static dielectric constant tensor:
#      x y z
#    x 1.820380 0.011800 -0.033270 
#    y 0.011800 1.871520 -0.049690 
#    z -0.033270 -0.049690 1.885080 
# 
# From -- ./inp_files/283512.got.cif
#   From: 2010.05.17/outbox.cif.g08.bks.cpg/sg2_142_cif.got.tgz:283512.got - 2010.06.03 11:33:40.
