data_PCOD9102923
_publ_section_title
;
Structure prediction by ZEFSAII (Michael W. Deem and Ramdas Pophale) SiO2 
 PCOD9102923
Probable space group: P -1
;
_chemical_formula_sum "Si O2"
_cell_formula_units_Z 16
_cell_length_a 13.374766
_cell_length_b 5.764573
_cell_length_c 7.885292
_cell_angle_alpha 112.836475
_cell_angle_beta 94.899904
_cell_angle_gamma 94.117620
_cell_volume 554.594640
_symmetry_space_group_name_H-M "P -1"
_symmetry_group_IT_number 2
_symmetry_cell_setting 'triclinic'
loop_
_space_group_symop_operation_xyz
x,y,z
-x,-y,-z
loop_
_atom_site_type_symbol
_atom_site_label
_atom_site_fract_x
_atom_site_fract_y
_atom_site_fract_z
Si Si1 0.788024 0.525997 0.899032
Si Si2 0.403234 0.596786 0.319988
Si Si3 0.383211 0.914336 0.918817
Si Si4 0.933559 0.218835 0.290770
Si Si5 0.618546 0.634542 0.402508
Si Si6 0.736792 0.048111 0.407723
Si Si7 0.960929 0.668574 0.194985
Si Si8 0.809367 0.023345 0.880601
O O1 0.666636 0.505328 0.873303
O O2 0.820593 0.724897 0.808467
O O3 0.822753 0.244261 0.803694
O O4 0.842175 0.639418 0.110050
O O5 0.514952 0.721217 0.335703
O O6 0.407612 0.386571 0.407069
O O7 0.334277 0.779593 0.454636
O O8 0.375634 0.627851 0.766620
O O9 0.329288 0.042117 0.792349
O O10 0.500000 0.000000 0.000000
O O11 0.305061 0.944938 0.067333
O O12 0.841133 0.191482 0.401800
O O13 0.993351 0.974269 0.278359
O O14 0.972722 0.510739 0.325189
O O15 0.882486 0.126257 0.075763
O O16 0.726508 0.799341 0.451041
O O17 0.000000 0.500000 0.000000
#
# Coordination Sequence:
#
# PCOD9102923 Si02
#       8
#     2   2   2   2   2   2   2   2
#     4  10  21  36  58  83 114 152 187 237 289 350
#     4  10  22  37  53  77 113 157 210 238 281 323
#     4  10  21  32  50  77 107 146 193 246 295 331
#     4   9  20  35  60  86 118 145 185 228 295 353
#     4  10  22  36  54  76 112 159 209 244 279 326
#     4  10  22  35  55  78 111 157 197 241 281 339
#     4  10  20  38  64  93 117 142 180 237 301 362
#     4   9  20  33  52  81 111 142 187 231 290 338
#
# _framework density 28.849903000000001
#
# number of rings (size 3 to 8) (size 9 to 14) (size 15 to 20)
#    0.000    2.250    0.000    1.500   14.000    0.500 
#    0.000    0.000    0.000    1.500    0.000    0.000 
#    0.000    0.000    0.000    0.000    0.000    0.000 
#
# Total GULP energy -89372.151440 kJ/mol
# GULP energy per Si atom -5585.759465 kJ/mol
# Density = 2.878424 g / cm^3
# Si number density = 28.849903 Si / 1000 Ang^3
#
#
#
# Elastic Constant Matrix: (Units=GPa)
#
#
# Indices 1 2 3 4 5 6 
#
# 1 106.6417 47.3091 15.1526 -4.5134 -5.0928 -2.7756
# 2 47.3091 246.4665 32.1069 -9.3379 -14.4803 10.9046
# 3 15.1526 32.1069 68.5636 -1.5942 -7.6690 -0.0492
# 4 -4.5134 -9.3379 -1.5942 52.6896 -4.1922 -6.3510
# 5 -5.0928 -14.4803 -7.6690 -4.1922 53.8847 -1.1149
# 6 -2.7756 10.9046 -0.0492 -6.3510 -1.1149 51.9099
#
#
#
# Elastic Compliance Matrix: (Units=1/GPa)
#
#
# Indices 1 2 3 4 5 6 
#
# 1 0.010458 -0.001823 -0.001399 0.000685 0.000374 0.001033
# 2 -0.001823 0.004748 -0.001709 0.000583 0.000885 -0.001006
# 3 -0.001399 -0.001709 0.015890 0.000237 0.001696 0.000365
# 4 0.000685 0.000583 0.000237 0.019577 0.001827 0.002349
# 5 0.000374 0.000885 0.001696 0.001827 0.019225 0.000472
# 6 0.001033 -0.001006 0.000365 0.002349 0.000472 0.019829
#
#
# Mechanical properties :
#
#
# Convention : Reuss Voigt Hill
#
# Bulk Modulus (GPa) = 47.09259 67.86764 57.48011
# Shear Modulus (GPa) = 46.87482 53.50373 50.18927
#
# Velocity S-wave (km/s) = 4.03523 4.31113 4.17546
# Velocity P-wave (km/s) = 6.17005 6.95389 6.57366
#
# Compressibility (1/GPa) = 0.02123476
#
# Stress axis : x y z
#
# Youngs Moduli (GPa) = 95.61645 210.59333 62.93293
#
# Poissons Ratio (x) = 0.38391 0.08805
# Poissons Ratio (y) = 0.17431 0.10755
# Poissons Ratio (z) = 0.13378 0.35988
#
# Static dielectric constant tensor:
#      x y z
#    x 2.303700 -0.015750 0.104590 
#    y -0.015750 2.473740 -0.016160 
#    z 0.104590 -0.016160 2.270420 
# 
# From -- ./inp_files/44237.got.cif
#   From: 2010.05.17/outbox.cif.g08.bks.cpg/sg2_23_cif.got.tgz:44237.got - 2010.06.03 11:33:40.
