data_PCOD9102294
_publ_section_title
;
Structure prediction by ZEFSAII (Michael W. Deem and Ramdas Pophale) SiO2 
 PCOD9102294
Probable space group: P -1
;
_chemical_formula_sum "Si O2"
_cell_formula_units_Z 16
_cell_length_a 20.954485
_cell_length_b 20.546369
_cell_length_c 8.274904
_cell_angle_alpha 33.551215
_cell_angle_beta 137.695029
_cell_angle_gamma 160.181979
_cell_volume 648.500105
_symmetry_space_group_name_H-M "P -1"
_symmetry_group_IT_number 2
_symmetry_cell_setting 'triclinic'
loop_
_space_group_symop_operation_xyz
x,y,z
-x,-y,-z
loop_
_atom_site_type_symbol
_atom_site_label
_atom_site_fract_x
_atom_site_fract_y
_atom_site_fract_z
Si Si1 0.463082 0.138683 0.345078
Si Si2 0.952179 0.965687 0.170205
Si Si3 0.920401 0.175053 0.843764
Si Si4 0.766192 0.876622 0.455415
Si Si5 0.394738 0.568881 0.254784
Si Si6 0.509685 0.924885 0.938273
Si Si7 0.245428 0.960116 0.633173
Si Si8 0.112422 0.501189 0.252998
O O1 0.389347 0.095018 0.474498
O O2 0.264130 0.938646 0.283307
O O3 0.527779 0.073856 0.590101
O O4 0.607874 0.390118 0.019218
O O5 0.790580 0.696486 0.475022
O O6 0.133775 0.133902 0.279847
O O7 0.883854 0.020520 0.982872
O O8 0.000000 0.000000 0.000000
O O9 0.088552 0.427389 0.542950
O O10 0.917570 0.122708 0.128553
O O11 0.575444 0.676512 0.403429
O O12 0.708043 0.875380 0.516548
O O13 0.441576 0.742501 0.076259
O O14 0.705513 0.094515 0.041273
O O15 0.331671 0.743378 0.106893
O O16 0.024421 0.729808 0.637219
O O17 0.000000 0.500000 0.000000
#
# Coordination Sequence:
#
# PCOD9102294 Si02
#       8
#     2   2   2   2   2   2   2   2
#     4  10  20  38  62  90 126 162 206 257 307 368
#     4  12  24  44  68  90 126 165 212 258 310 374
#     4  10  22  41  64  94 127 164 207 264 305 366
#     4  10  23  43  63  93 130 158 214 259 304 370
#     4  10  24  41  64  93 122 167 205 255 318 365
#     4  11  20  38  63  90 130 163 206 253 308 372
#     4  10  21  38  61  94 127 162 210 256 304 374
#     4  11  21  39  65  89 127 167 204 250 316 365
#
# _framework density 24.672315999999999
#
# number of rings (size 3 to 8) (size 9 to 14) (size 15 to 20)
#    0.000    1.500    2.500    4.125    0.000    3.500 
#    0.000    5.625    0.000    0.000    0.000    0.000 
#    0.000    0.000    0.000    0.000    0.000    0.000 
#
# Total GULP energy -89454.200381 kJ/mol
# GULP energy per Si atom -5590.887524 kJ/mol
# Density = 2.461616 g / cm^3
# Si number density = 24.672316 Si / 1000 Ang^3
#
#
#
# Elastic Constant Matrix: (Units=GPa)
#
#
# Indices 1 2 3 4 5 6 
#
# 1 65.0493 17.8768 27.0178 -10.6996 2.1749 -2.2130
# 2 17.8768 87.8191 46.3687 8.2044 9.1961 11.1491
# 3 27.0178 46.3687 139.5278 -1.9895 -7.7219 0.6038
# 4 -10.6996 8.2044 -1.9895 43.2684 11.3092 3.6201
# 5 2.1749 9.1961 -7.7219 11.3092 38.4824 2.0747
# 6 -2.2130 11.1491 0.6038 3.6201 2.0747 29.5849
#
#
#
# Elastic Compliance Matrix: (Units=1/GPa)
#
#
# Indices 1 2 3 4 5 6 
#
# 1 0.018311 -0.002794 -0.002693 0.005451 -0.002617 0.001994
# 2 -0.002794 0.015883 -0.004948 -0.002529 -0.003589 -0.005532
# 3 -0.002693 -0.004948 0.009503 -0.000245 0.003245 0.001272
# 4 0.005451 -0.002529 -0.000245 0.027038 -0.007623 -0.001408
# 5 -0.002617 -0.003589 0.003245 -0.007623 0.029887 -0.000073
# 6 0.001994 -0.005532 0.001272 -0.001408 -0.000073 0.036186
#
#
# Mechanical properties :
#
#
# Convention : Reuss Voigt Hill
#
# Bulk Modulus (GPa) = 43.80660 52.76920 48.28790
# Shear Modulus (GPa) = 30.25024 35.67600 32.96312
#
# Velocity S-wave (km/s) = 3.50534 3.80675 3.65915
# Velocity P-wave (km/s) = 5.84612 6.38406 6.12100
#
# Compressibility (1/GPa) = 0.02282761
#
# Stress axis : x y z
#
# Youngs Moduli (GPa) = 54.61106 62.96117 105.22514
#
# Poissons Ratio (x) = 0.17591 0.28337
# Poissons Ratio (y) = 0.15258 0.52065
# Poissons Ratio (z) = 0.14707 0.31153
#
# Static dielectric constant tensor:
#      x y z
#    x 1.987520 -0.028130 -0.014600 
#    y -0.028130 2.002810 0.009220 
#    z -0.014600 0.009220 1.999580 
# 
# From -- ./inp_files/318988.got.cif
#   From: 2010.05.17/outbox.cif.g08.bks.cpg/sg2_160_cif.got.tgz:318988.got - 2010.06.03 11:33:40.
