data_PCOD9102453
_publ_section_title
;
Structure prediction by ZEFSAII (Michael W. Deem and Ramdas Pophale) SiO2 
 PCOD9102453
Probable space group: P -1
;
_chemical_formula_sum "Si O2"
_cell_formula_units_Z 16
_cell_length_a 11.167598
_cell_length_b 9.618831
_cell_length_c 12.485535
_cell_angle_alpha 121.876030
_cell_angle_beta 89.862063
_cell_angle_gamma 125.413040
_cell_volume 834.142835
_symmetry_space_group_name_H-M "P -1"
_symmetry_group_IT_number 2
_symmetry_cell_setting 'triclinic'
loop_
_space_group_symop_operation_xyz
x,y,z
-x,-y,-z
loop_
_atom_site_type_symbol
_atom_site_label
_atom_site_fract_x
_atom_site_fract_y
_atom_site_fract_z
Si Si1 0.207806 0.420722 0.367644
Si Si2 0.562967 0.246789 0.101483
Si Si3 0.792629 0.636278 0.412311
Si Si4 0.393070 0.926701 0.574226
Si Si5 0.514066 0.246068 0.870658
Si Si6 0.660536 0.643734 0.865010
Si Si7 0.168392 0.033355 0.595864
Si Si8 0.153315 0.024598 0.828476
O O1 0.241411 0.377116 0.467269
O O2 0.274193 0.664456 0.479854
O O3 0.296722 0.414572 0.266100
O O4 0.013031 0.232414 0.269756
O O5 0.698132 0.404174 0.256586
O O6 0.431104 0.271759 0.130373
O O7 0.619508 0.335860 0.014824
O O8 0.500000 0.000000 0.000000
O O9 0.989009 0.807172 0.469236
O O10 0.752067 0.765168 0.402741
O O11 0.283201 0.984955 0.586040
O O12 0.500000 0.000000 0.500000
O O13 0.512295 0.077799 0.734593
O O14 0.559992 0.436980 0.867015
O O15 0.326899 0.091769 0.849851
O O16 0.821902 0.837628 0.013291
O O17 0.146938 0.096427 0.738653
#
# Coordination Sequence:
#
# PCOD9102453 Si02
#       8
#     2   2   2   2   2   2   2   2
#     4  11  23  36  57  90 118 151 183 244 295 337
#     4  11  22  36  56  84 112 150 193 234 274 340
#     4  10  21  39  58  85 118 153 191 227 290 347
#     4  11  21  38  59  88 116 144 195 244 291 331
#     4  10  20  38  63  83 109 155 194 234 277 339
#     4  11  21  38  58  86 115 152 189 237 290 336
#     4   9  20  38  63  83 111 155 192 237 280 344
#     4   9  19  36  61  83 110 148 200 233 274 333
#
# _framework density 19.181366000000001
#
# number of rings (size 3 to 8) (size 9 to 14) (size 15 to 20)
#    0.000    1.750    1.250    4.875    0.000    7.000 
#    2.250    0.000    0.000    0.750    0.000    0.000 
#    0.000    0.000    0.000    0.000    0.000    0.000 
#
# Total GULP energy -89142.048597 kJ/mol
# GULP energy per Si atom -5571.378037 kJ/mol
# Density = 1.913771 g / cm^3
# Si number density = 19.181366 Si / 1000 Ang^3
#
#
#
# Elastic Constant Matrix: (Units=GPa)
#
#
# Indices 1 2 3 4 5 6 
#
# 1 36.5984 24.1994 21.2687 -1.3129 -8.4453 -5.1638
# 2 24.1994 93.0706 35.1464 0.7791 -8.7642 -4.6824
# 3 21.2687 35.1464 149.7478 -1.2472 -2.0507 -0.9571
# 4 -1.3129 0.7791 -1.2472 37.9711 3.6113 -4.5308
# 5 -8.4453 -8.7642 -2.0507 3.6113 26.6993 0.6739
# 6 -5.1638 -4.6824 -0.9571 -4.5308 0.6739 22.1395
#
#
#
# Elastic Compliance Matrix: (Units=1/GPa)
#
#
# Indices 1 2 3 4 5 6 
#
# 1 0.037119 -0.007199 -0.003407 0.001320 0.008761 0.006991
# 2 -0.007199 0.013683 -0.002160 -0.000693 0.002119 0.000915
# 3 -0.003407 -0.002160 0.007648 0.000191 -0.001204 -0.000845
# 4 0.001320 -0.000693 0.000191 0.027454 -0.003657 0.005899
# 5 0.008761 0.002119 -0.001204 -0.003657 0.041312 0.000434
# 6 0.006991 0.000915 -0.000845 0.005899 0.000434 0.048150
#
#
# Mechanical properties :
#
#
# Convention : Reuss Voigt Hill
#
# Bulk Modulus (GPa) = 30.37740 48.96065 39.66903
# Shear Modulus (GPa) = 23.59921 30.61549 27.10735
#
# Velocity S-wave (km/s) = 3.51140 3.99946 3.76335
# Velocity P-wave (km/s) = 5.68429 6.84895 6.29362
#
# Compressibility (1/GPa) = 0.03291921
#
# Stress axis : x y z
#
# Youngs Moduli (GPa) = 26.94039 73.08087 130.74617
#
# Poissons Ratio (x) = 0.52612 0.44541
# Poissons Ratio (y) = 0.19395 0.28241
# Poissons Ratio (z) = 0.09178 0.15785
#
# Static dielectric constant tensor:
#      x y z
#    x 1.669570 -0.014630 0.024080 
#    y -0.014630 1.702810 -0.014100 
#    z 0.024080 -0.014100 1.761410 
# 
# From -- ./inp_files/393196.got.cif
#   From: 2010.05.17/outbox.cif.g08.bks.cpg/sg2_197_cif.got.tgz:393196.got - 2010.06.03 11:33:40.
