data_PCOD9102888
_publ_section_title
;
Structure prediction by ZEFSAII (Michael W. Deem and Ramdas Pophale) SiO2 
 PCOD9102888
Probable space group: P -1
;
_chemical_formula_sum "Si O2"
_cell_formula_units_Z 13
_cell_length_a 9.852786
_cell_length_b 9.542494
_cell_length_c 9.258283
_cell_angle_alpha 126.590060
_cell_angle_beta 128.989285
_cell_angle_gamma 76.026987
_cell_volume 530.651492
_symmetry_space_group_name_H-M "P -1"
_symmetry_group_IT_number 2
_symmetry_cell_setting 'triclinic'
loop_
_space_group_symop_operation_xyz
x,y,z
-x,-y,-z
loop_
_atom_site_type_symbol
_atom_site_label
_atom_site_fract_x
_atom_site_fract_y
_atom_site_fract_z
Si Si1 0.090656 0.800614 0.530802
Si Si2 0.500000 0.500000 0.000000
Si Si3 0.796930 0.792530 0.140456
Si Si4 0.040077 0.178702 0.041164
Si Si5 0.366133 0.837484 0.227647
Si Si6 0.858967 0.623975 0.493344
Si Si7 0.424285 0.820045 0.927670
O O1 0.259355 0.729681 0.660088
O O2 0.949760 0.704946 0.259101
O O3 0.957289 0.799819 0.576435
O O4 0.168691 0.002312 0.653935
O O5 0.554585 0.339195 0.831687
O O6 0.308238 0.470315 0.768604
O O7 0.589655 0.718115 0.000406
O O8 0.835944 0.809778 0.008873
O O9 0.148177 0.322413 0.313982
O O10 0.839101 0.200391 0.879512
O O11 0.000000 0.000000 0.000000
O O12 0.500000 0.000000 0.500000
O O13 0.363077 0.877148 0.076896
O O14 0.000000 0.500000 0.500000
O O15 0.500000 0.000000 0.000000
#
# Coordination Sequence:
#
# PCOD9102888 Si02
#       7
#     2   1   2   2   2   2   2
#     4  10  20  38  64  91 134 179 219 276 352 411
#     4  12  26  44  70 104 142 180 234 294 346 410
#     4  10  22  36  65 100 133 173 228 282 349 408
#     4  12  22  43  68 105 136 175 237 294 337 417
#     4  12  26  43  74 108 137 183 243 290 347 419
#     4  12  23  44  67  95 138 182 228 284 351 403
#     4  10  20  40  63  99 139 181 225 281 354 414
#
# _framework density 24.498189
#
# number of rings (size 3 to 8) (size 9 to 14) (size 15 to 20)
#    0.000    0.923    4.615    2.769    6.462    0.000 
#    0.000    0.769    0.000    5.538    0.000    0.000 
#    0.000    0.000    0.000    0.000    0.000    0.000 
#
# Total GULP energy -72392.762762 kJ/mol
# GULP energy per Si atom -5568.674059 kJ/mol
# Density = 2.444243 g / cm^3
# Si number density = 24.498189 Si / 1000 Ang^3
#
#
#
# Elastic Constant Matrix: (Units=GPa)
#
#
# Indices 1 2 3 4 5 6 
#
# 1 106.3776 -2.5626 43.4066 -7.2792 20.6825 -11.5387
# 2 -2.5626 66.1464 51.2824 -10.6110 15.4284 -29.1008
# 3 43.4066 51.2824 199.5573 -24.2355 34.8362 -28.3694
# 4 -7.2792 -10.6110 -24.2355 56.3120 -5.9275 13.0701
# 5 20.6825 15.4284 34.8362 -5.9275 48.8430 -4.6418
# 6 -11.5387 -29.1008 -28.3694 13.0701 -4.6418 38.9053
#
#
#
# Elastic Compliance Matrix: (Units=1/GPa)
#
#
# Indices 1 2 3 4 5 6 
#
# 1 0.012123 0.006068 -0.002587 -0.000235 -0.004685 0.005768
# 2 0.006068 0.029206 -0.005049 -0.001107 -0.006469 0.019563
# 3 -0.002587 -0.005049 0.007515 0.001671 -0.002459 0.000081
# 4 -0.000235 -0.001107 0.001671 0.019790 0.001070 -0.006200
# 5 -0.004685 -0.006469 -0.002459 0.001070 0.025882 -0.005293
# 6 0.005768 0.019563 0.000081 -0.006200 -0.005293 0.043558
#
#
# Mechanical properties :
#
#
# Convention : Reuss Voigt Hill
#
# Bulk Modulus (GPa) = 21.87845 61.81489 41.84667
# Shear Modulus (GPa) = 31.96003 47.47572 39.71788
#
# Velocity S-wave (km/s) = 3.61583 4.40697 4.03085
# Velocity P-wave (km/s) = 5.13637 7.15418 6.22754
#
# Compressibility (1/GPa) = 0.04570708
#
# Stress axis : x y z
#
# Youngs Moduli (GPa) = 82.49000 34.23988 133.06625
#
# Poissons Ratio (x) = -0.20776 0.34422
# Poissons Ratio (y) = -0.50053 0.67187
# Poissons Ratio (z) = 0.21339 0.17288
#
# Static dielectric constant tensor:
#      x y z
#    x 1.920330 -0.031790 0.041930 
#    y -0.031790 1.929170 -0.100390 
#    z 0.041930 -0.100390 1.970060 
# 
# From -- ./inp_files/183457.got.cif
#   From: 2010.05.17/outbox.cif.g08.bks.cpg/sg2_92_cif.got.tgz:183457.got - 2010.06.03 11:33:40.
