data_PCOD9102109
_publ_section_title
;
Structure prediction by ZEFSAII (Michael W. Deem and Ramdas Pophale) SiO2 
 PCOD9102109
Probable space group: P -1
;
_chemical_formula_sum "Si O2"
_cell_formula_units_Z 16
_cell_length_a 14.365614
_cell_length_b 12.974361
_cell_length_c 10.935906
_cell_angle_alpha 147.776779
_cell_angle_beta 133.356747
_cell_angle_gamma 40.402396
_cell_volume 699.144778
_symmetry_space_group_name_H-M "P -1"
_symmetry_group_IT_number 2
_symmetry_cell_setting 'triclinic'
loop_
_space_group_symop_operation_xyz
x,y,z
-x,-y,-z
loop_
_atom_site_type_symbol
_atom_site_label
_atom_site_fract_x
_atom_site_fract_y
_atom_site_fract_z
Si Si1 0.257225 0.114351 0.832083
Si Si2 0.339958 0.029050 0.166757
Si Si3 0.633106 0.416851 0.230130
Si Si4 0.950689 0.834873 0.107545
Si Si5 0.158663 0.346714 0.722847
Si Si6 0.619214 0.747983 0.368799
Si Si7 0.976968 0.134311 0.241244
Si Si8 0.446519 0.251731 0.301177
O O1 0.108358 0.137678 0.779816
O O2 0.226317 0.184950 0.735347
O O3 0.391000 0.870427 0.725934
O O4 0.323279 0.262348 0.106890
O O5 0.281272 0.207382 0.398584
O O6 0.445404 0.084201 0.235885
O O7 0.405661 0.779868 0.017275
O O8 0.203119 0.078606 0.011416
O O9 0.568271 0.598045 0.247898
O O10 0.806987 0.305689 0.263819
O O11 0.589747 0.530528 0.437869
O O12 0.012756 0.976543 0.234607
O O13 0.052459 0.583108 0.917993
O O14 0.284977 0.355575 0.766306
O O15 0.071514 0.258722 0.470121
O O16 0.500000 0.000000 0.500000
O O17 0.000000 0.000000 0.000000
#
# Coordination Sequence:
#
# PCOD9102109 Si02
#       8
#     2   2   2   2   2   2   2   2
#     4  10  21  39  60  84 119 155 193 239 282 338
#     4   9  19  38  61  86 114 148 196 241 284 343
#     4  10  20  38  62  84 112 153 193 236 291 341
#     4  10  22  39  60  86 115 151 194 238 284 341
#     4  12  22  37  60  85 118 156 188 234 294 339
#     4  11  23  37  57  87 119 149 188 240 291 343
#     4  11  23  39  61  89 116 149 194 239 287 345
#     4   9  19  40  62  84 115 153 196 238 284 339
#
# _framework density 22.885103000000001
#
# number of rings (size 3 to 8) (size 9 to 14) (size 15 to 20)
#    0.000    1.750    0.000    6.375    0.000    2.500 
#    0.000   18.750    0.000    0.000    0.000    0.000 
#    0.000    0.000    0.000    0.000    0.000    0.000 
#
# Total GULP energy -89320.394667 kJ/mol
# GULP energy per Si atom -5582.524667 kJ/mol
# Density = 2.283302 g / cm^3
# Si number density = 22.885103 Si / 1000 Ang^3
#
#
#
# Elastic Constant Matrix: (Units=GPa)
#
#
# Indices 1 2 3 4 5 6 
#
# 1 60.0332 6.0758 17.1043 -3.0249 -17.9641 -12.8167
# 2 6.0758 56.0425 15.1309 10.8852 0.4344 -2.1872
# 3 17.1043 15.1309 83.5382 7.4972 -11.2911 -10.5967
# 4 -3.0249 10.8852 7.4972 25.8686 1.1213 -9.4848
# 5 -17.9641 0.4344 -11.2911 1.1213 42.6288 6.4476
# 6 -12.8167 -2.1872 -10.5967 -9.4848 6.4476 36.8585
#
#
#
# Elastic Compliance Matrix: (Units=1/GPa)
#
#
# Indices 1 2 3 4 5 6 
#
# 1 0.021710 -0.002719 -0.002683 0.006747 0.007216 0.007090
# 2 -0.002719 0.020584 -0.002894 -0.009037 -0.001488 -0.002621
# 3 -0.002683 -0.002894 0.013819 -0.002542 0.002353 0.001802
# 4 0.006747 -0.009037 -0.002542 0.049140 -0.001136 0.013923
# 5 0.007216 -0.001488 0.002353 -0.001136 0.027470 -0.002000
# 6 0.007090 -0.002621 0.001802 0.013923 -0.002000 0.033892
#
#
# Mechanical properties :
#
#
# Convention : Reuss Voigt Hill
#
# Bulk Modulus (GPa) = 25.30343 30.69286 27.99814
# Shear Modulus (GPa) = 25.46065 31.82473 28.64269
#
# Velocity S-wave (km/s) = 3.33910 3.73316 3.54162
# Velocity P-wave (km/s) = 5.09380 5.65887 5.38376
#
# Compressibility (1/GPa) = 0.03952034
#
# Stress axis : x y z
#
# Youngs Moduli (GPa) = 46.06137 48.58059 72.36387
#
# Poissons Ratio (x) = 0.13209 0.19419
# Poissons Ratio (y) = 0.12524 0.20944
# Poissons Ratio (z) = 0.12360 0.14060
#
# Static dielectric constant tensor:
#      x y z
#    x 1.983940 0.046110 -0.016070 
#    y 0.046110 1.882100 -0.043080 
#    z -0.016070 -0.043080 1.894290 
# 
# From -- ./inp_files/455270.got.cif
#   From: 2010.05.17/outbox.cif.g08.bks.cpg/sg2_228_cif.got.tgz:455270.got - 2010.06.03 11:33:40.
