data_PCOD9102993
_publ_section_title
;
Structure prediction by ZEFSAII (Michael W. Deem and Ramdas Pophale) SiO2 
 PCOD9102993
Probable space group: P -1
;
_chemical_formula_sum "Si O2"
_cell_formula_units_Z 16
_cell_length_a 8.517545
_cell_length_b 12.092810
_cell_length_c 16.464090
_cell_angle_alpha 145.733609
_cell_angle_beta 120.297412
_cell_angle_gamma 80.579430
_cell_volume 703.713539
_symmetry_space_group_name_H-M "P -1"
_symmetry_group_IT_number 2
_symmetry_cell_setting 'triclinic'
loop_
_space_group_symop_operation_xyz
x,y,z
-x,-y,-z
loop_
_atom_site_type_symbol
_atom_site_label
_atom_site_fract_x
_atom_site_fract_y
_atom_site_fract_z
Si Si1 0.488859 0.724386 0.141762
Si Si2 0.275969 0.654846 0.516239
Si Si3 0.395162 0.853214 0.037400
Si Si4 0.021951 0.844062 0.843572
Si Si5 0.326058 0.084823 0.539080
Si Si6 0.781349 0.813391 0.046160
Si Si7 0.333691 0.672371 0.347918
Si Si8 0.059632 0.914795 0.594444
O O1 0.473853 0.770889 0.259838
O O2 0.724646 0.935522 0.308778
O O3 0.340522 0.737761 0.042853
O O4 0.500000 0.500000 0.000000
O O5 0.472512 0.870709 0.743674
O O6 0.320285 0.658903 0.433737
O O7 0.194174 0.401263 0.373568
O O8 0.087687 0.711590 0.511497
O O9 0.555198 0.786151 0.996754
O O10 0.195985 0.792859 0.894598
O O11 0.111248 0.992555 0.876411
O O12 0.000000 0.000000 0.000000
O O13 0.425794 0.169844 0.527982
O O14 0.233142 0.818347 0.374950
O O15 0.153695 0.157205 0.551641
O O16 0.921605 0.915972 0.225930
O O17 0.756241 0.580221 0.864962
#
# Coordination Sequence:
#
# PCOD9102993 Si02
#       8
#     2   2   2   2   2   2   2   2
#     4  10  20  38  64  95 127 168 217 259 321 387
#     4  10  23  45  64  96 132 165 221 270 315 391
#     4  10  24  44  67  94 133 169 217 269 318 391
#     4  12  25  43  71  97 125 173 219 271 334 372
#     4  11  22  38  65  95 128 177 208 258 334 382
#     4  10  23  46  59  96 129 165 219 266 320 393
#     4  11  22  40  61  90 140 161 209 270 321 380
#     4  10  23  40  65  94 127 167 224 262 312 397
#
# _framework density 22.736523999999999
#
# number of rings (size 3 to 8) (size 9 to 14) (size 15 to 20)
#    0.000    1.750    3.750    2.250    3.500    4.000 
#    2.250    0.000    0.000    0.000    0.000    0.000 
#    0.000    0.000    0.000    0.000    0.000    0.000 
#
# Total GULP energy -89357.859846 kJ/mol
# GULP energy per Si atom -5584.866240 kJ/mol
# Density = 2.268477 g / cm^3
# Si number density = 22.736524 Si / 1000 Ang^3
#
#
#
# Elastic Constant Matrix: (Units=GPa)
#
#
# Indices 1 2 3 4 5 6 
#
# 1 36.4963 1.5681 3.0376 -3.3085 -10.9437 11.8370
# 2 1.5681 41.6141 9.8119 1.3749 11.9219 8.3798
# 3 3.0376 9.8119 136.1300 23.0074 -21.3087 4.2611
# 4 -3.3085 1.3749 23.0074 30.3485 4.6019 -10.1147
# 5 -10.9437 11.9219 -21.3087 4.6019 29.4403 -2.2898
# 6 11.8370 8.3798 4.2611 -10.1147 -2.2898 13.4364
#
#
#
# Elastic Compliance Matrix: (Units=1/GPa)
#
#
# Indices 1 2 3 4 5 6 
#
# 1 0.053839 0.003911 0.009274 -0.028337 0.024125 -0.070031
# 2 0.003911 0.036548 -0.003015 -0.007691 -0.016968 -0.033965
# 3 0.009274 -0.003015 0.013788 -0.019180 0.015905 -0.022391
# 4 -0.028337 -0.007691 -0.019180 0.079051 -0.026594 0.090820
# 5 0.024125 -0.016968 0.015905 -0.026594 0.063537 -0.024907
# 6 -0.070031 -0.033965 -0.022391 0.090820 -0.024907 0.228527
#
#
# Mechanical properties :
#
#
# Convention : Reuss Voigt Hill
#
# Bulk Modulus (GPa) = 8.03098 27.00840 17.51969
# Shear Modulus (GPa) = 10.07142 27.96656 19.01899
#
# Velocity S-wave (km/s) = 2.10695 3.51098 2.89536
# Velocity P-wave (km/s) = 3.07552 5.32359 4.34738
#
# Compressibility (1/GPa) = 0.12451781
#
# Stress axis : x y z
#
# Youngs Moduli (GPa) = 18.57404 27.36106 72.52551
#
# Poissons Ratio (x) = -0.10702 -0.67263
# Poissons Ratio (y) = -0.07265 0.21863
# Poissons Ratio (z) = -0.17226 0.08248
#
# Static dielectric constant tensor:
#      x y z
#    x 1.890180 0.009740 -0.008310 
#    y 0.009740 1.883570 -0.001060 
#    z -0.008310 -0.001060 1.870550 
# 
# From -- ./inp_files/559438.got.cif
#   From: 2010.05.17/outbox.cif.g08.bks.cpg/sg2_280_cif.got.tgz:559438.got - 2010.06.03 11:33:40.
