data_PCOD9102191
_publ_section_title
;
Structure prediction by ZEFSAII (Michael W. Deem and Ramdas Pophale) SiO2 
 PCOD9102191
Probable space group: P -1
;
_chemical_formula_sum "Si O2"
_cell_formula_units_Z 14
_cell_length_a 18.643244
_cell_length_b 14.702203
_cell_length_c 9.102456
_cell_angle_alpha 133.709580
_cell_angle_beta 139.262921
_cell_angle_gamma 22.592737
_cell_volume 625.146244
_symmetry_space_group_name_H-M "P -1"
_symmetry_group_IT_number 2
_symmetry_cell_setting 'triclinic'
loop_
_space_group_symop_operation_xyz
x,y,z
-x,-y,-z
loop_
_atom_site_type_symbol
_atom_site_label
_atom_site_fract_x
_atom_site_fract_y
_atom_site_fract_z
Si Si1 0.887493 0.217521 0.975731
Si Si2 0.916089 0.450250 0.375773
Si Si3 0.815500 0.142570 0.480580
Si Si4 0.451045 0.894287 0.291145
Si Si5 0.883425 0.783737 0.260803
Si Si6 0.294842 0.244443 0.232605
Si Si7 0.522239 0.398893 0.066565
O O1 0.831033 0.209867 0.725452
O O2 0.699772 0.423089 0.023888
O O3 0.964069 0.286841 0.158131
O O4 0.000000 0.000000 0.000000
O O5 0.670402 0.698018 0.319292
O O6 0.000000 0.500000 0.500000
O O7 0.049322 0.288298 0.546649
O O8 0.621982 0.363506 0.324433
O O9 0.821800 0.986563 0.352108
O O10 0.000000 0.000000 0.500000
O O11 0.516210 0.855849 0.519242
O O12 0.290682 0.146069 0.249994
O O13 0.366939 0.837118 0.070076
O O14 0.096920 0.527990 0.228957
O O15 0.713538 0.843072 0.016068
O O16 0.500000 0.500000 0.000000
#
# Coordination Sequence:
#
# PCOD9102191 Si02
#       7
#     2   2   2   2   2   2   2
#     4  11  23  45  68  93 138 176 217 280 330 392
#     4  10  22  41  63  90 125 173 215 266 330 389
#     4  12  25  41  67  98 131 179 224 271 332 399
#     4   9  19  38  62  86 129 159 213 266 318 384
#     4  10  20  38  62  87 131 161 216 268 316 387
#     4   9  18  35  60  88 114 165 198 263 318 366
#     4  11  24  43  67  97 129 175 225 274 331 398
#
# _framework density 22.394760000000002
#
# number of rings (size 3 to 8) (size 9 to 14) (size 15 to 20)
#    0.000    1.714    2.857    1.286    4.000    3.429 
#    7.714    0.714    0.000    0.000    0.000    0.000 
#    0.000    0.000    0.000    0.000    0.000    0.000 
#
# Total GULP energy -77966.088857 kJ/mol
# GULP energy per Si atom -5569.006347 kJ/mol
# Density = 2.234379 g / cm^3
# Si number density = 22.394760 Si / 1000 Ang^3
#
#
#
# Elastic Constant Matrix: (Units=GPa)
#
#
# Indices 1 2 3 4 5 6 
#
# 1 66.2958 19.9404 15.5551 13.1483 -4.9623 18.7355
# 2 19.9404 75.5916 34.8449 13.8356 -7.7008 21.7268
# 3 15.5551 34.8449 149.6034 28.4794 -20.5293 30.1285
# 4 13.1483 13.8356 28.4794 47.2505 3.0508 -1.6883
# 5 -4.9623 -7.7008 -20.5293 3.0508 23.3425 -5.1570
# 6 18.7355 21.7268 30.1285 -1.6883 -5.1570 29.7318
#
#
#
# Elastic Compliance Matrix: (Units=1/GPa)
#
#
# Indices 1 2 3 4 5 6 
#
# 1 0.021063 -0.000420 0.003516 -0.008758 0.005006 -0.016158
# 2 -0.000420 0.018576 0.000038 -0.006068 0.003994 -0.013001
# 3 0.003516 0.000038 0.012125 -0.009402 0.009696 -0.013383
# 4 -0.008758 -0.006068 -0.009402 0.032515 -0.012136 0.019222
# 5 0.005006 0.003994 0.009696 -0.012136 0.053730 -0.007269
# 6 -0.016158 -0.013001 -0.013383 0.019222 -0.007269 0.066709
#
#
# Mechanical properties :
#
#
# Convention : Reuss Voigt Hill
#
# Bulk Modulus (GPa) = 17.23115 48.01907 32.62511
# Shear Modulus (GPa) = 22.95735 34.80833 28.88284
#
# Velocity S-wave (km/s) = 3.20523 3.94675 3.59516
# Velocity P-wave (km/s) = 4.62698 6.50059 5.64210
#
# Compressibility (1/GPa) = 0.05803442
#
# Stress axis : x y z
#
# Youngs Moduli (GPa) = 47.47594 53.83200 82.47096
#
# Poissons Ratio (x) = 0.02260 -0.28997
# Poissons Ratio (y) = 0.01993 -0.00317
# Poissons Ratio (z) = -0.16693 -0.00207
#
# Static dielectric constant tensor:
#      x y z
#    x 1.780560 0.079720 0.082330 
#    y 0.079720 1.820470 0.144570 
#    z 0.082330 0.144570 2.090020 
# 
# From -- ./inp_files/177503.got.cif
#   From: 2010.05.17/outbox.cif.g08.bks.cpg/sg2_89_cif.got.tgz:177503.got - 2010.06.03 11:33:40.
