data_PCOD9102833
_publ_section_title
;
Structure prediction by ZEFSAII (Michael W. Deem and Ramdas Pophale) SiO2 
 PCOD9102833
Probable space group: P -1
;
_chemical_formula_sum "Si O2"
_cell_formula_units_Z 14
_cell_length_a 10.186087
_cell_length_b 11.067045
_cell_length_c 10.988568
_cell_angle_alpha 109.957396
_cell_angle_beta 60.534701
_cell_angle_gamma 139.426741
_cell_volume 700.343830
_symmetry_space_group_name_H-M "P -1"
_symmetry_group_IT_number 2
_symmetry_cell_setting 'triclinic'
loop_
_space_group_symop_operation_xyz
x,y,z
-x,-y,-z
loop_
_atom_site_type_symbol
_atom_site_label
_atom_site_fract_x
_atom_site_fract_y
_atom_site_fract_z
Si Si1 0.695370 0.808619 0.701798
Si Si2 0.580872 0.979770 0.082384
Si Si3 0.988853 0.804373 0.415623
Si Si4 0.506847 0.375264 0.033555
Si Si5 0.725218 0.393170 0.320505
Si Si6 0.580438 0.981931 0.578637
Si Si7 0.005004 0.384127 0.052211
O O1 0.669797 0.722841 0.811483
O O2 0.446875 0.694434 0.741980
O O3 0.801953 0.783011 0.543555
O O4 0.857819 0.030551 0.697352
O O5 0.488765 0.988841 0.252366
O O6 0.836641 0.168273 0.025370
O O7 0.532604 0.797928 0.051052
O O8 0.500000 0.000000 0.000000
O O9 0.161592 0.879962 0.471133
O O10 0.863665 0.603848 0.355371
O O11 0.500000 0.500000 0.000000
O O12 0.756514 0.522228 0.012483
O O13 0.902088 0.390141 0.219236
O O14 0.549372 0.233674 0.442310
O O15 0.500000 0.000000 0.500000
O O16 0.000000 0.500000 0.000000
#
# Coordination Sequence:
#
# PCOD9102833 Si02
#       7
#     2   2   2   2   2   2   2
#     4  10  22  38  57  91 124 161 213 263 314 384
#     4  11  22  42  70  94 122 172 226 263 309 391
#     4  10  21  38  63  84 120 168 209 263 315 373
#     4  12  26  40  60  98 136 163 207 274 333 379
#     4  10  20  38  64  90 113 160 226 261 303 385
#     4  10  23  39  60  93 126 159 213 266 320 381
#     4  11  21  38  67  93 118 163 221 268 311 380
#
# _framework density 19.990179999999999
#
# number of rings (size 3 to 8) (size 9 to 14) (size 15 to 20)
#    0.000    1.429    2.857    3.000    2.000    4.571 
#    0.000    0.000    0.000    0.000    0.000    0.000 
#    0.000    0.000    0.000    0.000    0.000    0.000 
#
# Total GULP energy -77947.989659 kJ/mol
# GULP energy per Si atom -5567.713547 kJ/mol
# Density = 1.994468 g / cm^3
# Si number density = 19.990180 Si / 1000 Ang^3
#
#
#
# Elastic Constant Matrix: (Units=GPa)
#
#
# Indices 1 2 3 4 5 6 
#
# 1 105.4437 58.9497 36.0245 -18.5165 2.4519 -15.7624
# 2 58.9497 194.6499 35.7436 0.7874 6.9321 -1.7355
# 3 36.0245 35.7436 71.5335 -8.6706 -2.0433 -1.3831
# 4 -18.5165 0.7874 -8.6706 20.8623 0.0019 -2.3696
# 5 2.4519 6.9321 -2.0433 0.0019 27.3536 -12.5192
# 6 -15.7624 -1.7355 -1.3831 -2.3696 -12.5192 39.7104
#
#
#
# Elastic Compliance Matrix: (Units=1/GPa)
#
#
# Indices 1 2 3 4 5 6 
#
# 1 0.017250 -0.004507 -0.004417 0.014591 0.003081 0.008338
# 2 -0.004507 0.006965 -0.001998 -0.005406 -0.002769 -0.002750
# 3 -0.004417 -0.001998 0.017673 0.003458 0.002052 -0.000372
# 4 0.014591 -0.005406 0.003458 0.063797 0.005441 0.011198
# 5 0.003081 -0.002769 0.002052 0.005441 0.044200 0.015433
# 6 0.008338 -0.002750 -0.000372 0.011198 0.015433 0.033893
#
#
# Mechanical properties :
#
#
# Convention : Reuss Voigt Hill
#
# Bulk Modulus (GPa) = 49.89222 70.34030 60.11626
# Shear Modulus (GPa) = 23.55124 33.64587 28.59856
#
# Velocity S-wave (km/s) = 3.43613 4.10704 3.78647
# Velocity P-wave (km/s) = 6.38398 7.59961 7.01817
#
# Compressibility (1/GPa) = 0.02004320
#
# Stress axis : x y z
#
# Youngs Moduli (GPa) = 57.97132 143.56797 56.58446
#
# Poissons Ratio (x) = 0.64713 0.24993
# Poissons Ratio (y) = 0.26130 0.11305
# Poissons Ratio (z) = 0.25606 0.28684
#
# Static dielectric constant tensor:
#      x y z
#    x 1.736700 -0.060340 0.036950 
#    y -0.060340 1.713340 0.031570 
#    z 0.036950 0.031570 1.751590 
# 
# From -- ./inp_files/382884.got.cif
#   From: 2010.05.17/outbox.cif.g08.bks.cpg/sg2_192_cif.got.tgz:382884.got - 2010.06.03 11:33:40.
