data_PCOD9102579
_publ_section_title
;
Structure prediction by ZEFSAII (Michael W. Deem and Ramdas Pophale) SiO2 
 PCOD9102579
Probable space group: P -1
;
_chemical_formula_sum "Si O2"
_cell_formula_units_Z 16
_cell_length_a 12.333035
_cell_length_b 6.879588
_cell_length_c 9.463853
_cell_angle_alpha 81.387857
_cell_angle_beta 120.177691
_cell_angle_gamma 91.742778
_cell_volume 685.372913
_symmetry_space_group_name_H-M "P -1"
_symmetry_group_IT_number 2
_symmetry_cell_setting 'triclinic'
loop_
_space_group_symop_operation_xyz
x,y,z
-x,-y,-z
loop_
_atom_site_type_symbol
_atom_site_label
_atom_site_fract_x
_atom_site_fract_y
_atom_site_fract_z
Si Si1 0.929813 0.096988 0.805786
Si Si2 0.826151 0.901011 0.163251
Si Si3 0.312389 0.478333 0.594782
Si Si4 0.484141 0.815438 0.613790
Si Si5 0.600651 0.945002 0.193653
Si Si6 0.237965 0.177303 0.179708
Si Si7 0.909773 0.564388 0.751586
Si Si8 0.885997 0.458882 0.323217
O O1 0.914717 0.328897 0.787076
O O2 0.027879 0.054052 0.748541
O O3 0.798261 0.996603 0.717814
O O4 0.000000 0.000000 0.000000
O O5 0.736658 0.990884 0.213569
O O6 0.828445 0.666844 0.208128
O O7 0.769541 0.925851 0.966728
O O8 0.397712 0.631484 0.554154
O O9 0.390279 0.288125 0.732180
O O10 0.209277 0.386876 0.434391
O O11 0.227774 0.601189 0.644190
O O12 0.628408 0.733837 0.731039
O O13 0.500000 0.000000 0.500000
O O14 0.437348 0.920647 0.714601
O O15 0.500000 0.000000 0.000000
O O16 0.129774 0.341422 0.134614
O O17 0.038089 0.629617 0.753677
O O18 0.000000 0.500000 0.500000
#
# Coordination Sequence:
#
# PCOD9102579 Si02
#       8
#     2   2   2   2   2   2   2   2
#     4   9  20  36  59  90 127 165 208 261 320 382
#     4   9  19  39  60  90 124 159 213 261 315 385
#     4  10  23  42  66  95 125 172 221 262 325 385
#     4  12  26  42  65  94 131 173 223 263 316 392
#     4  11  23  45  67  90 131 171 212 276 321 371
#     4  11  22  37  58  92 127 168 211 257 316 384
#     4  10  20  38  63  91 129 164 207 270 323 375
#     4   8  17  36  61  86 119 157 204 264 313 374
#
# _framework density 23.344954999999999
#
# number of rings (size 3 to 8) (size 9 to 14) (size 15 to 20)
#    0.000    2.000    1.250    1.500    0.000    9.000 
#    0.000    0.000    0.000   10.500    0.000    0.000 
#    0.000    0.000    0.000    0.000    0.000    0.000 
#
# Total GULP energy -89196.620210 kJ/mol
# GULP energy per Si atom -5574.788763 kJ/mol
# Density = 2.329182 g / cm^3
# Si number density = 23.344955 Si / 1000 Ang^3
#
#
#
# Elastic Constant Matrix: (Units=GPa)
#
#
# Indices 1 2 3 4 5 6 
#
# 1 167.1696 24.9640 3.2812 11.4777 -1.3737 -6.1861
# 2 24.9640 97.0650 8.8191 -5.8179 -0.0005 -9.4005
# 3 3.2812 8.8191 59.6570 -15.2290 -0.2990 -0.7868
# 4 11.4777 -5.8179 -15.2290 26.0910 -4.1723 -3.4709
# 5 -1.3737 -0.0005 -0.2990 -4.1723 30.3291 2.9940
# 6 -6.1861 -9.4005 -0.7868 -3.4709 2.9940 47.8480
#
#
#
# Elastic Compliance Matrix: (Units=1/GPa)
#
#
# Indices 1 2 3 4 5 6 
#
# 1 0.006548 -0.001801 -0.001098 -0.003940 -0.000277 0.000206
# 2 -0.001801 0.011234 -0.000718 0.003190 0.000135 0.002185
# 3 -0.001098 -0.000718 0.020133 0.012471 0.001781 0.000841
# 4 -0.003940 0.003190 0.012471 0.049545 0.006413 0.003515
# 5 -0.000277 0.000135 0.001781 0.006413 0.034021 -0.001644
# 6 0.000206 0.002185 0.000841 0.003515 -0.001644 0.021727
#
#
# Mechanical properties :
#
#
# Convention : Reuss Voigt Hill
#
# Bulk Modulus (GPa) = 32.59347 44.22450 38.40898
# Shear Modulus (GPa) = 31.12013 39.97544 35.54778
#
# Velocity S-wave (km/s) = 3.65506 4.14258 3.90644
# Velocity P-wave (km/s) = 5.63956 6.47042 6.06923
#
# Compressibility (1/GPa) = 0.03068099
#
# Stress axis : x y z
#
# Youngs Moduli (GPa) = 152.71205 89.01918 49.67065
#
# Poissons Ratio (x) = 0.16028 0.05456
# Poissons Ratio (y) = 0.27496 0.03565
# Poissons Ratio (z) = 0.16775 0.06389
#
# Static dielectric constant tensor:
#      x y z
#    x 2.123360 -0.026150 -0.270030 
#    y -0.026150 1.908560 0.059860 
#    z -0.270030 0.059860 2.399450 
# 
# From -- ./inp_files/410344.got.cif
#   From: 2010.05.17/outbox.cif.g08.bks.cpg/sg2_206_cif.got.tgz:410344.got - 2010.06.03 11:33:40.
