data_PCOD9102709
_publ_section_title
;
Structure prediction by ZEFSAII (Michael W. Deem and Ramdas Pophale) SiO2 
 PCOD9102709
Probable space group: P -1
;
_chemical_formula_sum "Si O2"
_cell_formula_units_Z 14
_cell_length_a 20.084916
_cell_length_b 8.453188
_cell_length_c 14.960976
_cell_angle_alpha 139.907451
_cell_angle_beta 150.130104
_cell_angle_gamma 30.411345
_cell_volume 638.889875
_symmetry_space_group_name_H-M "P -1"
_symmetry_group_IT_number 2
_symmetry_cell_setting 'triclinic'
loop_
_space_group_symop_operation_xyz
x,y,z
-x,-y,-z
loop_
_atom_site_type_symbol
_atom_site_label
_atom_site_fract_x
_atom_site_fract_y
_atom_site_fract_z
Si Si1 0.322404 0.743247 0.003104
Si Si2 0.008366 0.633796 0.160651
Si Si3 0.894378 0.365218 0.056283
Si Si4 0.625923 0.648336 0.270931
Si Si5 0.964787 0.498582 0.562493
Si Si6 0.774913 0.226829 0.437440
Si Si7 0.549341 0.693383 0.872607
O O1 0.429659 0.873829 0.172022
O O2 0.350894 0.607078 0.075175
O O3 0.388650 0.460237 0.889917
O O4 0.132530 0.998858 0.861200
O O5 0.953703 0.509542 0.120485
O O6 0.174379 0.589155 0.368479
O O7 0.000000 0.500000 0.000000
O O8 0.947734 0.393784 0.229517
O O9 0.688392 0.580236 0.908885
O O10 0.000000 0.000000 0.000000
O O11 0.705191 0.382521 0.325842
O O12 0.764927 0.702219 0.442998
O O13 0.000000 0.500000 0.500000
O O14 0.063340 0.134229 0.543992
O O15 0.629229 0.237727 0.323587
O O16 0.500000 0.000000 0.000000
#
# Coordination Sequence:
#
# PCOD9102709 Si02
#       7
#     2   2   2   2   2   2   2
#     4  10  22  38  67  96 135 166 229 271 342 405
#     4  12  26  46  70  94 139 189 236 283 344 420
#     4  12  27  46  68 102 145 185 222 293 361 407
#     4  10  20  38  63  98 123 168 219 284 322 405
#     4  12  23  37  70  99 138 174 233 286 343 410
#     4  11  23  42  68  98 132 176 237 278 341 405
#     4  11  24  43  69 107 142 177 224 294 350 411
#
# _framework density 21.913008999999999
#
# number of rings (size 3 to 8) (size 9 to 14) (size 15 to 20)
#    0.000    0.857    4.286    3.000    6.000    0.000 
#    2.571    2.857    0.000    0.000    0.000    0.000 
#    0.000    0.000    0.000    0.000    0.000    0.000 
#
# Total GULP energy -78174.518038 kJ/mol
# GULP energy per Si atom -5583.894146 kJ/mol
# Density = 2.186313 g / cm^3
# Si number density = 21.913009 Si / 1000 Ang^3
#
#
#
# Elastic Constant Matrix: (Units=GPa)
#
#
# Indices 1 2 3 4 5 6 
#
# 1 92.6204 8.6776 51.1975 4.9404 15.3042 -3.1771
# 2 8.6776 43.9491 9.1289 5.9802 2.1334 -0.7331
# 3 51.1975 9.1289 121.4444 -0.2380 23.6781 -12.6299
# 4 4.9404 5.9802 -0.2380 28.3479 -3.9328 -3.5803
# 5 15.3042 2.1334 23.6781 -3.9328 54.2243 -11.1370
# 6 -3.1771 -0.7331 -12.6299 -3.5803 -11.1370 28.7665
#
#
#
# Elastic Compliance Matrix: (Units=1/GPa)
#
#
# Indices 1 2 3 4 5 6 
#
# 1 0.014595 -0.001196 -0.005874 -0.002920 -0.002171 -0.002202
# 2 -0.001196 0.023959 -0.001288 -0.005061 -0.000605 -0.000951
# 3 -0.005874 -0.001288 0.011685 0.001504 -0.002534 0.003655
# 4 -0.002920 -0.005061 0.001504 0.038344 0.004531 0.006735
# 5 -0.002171 -0.000605 -0.002534 0.004531 0.022106 0.007755
# 6 -0.002202 -0.000951 0.003655 0.006735 0.007755 0.039940
#
#
# Mechanical properties :
#
#
# Convention : Reuss Voigt Hill
#
# Bulk Modulus (GPa) = 29.82990 44.00241 36.91615
# Shear Modulus (GPa) = 28.00815 34.86841 31.43828
#
# Velocity S-wave (km/s) = 3.57900 3.99334 3.79183
# Velocity P-wave (km/s) = 5.54269 6.43323 6.00449
#
# Compressibility (1/GPa) = 0.03352341
#
# Stress axis : x y z
#
# Youngs Moduli (GPa) = 68.51734 41.73740 85.58322
#
# Poissons Ratio (x) = 0.04990 0.50274
# Poissons Ratio (y) = 0.08192 0.11021
# Poissons Ratio (z) = 0.40249 0.05375
#
# Static dielectric constant tensor:
#      x y z
#    x 1.855140 -0.026340 0.072170 
#    y -0.026340 1.827340 -0.010550 
#    z 0.072170 -0.010550 1.817560 
# 
# From -- ./inp_files/204134.got.cif
#   From: 2010.05.17/outbox.cif.g08.bks.cpg/sg2_103_cif.got.tgz:204134.got - 2010.06.03 11:33:40.
