data_PCOD9102967
_publ_section_title
;
Structure prediction by ZEFSAII (Michael W. Deem and Ramdas Pophale) SiO2 
 PCOD9102967
Probable space group: P -1
;
_chemical_formula_sum "Si O2"
_cell_formula_units_Z 16
_cell_length_a 15.299977
_cell_length_b 6.777978
_cell_length_c 14.740431
_cell_angle_alpha 48.775559
_cell_angle_beta 40.310889
_cell_angle_gamma 66.454896
_cell_volume 726.927492
_symmetry_space_group_name_H-M "P -1"
_symmetry_group_IT_number 2
_symmetry_cell_setting 'triclinic'
loop_
_space_group_symop_operation_xyz
x,y,z
-x,-y,-z
loop_
_atom_site_type_symbol
_atom_site_label
_atom_site_fract_x
_atom_site_fract_y
_atom_site_fract_z
Si Si1 0.734517 0.434604 0.122101
Si Si2 0.723698 0.766465 0.777762
Si Si3 0.003872 0.295533 0.859363
Si Si4 0.306281 0.015658 0.082680
Si Si5 0.443644 0.088068 0.648842
Si Si6 0.475091 0.803923 0.883655
Si Si7 0.728260 0.468705 0.322508
Si Si8 0.935728 0.418392 0.675100
O O1 0.779043 0.519087 0.163488
O O2 0.615364 0.165466 0.290485
O O3 0.863716 0.379081 0.979042
O O4 0.676860 0.678104 0.052572
O O5 0.735605 0.988954 0.777904
O O6 0.640581 0.845905 0.733449
O O7 0.863149 0.664981 0.684129
O O8 0.609054 0.496430 0.976062
O O9 0.008514 0.329193 0.735218
O O10 0.137364 0.501174 0.731131
O O11 0.000000 0.000000 0.000000
O O12 0.183860 0.837917 0.175880
O O13 0.436574 0.896716 0.985554
O O14 0.606822 0.206680 0.485367
O O15 0.356098 0.315994 0.636415
O O16 0.415979 0.984030 0.804811
O O17 0.000000 0.500000 0.500000
#
# Coordination Sequence:
#
# PCOD9102967 Si02
#       8
#     2   2   2   2   2   2   2   2
#     4  12  21  43  71  95 133 180 228 281 337 408
#     4  10  21  40  64  95 127 176 229 276 333 407
#     4  12  24  47  72  98 133 183 236 276 326 420
#     4  11  20  39  71  93 126 182 230 277 340 405
#     4  11  22  42  62  97 142 166 219 292 340 398
#     4  10  20  38  64  94 130 173 226 277 333 414
#     4  11  25  40  66 100 133 177 222 283 349 391
#     4  11  26  46  65  99 143 176 225 289 343 400
#
# _framework density 22.010449000000001
#
# number of rings (size 3 to 8) (size 9 to 14) (size 15 to 20)
#    0.000    1.000    5.000    2.625    0.000    1.500 
#    4.500    0.000    0.000    0.000    0.000    0.000 
#    0.000    0.000    0.000    0.000    0.000    0.000 
#
# Total GULP energy -89196.200434 kJ/mol
# GULP energy per Si atom -5574.762527 kJ/mol
# Density = 2.196035 g / cm^3
# Si number density = 22.010449 Si / 1000 Ang^3
#
#
#
# Elastic Constant Matrix: (Units=GPa)
#
#
# Indices 1 2 3 4 5 6 
#
# 1 119.5274 27.7703 38.2560 4.6856 -2.1157 15.7283
# 2 27.7703 91.2648 17.3504 2.2836 -1.6487 0.3958
# 3 38.2560 17.3504 75.7602 0.0002 -2.6887 2.1386
# 4 4.6856 2.2836 0.0002 21.4869 12.2233 -1.6637
# 5 -2.1157 -1.6487 -2.6887 12.2233 35.9041 0.4232
# 6 15.7283 0.3958 2.1386 -1.6637 0.4232 34.6626
#
#
#
# Elastic Compliance Matrix: (Units=1/GPa)
#
#
# Indices 1 2 3 4 5 6 
#
# 1 0.011326 -0.002366 -0.004987 -0.003402 0.001402 -0.004985
# 2 -0.002366 0.012007 -0.001560 -0.001049 0.000641 0.000975
# 3 -0.004987 -0.001560 0.016053 0.001103 0.000445 0.001338
# 4 -0.003402 -0.001049 0.001103 0.059372 -0.020433 0.004587
# 5 0.001402 0.000641 0.000445 -0.020433 0.034978 -0.002079
# 6 -0.004985 0.000975 0.001338 0.004587 -0.002079 0.031263
#
#
# Mechanical properties :
#
#
# Convention : Reuss Voigt Hill
#
# Bulk Modulus (GPa) = 46.38079 50.36732 48.37405
# Shear Modulus (GPa) = 26.31395 31.95576 29.13486
#
# Velocity S-wave (km/s) = 3.46138 3.81444 3.64219
# Velocity P-wave (km/s) = 6.09039 6.50638 6.30182
#
# Compressibility (1/GPa) = 0.02156065
#
# Stress axis : x y z
#
# Youngs Moduli (GPa) = 88.28992 83.28288 62.29364
#
# Poissons Ratio (x) = 0.19707 0.31065
# Poissons Ratio (y) = 0.20892 0.09716
# Poissons Ratio (z) = 0.44030 0.12990
#
# Static dielectric constant tensor:
#      x y z
#    x 1.888080 -0.013300 0.050190 
#    y -0.013300 1.809730 0.011690 
#    z 0.050190 0.011690 1.881650 
# 
# From -- ./inp_files/510500.got.cif
#   From: 2010.05.17/outbox.cif.g08.bks.cpg/sg2_256_cif.got.tgz:510500.got - 2010.06.03 11:33:40.
