data_PCOD9102947
_publ_section_title
;
Structure prediction by ZEFSAII (Michael W. Deem and Ramdas Pophale) SiO2 
 PCOD9102947
Probable space group: P -1
;
_chemical_formula_sum "Si O2"
_cell_formula_units_Z 16
_cell_length_a 14.449600
_cell_length_b 20.746706
_cell_length_c 5.292621
_cell_angle_alpha 117.760018
_cell_angle_beta 75.166559
_cell_angle_gamma 149.074698
_cell_volume 684.666815
_symmetry_space_group_name_H-M "P -1"
_symmetry_group_IT_number 2
_symmetry_cell_setting 'triclinic'
loop_
_space_group_symop_operation_xyz
x,y,z
-x,-y,-z
loop_
_atom_site_type_symbol
_atom_site_label
_atom_site_fract_x
_atom_site_fract_y
_atom_site_fract_z
Si Si1 0.479786 0.324192 0.295162
Si Si2 0.695119 0.672873 0.207602
Si Si3 0.781952 0.162874 0.524375
Si Si4 0.126554 0.100972 0.846747
Si Si5 0.403805 0.885122 0.058432
Si Si6 0.841625 0.349295 0.548106
Si Si7 0.821324 0.618845 0.288997
Si Si8 0.210260 0.538761 0.344533
O O1 0.360248 0.294892 0.521045
O O2 0.639624 0.480009 0.333814
O O3 0.597488 0.344176 0.415825
O O4 0.329728 0.197211 0.957925
O O5 0.792199 0.765574 0.051349
O O6 0.823192 0.699962 0.317519
O O7 0.500000 0.500000 0.000000
O O8 0.766307 0.172224 0.845062
O O9 0.770455 0.239343 0.578643
O O10 0.979827 0.260490 0.485176
O O11 0.588023 0.992270 0.297369
O O12 0.000000 0.000000 0.500000
O O13 0.000000 0.000000 0.000000
O O14 0.303546 0.750147 0.768023
O O15 0.500000 0.000000 0.000000
O O16 0.818343 0.417101 0.770093
O O17 0.044011 0.455140 0.499130
O O18 0.813232 0.553200 0.951386
#
# Coordination Sequence:
#
# PCOD9102947 Si02
#       8
#     2   2   2   2   2   2   2   2
#     4  12  24  46  75 104 148 194 250 318 379 453
#     4  12  25  46  79 113 147 194 251 318 384 453
#     4  10  20  38  64  93 135 182 237 296 363 437
#     4  12  27  52  78 108 157 204 246 319 392 459
#     4   9  19  38  60  85 130 177 226 290 354 437
#     4  10  21  39  62  94 136 187 232 297 370 432
#     4  12  24  40  71 109 139 185 256 313 368 450
#     4  11  23  39  65 101 139 180 242 307 366 443
#
# _framework density 23.369029999999999
#
# number of rings (size 3 to 8) (size 9 to 14) (size 15 to 20)
#    0.000    1.000    6.250    0.375    0.000    1.500 
#    2.250    3.750    0.000    0.000    0.000    0.000 
#    0.000    0.000    0.000    0.000    0.000    0.000 
#
# Total GULP energy -89085.119421 kJ/mol
# GULP energy per Si atom -5567.819964 kJ/mol
# Density = 2.331584 g / cm^3
# Si number density = 23.369030 Si / 1000 Ang^3
#
#
#
# Elastic Constant Matrix: (Units=GPa)
#
#
# Indices 1 2 3 4 5 6 
#
# 1 144.3094 35.1681 21.6511 -0.5816 9.9910 8.0565
# 2 35.1681 147.2866 22.2825 -0.5315 11.2041 5.0786
# 3 21.6511 22.2825 72.4326 6.5240 11.1580 15.0101
# 4 -0.5816 -0.5315 6.5240 34.6576 6.1843 13.2570
# 5 9.9910 11.2041 11.1580 6.1843 27.4904 7.3783
# 6 8.0565 5.0786 15.0101 13.2570 7.3783 29.1801
#
#
#
# Elastic Compliance Matrix: (Units=1/GPa)
#
#
# Indices 1 2 3 4 5 6 
#
# 1 0.007682 -0.001450 -0.001458 0.001130 -0.001529 -0.001245
# 2 -0.001450 0.007543 -0.001661 0.000721 -0.002072 0.000139
# 3 -0.001458 -0.001661 0.016779 0.000163 -0.003743 -0.007067
# 4 0.001130 0.000721 0.000163 0.035620 -0.004614 -0.015537
# 5 -0.001529 -0.002072 -0.003743 -0.004614 0.041887 -0.005787
# 6 -0.001245 0.000139 -0.007067 -0.015537 -0.005787 0.046747
#
#
# Mechanical properties :
#
#
# Convention : Reuss Voigt Hill
#
# Bulk Modulus (GPa) = 43.73689 58.02578 50.88133
# Shear Modulus (GPa) = 28.89877 37.26074 33.07975
#
# Velocity S-wave (km/s) = 3.52039 3.99739 3.76645
# Velocity P-wave (km/s) = 5.93974 6.79629 6.38240
#
# Compressibility (1/GPa) = 0.02286400
#
# Stress axis : x y z
#
# Youngs Moduli (GPa) = 130.17957 132.58137 59.59714
#
# Poissons Ratio (x) = 0.19228 0.08691
# Poissons Ratio (y) = 0.18879 0.09901
# Poissons Ratio (z) = 0.18983 0.22026
#
# Static dielectric constant tensor:
#      x y z
#    x 1.955270 -0.032800 0.067180 
#    y -0.032800 2.040570 -0.039270 
#    z 0.067180 -0.039270 2.109870 
# 
# From -- ./inp_files/100662.got.cif
#   From: 2010.05.17/outbox.cif.g08.bks.cpg/sg2_51_cif.got.tgz:100662.got - 2010.06.03 11:33:40.
