data_PCOD9102607
_publ_section_title
;
Structure prediction by ZEFSAII (Michael W. Deem and Ramdas Pophale) SiO2 
 PCOD9102607
Probable space group: P -1
;
_chemical_formula_sum "Si O2"
_cell_formula_units_Z 15
_cell_length_a 7.610511
_cell_length_b 15.256240
_cell_length_c 16.079769
_cell_angle_alpha 26.585680
_cell_angle_beta 85.316839
_cell_angle_gamma 68.805680
_cell_volume 635.076276
_symmetry_space_group_name_H-M "P -1"
_symmetry_group_IT_number 2
_symmetry_cell_setting 'triclinic'
loop_
_space_group_symop_operation_xyz
x,y,z
-x,-y,-z
loop_
_atom_site_type_symbol
_atom_site_label
_atom_site_fract_x
_atom_site_fract_y
_atom_site_fract_z
Si Si1 0.448514 0.190277 0.152388
Si Si2 0.891557 0.902466 0.796374
Si Si3 0.849593 0.797924 0.233344
Si Si4 0.568949 0.141973 0.812715
Si Si5 0.015071 0.764244 0.725232
Si Si6 0.606220 0.423856 0.424954
Si Si7 0.500000 0.000000 0.500000
Si Si8 0.782130 0.184827 0.019160
O O1 0.329893 0.081078 0.209630
O O2 0.534664 0.067642 0.344828
O O3 0.639810 0.161168 0.113290
O O4 0.237243 0.495646 0.909409
O O5 0.026065 0.756322 0.831555
O O6 0.064695 0.764163 0.983928
O O7 0.812730 0.188194 0.561136
O O8 0.586425 0.924333 0.156677
O O9 0.000000 0.500000 0.500000
O O10 0.924442 0.922570 0.182723
O O11 0.805670 0.906721 0.048758
O O12 0.590240 0.272894 0.625201
O O13 0.411553 0.365310 0.699646
O O14 0.774757 0.836379 0.648648
O O15 0.000000 0.000000 0.500000
O O16 0.390786 0.592076 0.228541
#
# Coordination Sequence:
#
# PCOD9102607 Si02
#       8
#     2   2   2   2   2   2   1   2
#     4  11  25  43  64  95 128 166 214 261 316 380
#     4  11  23  39  61  93 126 162 211 262 313 377
#     4  10  20  38  63  92 125 167 212 257 315 376
#     4   9  20  38  60  89 128 166 206 261 314 373
#     4  11  24  42  66  93 126 167 209 260 317 379
#     4  10  21  39  61  90 127 165 210 263 317 374
#     4  10  22  42  66  92 126 166 208 256 316 372
#     4  11  24  41  65  94 126 167 212 262 320 375
#
# _framework density 23.619211
#
# number of rings (size 3 to 8) (size 9 to 14) (size 15 to 20)
#    0.000    1.600    0.000    4.800    0.000    8.533 
#    0.000   10.667    0.000    0.000    0.000    0.000 
#    0.000    0.000    0.000    0.000    0.000    0.000 
#
# Total GULP energy -83547.320344 kJ/mol
# GULP energy per Si atom -5569.821356 kJ/mol
# Density = 2.356545 g / cm^3
# Si number density = 23.619211 Si / 1000 Ang^3
#
#
#
# Elastic Constant Matrix: (Units=GPa)
#
#
# Indices 1 2 3 4 5 6 
#
# 1 62.9414 32.3860 30.5074 21.0084 1.6257 11.4391
# 2 32.3860 88.3369 59.1171 13.0319 11.8645 12.7506
# 3 30.5074 59.1171 151.0213 26.8290 -1.9665 5.2193
# 4 21.0084 13.0319 26.8290 49.6502 2.5093 2.5250
# 5 1.6257 11.8645 -1.9665 2.5093 37.2570 10.9890
# 6 11.4391 12.7506 5.2193 2.5250 10.9890 31.9526
#
#
#
# Elastic Compliance Matrix: (Units=1/GPa)
#
#
# Indices 1 2 3 4 5 6 
#
# 1 0.023083 -0.006593 -0.000469 -0.007643 0.003387 -0.006117
# 2 -0.006593 0.018784 -0.006306 0.001662 -0.005441 -0.002365
# 3 -0.000469 -0.006306 0.009848 -0.003625 0.002661 0.000447
# 4 -0.007643 0.001662 -0.003625 0.024946 -0.002528 0.001564
# 5 0.003387 -0.005441 0.002661 -0.002528 0.031743 -0.010193
# 6 -0.006117 -0.002365 0.000447 0.001564 -0.010193 0.037739
#
#
# Mechanical properties :
#
#
# Convention : Reuss Voigt Hill
#
# Bulk Modulus (GPa) = 40.03214 60.70227 50.36720
# Shear Modulus (GPa) = 27.59312 35.79124 31.69218
#
# Velocity S-wave (km/s) = 3.42167 3.89697 3.66703
# Velocity P-wave (km/s) = 5.70931 6.78267 6.26901
#
# Compressibility (1/GPa) = 0.02497993
#
# Stress axis : x y z
#
# Youngs Moduli (GPa) = 43.32215 53.23549 101.54579
#
# Poissons Ratio (x) = 0.35100 0.04758
# Poissons Ratio (y) = 0.28564 0.64031
# Poissons Ratio (z) = 0.02030 0.33568
#
# Static dielectric constant tensor:
#      x y z
#    x 1.901320 -0.016300 -0.014350 
#    y -0.016300 1.948930 -0.007840 
#    z -0.014350 -0.007840 1.909850 
# 
# From -- ./inp_files/505007.got.cif
#   From: 2010.05.17/outbox.cif.g08.bks.cpg/sg2_253_cif.got.tgz:505007.got - 2010.06.03 11:33:40.
