data_PCOD9102070
_publ_section_title
;
Structure prediction by ZEFSAII (Michael W. Deem and Ramdas Pophale) SiO2 
 PCOD9102070
Probable space group: P -1
;
_chemical_formula_sum "Si O2"
_cell_formula_units_Z 12
_cell_length_a 6.818910
_cell_length_b 17.957262
_cell_length_c 5.011105
_cell_angle_alpha 61.864229
_cell_angle_beta 82.952075
_cell_angle_gamma 59.737054
_cell_volume 462.003295
_symmetry_space_group_name_H-M "P -1"
_symmetry_group_IT_number 2
_symmetry_cell_setting 'triclinic'
loop_
_space_group_symop_operation_xyz
x,y,z
-x,-y,-z
loop_
_atom_site_type_symbol
_atom_site_label
_atom_site_fract_x
_atom_site_fract_y
_atom_site_fract_z
Si Si1 0.744297 0.590411 0.341258
Si Si2 0.702075 0.687115 0.719762
Si Si3 0.544074 0.443906 0.809859
Si Si4 0.958276 0.896694 0.909328
Si Si5 0.959289 0.707554 0.184297
Si Si6 0.747000 0.116396 0.623721
O O1 0.618497 0.661484 0.486246
O O2 0.622753 0.519732 0.501759
O O3 0.000000 0.500000 0.500000
O O4 0.827816 0.673704 0.049432
O O5 0.633160 0.608512 0.022861
O O6 0.502358 0.801342 0.573255
O O7 0.937159 0.669764 0.545729
O O8 0.500000 0.500000 0.000000
O O9 0.783206 0.343485 0.882608
O O10 0.070865 0.893034 0.612807
O O11 0.865090 0.821854 0.035463
O O12 0.160270 0.862716 0.152969
O O13 0.775390 0.009076 0.820278
#
# Coordination Sequence:
#
# PCOD9102070 Si02
#       6
#     2   2   2   2   2   2
#     4  10  24  43  63  94 123 162 199 259 304 373
#     4  10  21  39  64  91 129 163 197 257 296 363
#     4  12  27  44  68  91 121 163 204 258 316 374
#     4  10  22  37  64  91 128 167 207 251 298 366
#     4  10  26  41  67  92 125 163 208 250 317 360
#     4  10  20  38  61  95 127 167 209 248 296 356
#
# _framework density 25.973841
#
# number of rings (size 3 to 8) (size 9 to 14) (size 15 to 20)
#    1.000    0.667    0.000    4.000    4.667    2.000 
#    0.000    0.833    0.000    0.000    0.000    0.000 
#    0.000    0.000    0.000    0.000    0.000    0.000 
#
# Total GULP energy -67031.695458 kJ/mol
# GULP energy per Si atom -5585.974622 kJ/mol
# Density = 2.591472 g / cm^3
# Si number density = 25.973841 Si / 1000 Ang^3
#
#
#
# Elastic Constant Matrix: (Units=GPa)
#
#
# Indices 1 2 3 4 5 6 
#
# 1 159.5060 79.1190 54.2671 -4.1746 -1.0198 30.0032
# 2 79.1190 167.1780 83.8725 -16.4268 3.2974 27.1828
# 3 54.2671 83.8725 208.8731 18.7106 -7.4282 -4.9144
# 4 -4.1746 -16.4268 18.7106 56.2038 -14.5409 -0.6820
# 5 -1.0198 3.2974 -7.4282 -14.5409 51.6622 -10.4673
# 6 30.0032 27.1828 -4.9144 -0.6820 -10.4673 61.8827
#
#
#
# Elastic Compliance Matrix: (Units=1/GPa)
#
#
# Indices 1 2 3 4 5 6 
#
# 1 0.008747 -0.003074 -0.001123 -0.000020 -0.000416 -0.003050
# 2 -0.003074 0.010277 -0.003778 0.003759 -0.000898 -0.003434
# 3 -0.001123 -0.003778 0.006986 -0.003248 0.000892 0.002874
# 4 -0.000020 0.003759 -0.003248 0.021286 0.005122 -0.000799
# 5 -0.000416 -0.000898 0.000892 0.005122 0.021872 0.004423
# 6 -0.003050 -0.003434 0.002874 -0.000799 0.004423 0.020115
#
#
# Mechanical properties :
#
#
# Convention : Reuss Voigt Hill
#
# Bulk Modulus (GPa) = 99.38918 107.78603 103.58761
# Shear Modulus (GPa) = 46.04670 55.16965 50.60817
#
# Velocity S-wave (km/s) = 4.21504 4.61374 4.41889
# Velocity P-wave (km/s) = 7.87635 8.36481 8.12426
#
# Compressibility (1/GPa) = 0.01006146
#
# Stress axis : x y z
#
# Youngs Moduli (GPa) = 114.32874 97.30413 143.13319
#
# Poissons Ratio (x) = 0.29909 0.16074
# Poissons Ratio (y) = 0.35142 0.54070
# Poissons Ratio (z) = 0.12839 0.36757
#
# Static dielectric constant tensor:
#      x y z
#    x 2.166160 0.127450 -0.120540 
#    y 0.127450 2.001340 -0.044380 
#    z -0.120540 -0.044380 2.103500 
# 
# From -- ./inp_files/37352.got.cif
#   From: 2010.05.17/outbox.cif.g08.bks.cpg/sg2_19_cif.got.tgz:37352.got - 2010.06.03 11:33:40.
