data_PCOD9102535
_publ_section_title
;
Structure prediction by ZEFSAII (Michael W. Deem and Ramdas Pophale) SiO2 
 PCOD9102535
Probable space group: P -1
;
_chemical_formula_sum "Si O2"
_cell_formula_units_Z 14
_cell_length_a 15.514596
_cell_length_b 9.139372
_cell_length_c 8.838152
_cell_angle_alpha 67.069116
_cell_angle_beta 38.210923
_cell_angle_gamma 88.358619
_cell_volume 623.490884
_symmetry_space_group_name_H-M "P -1"
_symmetry_group_IT_number 2
_symmetry_cell_setting 'triclinic'
loop_
_space_group_symop_operation_xyz
x,y,z
-x,-y,-z
loop_
_atom_site_type_symbol
_atom_site_label
_atom_site_fract_x
_atom_site_fract_y
_atom_site_fract_z
Si Si1 0.400541 0.129159 0.517885
Si Si2 0.310738 0.547782 0.876805
Si Si3 0.846675 0.950145 0.332914
Si Si4 0.328075 0.934271 0.975556
Si Si5 0.138456 0.529890 0.412981
Si Si6 0.082060 0.651053 0.955518
Si Si7 0.819772 0.861409 0.748315
O O1 0.305182 0.176651 0.509442
O O2 0.507937 0.062753 0.301061
O O3 0.277505 0.967473 0.863399
O O4 0.508359 0.289966 0.422004
O O5 0.266531 0.529276 0.123952
O O6 0.252175 0.339615 0.999753
O O7 0.211827 0.616026 0.881658
O O8 0.838710 0.864860 0.540410
O O9 0.847204 0.142662 0.279244
O O10 0.000000 0.000000 0.000000
O O11 0.214556 0.736532 0.279746
O O12 0.304117 0.068435 0.064433
O O13 0.000000 0.500000 0.500000
O O14 0.060105 0.392347 0.711466
O O15 0.000000 0.500000 0.000000
O O16 0.000000 0.000000 0.500000
#
# Coordination Sequence:
#
# PCOD9102535 Si02
#       7
#     2   2   2   2   2   2   2
#     4  10  22  42  63  88 123 171 214 249 316 381
#     4  10  22  40  63  88 126 168 204 252 310 376
#     4  12  25  42  66  92 124 163 213 268 311 372
#     4  10  20  38  63  89 126 165 203 253 310 374
#     4   9  16  32  57  83 115 160 201 238 296 364
#     4  11  21  37  62  94 125 160 207 258 310 367
#     4  12  24  40  63  97 130 161 206 261 316 366
#
# _framework density 22.454217
#
# number of rings (size 3 to 8) (size 9 to 14) (size 15 to 20)
#    0.000    1.429    0.000    8.571    0.000    1.714 
#    0.000    4.286    0.000    0.000    0.000    0.000 
#    0.000    0.000    0.000    0.000    0.000    0.000 
#
# Total GULP energy -78097.463556 kJ/mol
# GULP energy per Si atom -5578.390254 kJ/mol
# Density = 2.240311 g / cm^3
# Si number density = 22.454217 Si / 1000 Ang^3
#
#
#
# Elastic Constant Matrix: (Units=GPa)
#
#
# Indices 1 2 3 4 5 6 
#
# 1 117.2372 10.8837 21.8545 -4.1876 -6.2495 6.9103
# 2 10.8837 104.4034 19.4263 -22.0627 -11.4434 -2.1841
# 3 21.8545 19.4263 77.4078 -2.9892 4.7613 0.2738
# 4 -4.1876 -22.0627 -2.9892 51.0371 4.9498 6.9847
# 5 -6.2495 -11.4434 4.7613 4.9498 31.8013 -5.8434
# 6 6.9103 -2.1841 0.2738 6.9847 -5.8434 24.1369
#
#
#
# Elastic Compliance Matrix: (Units=1/GPa)
#
#
# Indices 1 2 3 4 5 6 
#
# 1 0.009295 -0.000209 -0.002633 0.000703 0.001582 -0.002470
# 2 -0.000209 0.011506 -0.002914 0.004276 0.004030 0.000872
# 3 -0.002633 -0.002914 0.014624 -0.000172 -0.003831 -0.000553
# 4 0.000703 0.004276 -0.000172 0.022777 -0.003160 -0.007169
# 5 0.001582 0.004030 -0.003831 -0.003160 0.036035 0.009593
# 6 -0.002470 0.000872 -0.000553 -0.007169 0.009593 0.046620
#
#
# Mechanical properties :
#
#
# Convention : Reuss Voigt Hill
#
# Bulk Modulus (GPa) = 41.81952 44.81971 43.31962
# Shear Modulus (GPa) = 31.18361 37.85398 34.51880
#
# Velocity S-wave (km/s) = 3.73066 4.11034 3.92509
# Velocity P-wave (km/s) = 6.10097 6.52153 6.31475
#
# Compressibility (1/GPa) = 0.02391228
#
# Stress axis : x y z
#
# Youngs Moduli (GPa) = 107.58406 86.91228 68.37873
#
# Poissons Ratio (x) = 0.01814 0.18007
# Poissons Ratio (y) = 0.02245 0.19929
# Poissons Ratio (z) = 0.28331 0.25330
#
# Static dielectric constant tensor:
#      x y z
#    x 1.782330 0.011960 -0.055810 
#    y 0.011960 1.926290 -0.011160 
#    z -0.055810 -0.011160 1.861360 
# 
# From -- ./inp_files/196920.got.cif
#   From: 2010.05.17/outbox.cif.g08.bks.cpg/sg2_99_cif.got.tgz:196920.got - 2010.06.03 11:33:40.
