data_PCOD9102100
_publ_section_title
;
Structure prediction by ZEFSAII (Michael W. Deem and Ramdas Pophale) SiO2 
 PCOD9102100
Probable space group: P -1
;
_chemical_formula_sum "Si O2"
_cell_formula_units_Z 14
_cell_length_a 5.226258
_cell_length_b 16.086172
_cell_length_c 15.574765
_cell_angle_alpha 152.595409
_cell_angle_beta 86.720410
_cell_angle_gamma 88.350563
_cell_volume 592.591866
_symmetry_space_group_name_H-M "P -1"
_symmetry_group_IT_number 2
_symmetry_cell_setting 'triclinic'
loop_
_space_group_symop_operation_xyz
x,y,z
-x,-y,-z
loop_
_atom_site_type_symbol
_atom_site_label
_atom_site_fract_x
_atom_site_fract_y
_atom_site_fract_z
Si Si1 0.763945 0.460366 0.882879
Si Si2 0.202092 0.195538 0.716703
Si Si3 0.547445 0.143426 0.506444
Si Si4 0.795931 0.807716 0.893858
Si Si5 0.446093 0.641446 0.451470
Si Si6 0.316756 0.762717 0.751831
Si Si7 0.000126 0.449963 0.210636
O O1 0.603284 0.339752 0.718615
O O2 0.958549 0.525908 0.868708
O O3 0.925723 0.317525 0.814571
O O4 0.643037 0.649849 0.105145
O O5 0.309520 0.118912 0.551214
O O6 0.232902 0.025730 0.624874
O O7 0.519427 0.174886 0.434574
O O8 0.534377 0.750573 0.810144
O O9 0.867956 0.744428 0.931071
O O10 0.046729 0.715427 0.748519
O O11 0.756679 0.024467 0.080375
O O12 0.438492 0.662715 0.572912
O O13 0.171024 0.585843 0.378715
O O14 0.699686 0.500270 0.287265
#
# Coordination Sequence:
#
# PCOD9102100 Si02
#       7
#     2   2   2   2   2   2   2
#     4  10  21  37  59  88 121 157 207 251 302 366
#     4  10  20  38  62  82 120 166 198 254 308 360
#     4  10  21  37  59  88 121 157 207 251 302 366
#     4  10  22  40  62  87 121 158 200 245 299 368
#     4  11  23  39  61  90 124 154 201 254 299 360
#     4  10  22  40  62  87 121 158 200 245 299 368
#     4  11  23  39  61  90 124 154 201 254 299 360
#
# _framework density 23.625026999999999
#
# number of rings (size 3 to 8) (size 9 to 14) (size 15 to 20)
#    0.000    1.714    1.429    2.571    2.000    3.429 
#    0.000    0.000    0.000    0.000    0.000    0.000 
#    0.000    0.000    0.000    0.000    0.000    0.000 
#
# Total GULP energy -78188.568319 kJ/mol
# GULP energy per Si atom -5584.897737 kJ/mol
# Density = 2.357126 g / cm^3
# Si number density = 23.625027 Si / 1000 Ang^3
#
#
#
# Elastic Constant Matrix: (Units=GPa)
#
#
# Indices 1 2 3 4 5 6 
#
# 1 77.6255 8.6167 8.2722 14.5882 -15.9870 -8.0028
# 2 8.6167 98.7852 14.6416 31.1710 -16.8108 -14.6766
# 3 8.2722 14.6416 61.3871 8.5568 -10.4532 -0.8665
# 4 14.5882 31.1710 8.5568 31.1871 0.1070 -5.9398
# 5 -15.9870 -16.8108 -10.4532 0.1070 26.8019 -1.6913
# 6 -8.0028 -14.6766 -0.8665 -5.9398 -1.6913 30.5731
#
#
#
# Elastic Compliance Matrix: (Units=1/GPa)
#
#
# Indices 1 2 3 4 5 6 
#
# 1 0.018638 0.006313 0.000728 -0.014128 0.015800 0.006059
# 2 0.006313 0.020769 0.000413 -0.022309 0.017564 0.008272
# 3 0.000728 0.000413 0.018232 -0.005740 0.007841 0.000224
# 4 -0.014128 -0.022309 -0.005740 0.061882 -0.025154 -0.003939
# 5 0.015800 0.017564 0.007841 -0.025154 0.061624 0.011312
# 6 0.006059 0.008272 0.000224 -0.003939 0.011312 0.038132
#
#
# Mechanical properties :
#
#
# Convention : Reuss Voigt Hill
#
# Bulk Modulus (GPa) = 13.78420 33.42875 23.60647
# Shear Modulus (GPa) = 21.87706 31.46357 26.67031
#
# Velocity S-wave (km/s) = 3.04635 3.65333 3.36356
# Velocity P-wave (km/s) = 4.26859 5.65475 5.00984
#
# Compressibility (1/GPa) = 0.07254683
#
# Stress axis : x y z
#
# Youngs Moduli (GPa) = 53.65476 48.14976 54.84887
#
# Poissons Ratio (x) = -0.30399 -0.03993
# Poissons Ratio (y) = -0.33874 -0.02266
# Poissons Ratio (z) = -0.03906 -0.01989
#
# Static dielectric constant tensor:
#      x y z
#    x 1.934500 0.047080 0.003100 
#    y 0.047080 1.955160 0.012450 
#    z 0.003100 0.012450 1.925090 
# 
# From -- ./inp_files/34744.got.cif
#   From: 2010.05.17/outbox.cif.g08.bks.cpg/sg2_18_cif.got.tgz:34744.got - 2010.06.03 11:33:40.
