data_PCOD9102312
_publ_section_title
;
Structure prediction by ZEFSAII (Michael W. Deem and Ramdas Pophale) SiO2 
 PCOD9102312
Probable space group: P -1
;
_chemical_formula_sum "Si O2"
_cell_formula_units_Z 16
_cell_length_a 15.372497
_cell_length_b 17.695776
_cell_length_c 12.300568
_cell_angle_alpha 45.863478
_cell_angle_beta 154.094708
_cell_angle_gamma 147.096068
_cell_volume 769.329152
_symmetry_space_group_name_H-M "P -1"
_symmetry_group_IT_number 2
_symmetry_cell_setting 'triclinic'
loop_
_space_group_symop_operation_xyz
x,y,z
-x,-y,-z
loop_
_atom_site_type_symbol
_atom_site_label
_atom_site_fract_x
_atom_site_fract_y
_atom_site_fract_z
Si Si1 0.095367 0.394169 0.424285
Si Si2 0.256971 0.353961 0.436866
Si Si3 0.653380 0.938141 0.617876
Si Si4 0.629081 0.681808 0.836552
Si Si5 0.812945 0.779522 0.176496
Si Si6 0.115029 0.957307 0.760816
Si Si7 0.468642 0.735284 0.027691
Si Si8 0.162248 0.912574 0.092708
O O1 0.119899 0.388865 0.328371
O O2 0.381358 0.536096 0.648493
O O3 0.058122 0.264294 0.560409
O O4 0.852507 0.378521 0.209257
O O5 0.500000 0.500000 0.500000
O O6 0.408495 0.316021 0.712884
O O7 0.012055 0.201220 0.256029
O O8 0.591896 0.794512 0.673606
O O9 0.405238 0.923097 0.318701
O O10 0.712262 0.979928 0.770535
O O11 0.930901 0.067181 0.739458
O O12 0.664624 0.674588 0.011440
O O13 0.910719 0.758345 0.015433
O O14 0.593673 0.761462 0.022296
O O15 0.423693 0.112741 0.958389
O O16 0.048870 0.935373 0.838092
O O17 0.000000 0.000000 0.500000
#
# Coordination Sequence:
#
# PCOD9102312 Si02
#       8
#     2   2   2   2   2   2   2   2
#     4  11  24  39  58  85 120 160 196 240 299 352
#     4  10  23  41  59  84 116 152 199 252 298 344
#     4  10  21  36  64  93 118 155 195 243 301 358
#     4  11  22  36  59  89 121 157 195 241 297 356
#     4  10  21  38  58  87 121 153 194 243 296 358
#     4  10  20  38  64  85 114 159 199 245 295 343
#     4  10  22  40  60  84 117 154 199 246 291 357
#     4  10  20  38  62  91 122 151 198 250 296 351
#
# _framework density 20.797339999999998
#
# number of rings (size 3 to 8) (size 9 to 14) (size 15 to 20)
#    0.000    1.750    0.000    4.875    0.000    6.500 
#    0.000    5.000    0.000    0.000    0.000    0.000 
#    0.000    0.000    0.000    0.000    0.000    0.000 
#
# Total GULP energy -89170.506821 kJ/mol
# GULP energy per Si atom -5573.156676 kJ/mol
# Density = 2.075000 g / cm^3
# Si number density = 20.797340 Si / 1000 Ang^3
#
#
#
# Elastic Constant Matrix: (Units=GPa)
#
#
# Indices 1 2 3 4 5 6 
#
# 1 115.8708 28.1906 41.8913 3.0876 0.2294 14.6519
# 2 28.1906 69.1488 7.0003 4.6208 -4.0682 15.4755
# 3 41.8913 7.0003 71.8870 11.5761 7.2709 1.3801
# 4 3.0876 4.6208 11.5761 25.2041 -1.5046 -2.3094
# 5 0.2294 -4.0682 7.2709 -1.5046 38.8833 -6.0320
# 6 14.6519 15.4755 1.3801 -2.3094 -6.0320 19.4785
#
#
#
# Elastic Compliance Matrix: (Units=1/GPa)
#
#
# Indices 1 2 3 4 5 6 
#
# 1 0.012808 -0.003172 -0.007326 0.001797 0.000044 -0.006368
# 2 -0.003172 0.018956 0.001091 -0.004851 -0.000480 -0.013475
# 3 -0.007326 0.001091 0.019800 -0.008518 -0.003707 0.001083
# 4 0.001797 -0.004851 -0.008518 0.045420 0.004359 0.009841
# 5 0.000044 -0.000480 -0.003707 0.004359 0.028052 0.009815
# 6 -0.006368 -0.013475 0.001083 0.009841 0.009815 0.070965
#
#
# Mechanical properties :
#
#
# Convention : Reuss Voigt Hill
#
# Bulk Modulus (GPa) = 30.53531 45.67457 38.10494
# Shear Modulus (GPa) = 22.15022 28.70147 25.42584
#
# Velocity S-wave (km/s) = 3.26705 3.71894 3.50030
# Velocity P-wave (km/s) = 5.38012 6.36004 5.89049
#
# Compressibility (1/GPa) = 0.03274897
#
# Stress axis : x y z
#
# Youngs Moduli (GPa) = 78.07531 52.75352 50.50587
#
# Poissons Ratio (x) = 0.16734 0.37003
# Poissons Ratio (y) = 0.24767 -0.05511
# Poissons Ratio (z) = 0.57201 -0.05756
#
# Static dielectric constant tensor:
#      x y z
#    x 1.760940 -0.005430 -0.017010 
#    y -0.005430 1.783930 -0.025110 
#    z -0.017010 -0.025110 1.728060 
# 
# From -- ./inp_files/456956.got.cif
#   From: 2010.05.17/outbox.cif.g08.bks.cpg/sg2_229_cif.got.tgz:456956.got - 2010.06.03 11:33:40.
