data_PCOD9102811
_publ_section_title
;
Structure prediction by ZEFSAII (Michael W. Deem and Ramdas Pophale) SiO2 
 PCOD9102811
Probable space group: P -1
;
_chemical_formula_sum "Si O2"
_cell_formula_units_Z 16
_cell_length_a 8.763311
_cell_length_b 10.601817
_cell_length_c 12.395194
_cell_angle_alpha 101.591310
_cell_angle_beta 73.253178
_cell_angle_gamma 138.514981
_cell_volume 730.291361
_symmetry_space_group_name_H-M "P -1"
_symmetry_group_IT_number 2
_symmetry_cell_setting 'triclinic'
loop_
_space_group_symop_operation_xyz
x,y,z
-x,-y,-z
loop_
_atom_site_type_symbol
_atom_site_label
_atom_site_fract_x
_atom_site_fract_y
_atom_site_fract_z
Si Si1 0.844477 0.321011 0.655158
Si Si2 0.141084 0.870208 0.722738
Si Si3 0.326200 0.750404 0.563072
Si Si4 0.036437 0.004262 0.118251
Si Si5 0.693735 0.464460 0.852618
Si Si6 0.442732 0.575450 0.887196
Si Si7 0.807668 0.914717 0.437049
Si Si8 0.102492 0.284697 0.746013
O O1 0.724500 0.236209 0.547926
O O2 0.700410 0.335692 0.762440
O O3 0.098797 0.535161 0.610137
O O4 0.915202 0.239793 0.697602
O O5 0.334155 0.877010 0.663504
O O6 0.702653 0.791935 0.866150
O O7 0.929213 0.674346 0.795046
O O8 0.093839 0.904634 0.620693
O O9 0.560931 0.808051 0.520096
O O10 0.013246 0.850866 0.148642
O O11 0.832583 0.980239 0.196321
O O12 0.000000 0.000000 0.000000
O O13 0.490740 0.449832 0.868632
O O14 0.682995 0.447067 0.982120
O O15 0.289746 0.495652 0.795942
O O16 0.781340 0.767134 0.348703
O O17 0.000000 0.000000 0.500000
#
# Coordination Sequence:
#
# PCOD9102811 Si02
#       8
#     2   2   2   2   2   2   2   2
#     4  10  22  38  59  88 122 162 208 254 308 368
#     4   9  19  35  58  84 117 158 202 250 301 361
#     4  10  21  39  60  84 120 166 207 252 310 368
#     4  10  21  39  63  93 125 162 208 253 308 372
#     4   9  18  36  60  85 117 158 204 246 300 368
#     4  10  20  38  64  89 118 162 207 253 310 366
#     4  11  23  38  59  90 126 161 205 259 311 368
#     4  11  23  38  60  91 125 159 204 260 308 367
#
# _framework density 21.909064000000001
#
# number of rings (size 3 to 8) (size 9 to 14) (size 15 to 20)
#    0.000    2.000    0.000    4.125    0.000    6.000 
#    0.000    1.875    0.000    0.000    0.000    0.000 
#    0.000    0.000    0.000    0.000    0.000    0.000 
#
# Total GULP energy -89231.016970 kJ/mol
# GULP energy per Si atom -5576.938561 kJ/mol
# Density = 2.185920 g / cm^3
# Si number density = 21.909064 Si / 1000 Ang^3
#
#
#
# Elastic Constant Matrix: (Units=GPa)
#
#
# Indices 1 2 3 4 5 6 
#
# 1 105.5380 17.4824 55.0479 -4.5295 -17.7038 7.7518
# 2 17.4824 75.9748 9.5308 -9.6762 -2.1361 16.6844
# 3 55.0479 9.5308 107.1380 4.7270 -22.2194 12.2776
# 4 -4.5295 -9.6762 4.7270 32.6383 0.7470 -1.3368
# 5 -17.7038 -2.1361 -22.2194 0.7470 31.3733 0.1227
# 6 7.7518 16.6844 12.2776 -1.3368 0.1227 32.2663
#
#
#
# Elastic Compliance Matrix: (Units=1/GPa)
#
#
# Indices 1 2 3 4 5 6 
#
# 1 0.013716 -0.002057 -0.006359 0.002156 0.003044 0.000266
# 2 -0.002057 0.015783 0.000375 0.004024 0.000113 -0.007643
# 3 -0.006359 0.000375 0.014646 -0.003231 0.006904 -0.004399
# 4 0.002156 0.004024 -0.003231 0.032634 -0.001575 -0.000011
# 5 0.003044 0.000113 0.006904 -0.001575 0.038541 -0.003629
# 6 0.000266 -0.007643 -0.004399 -0.000011 -0.003629 0.036568
#
#
# Mechanical properties :
#
#
# Convention : Reuss Voigt Hill
#
# Bulk Modulus (GPa) = 35.63357 50.30810 42.97084
# Shear Modulus (GPa) = 28.19689 33.02822 30.61255
#
# Velocity S-wave (km/s) = 3.59137 3.88688 3.74204
# Velocity P-wave (km/s) = 5.78764 6.56932 6.19083
#
# Compressibility (1/GPa) = 0.02806342
#
# Stress axis : x y z
#
# Youngs Moduli (GPa) = 72.90593 63.36077 68.27754
#
# Poissons Ratio (x) = 0.13031 0.43416
# Poissons Ratio (y) = 0.14994 -0.02558
# Poissons Ratio (z) = 0.46359 -0.02373
#
# Static dielectric constant tensor:
#      x y z
#    x 1.771370 -0.017460 -0.004860 
#    y -0.017460 1.898380 -0.015900 
#    z -0.004860 -0.015900 1.911850 
# 
# From -- ./inp_files/390412.got.cif
#   From: 2010.05.17/outbox.cif.g08.bks.cpg/sg2_196_cif.got.tgz:390412.got - 2010.06.03 11:33:40.
