data_PCOD9102966
_publ_section_title
;
Structure prediction by ZEFSAII (Michael W. Deem and Ramdas Pophale) SiO2 
 PCOD9102966
Probable space group: P -1
;
_chemical_formula_sum "Si O2"
_cell_formula_units_Z 16
_cell_length_a 7.497993
_cell_length_b 17.537119
_cell_length_c 9.640480
_cell_angle_alpha 64.143730
_cell_angle_beta 66.434453
_cell_angle_gamma 42.610114
_cell_volume 765.804968
_symmetry_space_group_name_H-M "P -1"
_symmetry_group_IT_number 2
_symmetry_cell_setting 'triclinic'
loop_
_space_group_symop_operation_xyz
x,y,z
-x,-y,-z
loop_
_atom_site_type_symbol
_atom_site_label
_atom_site_fract_x
_atom_site_fract_y
_atom_site_fract_z
Si Si1 0.757428 0.980000 0.840206
Si Si2 0.396324 0.579870 0.833370
Si Si3 0.194045 0.814151 0.646066
Si Si4 0.941886 0.600173 0.027466
Si Si5 0.547774 0.860832 0.953354
Si Si6 0.300527 0.127038 0.397583
Si Si7 0.076921 0.557340 0.336699
Si Si8 0.635579 0.803164 0.399509
O O1 0.736412 0.883364 0.933492
O O2 0.029704 0.918622 0.724472
O O3 0.515707 0.079792 0.734287
O O4 0.709290 0.042979 0.949088
O O5 0.347006 0.694052 0.774001
O O6 0.613626 0.507267 0.701971
O O7 0.110521 0.621479 0.874636
O O8 0.500000 0.500000 0.000000
O O9 0.404801 0.803368 0.500960
O O10 0.967838 0.837778 0.602009
O O11 0.664094 0.731798 0.035451
O O12 0.000000 0.500000 0.000000
O O13 0.039780 0.548963 0.192278
O O14 0.549136 0.875892 0.777144
O O15 0.253962 0.202862 0.480369
O O16 0.500000 0.000000 0.500000
O O17 0.000000 0.500000 0.500000
O O18 0.876532 0.691764 0.328702
#
# Coordination Sequence:
#
# PCOD9102966 Si02
#       8
#     2   2   2   2   2   2   2   2
#     4  10  20  38  68  95 126 178 219 277 339 400
#     4  10  22  42  65  95 132 177 228 270 336 411
#     4  11  22  42  69  95 139 176 221 279 346 405
#     4  11  23  42  66  91 134 180 219 273 340 402
#     4  10  20  38  64  94 130 169 225 275 336 396
#     4  11  23  40  63  99 130 172 219 275 337 407
#     4  11  24  42  65  98 129 172 231 277 330 408
#     4  12  23  42  69  97 134 178 222 280 349 406
#
# _framework density 20.893046999999999
#
# number of rings (size 3 to 8) (size 9 to 14) (size 15 to 20)
#    0.000    1.250    7.500    0.375    1.750    0.000 
#    2.250    1.875    0.000    0.000    0.000    0.000 
#    0.000    0.000    0.000    0.000    0.000    0.000 
#
# Total GULP energy -89193.762850 kJ/mol
# GULP energy per Si atom -5574.610178 kJ/mol
# Density = 2.084549 g / cm^3
# Si number density = 20.893047 Si / 1000 Ang^3
#
#
#
# Elastic Constant Matrix: (Units=GPa)
#
#
# Indices 1 2 3 4 5 6 
#
# 1 42.2929 19.0929 28.5030 15.9966 1.6565 2.7835
# 2 19.0929 138.7539 33.4719 22.9347 4.6747 3.0809
# 3 28.5030 33.4719 114.4781 16.2596 4.8024 4.3506
# 4 15.9966 22.9347 16.2596 52.7395 3.4433 -2.6354
# 5 1.6565 4.6747 4.8024 3.4433 30.0468 8.5684
# 6 2.7835 3.0809 4.3506 -2.6354 8.5684 31.7430
#
#
#
# Elastic Compliance Matrix: (Units=1/GPa)
#
#
# Indices 1 2 3 4 5 6 
#
# 1 0.031425 -0.001613 -0.006291 -0.007092 0.001083 -0.002618
# 2 -0.001613 0.008276 -0.001607 -0.002608 -0.000493 -0.000525
# 3 -0.006291 -0.001607 0.010937 -0.000737 -0.000892 -0.000612
# 4 -0.007092 -0.002608 -0.000737 0.022832 -0.002731 0.003609
# 5 0.001083 -0.000493 -0.000892 -0.002731 0.036616 -0.010035
# 6 -0.002618 -0.000525 -0.000612 0.003609 -0.010035 0.034876
#
#
# Mechanical properties :
#
#
# Convention : Reuss Voigt Hill
#
# Bulk Modulus (GPa) = 31.62970 50.85115 41.24043
# Shear Modulus (GPa) = 28.64951 37.20302 32.92626
#
# Velocity S-wave (km/s) = 3.70705 4.22434 3.97412
# Velocity P-wave (km/s) = 5.78746 6.94155 6.39061
#
# Compressibility (1/GPa) = 0.03161585
#
# Stress axis : x y z
#
# Youngs Moduli (GPa) = 31.82171 120.83108 91.43257
#
# Poissons Ratio (x) = 0.19485 0.57524
# Poissons Ratio (y) = 0.05131 0.14695
# Poissons Ratio (z) = 0.20020 0.19420
#
# Static dielectric constant tensor:
#      x y z
#    x 1.811910 -0.024660 0.008050 
#    y -0.024660 1.830990 -0.013930 
#    z 0.008050 -0.013930 1.773010 
# 
# From -- ./inp_files/217278.got.cif
#   From: 2010.05.17/outbox.cif.g08.bks.cpg/sg2_109_cif.got.tgz:217278.got - 2010.06.03 11:33:40.
