data_PCOD9102904
_publ_section_title
;
Structure prediction by ZEFSAII (Michael W. Deem and Ramdas Pophale) SiO2 
 PCOD9102904
Probable space group: P -1
;
_chemical_formula_sum "Si O2"
_cell_formula_units_Z 16
_cell_length_a 14.391639
_cell_length_b 5.115621
_cell_length_c 14.005714
_cell_angle_alpha 91.084626
_cell_angle_beta 53.837350
_cell_angle_gamma 73.743120
_cell_volume 776.315885
_symmetry_space_group_name_H-M "P -1"
_symmetry_group_IT_number 2
_symmetry_cell_setting 'triclinic'
loop_
_space_group_symop_operation_xyz
x,y,z
-x,-y,-z
loop_
_atom_site_type_symbol
_atom_site_label
_atom_site_fract_x
_atom_site_fract_y
_atom_site_fract_z
Si Si1 0.327205 0.054520 0.357497
Si Si2 0.982887 0.265510 0.077096
Si Si3 0.127634 0.589213 0.300448
Si Si4 0.389245 0.928905 0.520697
Si Si5 0.766273 0.442836 0.352078
Si Si6 0.827575 0.308483 0.521493
Si Si7 0.636523 0.908975 0.877002
Si Si8 0.878159 0.903687 0.810678
O O1 0.412016 0.898781 0.392898
O O2 0.286623 0.388456 0.398440
O O3 0.374587 0.968927 0.222202
O O4 0.209612 0.960579 0.438097
O O5 0.075661 0.182495 0.111224
O O6 0.848710 0.362369 0.207940
O O7 0.000000 0.500000 0.000000
O O8 0.000000 0.000000 0.000000
O O9 0.097089 0.671786 0.429425
O O10 0.276541 0.419586 0.195795
O O11 0.075497 0.361210 0.291250
O O12 0.089201 0.848113 0.254526
O O13 0.276572 0.223633 0.606641
O O14 0.500000 0.000000 0.500000
O O15 0.345252 0.679611 0.581376
O O16 0.846738 0.304560 0.396090
O O17 0.728940 0.995298 0.890099
O O18 0.500000 0.000000 0.000000
#
# Coordination Sequence:
#
# PCOD9102904 Si02
#       8
#     2   2   2   2   2   2   2   2
#     4   9  17  31  52  82 119 158 175 242 307 354
#     4  12  26  47  66  84 126 173 219 275 304 358
#     4   9  17  34  58  85 121 150 189 252 315 367
#     4  10  20  38  64  92 128 155 206 263 315 377
#     4  10  22  39  65  90 118 167 209 251 328 371
#     4   9  15  33  57  81 116 147 182 235 309 375
#     4   9  19  34  56  85 121 156 201 248 314 374
#     4  10  21  38  60  83 117 160 206 250 315 356
#
# _framework density 20.610167000000001
#
# number of rings (size 3 to 8) (size 9 to 14) (size 15 to 20)
#    0.750    1.500    1.250    1.875    0.000    0.500 
#    4.500    1.250    0.000    0.000    0.000    0.000 
#    0.000    0.000    0.000    0.000    0.000    0.000 
#
# Total GULP energy -89100.658689 kJ/mol
# GULP energy per Si atom -5568.791168 kJ/mol
# Density = 2.056326 g / cm^3
# Si number density = 20.610167 Si / 1000 Ang^3
#
#
#
# Elastic Constant Matrix: (Units=GPa)
#
#
# Indices 1 2 3 4 5 6 
#
# 1 108.7749 5.1705 32.2009 -5.3542 16.6033 4.1244
# 2 5.1705 84.8853 31.3808 -10.9931 5.0893 16.3396
# 3 32.2009 31.3808 94.1002 -16.9038 24.8157 -8.9996
# 4 -5.3542 -10.9931 -16.9038 26.6782 -2.0648 6.4426
# 5 16.6033 5.0893 24.8157 -2.0648 38.6851 -2.7503
# 6 4.1244 16.3396 -8.9996 6.4426 -2.7503 23.6036
#
#
#
# Elastic Compliance Matrix: (Units=1/GPa)
#
#
# Indices 1 2 3 4 5 6 
#
# 1 0.011025 0.002387 -0.004083 0.001835 -0.002752 -0.005957
# 2 0.002387 0.019066 -0.007640 0.008039 0.000470 -0.018668
# 3 -0.004083 -0.007640 0.018577 0.004541 -0.008142 0.010897
# 4 0.001835 0.008039 0.004541 0.048042 -0.003450 -0.017669
# 5 -0.002752 0.000470 -0.008142 -0.003450 0.032132 0.001737
# 6 -0.005957 -0.018668 0.010897 -0.017669 0.001737 0.065511
#
#
# Mechanical properties :
#
#
# Convention : Reuss Voigt Hill
#
# Bulk Modulus (GPa) = 33.33798 47.25163 40.29480
# Shear Modulus (GPa) = 22.41914 32.39391 27.40653
#
# Velocity S-wave (km/s) = 3.30172 3.96882 3.65054
# Velocity P-wave (km/s) = 5.54488 6.63161 6.11244
#
# Compressibility (1/GPa) = 0.02999582
#
# Stress axis : x y z
#
# Youngs Moduli (GPa) = 90.70411 52.44918 53.82869
#
# Poissons Ratio (x) = -0.12521 0.21979
# Poissons Ratio (y) = -0.21654 0.41127
# Poissons Ratio (z) = 0.37036 0.40073
#
# Static dielectric constant tensor:
#      x y z
#    x 1.785900 -0.025580 -0.026790 
#    y -0.025580 1.752460 0.012960 
#    z -0.026790 0.012960 1.739130 
# 
# From -- ./inp_files/525297.got.cif
#   From: 2010.05.17/outbox.cif.g08.bks.cpg/sg2_263_cif.got.tgz:525297.got - 2010.06.03 11:33:40.
