data_PCOD9102253
_publ_section_title
;
Structure prediction by ZEFSAII (Michael W. Deem and Ramdas Pophale) SiO2 
 PCOD9102253
Probable space group: P -1
;
_chemical_formula_sum "Si O2"
_cell_formula_units_Z 16
_cell_length_a 11.722511
_cell_length_b 6.602880
_cell_length_c 13.265259
_cell_angle_alpha 137.714337
_cell_angle_beta 98.419527
_cell_angle_gamma 79.755075
_cell_volume 679.648457
_symmetry_space_group_name_H-M "P -1"
_symmetry_group_IT_number 2
_symmetry_cell_setting 'triclinic'
loop_
_space_group_symop_operation_xyz
x,y,z
-x,-y,-z
loop_
_atom_site_type_symbol
_atom_site_label
_atom_site_fract_x
_atom_site_fract_y
_atom_site_fract_z
Si Si1 0.657870 0.699036 0.818498
Si Si2 0.986257 0.292346 0.234825
Si Si3 0.459030 0.106959 0.854137
Si Si4 0.525126 0.770204 0.327303
Si Si5 0.060208 0.602406 0.945066
Si Si6 0.726843 0.453236 0.928926
Si Si7 0.214659 0.265042 0.357265
Si Si8 0.276032 0.618468 0.693342
O O1 0.570905 0.457865 0.748873
O O2 0.744536 0.667852 0.913261
O O3 0.724286 0.632630 0.698862
O O4 0.572310 0.000340 0.896664
O O5 0.979753 0.491471 0.204660
O O6 0.854990 0.279342 0.250235
O O7 0.077784 0.365292 0.358544
O O8 0.042787 0.963965 0.085061
O O9 0.484885 0.082295 0.729713
O O10 0.360028 0.878956 0.778587
O O11 0.399150 0.428045 0.002226
O O12 0.652405 0.594918 0.294406
O O13 0.500000 0.000000 0.500000
O O14 0.192956 0.497964 0.947182
O O15 0.000000 0.500000 0.000000
O O16 0.756666 0.102579 0.770956
O O17 0.262494 0.421355 0.518191
#
# Coordination Sequence:
#
# PCOD9102253 Si02
#       8
#     2   2   2   2   2   2   2   2
#     4  11  23  39  62  91 124 163 205 252 309 364
#     4  10  22  39  63  92 122 159 206 251 303 365
#     4  11  24  40  64  92 124 162 207 256 303 364
#     4  11  23  41  64  91 126 165 205 252 307 368
#     4  10  20  38  62  89 123 162 202 252 306 359
#     4  11  23  39  61  91 124 159 204 255 306 362
#     4  11  24  41  63  90 127 163 202 255 308 363
#     4  11  23  41  64  92 124 164 206 250 305 366
#
# _framework density 23.541581000000001
#
# number of rings (size 3 to 8) (size 9 to 14) (size 15 to 20)
#    0.000    1.250    0.000    6.000    0.000    8.000 
#    0.000    0.000    0.000    7.500    0.000    0.000 
#    0.000    0.000    0.000    0.000    0.000    0.000 
#
# Total GULP energy -89443.041265 kJ/mol
# GULP energy per Si atom -5590.190079 kJ/mol
# Density = 2.348800 g / cm^3
# Si number density = 23.541581 Si / 1000 Ang^3
#
#
#
# Elastic Constant Matrix: (Units=GPa)
#
#
# Indices 1 2 3 4 5 6 
#
# 1 119.2344 38.4097 11.7540 -7.1999 -11.0137 -23.1668
# 2 38.4097 135.1907 40.5148 -31.3192 -2.3275 -18.3753
# 3 11.7540 40.5148 87.0218 -17.0255 3.3576 -7.7347
# 4 -7.1999 -31.3192 -17.0255 29.9938 2.7788 -4.4976
# 5 -11.0137 -2.3275 3.3576 2.7788 35.5602 -3.9861
# 6 -23.1668 -18.3753 -7.7347 -4.4976 -3.9861 40.1183
#
#
#
# Elastic Compliance Matrix: (Units=1/GPa)
#
#
# Indices 1 2 3 4 5 6 
#
# 1 0.010508 -0.001919 0.000043 0.001055 0.003679 0.005681
# 2 -0.001919 0.012104 -0.002683 0.011423 0.000143 0.005213
# 3 0.000043 -0.002683 0.014083 0.005658 -0.001713 0.001975
# 4 0.001055 0.011423 0.005658 0.050785 -0.002036 0.012423
# 5 0.003679 0.000143 -0.001713 -0.002036 0.030109 0.004623
# 6 0.005681 0.005213 0.001975 0.012423 0.004623 0.032828
#
#
# Mechanical properties :
#
#
# Convention : Reuss Voigt Hill
#
# Bulk Modulus (GPa) = 36.26058 58.08932 47.17495
# Shear Modulus (GPa) = 29.63378 37.85237 33.74308
#
# Velocity S-wave (km/s) = 3.55178 4.01421 3.79005
# Velocity P-wave (km/s) = 5.67948 6.79808 6.26380
#
# Compressibility (1/GPa) = 0.02757816
#
# Stress axis : x y z
#
# Youngs Moduli (GPa) = 95.16530 82.61959 71.00616
#
# Poissons Ratio (x) = 0.15851 -0.00307
# Poissons Ratio (y) = 0.18258 0.19052
# Poissons Ratio (z) = -0.00412 0.22168
#
# Static dielectric constant tensor:
#      x y z
#    x 2.018090 -0.019050 0.059390 
#    y -0.019050 1.998510 -0.019350 
#    z 0.059390 -0.019350 1.876990 
# 
# From -- ./inp_files/71678.got.cif
#   From: 2010.05.17/outbox.cif.g08.bks.cpg/sg2_36_cif.got.tgz:71678.got - 2010.06.03 11:33:40.
