data_PCOD9102451
_publ_section_title
;
Structure prediction by ZEFSAII (Michael W. Deem and Ramdas Pophale) SiO2 
 PCOD9102451
Probable space group: P -1
;
_chemical_formula_sum "Si O2"
_cell_formula_units_Z 14
_cell_length_a 8.587058
_cell_length_b 11.339353
_cell_length_c 13.677673
_cell_angle_alpha 143.710436
_cell_angle_beta 119.092677
_cell_angle_gamma 52.860137
_cell_volume 628.370930
_symmetry_space_group_name_H-M "P -1"
_symmetry_group_IT_number 2
_symmetry_cell_setting 'triclinic'
loop_
_space_group_symop_operation_xyz
x,y,z
-x,-y,-z
loop_
_atom_site_type_symbol
_atom_site_label
_atom_site_fract_x
_atom_site_fract_y
_atom_site_fract_z
Si Si1 0.851361 0.409557 0.350772
Si Si2 0.962556 0.390553 0.010610
Si Si3 0.410837 0.625954 0.158411
Si Si4 0.228390 0.322810 0.677735
Si Si5 0.766510 0.053822 0.175101
Si Si6 0.915803 0.159877 0.489336
Si Si7 0.447984 0.457067 0.273220
O O1 0.839142 0.464504 0.269878
O O2 0.890835 0.162402 0.224194
O O3 0.626242 0.532713 0.403048
O O4 0.000000 0.500000 0.500000
O O5 0.818948 0.272165 0.862115
O O6 0.849052 0.587921 0.179726
O O7 0.155188 0.203051 0.987999
O O8 0.000000 0.500000 0.000000
O O9 0.537020 0.767000 0.311177
O O10 0.432995 0.479833 0.165698
O O11 0.500000 0.500000 0.000000
O O12 0.102969 0.189239 0.521154
O O13 0.548420 0.211160 0.180363
O O14 0.805195 0.086400 0.322742
O O15 0.752316 0.385899 0.633373
O O16 0.000000 0.000000 0.500000
#
# Coordination Sequence:
#
# PCOD9102451 Si02
#       7
#     2   2   2   2   2   2   2
#     4   9  18  38  60  85 120 153 195 247 294 348
#     4  11  22  40  62  87 123 156 198 248 298 357
#     4   9  19  38  58  83 116 157 192 244 294 349
#     4  10  20  38  63  81 120 158 193 249 293 349
#     4  10  22  37  63  89 119 156 203 241 299 353
#     4  12  22  38  61  91 119 159 199 246 301 356
#     4   9  20  37  59  83 123 150 199 244 293 352
#
# _framework density 22.279833
#
# number of rings (size 3 to 8) (size 9 to 14) (size 15 to 20)
#    0.857    1.143    1.429    3.000    0.000    0.571 
#    2.571    5.000    3.143    0.000    0.000    0.000 
#    0.000    0.000    0.000    0.000    0.000    0.000 
#
# Total GULP energy -77974.499448 kJ/mol
# GULP energy per Si atom -5569.607103 kJ/mol
# Density = 2.222912 g / cm^3
# Si number density = 22.279833 Si / 1000 Ang^3
#
#
#
# Elastic Constant Matrix: (Units=GPa)
#
#
# Indices 1 2 3 4 5 6 
#
# 1 97.3741 28.8704 11.4933 -0.8761 11.1012 -17.5488
# 2 28.8704 91.6710 2.9576 3.1448 1.9667 -14.9461
# 3 11.4933 2.9576 41.7230 -2.3802 4.9828 -10.9754
# 4 -0.8761 3.1448 -2.3802 34.9149 0.0944 1.9739
# 5 11.1012 1.9667 4.9828 0.0944 29.0443 -11.9593
# 6 -17.5488 -14.9461 -10.9754 1.9739 -11.9593 46.4672
#
#
#
# Elastic Compliance Matrix: (Units=1/GPa)
#
#
# Indices 1 2 3 4 5 6 
#
# 1 0.012294 -0.003386 -0.002165 0.000350 -0.003191 0.002206
# 2 -0.003386 0.012519 0.000656 -0.001365 0.001742 0.003409
# 3 -0.002165 0.000656 0.026128 0.001384 -0.001607 0.005092
# 4 0.000350 -0.001365 0.001384 0.028952 -0.000974 -0.001461
# 5 -0.003191 0.001742 -0.001607 -0.000974 0.039603 0.009210
# 6 0.002206 0.003409 0.005092 -0.001461 0.009210 0.027086
#
#
# Mechanical properties :
#
#
# Convention : Reuss Voigt Hill
#
# Bulk Modulus (GPa) = 24.30057 35.26787 29.78422
# Shear Modulus (GPa) = 29.39661 34.58174 31.98918
#
# Velocity S-wave (km/s) = 3.63633 3.94401 3.79329
# Velocity P-wave (km/s) = 5.34427 6.05014 5.70813
#
# Compressibility (1/GPa) = 0.04115130
#
# Stress axis : x y z
#
# Youngs Moduli (GPa) = 81.34334 79.87855 38.27323
#
# Poissons Ratio (x) = 0.27044 0.08286
# Poissons Ratio (y) = 0.27540 -0.02511
# Poissons Ratio (z) = 0.17612 -0.05241
#
# Static dielectric constant tensor:
#      x y z
#    x 1.843040 -0.030790 0.053040 
#    y -0.030790 1.832290 -0.032840 
#    z 0.053040 -0.032840 1.867690 
# 
# From -- ./inp_files/155469.got.cif
#   From: 2010.05.17/outbox.cif.g08.bks.cpg/sg2_78_cif.got.tgz:155469.got - 2010.06.03 11:33:40.
