data_PCOD9102302
_publ_section_title
;
Structure prediction by ZEFSAII (Michael W. Deem and Ramdas Pophale) SiO2 
 PCOD9102302
Probable space group: P -1
;
_chemical_formula_sum "Si O2"
_cell_formula_units_Z 16
_cell_length_a 23.916894
_cell_length_b 15.601336
_cell_length_c 5.254305
_cell_angle_alpha 105.993236
_cell_angle_beta 67.647840
_cell_angle_gamma 156.539991
_cell_volume 707.409644
_symmetry_space_group_name_H-M "P -1"
_symmetry_group_IT_number 2
_symmetry_cell_setting 'triclinic'
loop_
_space_group_symop_operation_xyz
x,y,z
-x,-y,-z
loop_
_atom_site_type_symbol
_atom_site_label
_atom_site_fract_x
_atom_site_fract_y
_atom_site_fract_z
Si Si1 0.609439 0.685694 0.174813
Si Si2 0.423317 0.132399 0.037428
Si Si3 0.903228 0.607390 0.159130
Si Si4 0.910546 0.820678 0.305280
Si Si5 0.173445 0.928288 0.230416
Si Si6 0.407949 0.903250 0.829065
Si Si7 0.574791 0.408489 0.479162
Si Si8 0.881714 0.004239 0.232320
O O1 0.501867 0.599830 0.465789
O O2 0.733072 0.785839 0.148793
O O3 0.500000 0.500000 0.000000
O O4 0.722700 0.913775 0.062882
O O5 0.525899 0.278270 0.229329
O O6 0.270925 0.982978 0.236577
O O7 0.513810 0.292687 0.765710
O O8 0.385812 0.979499 0.928189
O O9 0.881029 0.679982 0.354409
O O10 0.750451 0.359464 0.133258
O O11 0.002533 0.684075 0.247170
O O12 0.016670 0.776238 0.867386
O O13 0.752358 0.651959 0.388039
O O14 0.000000 0.000000 0.500000
O O15 0.004441 0.920130 0.971025
O O16 0.175571 0.029857 0.438025
O O17 0.500000 0.000000 0.500000
O O18 0.500000 0.000000 0.000000
#
# Coordination Sequence:
#
# PCOD9102302 Si02
#       8
#     2   2   2   2   2   2   2   2
#     4  10  20  38  62  90 133 174 229 274 328 392
#     4  11  24  44  71  96 135 173 227 280 338 399
#     4   9  23  40  63  91 132 168 216 282 327 401
#     4  10  21  40  62  92 133 174 224 270 345 401
#     4  10  21  41  65  93 130 178 221 275 343 398
#     4  12  26  45  70 101 132 176 226 278 348 402
#     4  11  23  43  65 101 133 173 225 282 329 403
#     4   9  20  39  60  88 129 170 216 271 336 391
#
# _framework density 22.617730999999999
#
# number of rings (size 3 to 8) (size 9 to 14) (size 15 to 20)
#    0.750    1.000    1.250    3.000    1.750    2.000 
#    2.250    1.875    0.000    0.000    0.000    0.000 
#    0.000    0.000    0.000    0.000    0.000    0.000 
#
# Total GULP energy -89193.263573 kJ/mol
# GULP energy per Si atom -5574.578973 kJ/mol
# Density = 2.256625 g / cm^3
# Si number density = 22.617731 Si / 1000 Ang^3
#
#
#
# Elastic Constant Matrix: (Units=GPa)
#
#
# Indices 1 2 3 4 5 6 
#
# 1 96.3905 53.8705 27.9686 0.4463 -25.9534 27.3609
# 2 53.8705 187.5548 49.7889 14.7424 -8.0418 32.4377
# 3 27.9686 49.7889 108.6961 4.3671 -11.5092 14.9059
# 4 0.4463 14.7424 4.3671 39.8909 -0.2965 -2.5543
# 5 -25.9534 -8.0418 -11.5092 -0.2965 40.5135 0.7730
# 6 27.3609 32.4377 14.9059 -2.5543 0.7730 41.0915
#
#
#
# Elastic Compliance Matrix: (Units=1/GPa)
#
#
# Indices 1 2 3 4 5 6 
#
# 1 0.017789 -0.002808 -0.000865 0.000406 0.010777 -0.009492
# 2 -0.002808 0.007491 -0.002231 -0.002716 -0.000901 -0.003386
# 3 -0.000865 -0.002231 0.010921 -0.000454 0.002135 -0.001693
# 4 0.000406 -0.002716 -0.000454 0.026351 -0.000286 0.003682
# 5 0.010777 -0.000901 0.002135 -0.000286 0.032162 -0.007862
# 6 -0.009492 -0.003386 -0.001693 0.003682 -0.007862 0.034320
#
#
# Mechanical properties :
#
#
# Convention : Reuss Voigt Hill
#
# Bulk Modulus (GPa) = 40.99360 72.87750 56.93555
# Shear Modulus (GPa) = 33.56329 41.70007 37.63168
#
# Velocity S-wave (km/s) = 3.85637 4.29848 4.08341
# Velocity P-wave (km/s) = 6.16382 7.54501 6.88912
#
# Compressibility (1/GPa) = 0.02439405
#
# Stress axis : x y z
#
# Youngs Moduli (GPa) = 56.21506 133.49267 91.56951
#
# Poissons Ratio (x) = 0.37486 0.07916
# Poissons Ratio (y) = 0.15786 0.20426
# Poissons Ratio (z) = 0.04860 0.29777
#
# Static dielectric constant tensor:
#      x y z
#    x 2.020260 -0.000850 0.030860 
#    y -0.000850 1.806290 -0.030690 
#    z 0.030860 -0.030690 1.900330 
# 
# From -- ./inp_files/127521.got.cif
#   From: 2010.05.17/outbox.cif.g08.bks.cpg/sg2_64_cif.got.tgz:127521.got - 2010.06.03 11:33:40.
