data_PCOD9103824
_publ_section_title
;
Structure prediction by ZEFSAII (Michael W. Deem and Ramdas Pophale) SiO2 
 PCOD9103824
Probable space group: P -1
;
_chemical_formula_sum "Si O2"
_cell_formula_units_Z 15
_cell_length_a 12.465335
_cell_length_b 9.290037
_cell_length_c 7.096045
_cell_angle_alpha 95.192711
_cell_angle_beta 98.657093
_cell_angle_gamma 133.323259
_cell_volume 569.148368
_symmetry_space_group_name_H-M "P -1"
_symmetry_group_IT_number 2
_symmetry_cell_setting 'triclinic'
loop_
_space_group_symop_operation_xyz
x,y,z
-x,-y,-z
loop_
_atom_site_type_symbol
_atom_site_label
_atom_site_fract_x
_atom_site_fract_y
_atom_site_fract_z
Si Si1 0.692161 0.505955 0.197486
Si Si2 0.186668 0.645174 0.268248
Si Si3 0.698052 0.953022 0.639181
Si Si4 0.500000 0.500000 0.500000
Si Si5 0.244816 0.385381 0.377510
Si Si6 0.999307 0.051213 0.790177
Si Si7 0.421224 0.085443 0.982572
Si Si8 0.837125 0.339071 0.191178
O O1 0.644008 0.524536 0.393604
O O2 0.552916 0.328004 0.005437
O O3 0.769949 0.424861 0.264889
O O4 0.829809 0.734517 0.186131
O O5 0.241308 0.536963 0.310399
O O6 0.016360 0.493338 0.290885
O O7 0.288558 0.868914 0.407106
O O8 0.176350 0.654774 0.040417
O O9 0.587258 0.740735 0.475119
O O10 0.874646 0.060278 0.719271
O O11 0.628065 0.913642 0.822565
O O12 0.349672 0.374397 0.291117
O O13 0.079172 0.162442 0.356350
O O14 0.000000 0.000000 0.000000
O O15 0.500000 0.000000 0.000000
O O16 0.262032 0.897173 0.813942
#
# Coordination Sequence:
#
# PCOD9103824 Si02
#       8
#     2   2   2   1   2   2   2   2
#     4  11  20  41  62  91 130 169 209 275 321 375
#     4  10  20  38  68  97 120 170 223 258 316 381
#     4  10  20  41  67  89 129 172 211 266 316 383
#     4  10  22  42  58  90 138 174 210 258 322 388
#     4  11  24  38  67  93 130 171 215 266 323 383
#     4  11  24  41  68  92 125 175 219 258 324 395
#     4   9  19  35  64  89 128 165 203 270 325 354
#     4   9  19  36  64  93 130 159 211 271 311 375
#
# _framework density 26.355167000000002
#
# number of rings (size 3 to 8) (size 9 to 14) (size 15 to 20)
#    0.000    1.867    2.667    1.200    3.733    1.067 
#    0.000    0.667   11.733    0.000    0.000    0.000 
#    0.000    0.000    0.000    0.000    0.000    0.000 
#
# Total GULP energy -83655.551811 kJ/mol
# GULP energy per Si atom -5577.036787 kJ/mol
# Density = 2.629518 g / cm^3
# Si number density = 26.355167 Si / 1000 Ang^3
#
#
#
# Elastic Constant Matrix: (Units=GPa)
#
#
# Indices 1 2 3 4 5 6 
#
# 1 113.1655 48.4506 14.7648 6.5087 -6.5545 -4.9301
# 2 48.4506 255.8297 40.1820 35.4425 15.4320 8.0703
# 3 14.7648 40.1820 67.4498 -1.5809 -21.0083 3.4634
# 4 6.5087 35.4425 -1.5809 23.9560 -4.3918 -3.7580
# 5 -6.5545 15.4320 -21.0083 -4.3918 30.6313 2.8753
# 6 -4.9301 8.0703 3.4634 -3.7580 2.8753 52.9502
#
#
#
# Elastic Compliance Matrix: (Units=1/GPa)
#
#
# Indices 1 2 3 4 5 6 
#
# 1 0.010019 -0.002529 0.000528 0.001968 0.003949 0.001209
# 2 -0.002529 0.008870 -0.009222 -0.015728 -0.013461 -0.001370
# 3 0.000528 -0.009222 0.029404 0.020474 0.027911 -0.000531
# 4 0.001968 -0.015728 0.020474 0.072484 0.032345 0.004629
# 5 0.003949 -0.013461 0.027911 0.032345 0.064109 -0.000592
# 6 0.001209 -0.001370 -0.000531 0.004629 -0.000592 0.019602
#
#
# Mechanical properties :
#
#
# Convention : Reuss Voigt Hill
#
# Bulk Modulus (GPa) = 38.68937 71.47110 55.08024
# Shear Modulus (GPa) = 21.22682 43.71066 32.46874
#
# Velocity S-wave (km/s) = 2.84106 4.07692 3.51375
# Velocity P-wave (km/s) = 5.04718 7.02417 6.11609
#
# Compressibility (1/GPa) = 0.02584689
#
# Stress axis : x y z
#
# Youngs Moduli (GPa) = 99.81174 112.73507 34.00844
#
# Poissons Ratio (x) = 0.28515 -0.01794
# Poissons Ratio (y) = 0.25246 0.31361
# Poissons Ratio (z) = -0.05266 1.03961
#
# Static dielectric constant tensor:
#      x y z
#    x 2.258820 -0.024600 -0.075880 
#    y -0.024600 2.221370 0.004840 
#    z -0.075880 0.004840 2.149660 
# 
# From -- ./inp_files/295290.got.cif
#   From: 2010.05.17/outbox.cif.g08.bks.cpg/sg2_148_cif.got.tgz:295290.got - 2010.06.03 11:33:40.
