data_PCOD9103292
_publ_section_title
;
Structure prediction by ZEFSAII (Michael W. Deem and Ramdas Pophale) SiO2 
 PCOD9103292
Probable space group: P -1
;
_chemical_formula_sum "Si O2"
_cell_formula_units_Z 15
_cell_length_a 8.768114
_cell_length_b 11.926132
_cell_length_c 10.856869
_cell_angle_alpha 60.143291
_cell_angle_beta 104.799566
_cell_angle_gamma 144.059450
_cell_volume 553.080947
_symmetry_space_group_name_H-M "P -1"
_symmetry_group_IT_number 2
_symmetry_cell_setting 'triclinic'
loop_
_space_group_symop_operation_xyz
x,y,z
-x,-y,-z
loop_
_atom_site_type_symbol
_atom_site_label
_atom_site_fract_x
_atom_site_fract_y
_atom_site_fract_z
Si Si1 0.395369 0.435370 0.285201
Si Si2 0.650641 0.860382 0.164524
Si Si3 0.449908 0.761117 0.898126
Si Si4 0.865654 0.162977 0.594299
Si Si5 0.884415 0.255730 0.301635
Si Si6 0.852574 0.667523 0.060088
Si Si7 0.500000 0.500000 0.500000
Si Si8 0.815886 0.312764 0.723065
O O1 0.551082 0.648043 0.293509
O O2 0.608034 0.552571 0.158772
O O3 0.387619 0.326926 0.450012
O O4 0.109530 0.308166 0.267260
O O5 0.494239 0.855494 0.220922
O O6 0.526353 0.797627 0.036018
O O7 0.968960 0.099087 0.089252
O O8 0.268398 0.764106 0.822210
O O9 0.283502 0.525434 0.952142
O O10 0.710997 0.953978 0.759735
O O11 0.732650 0.079291 0.476477
O O12 0.841659 0.277360 0.609548
O O13 0.177207 0.338167 0.542418
O O14 0.026846 0.462656 0.303369
O O15 0.069252 0.731327 0.150441
#
# Coordination Sequence:
#
# PCOD9103292 Si02
#       8
#     2   2   2   2   2   2   1   2
#     4  10  21  40  65  93 128 169 211 261 324 378
#     4  11  23  42  63  97 128 169 216 261 315 378
#     4  11  24  41  67  94 132 169 212 268 311 374
#     4  11  20  40  68  95 129 167 213 264 322 378
#     4   9  22  38  65  95 128 168 216 264 316 374
#     4  11  22  40  66  94 129 171 214 259 321 377
#     4  10  20  40  70  92 124 164 204 268 320 370
#     4  10  20  38  65  96 122 167 216 259 315 376
#
# _framework density 27.120802999999999
#
# number of rings (size 3 to 8) (size 9 to 14) (size 15 to 20)
#    0.000    1.600    2.667    1.600    0.000    5.333 
#    0.000    2.667   11.733    0.000    0.000    0.000 
#    0.000    0.000    0.000    0.000    0.000    0.000 
#
# Total GULP energy -83807.050985 kJ/mol
# GULP energy per Si atom -5587.136732 kJ/mol
# Density = 2.705907 g / cm^3
# Si number density = 27.120803 Si / 1000 Ang^3
#
#
#
# Elastic Constant Matrix: (Units=GPa)
#
#
# Indices 1 2 3 4 5 6 
#
# 1 144.8535 27.7094 49.5891 12.8845 -14.4901 34.5727
# 2 27.7094 96.4071 32.4339 5.3803 -1.3502 -8.5268
# 3 49.5891 32.4339 157.4253 14.4071 -11.2242 12.7878
# 4 12.8845 5.3803 14.4071 27.9654 10.4679 -6.5456
# 5 -14.4901 -1.3502 -11.2242 10.4679 54.3367 0.3449
# 6 34.5727 -8.5268 12.7878 -6.5456 0.3449 33.6428
#
#
#
# Elastic Compliance Matrix: (Units=1/GPa)
#
#
# Indices 1 2 3 4 5 6 
#
# 1 0.013646 -0.004563 -0.000515 -0.011317 0.005709 -0.017244
# 2 -0.004563 0.013173 -0.002610 0.004065 -0.002274 0.009834
# 3 -0.000515 -0.002610 0.008070 -0.005362 0.002525 -0.004269
# 4 -0.011317 0.004065 -0.005362 0.054395 -0.014665 0.025432
# 5 0.005709 -0.002274 0.002525 -0.014665 0.023283 -0.010495
# 6 -0.017244 0.009834 -0.004269 0.025432 -0.010495 0.056616
#
#
# Mechanical properties :
#
#
# Convention : Reuss Voigt Hill
#
# Bulk Modulus (GPa) = 51.24470 68.68343 59.96407
# Shear Modulus (GPa) = 26.16950 42.45255 34.31102
#
# Velocity S-wave (km/s) = 3.10969 3.96070 3.56071
# Velocity P-wave (km/s) = 5.64177 6.80413 6.25003
#
# Compressibility (1/GPa) = 0.01951421
#
# Stress axis : x y z
#
# Youngs Moduli (GPa) = 73.28072 75.91243 123.92171
#
# Poissons Ratio (x) = 0.34636 0.06382
# Poissons Ratio (y) = 0.33435 0.32340
# Poissons Ratio (z) = 0.03774 0.19811
#
# Static dielectric constant tensor:
#      x y z
#    x 2.091150 -0.033260 0.072950 
#    y -0.033260 2.201430 -0.023450 
#    z 0.072950 -0.023450 2.305150 
# 
# From -- ./inp_files/389772.got.cif
#   From: 2010.05.17/outbox.cif.g08.bks.cpg/sg2_195_cif.got.tgz:389772.got - 2010.06.03 11:33:40.
