data_PCOD9103266
_publ_section_title
;
Structure prediction by ZEFSAII (Michael W. Deem and Ramdas Pophale) SiO2 
 PCOD9103266
Probable space group: P -1
;
_chemical_formula_sum "Si O2"
_cell_formula_units_Z 15
_cell_length_a 7.731167
_cell_length_b 11.561854
_cell_length_c 19.579071
_cell_angle_alpha 138.360530
_cell_angle_beta 35.558839
_cell_angle_gamma 127.520187
_cell_volume 676.235763
_symmetry_space_group_name_H-M "P -1"
_symmetry_group_IT_number 2
_symmetry_cell_setting 'triclinic'
loop_
_space_group_symop_operation_xyz
x,y,z
-x,-y,-z
loop_
_atom_site_type_symbol
_atom_site_label
_atom_site_fract_x
_atom_site_fract_y
_atom_site_fract_z
Si Si1 0.500000 0.500000 0.500000
Si Si2 0.855569 0.547554 0.273232
Si Si3 0.020317 0.093064 0.848396
Si Si4 0.458280 0.647120 0.181963
Si Si5 0.155567 0.559555 0.377854
Si Si6 0.070601 0.616537 0.094951
Si Si7 0.799445 0.144712 0.091063
Si Si8 0.143068 0.223363 0.321057
O O1 0.593076 0.564847 0.419607
O O2 0.849572 0.511758 0.415558
O O3 0.912799 0.338061 0.159832
O O4 0.140161 0.659800 0.254973
O O5 0.834245 0.604952 0.226535
O O6 0.332275 0.182680 0.809481
O O7 0.898889 0.197076 0.867200
O O8 0.014894 0.897620 0.737526
O O9 0.823163 0.116628 0.989584
O O10 0.386016 0.601979 0.263546
O O11 0.632366 0.482896 0.021124
O O12 0.075055 0.720325 0.523638
O O13 0.241897 0.398015 0.326578
O O14 0.000000 0.500000 0.000000
O O15 0.447067 0.143482 0.219521
O O16 0.000000 0.000000 0.000000
#
# Coordination Sequence:
#
# PCOD9103266 Si02
#       8
#     1   2   2   2   2   2   2   2
#     4  10  22  42  68 100 128 176 234 272 326 400
#     4  11  22  41  68  99 132 181 230 278 329 409
#     4  11  25  40  64 100 137 174 223 288 341 401
#     4  10  22  38  64  97 128 180 223 269 339 399
#     4  10  23  42  71  93 134 183 230 274 332 419
#     4  10  20  38  65  94 135 173 225 271 336 402
#     4  12  26  41  68 101 140 174 228 289 339 398
#     4  11  25  43  65 100 134 183 226 278 344 398
#
# _framework density 22.181612999999999
#
# number of rings (size 3 to 8) (size 9 to 14) (size 15 to 20)
#    0.000    1.333    4.000    1.600    7.467    0.533 
#    0.000    0.000    0.000    4.000    0.000    0.000 
#    0.000    0.000    0.000    0.000    0.000    0.000 
#
# Total GULP energy -83501.552862 kJ/mol
# GULP energy per Si atom -5566.770191 kJ/mol
# Density = 2.213113 g / cm^3
# Si number density = 22.181613 Si / 1000 Ang^3
#
#
#
# Elastic Constant Matrix: (Units=GPa)
#
#
# Indices 1 2 3 4 5 6 
#
# 1 88.0535 12.0539 20.2006 -4.4196 1.8563 4.5904
# 2 12.0539 56.5359 43.8450 -4.4351 8.2762 6.3331
# 3 20.2006 43.8450 107.5947 -22.3360 18.1267 -1.0978
# 4 -4.4196 -4.4351 -22.3360 35.6950 -7.9082 16.7833
# 5 1.8563 8.2762 18.1267 -7.9082 33.2900 -10.9807
# 6 4.5904 6.3331 -1.0978 16.7833 -10.9807 33.4271
#
#
#
# Elastic Compliance Matrix: (Units=1/GPa)
#
#
# Indices 1 2 3 4 5 6 
#
# 1 0.012043 -0.000974 -0.001599 0.001425 0.000047 -0.002222
# 2 -0.000974 0.027195 -0.010753 -0.001505 -0.003064 -0.005622
# 3 -0.001599 -0.010753 0.016830 0.009577 -0.005368 -0.003762
# 4 0.001425 -0.001505 0.009577 0.044096 -0.001811 -0.022330
# 5 0.000047 -0.003064 -0.005368 -0.001811 0.037820 0.013731
# 6 -0.002222 -0.005622 -0.003762 -0.022330 0.013731 0.046885
#
#
# Mechanical properties :
#
#
# Convention : Reuss Voigt Hill
#
# Bulk Modulus (GPa) = 33.99420 44.93147 39.46283
# Shear Modulus (GPa) = 22.59116 32.22139 27.40628
#
# Velocity S-wave (km/s) = 3.19480 3.81546 3.51884
# Velocity P-wave (km/s) = 5.38216 6.30162 5.85995
#
# Compressibility (1/GPa) = 0.02941679
#
# Stress axis : x y z
#
# Youngs Moduli (GPa) = 83.03426 36.77182 59.41688
#
# Poissons Ratio (x) = 0.03581 0.09501
# Poissons Ratio (y) = 0.08086 0.63890
# Poissons Ratio (z) = 0.13278 0.39540
#
# Static dielectric constant tensor:
#      x y z
#    x 1.937490 -0.031800 -0.045700 
#    y -0.031800 1.854980 0.067800 
#    z -0.045700 0.067800 1.852960 
# 
# From -- ./inp_files/589092.got.cif
#   From: 2010.05.17/outbox.cif.g08.bks.cpg/sg2_295_cif.got.tgz:589092.got - 2010.06.03 11:33:40.
