data_PCOD9103589
_publ_section_title
;
Structure prediction by ZEFSAII (Michael W. Deem and Ramdas Pophale) SiO2 
 PCOD9103589
Probable space group: P -1
;
_chemical_formula_sum "Si O2"
_cell_formula_units_Z 14
_cell_length_a 18.900872
_cell_length_b 9.018722
_cell_length_c 7.991313
_cell_angle_alpha 54.731215
_cell_angle_beta 49.823074
_cell_angle_gamma 30.766303
_cell_volume 531.484264
_symmetry_space_group_name_H-M "P -1"
_symmetry_group_IT_number 2
_symmetry_cell_setting 'triclinic'
loop_
_space_group_symop_operation_xyz
x,y,z
-x,-y,-z
loop_
_atom_site_type_symbol
_atom_site_label
_atom_site_fract_x
_atom_site_fract_y
_atom_site_fract_z
Si Si1 0.727954 0.112329 0.158787
Si Si2 0.611131 0.414003 0.682444
Si Si3 0.780065 0.814304 0.965671
Si Si4 0.832850 0.319777 0.808796
Si Si5 0.375971 0.320760 0.796595
Si Si6 0.033525 0.287607 0.710644
Si Si7 0.605365 0.778543 0.638956
O O1 0.551076 0.407432 0.240699
O O2 0.836743 0.099201 0.919055
O O3 0.797477 0.983733 0.318476
O O4 0.754499 0.896691 0.144114
O O5 0.666403 0.466843 0.418242
O O6 0.585345 0.588863 0.767993
O O7 0.719768 0.084250 0.782079
O O8 0.940528 0.496666 0.877495
O O9 0.682910 0.789901 0.081828
O O10 0.965302 0.212536 0.776000
O O11 0.779830 0.503114 0.602811
O O12 0.695217 0.526978 0.016732
O O13 0.548690 0.012235 0.711915
O O14 0.000000 0.500000 0.500000
O O15 0.500000 0.000000 0.500000
#
# Coordination Sequence:
#
# PCOD9103589 Si02
#       7
#     2   2   2   2   2   2   2
#     4  12  24  46  72 101 144 183 234 288 349 426
#     4  11  23  41  75 111 136 176 239 291 352 415
#     4  11  23  48  73 102 140 186 239 287 350 419
#     4  11  24  44  69  99 141 185 235 289 352 412
#     4  10  23  39  69 105 146 176 225 289 359 405
#     4  11  29  47  68  98 143 190 234 286 355 418
#     4  10  20  38  67 106 137 174 225 289 346 410
#
# _framework density 26.341325000000001
#
# number of rings (size 3 to 8) (size 9 to 14) (size 15 to 20)
#    0.000    1.143    2.857    2.571    6.000    1.714 
#    0.000    0.714    0.000    0.000    0.000    0.000 
#    0.000    0.000    0.000    0.000    0.000    0.000 
#
# Total GULP energy -78105.081141 kJ/mol
# GULP energy per Si atom -5578.934367 kJ/mol
# Density = 2.628137 g / cm^3
# Si number density = 26.341325 Si / 1000 Ang^3
#
#
#
# Elastic Constant Matrix: (Units=GPa)
#
#
# Indices 1 2 3 4 5 6 
#
# 1 140.4218 44.0611 1.7452 -17.0887 -5.4684 -7.5456
# 2 44.0611 109.1789 17.6651 -30.8252 5.1179 -4.0704
# 3 1.7452 17.6651 81.8562 -41.8486 5.3067 3.5786
# 4 -17.0887 -30.8252 -41.8486 47.9345 4.2868 11.6161
# 5 -5.4684 5.1179 5.3067 4.2868 34.4150 -16.4980
# 6 -7.5456 -4.0704 3.5786 11.6161 -16.4980 41.2335
#
#
#
# Elastic Compliance Matrix: (Units=1/GPa)
#
#
# Indices 1 2 3 4 5 6 
#
# 1 0.008467 -0.003378 0.000631 0.000669 0.002640 0.002029
# 2 -0.003378 0.014254 0.006324 0.016328 -0.009596 -0.008199
# 3 0.000631 0.006324 0.035231 0.042799 -0.022884 -0.023531
# 4 0.000669 0.016328 0.042799 0.082263 -0.038638 -0.040614
# 5 0.002640 -0.009596 -0.022884 -0.038638 0.055918 0.034780
# 6 0.002029 -0.008199 -0.023531 -0.040614 0.034780 0.051214
#
#
# Mechanical properties :
#
#
# Convention : Reuss Voigt Hill
#
# Bulk Modulus (GPa) = 15.35989 50.93331 33.14660
# Shear Modulus (GPa) = 19.09163 42.58232 30.83698
#
# Velocity S-wave (km/s) = 2.69509 4.02501 3.42522
# Velocity P-wave (km/s) = 3.94062 6.40147 5.31541
#
# Compressibility (1/GPa) = 0.06510462
#
# Stress axis : x y z
#
# Youngs Moduli (GPa) = 118.10851 70.15820 28.38383
#
# Poissons Ratio (x) = 0.23701 -0.01790
# Poissons Ratio (y) = 0.39900 -0.17951
# Poissons Ratio (z) = -0.07447 -0.44369
#
# Static dielectric constant tensor:
#      x y z
#    x 2.076400 0.068020 0.073800 
#    y 0.068020 2.252950 0.218520 
#    z 0.073800 0.218520 2.445210 
# 
# From -- ./inp_files/328550.got.cif
#   From: 2010.05.17/outbox.cif.g08.bks.cpg/sg2_165_cif.got.tgz:328550.got - 2010.06.03 11:33:40.
