data_PCOD9103051
_publ_section_title
;
Structure prediction by ZEFSAII (Michael W. Deem and Ramdas Pophale) SiO2 
 PCOD9103051
Probable space group: P -1
;
_chemical_formula_sum "Si O2"
_cell_formula_units_Z 16
_cell_length_a 8.879152
_cell_length_b 9.073703
_cell_length_c 11.381101
_cell_angle_alpha 92.931736
_cell_angle_beta 111.614732
_cell_angle_gamma 70.519923
_cell_volume 800.970948
_symmetry_space_group_name_H-M "P -1"
_symmetry_group_IT_number 2
_symmetry_cell_setting 'triclinic'
loop_
_space_group_symop_operation_xyz
x,y,z
-x,-y,-z
loop_
_atom_site_type_symbol
_atom_site_label
_atom_site_fract_x
_atom_site_fract_y
_atom_site_fract_z
Si Si1 0.851656 0.155785 0.421545
Si Si2 0.360605 0.890231 0.246607
Si Si3 0.927511 0.503364 0.805578
Si Si4 0.666792 0.367713 0.594947
Si Si5 0.180051 0.987485 0.961116
Si Si6 0.945964 0.831927 0.741438
Si Si7 0.573568 0.066244 0.187277
Si Si8 0.793309 0.698486 0.988424
O O1 0.770293 0.260687 0.513726
O O2 0.955652 0.214081 0.355554
O O3 0.695024 0.124270 0.308331
O O4 0.000000 0.000000 0.500000
O O5 0.387941 0.737463 0.327203
O O6 0.516196 0.939958 0.239843
O O7 0.258297 0.887585 0.095390
O O8 0.242892 0.035377 0.299376
O O9 0.801396 0.440589 0.692974
O O10 0.931572 0.670958 0.775078
O O11 0.121525 0.380084 0.867877
O O12 0.842516 0.547799 0.911590
O O13 0.500000 0.500000 0.500000
O O14 0.057268 0.914411 0.853701
O O15 0.319513 0.993017 0.903400
O O16 0.115014 0.168287 0.993924
O O17 0.402155 0.204293 0.099750
#
# Coordination Sequence:
#
# PCOD9103051 Si02
#       8
#     2   2   2   2   2   2   2   2
#     4  11  25  47  68  95 136 180 232 280 319 396
#     4  11  21  40  72  94 128 179 225 269 337 400
#     4  11  24  38  64  97 136 173 211 277 340 392
#     4  12  28  46  65  97 140 181 227 279 329 398
#     4  10  21  39  67 101 132 162 225 276 333 399
#     4  11  22  41  69  99 127 181 225 274 331 406
#     4  10  22  42  70 101 129 167 227 285 322 394
#     4  10  20  38  64  97 135 162 209 278 339 389
#
# _framework density 19.975753999999998
#
# number of rings (size 3 to 8) (size 9 to 14) (size 15 to 20)
#    0.000    1.250    3.750    3.375    5.250    2.000 
#    4.500    1.250    0.000    0.000    0.000    0.000 
#    0.000    0.000    0.000    0.000    0.000    0.000 
#
# Total GULP energy -89132.195495 kJ/mol
# GULP energy per Si atom -5570.762218 kJ/mol
# Density = 1.993029 g / cm^3
# Si number density = 19.975754 Si / 1000 Ang^3
#
#
#
# Elastic Constant Matrix: (Units=GPa)
#
#
# Indices 1 2 3 4 5 6 
#
# 1 112.6691 47.0528 48.3879 0.6243 -9.3136 4.4325
# 2 47.0528 114.2215 69.4772 -14.2106 7.8037 -2.4309
# 3 48.3879 69.4772 117.7505 3.2430 4.2990 0.0296
# 4 0.6243 -14.2106 3.2430 41.9719 -4.0792 -9.0467
# 5 -9.3136 7.8037 4.2990 -4.0792 38.4467 0.9606
# 6 4.4325 -2.4309 0.0296 -9.0467 0.9606 22.6667
#
#
#
# Elastic Compliance Matrix: (Units=1/GPa)
#
#
# Indices 1 2 3 4 5 6 
#
# 1 0.012178 -0.003849 -0.002831 -0.001661 0.003962 -0.003621
# 2 -0.003849 0.016609 -0.008319 0.007255 -0.002742 0.005556
# 3 -0.002831 -0.008319 0.014727 -0.004468 -0.001066 -0.002096
# 4 -0.001661 0.007255 -0.004468 0.029560 0.001440 0.012846
# 5 0.003962 -0.002742 -0.001066 0.001440 0.027840 -0.001673
# 6 -0.003621 0.005556 -0.002096 0.012846 -0.001673 0.050622
#
#
# Mechanical properties :
#
#
# Convention : Reuss Voigt Hill
#
# Bulk Modulus (GPa) = 73.99144 74.94188 74.46666
# Shear Modulus (GPa) = 26.87571 32.59862 29.73716
#
# Velocity S-wave (km/s) = 3.67197 4.04407 3.86250
# Velocity P-wave (km/s) = 7.42286 7.70739 7.56646
#
# Compressibility (1/GPa) = 0.01351508
#
# Stress axis : x y z
#
# Youngs Moduli (GPa) = 82.11450 60.20831 67.90092
#
# Poissons Ratio (x) = 0.23173 0.19226
# Poissons Ratio (y) = 0.31604 0.56489
# Poissons Ratio (z) = 0.23251 0.50090
#
# Static dielectric constant tensor:
#      x y z
#    x 1.803800 -0.032080 -0.072470 
#    y -0.032080 1.696920 -0.003580 
#    z -0.072470 -0.003580 1.806760 
# 
# From -- ./inp_files/333021.got.cif
#   From: 2010.05.17/outbox.cif.g08.bks.cpg/sg2_167_cif.got.tgz:333021.got - 2010.06.03 11:33:40.
