data_PCOD9103489
_publ_section_title
;
Structure prediction by ZEFSAII (Michael W. Deem and Ramdas Pophale) SiO2 
 PCOD9103489
Probable space group: P -1
;
_chemical_formula_sum "Si O2"
_cell_formula_units_Z 15
_cell_length_a 12.025547
_cell_length_b 7.247514
_cell_length_c 10.731192
_cell_angle_alpha 122.671780
_cell_angle_beta 50.353863
_cell_angle_gamma 113.815752
_cell_volume 603.670831
_symmetry_space_group_name_H-M "P -1"
_symmetry_group_IT_number 2
_symmetry_cell_setting 'triclinic'
loop_
_space_group_symop_operation_xyz
x,y,z
-x,-y,-z
loop_
_atom_site_type_symbol
_atom_site_label
_atom_site_fract_x
_atom_site_fract_y
_atom_site_fract_z
Si Si1 0.674658 0.799677 0.728411
Si Si2 0.853817 0.591273 0.022760
Si Si3 0.839753 0.058183 0.284283
Si Si4 0.330405 0.431654 0.111417
Si Si5 0.564553 0.502584 0.316388
Si Si6 0.178470 0.831054 0.396118
Si Si7 0.922026 0.556927 0.348628
Si Si8 0.500000 0.000000 0.500000
O O1 0.697085 0.771481 0.848998
O O2 0.511555 0.707977 0.778450
O O3 0.767853 0.641618 0.519341
O O4 0.727375 0.040256 0.730383
O O5 0.737661 0.504834 0.179012
O O6 0.902761 0.847176 0.103821
O O7 0.756358 0.583350 0.961407
O O8 0.987744 0.448991 0.846762
O O9 0.834234 0.015070 0.421044
O O10 0.918124 0.301421 0.299323
O O11 0.672886 0.061170 0.363110
O O12 0.266449 0.631263 0.303248
O O13 0.500000 0.500000 0.000000
O O14 0.500000 0.500000 0.500000
O O15 0.525724 0.735802 0.374314
O O16 0.025089 0.725539 0.420740
#
# Coordination Sequence:
#
# PCOD9103489 Si02
#       8
#     2   2   2   2   2   2   2   1
#     4  12  23  43  73  97 135 187 227 274 343 406
#     4  10  24  41  68 103 139 171 234 282 334 408
#     4  11  21  42  70  98 134 181 223 285 341 398
#     4  11  23  45  69 101 138 178 227 281 338 404
#     4  11  22  42  66  98 135 176 221 284 338 395
#     4  11  25  42  71 101 135 178 234 277 338 414
#     4  11  23  45  67  98 141 183 225 279 342 411
#     4  10  20  38  66  94 126 172 224 262 336 408
#
# _framework density 24.847978999999999
#
# number of rings (size 3 to 8) (size 9 to 14) (size 15 to 20)
#    0.000    1.067    4.000    2.800    3.733    0.533 
#    0.000    2.667    0.000    0.000    0.000    0.000 
#    0.000    0.000    0.000    0.000    0.000    0.000 
#
# Total GULP energy -83658.702527 kJ/mol
# GULP energy per Si atom -5577.246835 kJ/mol
# Density = 2.479142 g / cm^3
# Si number density = 24.847979 Si / 1000 Ang^3
#
#
#
# Elastic Constant Matrix: (Units=GPa)
#
#
# Indices 1 2 3 4 5 6 
#
# 1 44.6696 5.0778 -1.4202 -5.6243 -4.2081 12.7823
# 2 5.0778 101.5102 -29.3925 -24.4337 7.8505 7.4966
# 3 -1.4202 -29.3925 91.7539 -6.7714 0.5638 3.5181
# 4 -5.6243 -24.4337 -6.7714 43.6737 -2.1445 -0.2105
# 5 -4.2081 7.8505 0.5638 -2.1445 38.0221 -6.4078
# 6 12.7823 7.4966 3.5181 -0.2105 -6.4078 21.4132
#
#
#
# Elastic Compliance Matrix: (Units=1/GPa)
#
#
# Indices 1 2 3 4 5 6 
#
# 1 0.027856 0.001587 0.001955 0.004697 0.000051 -0.017444
# 2 0.001587 0.014427 0.005633 0.008928 -0.003723 -0.007950
# 3 0.001955 0.005633 0.013363 0.005357 -0.001825 -0.005828
# 4 0.004697 0.008928 0.005357 0.029251 -0.000898 -0.006791
# 5 0.000051 -0.003723 -0.001825 -0.000898 0.028765 0.010171
# 6 -0.017444 -0.007950 -0.005828 -0.006791 0.010171 0.063830
#
#
# Mechanical properties :
#
#
# Convention : Reuss Voigt Hill
#
# Bulk Modulus (GPa) = 13.51429 20.71819 17.11624
# Shear Modulus (GPa) = 27.20230 38.19972 32.70101
#
# Velocity S-wave (km/s) = 3.31229 3.92514 3.63167
# Velocity P-wave (km/s) = 4.48095 5.37572 4.94860
#
# Compressibility (1/GPa) = 0.07399575
#
# Stress axis : x y z
#
# Youngs Moduli (GPa) = 35.89884 69.31593 74.83158
#
# Poissons Ratio (x) = -0.11003 -0.14628
# Poissons Ratio (y) = -0.05699 -0.42150
# Poissons Ratio (z) = -0.07018 -0.39043
#
# Static dielectric constant tensor:
#      x y z
#    x 2.024760 0.005590 -0.011790 
#    y 0.005590 1.936860 -0.061640 
#    z -0.011790 -0.061640 2.037860 
# 
# From -- ./inp_files/448165.got.cif
#   From: 2010.05.17/outbox.cif.g08.bks.cpg/sg2_225_cif.got.tgz:448165.got - 2010.06.03 11:33:40.
