data_PCOD9103607
_publ_section_title
;
Structure prediction by ZEFSAII (Michael W. Deem and Ramdas Pophale) SiO2 
 PCOD9103607
Probable space group: P -1
;
_chemical_formula_sum "Si O2"
_cell_formula_units_Z 16
_cell_length_a 15.890105
_cell_length_b 6.073483
_cell_length_c 19.293036
_cell_angle_alpha 81.771929
_cell_angle_beta 19.976144
_cell_angle_gamma 80.632612
_cell_volume 627.340917
_symmetry_space_group_name_H-M "P -1"
_symmetry_group_IT_number 2
_symmetry_cell_setting 'triclinic'
loop_
_space_group_symop_operation_xyz
x,y,z
-x,-y,-z
loop_
_atom_site_type_symbol
_atom_site_label
_atom_site_fract_x
_atom_site_fract_y
_atom_site_fract_z
Si Si1 0.184884 0.401076 0.109613
Si Si2 0.461446 0.953330 0.762819
Si Si3 0.793568 0.493185 0.218017
Si Si4 0.139233 0.167377 0.429583
Si Si5 0.042510 0.911068 0.788630
Si Si6 0.713012 0.699990 0.405635
Si Si7 0.879745 0.526658 0.695620
Si Si8 0.565556 0.438216 0.687788
O O1 0.077664 0.164706 0.186109
O O2 0.945159 0.573361 0.271783
O O3 0.272969 0.431073 0.118116
O O4 0.388033 0.429453 0.892638
O O5 0.501304 0.218047 0.701897
O O6 0.624183 0.927607 0.707694
O O7 0.527112 0.708096 0.686241
O O8 0.175013 0.956934 0.005334
O O9 0.881075 0.302391 0.214331
O O10 0.761567 0.703754 0.284297
O O11 0.533517 0.426022 0.393866
O O12 0.000000 0.500000 0.000000
O O13 0.947989 0.274968 0.629896
O O14 0.210102 0.347292 0.309855
O O15 0.000000 0.000000 0.500000
O O16 0.277796 0.047304 0.589146
O O17 0.150912 0.601704 0.505037
#
# Coordination Sequence:
#
# PCOD9103607 Si02
#       8
#     2   2   2   2   2   2   2   2
#     4  10  22  39  64  96 125 171 222 267 333 393
#     4  10  20  38  67  88 130 175 215 271 335 384
#     4  10  23  42  66  96 131 171 216 267 335 404
#     4  10  20  40  60  92 131 173 219 279 331 390
#     4  10  21  41  66  93 134 173 217 282 330 397
#     4  10  21  42  65  92 135 168 214 276 329 396
#     4  10  22  39  64  89 130 174 220 274 333 393
#     4  10  20  40  60  90 129 165 212 276 323 384
#
# _framework density 25.504472
#
# number of rings (size 3 to 8) (size 9 to 14) (size 15 to 20)
#    0.000    2.000    2.500    0.375    0.000    4.500 
#    0.000    9.375    0.000    0.000    0.000    0.000 
#    0.000    0.000    0.000    0.000    0.000    0.000 
#
# Total GULP energy -89377.912629 kJ/mol
# GULP energy per Si atom -5586.119539 kJ/mol
# Density = 2.544642 g / cm^3
# Si number density = 25.504472 Si / 1000 Ang^3
#
#
#
# Elastic Constant Matrix: (Units=GPa)
#
#
# Indices 1 2 3 4 5 6 
#
# 1 97.9247 39.1510 15.1211 -8.7813 16.3957 18.2720
# 2 39.1510 133.9190 29.4800 -12.6014 5.2200 22.6765
# 3 15.1211 29.4800 94.9910 -11.7996 8.5355 6.0986
# 4 -8.7813 -12.6014 -11.7996 36.0323 0.1283 -13.4762
# 5 16.3957 5.2200 8.5355 0.1283 36.6998 0.9126
# 6 18.2720 22.6765 6.0986 -13.4762 0.9126 46.9532
#
#
#
# Elastic Compliance Matrix: (Units=1/GPa)
#
#
# Indices 1 2 3 4 5 6 
#
# 1 0.012980 -0.002873 -0.000393 0.000824 -0.005220 -0.003275
# 2 -0.002873 0.009334 -0.002208 0.000756 0.000539 -0.002897
# 3 -0.000393 -0.002208 0.011844 0.003267 -0.002293 0.000663
# 4 0.000824 0.000756 0.003267 0.032364 -0.001553 0.008209
# 5 -0.005220 0.000539 -0.002293 -0.001553 0.030017 0.001040
# 6 -0.003275 -0.002897 0.000663 0.008209 0.001040 0.026221
#
#
# Mechanical properties :
#
#
# Convention : Reuss Voigt Hill
#
# Bulk Modulus (GPa) = 43.08324 54.92656 49.00490
# Shear Modulus (GPa) = 35.34981 40.14255 37.74618
#
# Velocity S-wave (km/s) = 3.72697 3.97160 3.85123
# Velocity P-wave (km/s) = 5.95395 6.52796 6.24755
#
# Compressibility (1/GPa) = 0.02321088
#
# Stress axis : x y z
#
# Youngs Moduli (GPa) = 77.04080 107.13897 84.42828
#
# Poissons Ratio (x) = 0.30777 0.03319
# Poissons Ratio (y) = 0.22131 0.18641
# Poissons Ratio (z) = 0.03028 0.23655
#
# Static dielectric constant tensor:
#      x y z
#    x 1.996710 0.017680 0.062840 
#    y 0.017680 2.150650 0.010990 
#    z 0.062840 0.010990 2.053860 
# 
# From -- ./inp_files/599007.got.cif
#   From: 2010.05.17/outbox.cif.g08.bks.cpg/sg2_300_cif.got.tgz:599007.got - 2010.06.03 11:33:40.
