data_PCOD9103429
_publ_section_title
;
Structure prediction by ZEFSAII (Michael W. Deem and Ramdas Pophale) SiO2 
 PCOD9103429
Probable space group: P -1
;
_chemical_formula_sum "Si O2"
_cell_formula_units_Z 12
_cell_length_a 6.808377
_cell_length_b 10.267756
_cell_length_c 10.055110
_cell_angle_alpha 83.705404
_cell_angle_beta 134.471441
_cell_angle_gamma 109.619856
_cell_volume 464.160583
_symmetry_space_group_name_H-M "P -1"
_symmetry_group_IT_number 2
_symmetry_cell_setting 'triclinic'
loop_
_space_group_symop_operation_xyz
x,y,z
-x,-y,-z
loop_
_atom_site_type_symbol
_atom_site_label
_atom_site_fract_x
_atom_site_fract_y
_atom_site_fract_z
Si Si1 0.456167 0.536301 0.261103
Si Si2 0.937030 0.766672 0.885199
Si Si3 0.395537 0.862013 0.554157
Si Si4 0.107753 0.564202 0.355114
Si Si5 0.427347 0.045965 0.104300
Si Si6 0.603681 0.319100 0.040270
O O1 0.222917 0.387497 0.111131
O O2 0.295399 0.574922 0.307384
O O3 0.734863 0.505523 0.455804
O O4 0.501192 0.650990 0.156169
O O5 0.679683 0.815494 0.705059
O O6 0.119556 0.730120 0.855740
O O7 0.170772 0.904327 0.049846
O O8 0.148111 0.721508 0.398405
O O9 0.336920 0.904383 0.670756
O O10 0.500000 0.000000 0.500000
O O11 0.770616 0.462007 0.183230
O O12 0.374730 0.190131 0.027169
O O13 0.500000 0.000000 0.000000
#
# Coordination Sequence:
#
# PCOD9103429 Si02
#       6
#     2   2   2   2   2   2
#     4   9  18  35  67  90 115 165 201 248 305 359
#     4   9  19  40  62  87 120 157 210 240 288 382
#     4  11  24  38  62  91 120 166 203 253 299 354
#     4   9  19  36  59  93 123 149 217 248 285 379
#     4  10  23  41  59  89 126 157 203 249 311 367
#     4  10  20  38  66  91 122 163 189 261 317 349
#
# _framework density 25.853124000000001
#
# number of rings (size 3 to 8) (size 9 to 14) (size 15 to 20)
#    0.000    2.333    0.000    3.500    7.000    0.667 
#    3.000    5.000    0.000    0.000    0.000    0.000 
#    0.000    0.000    0.000    0.000    0.000    0.000 
#
# Total GULP energy -67115.594427 kJ/mol
# GULP energy per Si atom -5592.966202 kJ/mol
# Density = 2.579428 g / cm^3
# Si number density = 25.853124 Si / 1000 Ang^3
#
#
#
# Elastic Constant Matrix: (Units=GPa)
#
#
# Indices 1 2 3 4 5 6 
#
# 1 101.5089 20.2863 30.8964 1.9746 -9.0205 -0.2690
# 2 20.2863 173.2334 82.3896 14.7888 -25.8492 29.5690
# 3 30.8964 82.3896 133.1753 -0.3238 -27.1171 8.3278
# 4 1.9746 14.7888 -0.3238 68.4926 0.4932 -8.0808
# 5 -9.0205 -25.8492 -27.1171 0.4932 40.0792 3.4189
# 6 -0.2690 29.5690 8.3278 -8.0808 3.4189 39.6692
#
#
#
# Elastic Compliance Matrix: (Units=1/GPa)
#
#
# Indices 1 2 3 4 5 6 
#
# 1 0.010640 -0.000126 -0.002276 -0.000233 0.000731 0.000533
# 2 -0.000126 0.010389 -0.005135 -0.003195 0.003890 -0.007653
# 3 -0.002276 -0.005135 0.011990 0.001344 0.004169 0.001210
# 4 -0.000233 -0.003195 0.001344 0.015967 -0.001870 0.005511
# 5 0.000731 0.003890 0.004169 -0.001870 0.031050 -0.006826
# 6 0.000533 -0.007653 0.001210 0.005511 -0.006826 0.032373
#
#
# Mechanical properties :
#
#
# Convention : Reuss Voigt Hill
#
# Bulk Modulus (GPa) = 55.72268 75.00690 65.36479
# Shear Modulus (GPa) = 37.46329 47.93788 42.70059
#
# Velocity S-wave (km/s) = 3.81081 4.31076 4.06847
# Velocity P-wave (km/s) = 6.40026 7.33843 6.88534
#
# Compressibility (1/GPa) = 0.01794601
#
# Stress axis : x y z
#
# Youngs Moduli (GPa) = 93.98440 96.25638 83.40136
#
# Poissons Ratio (x) = 0.01210 0.18980
# Poissons Ratio (y) = 0.01181 0.42828
# Poissons Ratio (z) = 0.21388 0.49430
#
# Static dielectric constant tensor:
#      x y z
#    x 2.183990 0.003880 -0.021080 
#    y 0.003880 2.078860 0.048930 
#    z -0.021080 0.048930 2.026010 
# 
# From -- ./inp_files/187110.got.cif
#   From: 2010.05.17/outbox.cif.g08.bks.cpg/sg2_94_cif.got.tgz:187110.got - 2010.06.03 11:33:40.
