data_PCOD9103157
_publ_section_title
;
Structure prediction by ZEFSAII (Michael W. Deem and Ramdas Pophale) SiO2 
 PCOD9103157
Probable space group: P -1
;
_chemical_formula_sum "Si O2"
_cell_formula_units_Z 16
_cell_length_a 14.205373
_cell_length_b 14.276698
_cell_length_c 9.975277
_cell_angle_alpha 82.772570
_cell_angle_beta 69.989195
_cell_angle_gamma 143.237975
_cell_volume 799.775021
_symmetry_space_group_name_H-M "P -1"
_symmetry_group_IT_number 2
_symmetry_cell_setting 'triclinic'
loop_
_space_group_symop_operation_xyz
x,y,z
-x,-y,-z
loop_
_atom_site_type_symbol
_atom_site_label
_atom_site_fract_x
_atom_site_fract_y
_atom_site_fract_z
Si Si1 0.368170 0.500200 0.219726
Si Si2 0.181695 0.485165 0.113508
Si Si3 0.639549 0.048724 0.518982
Si Si4 0.573019 0.978392 0.871057
Si Si5 0.915911 0.667068 0.367482
Si Si6 0.873639 0.957381 0.776518
Si Si7 0.277602 0.208225 0.406172
Si Si8 0.352699 0.614900 0.711300
O O1 0.243390 0.437299 0.160295
O O2 0.316027 0.346889 0.306779
O O3 0.267382 0.477890 0.394153
O O4 0.646177 0.742821 0.013453
O O5 0.920454 0.292972 0.317878
O O6 0.385322 0.732106 0.017712
O O7 0.200264 0.497497 0.941537
O O8 0.500000 0.000000 0.500000
O O9 0.574032 0.012946 0.710940
O O10 0.544359 0.862188 0.569539
O O11 0.838727 0.171282 0.738431
O O12 0.500000 0.000000 0.000000
O O13 0.799990 0.518320 0.323966
O O14 0.987355 0.835766 0.268877
O O15 0.783629 0.904619 0.677056
O O16 0.057186 0.029854 0.646172
O O17 0.500796 0.356123 0.344285
#
# Coordination Sequence:
#
# PCOD9103157 Si02
#       8
#     2   2   2   2   2   2   2   2
#     4  11  21  39  69  94 125 172 222 258 310 387
#     4  11  24  44  70  93 130 172 214 264 320 382
#     4  11  27  46  67  97 129 168 218 265 320 390
#     4  11  25  43  71  95 129 168 216 269 325 378
#     4  11  24  42  62  96 134 168 211 269 324 379
#     4  10  20  38  65  90 131 166 221 258 312 378
#     4  10  22  37  67  95 127 173 221 261 312 384
#     4  11  26  43  64  96 138 169 209 271 325 373
#
# _framework density 20.005628999999999
#
# number of rings (size 3 to 8) (size 9 to 14) (size 15 to 20)
#    0.000    1.250    3.750    1.125    7.000    5.500 
#    0.000    1.250    0.000    0.000    0.000    0.000 
#    0.000    0.000    0.000    0.000    0.000    0.000 
#
# Total GULP energy -89407.933894 kJ/mol
# GULP energy per Si atom -5587.995868 kJ/mol
# Density = 1.996009 g / cm^3
# Si number density = 20.005629 Si / 1000 Ang^3
#
#
#
# Elastic Constant Matrix: (Units=GPa)
#
#
# Indices 1 2 3 4 5 6 
#
# 1 90.1652 26.3491 45.3577 0.3796 -2.1417 7.0088
# 2 26.3491 109.1253 58.8000 14.8380 -4.3150 7.4878
# 3 45.3577 58.8000 157.5230 -13.1739 -14.1635 -4.4864
# 4 0.3796 14.8380 -13.1739 24.0474 2.3504 -6.6695
# 5 -2.1417 -4.3150 -14.1635 2.3504 25.1516 6.9283
# 6 7.0088 7.4878 -4.4864 -6.6695 6.9283 21.8713
#
#
#
# Elastic Compliance Matrix: (Units=1/GPa)
#
#
# Indices 1 2 3 4 5 6 
#
# 1 0.013994 0.000501 -0.004777 -0.005389 0.001201 -0.007660
# 2 0.000501 0.017571 -0.008432 -0.020198 0.004460 -0.015478
# 3 -0.004777 -0.008432 0.012529 0.015254 0.000625 0.011442
# 4 -0.005389 -0.020198 0.015254 0.074447 -0.012914 0.038564
# 5 0.001201 0.004460 0.000625 -0.012914 0.047945 -0.020909
# 6 -0.007660 -0.015478 0.011442 0.038564 -0.020909 0.074206
#
#
# Mechanical properties :
#
#
# Convention : Reuss Voigt Hill
#
# Bulk Modulus (GPa) = 53.54058 68.64744 61.09401
# Shear Modulus (GPa) = 18.35977 29.30118 23.83048
#
# Velocity S-wave (km/s) = 3.03269 3.83122 3.45510
# Velocity P-wave (km/s) = 6.25171 7.34572 6.82068
#
# Compressibility (1/GPa) = 0.01867742
#
# Stress axis : x y z
#
# Youngs Moduli (GPa) = 71.45784 56.91220 79.81329
#
# Poissons Ratio (x) = -0.02852 0.38131
# Poissons Ratio (y) = -0.03581 0.67299
# Poissons Ratio (z) = 0.34139 0.47989
#
# Static dielectric constant tensor:
#      x y z
#    x 1.709390 -0.013760 -0.000690 
#    y -0.013760 1.704320 -0.011960 
#    z -0.000690 -0.011960 1.714500 
# 
# From -- ./inp_files/38879.got.cif
#   From: 2010.05.17/outbox.cif.g08.bks.cpg/sg2_20_cif.got.tgz:38879.got - 2010.06.03 11:33:40.
