data_PCOD9103811
_publ_section_title
;
Structure prediction by ZEFSAII (Michael W. Deem and Ramdas Pophale) SiO2 
 PCOD9103811
Probable space group: P -1
;
_chemical_formula_sum "Si O2"
_cell_formula_units_Z 16
_cell_length_a 9.428482
_cell_length_b 15.767627
_cell_length_c 15.287561
_cell_angle_alpha 139.839764
_cell_angle_beta 143.971165
_cell_angle_gamma 33.602576
_cell_volume 710.549188
_symmetry_space_group_name_H-M "P -1"
_symmetry_group_IT_number 2
_symmetry_cell_setting 'triclinic'
loop_
_space_group_symop_operation_xyz
x,y,z
-x,-y,-z
loop_
_atom_site_type_symbol
_atom_site_label
_atom_site_fract_x
_atom_site_fract_y
_atom_site_fract_z
Si Si1 0.418869 0.758734 0.865589
Si Si2 0.690245 0.220645 0.369497
Si Si3 0.648358 0.026177 0.478961
Si Si4 0.263023 0.090453 0.876883
Si Si5 0.831982 0.039870 0.856530
Si Si6 0.744715 0.433964 0.256575
Si Si7 0.617989 0.684803 0.541142
Si Si8 0.355523 0.746063 0.211320
O O1 0.453409 0.707699 0.740683
O O2 0.396424 0.655151 0.846734
O O3 0.094434 0.921073 0.828380
O O4 0.645020 0.803284 0.039793
O O5 0.496253 0.337514 0.442637
O O6 0.695664 0.061505 0.268681
O O7 0.038212 0.139936 0.482141
O O8 0.414927 0.993724 0.301958
O O9 0.634583 0.149018 0.498211
O O10 0.558582 0.138546 0.609964
O O11 0.944234 0.198833 0.845266
O O12 0.500000 0.000000 0.000000
O O13 0.700261 0.212763 0.886054
O O14 0.000000 0.000000 0.000000
O O15 0.704811 0.542343 0.405975
O O16 0.584012 0.562810 0.201857
O O17 0.085420 0.319892 0.310660
#
# Coordination Sequence:
#
# PCOD9103811 Si02
#       8
#     2   2   2   2   2   2   2   2
#     4  11  22  40  63  96 131 174 205 264 327 385
#     4  10  21  37  69  97 124 163 225 270 319 363
#     4  10  20  38  68  96 124 158 223 276 312 368
#     4   9  18  36  65  90 124 160 208 266 317 362
#     4  12  24  38  66 100 128 164 218 271 319 377
#     4  10  23  40  61  90 135 174 210 251 331 389
#     4  10  21  38  61  95 133 168 207 270 321 382
#     4  10  21  42  66  93 124 173 215 262 320 380
#
# _framework density 22.517792
#
# number of rings (size 3 to 8) (size 9 to 14) (size 15 to 20)
#    0.000    1.750    5.000    0.750    1.750    1.000 
#    0.000    0.625    0.000    0.000    0.000    0.000 
#    0.000    0.000    0.000    0.000    0.000    0.000 
#
# Total GULP energy -89273.160844 kJ/mol
# GULP energy per Si atom -5579.572553 kJ/mol
# Density = 2.246654 g / cm^3
# Si number density = 22.517792 Si / 1000 Ang^3
#
#
#
# Elastic Constant Matrix: (Units=GPa)
#
#
# Indices 1 2 3 4 5 6 
#
# 1 80.3898 24.1054 33.9968 -5.4909 -5.4170 19.9057
# 2 24.1054 80.7389 19.5977 -12.8575 0.6934 22.5339
# 3 33.9968 19.5977 97.8493 -16.7389 21.7405 15.3466
# 4 -5.4909 -12.8575 -16.7389 19.6665 12.8762 0.7230
# 5 -5.4170 0.6934 21.7405 12.8762 46.4724 -0.4098
# 6 19.9057 22.5339 15.3466 0.7230 -0.4098 37.4308
#
#
#
# Elastic Compliance Matrix: (Units=1/GPa)
#
#
# Indices 1 2 3 4 5 6 
#
# 1 0.018206 -0.004348 -0.009175 -0.011831 0.009731 -0.002967
# 2 -0.004348 0.019617 0.005891 0.023802 -0.010261 -0.012485
# 3 -0.009175 0.005891 0.026188 0.040072 -0.024603 -0.010448
# 4 -0.011831 0.023802 0.040072 0.136579 -0.058567 -0.027746
# 5 0.009731 -0.010261 -0.024603 -0.058567 0.050656 0.012775
# 6 -0.002967 -0.012485 -0.010448 -0.027746 0.012775 0.040770
#
#
# Mechanical properties :
#
#
# Convention : Reuss Voigt Hill
#
# Bulk Modulus (GPa) = 20.51409 46.04198 33.27803
# Shear Modulus (GPa) = 15.45467 32.79914 24.12691
#
# Velocity S-wave (km/s) = 2.62264 3.82067 3.27687
# Velocity P-wave (km/s) = 4.27796 6.32097 5.39702
#
# Compressibility (1/GPa) = 0.04874697
#
# Stress axis : x y z
#
# Youngs Moduli (GPa) = 54.92777 50.97670 38.18566
#
# Poissons Ratio (x) = 0.22164 0.35036
# Poissons Ratio (y) = 0.23882 -0.22497
# Poissons Ratio (z) = 0.50398 -0.30032
#
# Static dielectric constant tensor:
#      x y z
#    x 1.883560 0.018450 -0.009660 
#    y 0.018450 1.843310 0.050940 
#    z -0.009660 0.050940 1.926430 
# 
# From -- ./inp_files/504302.got.cif
#   From: 2010.05.17/outbox.cif.g08.bks.cpg/sg2_253_cif.got.tgz:504302.got - 2010.06.03 11:33:40.
