data_PCOD9103734
_publ_section_title
;
Structure prediction by ZEFSAII (Michael W. Deem and Ramdas Pophale) SiO2 
 PCOD9103734
Probable space group: P -1
;
_chemical_formula_sum "Si O2"
_cell_formula_units_Z 16
_cell_length_a 8.912439
_cell_length_b 6.447932
_cell_length_c 22.700425
_cell_angle_alpha 68.902138
_cell_angle_beta 46.557336
_cell_angle_gamma 49.415127
_cell_volume 710.225677
_symmetry_space_group_name_H-M "P -1"
_symmetry_group_IT_number 2
_symmetry_cell_setting 'triclinic'
loop_
_space_group_symop_operation_xyz
x,y,z
-x,-y,-z
loop_
_atom_site_type_symbol
_atom_site_label
_atom_site_fract_x
_atom_site_fract_y
_atom_site_fract_z
Si Si1 0.646358 0.229495 0.527629
Si Si2 0.962019 0.329529 0.575950
Si Si3 0.791286 0.841247 0.349356
Si Si4 0.318118 0.656636 0.974591
Si Si5 0.549735 0.463522 0.333619
Si Si6 0.130774 0.868364 0.887409
Si Si7 0.933785 0.616120 0.210197
Si Si8 0.209830 0.255518 0.070984
O O1 0.500000 0.500000 0.500000
O O2 0.478456 0.113067 0.590614
O O3 0.634985 0.359339 0.579561
O O4 0.904119 0.981368 0.452854
O O5 0.664936 0.482709 0.658996
O O6 0.000000 0.500000 0.500000
O O7 0.107996 0.292762 0.600581
O O8 0.962948 0.650672 0.267708
O O9 0.738152 0.138662 0.330350
O O10 0.363990 0.682998 0.890107
O O11 0.500000 0.500000 0.000000
O O12 0.176239 0.510600 0.021511
O O13 0.125099 0.962376 0.020097
O O14 0.705466 0.585714 0.267044
O O15 0.028665 0.752957 0.879823
O O16 0.137004 0.104124 0.829986
O O17 0.175122 0.345558 0.140048
O O18 0.500000 0.000000 0.000000
#
# Coordination Sequence:
#
# PCOD9103734 Si02
#       8
#     2   2   2   2   2   2   2   2
#     4  11  21  40  70 101 133 179 232 291 345 405
#     4  12  23  41  75 104 133 184 243 292 344 412
#     4  11  23  44  66  95 145 182 224 296 358 410
#     4  10  20  38  68 102 126 160 213 286 340 404
#     4  11  23  43  67  95 142 181 229 286 350 421
#     4  10  21  41  67  94 133 166 221 276 344 412
#     4  10  25  44  66  93 144 188 221 286 359 420
#     4  11  21  41  75  99 129 177 238 288 345 419
#
# _framework density 22.52805
#
# number of rings (size 3 to 8) (size 9 to 14) (size 15 to 20)
#    0.000    1.250    3.750    2.625    0.000    0.000 
#    0.000    8.750    0.000    0.000    0.000    0.000 
#    0.000    0.000    0.000    0.000    0.000    0.000 
#
# Total GULP energy -89100.751594 kJ/mol
# GULP energy per Si atom -5568.796975 kJ/mol
# Density = 2.247677 g / cm^3
# Si number density = 22.528050 Si / 1000 Ang^3
#
#
#
# Elastic Constant Matrix: (Units=GPa)
#
#
# Indices 1 2 3 4 5 6 
#
# 1 95.8249 47.2952 33.6204 2.3956 10.5400 3.1283
# 2 47.2952 111.4061 41.8850 -9.1220 8.1055 6.7855
# 3 33.6204 41.8850 84.4707 7.5442 15.2826 1.7069
# 4 2.3956 -9.1220 7.5442 38.2965 17.7671 -8.7283
# 5 10.5400 8.1055 15.2826 17.7671 45.4667 -3.8007
# 6 3.1283 6.7855 1.7069 -8.7283 -3.8007 34.6751
#
#
#
# Elastic Compliance Matrix: (Units=1/GPa)
#
#
# Indices 1 2 3 4 5 6 
#
# 1 0.013993 -0.004843 -0.002871 -0.001116 -0.001027 -0.000567
# 2 -0.004843 0.013453 -0.004872 0.005050 -0.001684 -0.000869
# 3 -0.002871 -0.004872 0.016183 -0.003029 -0.002776 -0.000651
# 4 -0.001116 0.005050 -0.003029 0.035532 -0.012941 0.006787
# 5 -0.001027 -0.001684 -0.002776 -0.012941 0.028559 0.000432
# 6 -0.000567 -0.000869 -0.000651 0.006787 0.000432 0.030848
#
#
# Mechanical properties :
#
#
# Convention : Reuss Voigt Hill
#
# Bulk Modulus (GPa) = 54.18114 59.70032 56.94073
# Shear Modulus (GPa) = 29.43065 34.94776 32.18920
#
# Velocity S-wave (km/s) = 3.61834 3.94293 3.78411
# Velocity P-wave (km/s) = 6.44664 6.87654 6.66506
#
# Compressibility (1/GPa) = 0.01845661
#
# Stress axis : x y z
#
# Youngs Moduli (GPa) = 71.46614 74.33373 61.79430
#
# Poissons Ratio (x) = 0.36001 0.17741
# Poissons Ratio (y) = 0.34612 0.30105
# Poissons Ratio (z) = 0.20517 0.36214
#
# Static dielectric constant tensor:
#      x y z
#    x 2.069290 0.018610 0.015840 
#    y 0.018610 1.842580 0.038680 
#    z 0.015840 0.038680 1.910850 
# 
# From -- ./inp_files/605847.got.cif
#   From: 2010.05.17/outbox.cif.g08.bks.cpg/sg2_303_cif.got.tgz:605847.got - 2010.06.03 11:33:40.
