data_PCOD9103881
_publ_section_title
;
Structure prediction by ZEFSAII (Michael W. Deem and Ramdas Pophale) SiO2 
 PCOD9103881
Probable space group: P -1
;
_chemical_formula_sum "Si O2"
_cell_formula_units_Z 16
_cell_length_a 6.365925
_cell_length_b 8.457673
_cell_length_c 16.785072
_cell_angle_alpha 87.005294
_cell_angle_beta 88.615525
_cell_angle_gamma 53.569511
_cell_volume 726.096562
_symmetry_space_group_name_H-M "P -1"
_symmetry_group_IT_number 2
_symmetry_cell_setting 'triclinic'
loop_
_space_group_symop_operation_xyz
x,y,z
-x,-y,-z
loop_
_atom_site_type_symbol
_atom_site_label
_atom_site_fract_x
_atom_site_fract_y
_atom_site_fract_z
Si Si1 0.451950 0.167156 0.686437
Si Si2 0.718090 0.257214 0.931246
Si Si3 0.369116 0.709485 0.456104
Si Si4 0.228312 0.983956 0.589245
Si Si5 0.184521 0.661570 0.899296
Si Si6 0.132649 0.184614 0.815477
Si Si7 0.364208 0.063122 0.084557
Si Si8 0.033850 0.909988 0.738281
O O1 0.494469 0.299595 0.627041
O O2 0.233077 0.280052 0.754815
O O3 0.370238 0.058995 0.633316
O O4 0.734677 0.995682 0.724630
O O5 0.422958 0.435203 0.909178
O O6 0.747237 0.066468 0.903346
O O7 0.919456 0.286139 0.884757
O O8 0.763893 0.248928 0.025945
O O9 0.500000 0.500000 0.500000
O O10 0.378674 0.850227 0.515136
O O11 0.060114 0.828054 0.438699
O O12 0.180465 0.858143 0.653989
O O13 0.173900 0.748678 0.810708
O O14 0.895759 0.717185 0.912747
O O15 0.404065 0.003384 0.856043
O O16 0.024520 0.096297 0.762110
O O17 0.500000 0.000000 0.000000
#
# Coordination Sequence:
#
# PCOD9103881 Si02
#       8
#     2   2   2   2   2   2   2   2
#     4  10  20  38  69  92 125 171 213 253 312 386
#     4  11  24  40  60  91 127 164 215 272 314 370
#     4  10  21  41  68  94 129 162 201 257 317 375
#     4   9  21  40  64  94 128 163 206 256 311 376
#     4  11  22  41  61  89 127 163 214 264 318 366
#     4  11  20  39  64  88 123 168 211 260 318 370
#     4  12  22  39  65  86 119 170 211 262 320 376
#     4  10  20  40  64  88 128 169 206 260 318 368
#
# _framework density 22.035637000000001
#
# number of rings (size 3 to 8) (size 9 to 14) (size 15 to 20)
#    0.000    1.500    3.750    1.500    0.000    1.000 
#   11.250    0.000    5.500    0.000    0.000    0.000 
#    0.000    0.000    0.000    0.000    0.000    0.000 
#
# Total GULP energy -89334.760783 kJ/mol
# GULP energy per Si atom -5583.422549 kJ/mol
# Density = 2.198548 g / cm^3
# Si number density = 22.035637 Si / 1000 Ang^3
#
#
#
# Elastic Constant Matrix: (Units=GPa)
#
#
# Indices 1 2 3 4 5 6 
#
# 1 87.5081 39.2673 39.3937 -8.8622 0.8409 -18.9750
# 2 39.2673 73.0167 32.2678 -22.8776 1.3092 -23.9315
# 3 39.3937 32.2678 125.9515 -19.4458 -9.6784 -14.8486
# 4 -8.8622 -22.8776 -19.4458 23.4124 -5.4713 4.2399
# 5 0.8409 1.3092 -9.6784 -5.4713 58.4770 7.7121
# 6 -18.9750 -23.9315 -14.8486 4.2399 7.7121 29.0424
#
#
#
# Elastic Compliance Matrix: (Units=1/GPa)
#
#
# Indices 1 2 3 4 5 6 
#
# 1 0.016985 -0.007861 -0.003825 -0.005548 -0.001739 0.003936
# 2 -0.007861 0.031100 0.000241 0.024376 -0.000531 0.017196
# 3 -0.003825 0.000241 0.010641 0.007937 0.002375 0.001351
# 4 -0.005548 0.024376 0.007937 0.070979 0.006372 0.008464
# 5 -0.001739 -0.000531 0.002375 0.006372 0.018961 -0.006325
# 6 0.003936 0.017196 0.001351 0.008464 -0.006325 0.052308
#
#
# Mechanical properties :
#
#
# Convention : Reuss Voigt Hill
#
# Bulk Modulus (GPa) = 27.90471 56.48155 42.19313
# Shear Modulus (GPa) = 21.20349 33.88951 27.54650
#
# Velocity S-wave (km/s) = 3.10536 3.92591 3.53950
# Velocity P-wave (km/s) = 5.05456 6.79985 5.99110
#
# Compressibility (1/GPa) = 0.03583625
#
# Stress axis : x y z
#
# Youngs Moduli (GPa) = 58.87486 32.15461 93.97476
#
# Poissons Ratio (x) = 0.25278 0.35943
# Poissons Ratio (y) = 0.46284 -0.02267
# Poissons Ratio (z) = 0.22518 -0.00776
#
# Static dielectric constant tensor:
#      x y z
#    x 1.851350 -0.006680 -0.060850 
#    y -0.006680 1.787590 0.012970 
#    z -0.060850 0.012970 1.881040 
# 
# From -- ./inp_files/53614.got.cif
#   From: 2010.05.17/outbox.cif.g08.bks.cpg/sg2_27_cif.got.tgz:53614.got - 2010.06.03 11:33:40.
