data_PCOD9103217
_publ_section_title
;
Structure prediction by ZEFSAII (Michael W. Deem and Ramdas Pophale) SiO2 
 PCOD9103217
Probable space group: P -1
;
_chemical_formula_sum "Si O2"
_cell_formula_units_Z 16
_cell_length_a 14.109744
_cell_length_b 26.113905
_cell_length_c 16.955823
_cell_angle_alpha 159.156988
_cell_angle_beta 148.681139
_cell_angle_gamma 19.135632
_cell_volume 706.392185
_symmetry_space_group_name_H-M "P -1"
_symmetry_group_IT_number 2
_symmetry_cell_setting 'triclinic'
loop_
_space_group_symop_operation_xyz
x,y,z
-x,-y,-z
loop_
_atom_site_type_symbol
_atom_site_label
_atom_site_fract_x
_atom_site_fract_y
_atom_site_fract_z
Si Si1 0.749890 0.349956 0.582340
Si Si2 0.172064 0.164761 0.747724
Si Si3 0.893946 0.407725 0.313792
Si Si4 0.913169 0.714194 0.960461
Si Si5 0.804257 0.919192 0.809393
Si Si6 0.515698 0.653791 0.263336
Si Si7 0.101121 0.809297 0.712598
Si Si8 0.295175 0.949645 0.831603
O O1 0.407203 0.595926 0.672114
O O2 0.899547 0.262038 0.475819
O O3 0.755741 0.183712 0.379356
O O4 0.925454 0.335400 0.749735
O O5 0.044710 0.284394 0.915265
O O6 0.473228 0.071619 0.814948
O O7 0.282963 0.928321 0.484109
O O8 0.576711 0.597107 0.318696
O O9 0.000000 0.500000 0.500000
O O10 0.954652 0.333037 0.339157
O O11 0.101151 0.167115 0.066823
O O12 0.809608 0.927622 0.151442
O O13 0.633977 0.783800 0.848704
O O14 0.196744 0.478359 0.774817
O O15 0.846543 0.906569 0.727864
O O16 0.892711 0.022861 0.052443
O O17 0.500000 0.500000 0.000000
#
# Coordination Sequence:
#
# PCOD9103217 Si02
#       8
#     2   2   2   2   2   2   2   2
#     4  11  24  44  67  93 128 178 223 283 334 378
#     4  12  24  43  67 101 138 172 219 285 331 396
#     4  11  19  38  66  95 131 173 209 268 330 410
#     4  10  22  39  63  99 136 180 211 262 343 403
#     4  11  23  44  69  98 131 171 232 273 325 400
#     4  11  25  38  61 103 141 173 212 265 338 401
#     4  10  25  45  68  93 125 183 231 274 326 396
#     4  10  20  38  65  92 135 173 221 264 320 413
#
# _framework density 22.650309
#
# number of rings (size 3 to 8) (size 9 to 14) (size 15 to 20)
#    0.000    1.250    3.750    1.500    1.750    6.000 
#    2.250    0.000    0.000    0.000    0.000    0.000 
#    0.000    0.000    0.000    0.000    0.000    0.000 
#
# Total GULP energy -89402.607383 kJ/mol
# GULP energy per Si atom -5587.662961 kJ/mol
# Density = 2.259876 g / cm^3
# Si number density = 22.650309 Si / 1000 Ang^3
#
#
#
# Elastic Constant Matrix: (Units=GPa)
#
#
# Indices 1 2 3 4 5 6 
#
# 1 112.5791 36.4065 25.1995 -11.5457 -4.8791 19.7246
# 2 36.4065 70.6979 5.6884 -7.8495 -6.3092 30.5652
# 3 25.1995 5.6884 61.0759 5.1742 5.5812 11.7466
# 4 -11.5457 -7.8495 5.1742 23.1801 -0.2855 -7.6696
# 5 -4.8791 -6.3092 5.5812 -0.2855 37.5274 -1.1239
# 6 19.7246 30.5652 11.7466 -7.6696 -1.1239 32.1116
#
#
#
# Elastic Compliance Matrix: (Units=1/GPa)
#
#
# Indices 1 2 3 4 5 6 
#
# 1 0.012402 -0.005705 -0.005474 0.005910 0.001551 0.001281
# 2 -0.005705 0.027326 0.004586 -0.002775 0.002407 -0.024762
# 3 -0.005474 0.004586 0.021540 -0.009778 -0.003558 -0.011342
# 4 0.005910 -0.002775 -0.009778 0.052386 0.002610 0.015192
# 5 0.001551 0.002407 -0.003558 0.002610 0.027792 -0.000346
# 6 0.001281 -0.024762 -0.011342 0.015192 -0.000346 0.061689
#
#
# Mechanical properties :
#
#
# Convention : Reuss Voigt Hill
#
# Bulk Modulus (GPa) = 20.79833 42.10460 31.45147
# Shear Modulus (GPa) = 21.51949 30.36771 25.94360
#
# Velocity S-wave (km/s) = 3.08567 3.66556 3.38804
# Velocity P-wave (km/s) = 4.67947 6.04520 5.40564
#
# Compressibility (1/GPa) = 0.04808079
#
# Stress axis : x y z
#
# Youngs Moduli (GPa) = 80.63288 36.59562 46.42625
#
# Poissons Ratio (x) = 0.20879 0.25415
# Poissons Ratio (y) = 0.46003 -0.21293
# Poissons Ratio (z) = 0.44141 -0.16784
#
# Static dielectric constant tensor:
#      x y z
#    x 1.872910 -0.003490 0.019850 
#    y -0.003490 1.887910 -0.006180 
#    z 0.019850 -0.006180 1.790880 
# 
# From -- ./inp_files/539412.got.cif
#   From: 2010.05.17/outbox.cif.g08.bks.cpg/sg2_270_cif.got.tgz:539412.got - 2010.06.03 11:33:40.
