data_PCOD9103101
_publ_section_title
;
Structure prediction by ZEFSAII (Michael W. Deem and Ramdas Pophale) SiO2 
 PCOD9103101
Probable space group: P -1
;
_chemical_formula_sum "Si O2"
_cell_formula_units_Z 16
_cell_length_a 9.535388
_cell_length_b 6.205926
_cell_length_c 14.904539
_cell_angle_alpha 113.691134
_cell_angle_beta 74.544263
_cell_angle_gamma 94.692531
_cell_volume 778.132971
_symmetry_space_group_name_H-M "P -1"
_symmetry_group_IT_number 2
_symmetry_cell_setting 'triclinic'
loop_
_space_group_symop_operation_xyz
x,y,z
-x,-y,-z
loop_
_atom_site_type_symbol
_atom_site_label
_atom_site_fract_x
_atom_site_fract_y
_atom_site_fract_z
Si Si1 0.368942 0.803665 0.906166
Si Si2 0.207367 0.107388 0.573059
Si Si3 0.856010 0.665598 0.564090
Si Si4 0.617190 0.663001 0.959446
Si Si5 0.766684 0.361307 0.280725
Si Si6 0.874087 0.373013 0.941669
Si Si7 0.374894 0.685720 0.522951
Si Si8 0.984708 0.932793 0.732432
O O1 0.532570 0.714373 0.889179
O O2 0.309372 0.698993 0.807868
O O3 0.247976 0.731215 0.988343
O O4 0.374141 0.085409 0.951370
O O5 0.155316 0.158787 0.489436
O O6 0.238219 0.361856 0.652241
O O7 0.349088 0.933623 0.517878
O O8 0.085305 0.000641 0.640834
O O9 0.728539 0.484520 0.543484
O O10 0.857369 0.799193 0.680681
O O11 0.000000 0.500000 0.500000
O O12 0.777305 0.544776 0.921729
O O13 0.500000 0.500000 0.000000
O O14 0.682919 0.242641 0.356610
O O15 0.928362 0.249779 0.247794
O O16 0.942132 0.162265 0.834968
O O17 0.000000 0.500000 0.000000
O O18 0.500000 0.500000 0.500000
#
# Coordination Sequence:
#
# PCOD9103101 Si02
#       8
#     2   2   2   2   2   2   2   2
#     4  10  21  42  63  85 123 167 202 261 310 369
#     4  10  20  38  65  82 125 161 200 246 315 364
#     4  11  20  40  61  88 120 159 204 254 302 371
#     4   9  21  42  61  83 122 161 209 253 313 368
#     4  10  21  37  62  88 116 163 205 239 315 372
#     4  11  23  39  61  94 128 158 209 264 308 372
#     4  10  23  41  56  89 122 156 203 259 302 366
#     4  11  22  36  59  95 119 159 203 253 306 370
#
# _framework density 20.562038999999999
#
# number of rings (size 3 to 8) (size 9 to 14) (size 15 to 20)
#    0.000    1.750    3.750    1.875    0.000    8.000 
#   11.250    0.000    0.000    0.000    0.000    0.000 
#    0.000    0.000    0.000    0.000    0.000    0.000 
#
# Total GULP energy -89132.928326 kJ/mol
# GULP energy per Si atom -5570.808020 kJ/mol
# Density = 2.051524 g / cm^3
# Si number density = 20.562039 Si / 1000 Ang^3
#
#
#
# Elastic Constant Matrix: (Units=GPa)
#
#
# Indices 1 2 3 4 5 6 
#
# 1 147.8856 62.1535 58.0668 33.5656 23.4358 -35.1813
# 2 62.1535 111.4555 26.4522 29.7439 9.6672 -41.4179
# 3 58.0668 26.4522 104.3353 27.6514 34.5779 -19.6838
# 4 33.5656 29.7439 27.6514 24.0872 10.2232 -7.1071
# 5 23.4358 9.6672 34.5779 10.2232 33.0466 0.6209
# 6 -35.1813 -41.4179 -19.6838 -7.1071 0.6209 45.1117
#
#
#
# Elastic Compliance Matrix: (Units=1/GPa)
#
#
# Indices 1 2 3 4 5 6 
#
# 1 0.012290 -0.000737 -0.001052 -0.011318 -0.004025 0.006722
# 2 -0.000737 0.022462 0.007428 -0.027151 -0.005780 0.019091
# 3 -0.001052 0.007428 0.022699 -0.022147 -0.018565 0.012671
# 4 -0.011318 -0.027151 -0.022147 0.105291 0.007076 -0.026928
# 5 -0.004025 -0.005780 -0.018565 0.007076 0.052345 -0.016152
# 6 0.006722 0.019091 0.012671 -0.026928 -0.016152 0.046446
#
#
# Mechanical properties :
#
#
# Convention : Reuss Voigt Hill
#
# Bulk Modulus (GPa) = 14.54944 73.00237 43.77591
# Shear Modulus (GPa) = 18.30406 34.91603 26.61005
#
# Velocity S-wave (km/s) = 2.98684 4.12525 3.60131
# Velocity P-wave (km/s) = 4.35731 7.63353 6.21518
#
# Compressibility (1/GPa) = 0.06873116
#
# Stress axis : x y z
#
# Youngs Moduli (GPa) = 81.36466 44.52034 44.05475
#
# Poissons Ratio (x) = 0.03280 0.04633
# Poissons Ratio (y) = 0.05994 -0.32726
# Poissons Ratio (z) = 0.08557 -0.33071
#
# Static dielectric constant tensor:
#      x y z
#    x 1.831740 -0.014800 -0.050380 
#    y -0.014800 1.783490 -0.027170 
#    z -0.050380 -0.027170 1.703480 
# 
# From -- ./inp_files/90567.got.cif
#   From: 2010.05.17/outbox.cif.g08.bks.cpg/sg2_46_cif.got.tgz:90567.got - 2010.06.03 11:33:40.
