data_PCOD9103258
_publ_section_title
;
Structure prediction by ZEFSAII (Michael W. Deem and Ramdas Pophale) SiO2 
 PCOD9103258
Probable space group: P -1
;
_chemical_formula_sum "Si O2"
_cell_formula_units_Z 14
_cell_length_a 8.603921
_cell_length_b 5.205653
_cell_length_c 20.701845
_cell_angle_alpha 98.858677
_cell_angle_beta 143.748258
_cell_angle_gamma 82.946978
_cell_volume 541.752151
_symmetry_space_group_name_H-M "P -1"
_symmetry_group_IT_number 2
_symmetry_cell_setting 'triclinic'
loop_
_space_group_symop_operation_xyz
x,y,z
-x,-y,-z
loop_
_atom_site_type_symbol
_atom_site_label
_atom_site_fract_x
_atom_site_fract_y
_atom_site_fract_z
Si Si1 0.247097 0.352579 0.932884
Si Si2 0.734072 0.451318 0.626417
Si Si3 0.686651 0.551429 0.902172
Si Si4 0.955378 0.857839 0.807588
Si Si5 0.008722 0.738678 0.416538
Si Si6 0.272885 0.986619 0.133286
Si Si7 0.312970 0.267477 0.569520
O O1 0.044207 0.593545 0.865887
O O2 0.500000 0.500000 0.000000
O O3 0.327614 0.295660 0.030797
O O4 0.165339 0.077187 0.865203
O O5 0.500000 0.500000 0.500000
O O6 0.818092 0.724071 0.696234
O O7 0.966882 0.342900 0.654098
O O8 0.603717 0.281812 0.634677
O O9 0.582875 0.742203 0.820537
O O10 0.577563 0.262796 0.852581
O O11 0.000000 0.500000 0.000000
O O12 0.797364 0.017935 0.815321
O O13 0.180862 0.528761 0.506721
O O14 0.745002 0.746038 0.373158
O O15 0.154029 0.017270 0.480467
O O16 0.000000 0.000000 0.000000
#
# Coordination Sequence:
#
# PCOD9103258 Si02
#       7
#     2   2   2   2   2   2   2
#     4  12  24  40  61  91 126 163 202 257 324 381
#     4  10  23  41  65  93 131 173 216 260 317 373
#     4  10  16  34  60  81 113 153 186 251 311 349
#     4  12  23  39  63  94 124 167 210 257 309 385
#     4   9  18  35  60  83 123 156 207 264 305 352
#     4  10  16  32  61  84 109 152 195 248 308 348
#     4   9  18  35  60  88 108 167 209 251 316 362
#
# _framework density 25.842074
#
# number of rings (size 3 to 8) (size 9 to 14) (size 15 to 20)
#    0.000    1.714    5.714    0.857    0.000    4.571 
#    0.000    2.857    0.000    1.714    0.000    0.000 
#    0.000    0.000    0.000    0.000    0.000    0.000 
#
# Total GULP energy -78101.983765 kJ/mol
# GULP energy per Si atom -5578.713126 kJ/mol
# Density = 2.578326 g / cm^3
# Si number density = 25.842074 Si / 1000 Ang^3
#
#
#
# Elastic Constant Matrix: (Units=GPa)
#
#
# Indices 1 2 3 4 5 6 
#
# 1 179.1906 14.0093 56.5466 21.4754 -4.9954 14.9817
# 2 14.0093 137.1667 37.2182 37.2906 6.4370 12.8403
# 3 56.5466 37.2182 99.6628 32.5848 -25.7987 -9.5547
# 4 21.4754 37.2906 32.5848 45.1958 -8.0397 0.9025
# 5 -4.9954 6.4370 -25.7987 -8.0397 22.8559 3.2403
# 6 14.9817 12.8403 -9.5547 0.9025 3.2403 42.8958
#
#
#
# Elastic Compliance Matrix: (Units=1/GPa)
#
#
# Indices 1 2 3 4 5 6 
#
# 1 0.008017 0.002312 -0.007030 -0.001772 -0.006818 -0.004506
# 2 0.002312 0.012341 -0.007043 -0.008454 -0.013199 -0.004895
# 3 -0.007030 -0.007043 0.026072 -0.005027 0.026910 0.008444
# 4 -0.001772 -0.008454 -0.005027 0.035079 0.008567 0.000644
# 5 -0.006818 -0.013199 0.026910 0.008567 0.078486 0.006217
# 6 -0.004506 -0.004895 0.008444 0.000644 0.006217 0.027749
#
#
# Mechanical properties :
#
#
# Convention : Reuss Voigt Hill
#
# Bulk Modulus (GPa) = 43.65109 70.17427 56.91268
# Shear Modulus (GPa) = 22.84138 42.73923 32.79031
#
# Velocity S-wave (km/s) = 2.97624 4.07118 3.56599
# Velocity P-wave (km/s) = 5.36086 7.02235 6.24709
#
# Compressibility (1/GPa) = 0.02290893
#
# Stress axis : x y z
#
# Youngs Moduli (GPa) = 124.73058 81.02960 38.35595
#
# Poissons Ratio (x) = -0.18735 0.26964
# Poissons Ratio (y) = -0.28839 0.27013
# Poissons Ratio (z) = 0.87685 0.57066
#
# Static dielectric constant tensor:
#      x y z
#    x 2.189070 -0.016960 0.094420 
#    y -0.016960 2.091060 -0.013810 
#    z 0.094420 -0.013810 2.078680 
# 
# From -- ./inp_files/585364.got.cif
#   From: 2010.05.17/outbox.cif.g08.bks.cpg/sg2_293_cif.got.tgz:585364.got - 2010.06.03 11:33:40.
