data_PCOD9103126
_publ_section_title
;
Structure prediction by ZEFSAII (Michael W. Deem and Ramdas Pophale) SiO2 
 PCOD9103126
Probable space group: P -1
;
_chemical_formula_sum "Si O2"
_cell_formula_units_Z 16
_cell_length_a 10.049596
_cell_length_b 24.675487
_cell_length_c 9.111140
_cell_angle_alpha 152.780468
_cell_angle_beta 117.484476
_cell_angle_gamma 55.278310
_cell_volume 843.303274
_symmetry_space_group_name_H-M "P -1"
_symmetry_group_IT_number 2
_symmetry_cell_setting 'triclinic'
loop_
_space_group_symop_operation_xyz
x,y,z
-x,-y,-z
loop_
_atom_site_type_symbol
_atom_site_label
_atom_site_fract_x
_atom_site_fract_y
_atom_site_fract_z
Si Si1 0.307927 0.071130 0.586424
Si Si2 0.742610 0.643014 0.699070
Si Si3 0.780592 0.279619 0.870572
Si Si4 0.950289 0.435313 0.514448
Si Si5 0.874834 0.311583 0.454905
Si Si6 0.171849 0.899937 0.289922
Si Si7 0.015432 0.134279 0.372794
Si Si8 0.486471 0.532440 0.241703
O O1 0.192849 0.094069 0.440045
O O2 0.500000 0.000000 0.500000
O O3 0.255398 0.983973 0.458857
O O4 0.273569 0.212652 0.967423
O O5 0.818909 0.573019 0.723478
O O6 0.572082 0.631573 0.557722
O O7 0.876013 0.569700 0.465134
O O8 0.745752 0.179640 0.716164
O O9 0.876961 0.210303 0.606940
O O10 0.899664 0.335486 0.150525
O O11 0.610716 0.399779 0.055201
O O12 0.944539 0.390610 0.570329
O O13 0.698197 0.409516 0.657521
O O14 0.983237 0.232278 0.455477
O O15 0.847117 0.201784 0.079056
O O16 0.000000 0.000000 0.500000
O O17 0.000000 0.000000 0.000000
O O18 0.500000 0.500000 0.000000
#
# Coordination Sequence:
#
# PCOD9103126 Si02
#       8
#     2   2   2   2   2   2   2   2
#     4  12  24  38  62  94 128 165 208 263 312 375
#     4  10  21  39  62  86 129 166 209 251 327 370
#     4  10  20  38  65  88 123 165 219 251 311 378
#     4   9  20  39  65  89 118 170 207 257 308 385
#     4  11  22  38  66  95 123 162 221 258 314 373
#     4  11  20  39  65  94 123 175 220 254 301 388
#     4  12  22  39  64  94 127 165 209 260 317 380
#     4  11  23  39  64  93 127 165 208 274 319 368
#
# _framework density 18.973008
#
# number of rings (size 3 to 8) (size 9 to 14) (size 15 to 20)
#    0.000    1.250    5.000    1.500    0.000    5.500 
#    0.000    3.750    0.000    3.000    0.000    0.000 
#    0.000    0.000    0.000    0.000    0.000    0.000 
#
# Total GULP energy -89297.097494 kJ/mol
# GULP energy per Si atom -5581.068593 kJ/mol
# Density = 1.892982 g / cm^3
# Si number density = 18.973008 Si / 1000 Ang^3
#
#
#
# Elastic Constant Matrix: (Units=GPa)
#
#
# Indices 1 2 3 4 5 6 
#
# 1 103.7026 67.1180 8.2991 13.8941 -7.2608 10.7315
# 2 67.1180 125.1527 15.5312 13.7887 -1.8788 21.3944
# 3 8.2991 15.5312 50.9506 10.2112 -13.1679 1.3157
# 4 13.8941 13.7887 10.2112 24.8364 4.9141 0.8354
# 5 -7.2608 -1.8788 -13.1679 4.9141 30.1505 8.1782
# 6 10.7315 21.3944 1.3157 0.8354 8.1782 42.3533
#
#
#
# Elastic Compliance Matrix: (Units=1/GPa)
#
#
# Indices 1 2 3 4 5 6 
#
# 1 0.015968 -0.007858 0.002745 -0.006845 0.005991 -0.001184
# 2 -0.007858 0.013488 -0.002515 -0.001783 -0.000614 -0.004591
# 3 0.002745 -0.002515 0.026800 -0.014087 0.015301 -0.002935
# 4 -0.006845 -0.001783 -0.014087 0.054301 -0.018261 0.005528
# 5 0.005991 -0.000614 0.015301 -0.018261 0.047054 -0.010409
# 6 -0.001184 -0.004591 -0.002935 0.005528 -0.010409 0.028222
#
#
# Mechanical properties :
#
#
# Convention : Reuss Voigt Hill
#
# Bulk Modulus (GPa) = 24.38936 51.30029 37.84483
# Shear Modulus (GPa) = 23.28245 32.05855 27.67050
#
# Velocity S-wave (km/s) = 3.50685 4.11505 3.82306
# Velocity P-wave (km/s) = 5.41110 7.04808 6.28313
#
# Compressibility (1/GPa) = 0.04100148
#
# Stress axis : x y z
#
# Youngs Moduli (GPa) = 62.62543 74.13878 37.31397
#
# Poissons Ratio (x) = 0.58256 -0.10243
# Poissons Ratio (y) = 0.49209 0.09383
# Poissons Ratio (z) = -0.17191 0.18643
#
# Static dielectric constant tensor:
#      x y z
#    x 1.613370 0.068990 0.041220 
#    y 0.068990 2.235710 0.158240 
#    z 0.041220 0.158240 1.728860 
# 
# From -- ./inp_files/178851.got.cif
#   From: 2010.05.17/outbox.cif.g08.bks.cpg/sg2_90_cif.got.tgz:178851.got - 2010.06.03 11:33:40.
