data_PCOD9103613
_publ_section_title
;
Structure prediction by ZEFSAII (Michael W. Deem and Ramdas Pophale) SiO2 
 PCOD9103613
Probable space group: P -1
;
_chemical_formula_sum "Si O2"
_cell_formula_units_Z 16
_cell_length_a 13.615297
_cell_length_b 7.877782
_cell_length_c 6.878788
_cell_angle_alpha 76.665345
_cell_angle_beta 61.097489
_cell_angle_gamma 105.835980
_cell_volume 560.880676
_symmetry_space_group_name_H-M "P -1"
_symmetry_group_IT_number 2
_symmetry_cell_setting 'triclinic'
loop_
_space_group_symop_operation_xyz
x,y,z
-x,-y,-z
loop_
_atom_site_type_symbol
_atom_site_label
_atom_site_fract_x
_atom_site_fract_y
_atom_site_fract_z
Si Si1 0.732465 0.012603 0.924127
Si Si2 0.436121 0.252290 0.281753
Si Si3 0.021402 0.643114 0.311816
Si Si4 0.030653 0.647791 0.807955
Si Si5 0.506594 0.355146 0.739805
Si Si6 0.672657 0.167103 0.555575
Si Si7 0.884230 0.815589 0.907729
Si Si8 0.853391 0.863917 0.375529
O O1 0.823155 0.911605 0.800047
O O2 0.832855 0.194427 0.894135
O O3 0.673470 0.092606 0.795548
O O4 0.617362 0.826753 0.174584
O O5 0.496071 0.437081 0.319562
O O6 0.290395 0.213084 0.412284
O O7 0.420332 0.037873 0.403653
O O8 0.500111 0.316294 0.991837
O O9 0.039215 0.605140 0.555445
O O10 0.997255 0.597525 0.100624
O O11 0.924308 0.738676 0.407042
O O12 0.184777 0.759425 0.658538
O O13 0.877507 0.611481 0.924144
O O14 0.625474 0.331329 0.556425
O O15 0.853587 0.854938 0.142358
O O16 0.040068 0.912797 0.730610
#
# Coordination Sequence:
#
# PCOD9103613 Si02
#       8
#     2   2   2   2   2   2   2   2
#     4  10  22  40  59  92 129 166 210 270 315 376
#     4  10  20  38  67  90 119 173 217 255 328 377
#     4  11  22  36  62  96 127 163 208 267 325 378
#     4  12  23  40  65  99 126 171 210 258 340 391
#     4  10  23  41  62  95 127 168 219 268 318 378
#     4  11  22  42  67  92 133 166 217 275 313 386
#     4  10  22  38  61  90 129 163 209 262 326 395
#     4  10  20  39  62  87 125 167 202 266 328 382
#
# _framework density 28.526568000000001
#
# number of rings (size 3 to 8) (size 9 to 14) (size 15 to 20)
#    0.000    1.500    3.750    2.250    0.000    2.500 
#    4.500    0.625    0.000    3.750    0.000    0.000 
#    0.000    0.000    0.000    0.000    0.000    0.000 
#
# Total GULP energy -89358.185912 kJ/mol
# GULP energy per Si atom -5584.886620 kJ/mol
# Density = 2.846164 g / cm^3
# Si number density = 28.526568 Si / 1000 Ang^3
#
#
#
# Elastic Constant Matrix: (Units=GPa)
#
#
# Indices 1 2 3 4 5 6 
#
# 1 135.7443 38.7297 34.4939 6.6435 8.8942 -18.1710
# 2 38.7297 142.2691 18.6072 7.8124 -0.8089 0.9818
# 3 34.4939 18.6072 129.0588 3.9394 3.4095 -7.8660
# 4 6.6435 7.8124 3.9394 47.4144 -10.2689 -4.8923
# 5 8.8942 -0.8089 3.4095 -10.2689 52.5836 10.8058
# 6 -18.1710 0.9818 -7.8660 -4.8923 10.8058 57.9963
#
#
#
# Elastic Compliance Matrix: (Units=1/GPa)
#
#
# Indices 1 2 3 4 5 6 
#
# 1 0.009051 -0.002206 -0.001833 -0.000931 -0.002237 0.002963
# 2 -0.002206 0.007767 -0.000584 -0.000909 0.000576 -0.001086
# 3 -0.001833 -0.000584 0.008384 -0.000375 -0.000444 0.000624
# 4 -0.000931 -0.000909 -0.000375 0.022431 0.004395 0.000746
# 5 -0.002237 0.000576 -0.000444 0.004395 0.021185 -0.004347
# 6 0.002963 -0.001086 0.000624 0.000746 -0.004347 0.019147
#
#
# Mechanical properties :
#
#
# Convention : Reuss Voigt Hill
#
# Bulk Modulus (GPa) = 62.67486 65.63709 64.15598
# Shear Modulus (GPa) = 48.76750 52.61496 50.69123
#
# Velocity S-wave (km/s) = 4.13915 4.29933 4.22000
# Velocity P-wave (km/s) = 6.69790 6.90686 6.80318
#
# Compressibility (1/GPa) = 0.01595536
#
# Stress axis : x y z
#
# Youngs Moduli (GPa) = 110.48887 128.75707 119.27983
#
# Poissons Ratio (x) = 0.28406 0.21862
# Poissons Ratio (y) = 0.24376 0.06963
# Poissons Ratio (z) = 0.20251 0.07516
#
# Static dielectric constant tensor:
#      x y z
#    x 2.195080 -0.012960 0.180350 
#    y -0.012960 2.444420 -0.039090 
#    z 0.180350 -0.039090 2.334570 
# 
# From -- ./inp_files/261739.got.cif
#   From: 2010.05.17/outbox.cif.g08.bks.cpg/sg2_131_cif.got.tgz:261739.got - 2010.06.03 11:33:40.
