data_PCOD9103352
_publ_section_title
;
Structure prediction by ZEFSAII (Michael W. Deem and Ramdas Pophale) SiO2 
 PCOD9103352
Probable space group: P -1
;
_chemical_formula_sum "Si O2"
_cell_formula_units_Z 16
_cell_length_a 12.200838
_cell_length_b 20.847904
_cell_length_c 9.177220
_cell_angle_alpha 151.913500
_cell_angle_beta 132.085425
_cell_angle_gamma 37.995318
_cell_volume 674.024443
_symmetry_space_group_name_H-M "P -1"
_symmetry_group_IT_number 2
_symmetry_cell_setting 'triclinic'
loop_
_space_group_symop_operation_xyz
x,y,z
-x,-y,-z
loop_
_atom_site_type_symbol
_atom_site_label
_atom_site_fract_x
_atom_site_fract_y
_atom_site_fract_z
Si Si1 0.787668 0.266002 0.792973
Si Si2 0.520075 0.756698 0.579307
Si Si3 0.656709 0.210632 0.075121
Si Si4 0.265015 0.524050 0.298177
Si Si5 0.210173 0.362607 0.673105
Si Si6 0.925202 0.020808 0.684949
Si Si7 0.260327 0.030920 0.080873
Si Si8 0.834736 0.500635 0.510298
O O1 0.601603 0.317014 0.656679
O O2 0.823582 0.128395 0.667891
O O3 0.798831 0.396520 0.156599
O O4 0.950496 0.169778 0.631928
O O5 0.614625 0.699816 0.393004
O O6 0.682241 0.684122 0.693056
O O7 0.381318 0.948529 0.879375
O O8 0.466227 0.357894 0.139455
O O9 0.739587 0.312008 0.403159
O O10 0.783892 0.079376 0.803789
O O11 0.649369 0.107684 0.992579
O O12 0.200233 0.529740 0.415964
O O13 0.169639 0.492745 0.021993
O O14 0.038497 0.441921 0.574504
O O15 0.238424 0.198504 0.437050
O O16 0.068167 0.063177 0.942594
#
# Coordination Sequence:
#
# PCOD9103352 Si02
#       8
#     2   2   2   2   2   2   2   2
#     4  10  21  40  71 100 132 180 233 284 334 403
#     4  11  25  43  69 100 139 186 232 281 345 413
#     4  11  22  43  71 103 136 180 236 283 340 411
#     4  11  25  43  72 101 140 184 226 286 346 415
#     4  12  26  44  69 101 143 186 226 283 355 406
#     4  10  20  38  66 102 136 172 229 290 338 395
#     4  11  23  44  69 100 140 182 230 287 343 409
#     4  12  23  47  68 103 142 182 228 290 342 416
#
# _framework density 23.738012000000001
#
# number of rings (size 3 to 8) (size 9 to 14) (size 15 to 20)
#    0.000    1.000    3.750    2.625    1.750    2.500 
#    2.250    1.250    0.000    0.000    0.000    0.000 
#    0.000    0.000    0.000    0.000    0.000    0.000 
#
# Total GULP energy -89546.898592 kJ/mol
# GULP energy per Si atom -5596.681162 kJ/mol
# Density = 2.368398 g / cm^3
# Si number density = 23.738012 Si / 1000 Ang^3
#
#
#
# Elastic Constant Matrix: (Units=GPa)
#
#
# Indices 1 2 3 4 5 6 
#
# 1 94.3123 14.3126 26.7747 4.6962 -34.0767 -9.7762
# 2 14.3126 73.4563 14.1769 -1.1896 -1.6103 -5.4402
# 3 26.7747 14.1769 94.5231 -6.8857 -17.6030 -1.6121
# 4 4.6962 -1.1896 -6.8857 21.9762 -4.8168 -1.9311
# 5 -34.0767 -1.6103 -17.6030 -4.8168 33.5903 9.7554
# 6 -9.7762 -5.4402 -1.6121 -1.9311 9.7554 43.4880
#
#
#
# Elastic Compliance Matrix: (Units=1/GPa)
#
#
# Indices 1 2 3 4 5 6 
#
# 1 0.017549 -0.002799 -0.001461 -0.000683 0.016886 -0.000277
# 2 -0.002799 0.014622 -0.002064 0.000088 -0.003781 0.001976
# 3 -0.001461 -0.002064 0.012859 0.005502 0.006319 -0.001283
# 4 -0.000683 0.000088 0.005502 0.049417 0.009227 0.000186
# 5 0.016886 -0.003781 0.006319 0.009227 0.053701 -0.008079
# 6 -0.000277 0.001976 -0.001283 0.000186 -0.008079 0.024953
#
#
# Mechanical properties :
#
#
# Convention : Reuss Voigt Hill
#
# Bulk Modulus (GPa) = 30.88202 41.42446 36.15324
# Shear Modulus (GPa) = 25.43980 33.61274 29.52627
#
# Velocity S-wave (km/s) = 3.27722 3.76704 3.53064
# Velocity P-wave (km/s) = 5.23049 6.03402 5.64656
#
# Compressibility (1/GPa) = 0.03238130
#
# Stress axis : x y z
#
# Youngs Moduli (GPa) = 56.98330 68.38943 77.76911
#
# Poissons Ratio (x) = 0.19141 0.11362
# Poissons Ratio (y) = 0.15949 0.16055
# Poissons Ratio (z) = 0.08325 0.14118
#
# Static dielectric constant tensor:
#      x y z
#    x 1.903100 -0.006210 -0.008370 
#    y -0.006210 1.919210 0.001210 
#    z -0.008370 0.001210 1.904030 
# 
# From -- ./inp_files/283517.got.cif
#   From: 2010.05.17/outbox.cif.g08.bks.cpg/sg2_142_cif.got.tgz:283517.got - 2010.06.03 11:33:40.
