data_PCOD9103528
_publ_section_title
;
Structure prediction by ZEFSAII (Michael W. Deem and Ramdas Pophale) SiO2 
 PCOD9103528
Probable space group: P -1
;
_chemical_formula_sum "Si O2"
_cell_formula_units_Z 15
_cell_length_a 11.195224
_cell_length_b 17.831667
_cell_length_c 9.622563
_cell_angle_alpha 63.529196
_cell_angle_beta 87.972364
_cell_angle_gamma 142.337925
_cell_volume 740.045543
_symmetry_space_group_name_H-M "P -1"
_symmetry_group_IT_number 2
_symmetry_cell_setting 'triclinic'
loop_
_space_group_symop_operation_xyz
x,y,z
-x,-y,-z
loop_
_atom_site_type_symbol
_atom_site_label
_atom_site_fract_x
_atom_site_fract_y
_atom_site_fract_z
Si Si1 0.453140 0.145891 0.669745
Si Si2 0.000000 0.500000 0.500000
Si Si3 0.626682 0.085932 0.267442
Si Si4 0.162137 0.916915 0.364850
Si Si5 0.762662 0.902568 0.018076
Si Si6 0.766782 0.919692 0.537934
Si Si7 0.861663 0.503675 0.987007
Si Si8 0.817154 0.539551 0.647013
O O1 0.775470 0.373573 0.484444
O O2 0.344028 0.094099 0.872182
O O3 0.284198 0.095602 0.609498
O O4 0.420665 0.030522 0.714135
O O5 0.956599 0.568887 0.501577
O O6 0.946904 0.313536 0.081364
O O7 0.500000 0.000000 0.500000
O O8 0.452858 0.050531 0.230521
O O9 0.927198 0.703233 0.506932
O O10 0.144767 0.938412 0.505721
O O11 0.156160 0.995535 0.206412
O O12 0.509033 0.680342 0.179060
O O13 0.000000 0.000000 0.000000
O O14 0.460864 0.703217 0.787633
O O15 0.000000 0.000000 0.500000
O O16 0.885345 0.546937 0.790813
O O17 0.000000 0.500000 0.000000
#
# Coordination Sequence:
#
# PCOD9103528 Si02
#       8
#     2   1   2   2   2   2   2   2
#     4  11  23  42  66  96 137 177 227 294 345 412
#     4  10  20  38  66  96 142 172 216 290 350 400
#     4  12  20  40  69 103 134 164 232 297 350 412
#     4  12  23  44  74  97 136 183 229 294 357 413
#     4  11  26  47  64  93 142 188 232 281 348 430
#     4  12  25  44  69 102 141 187 237 292 355 419
#     4  12  21  39  70 101 136 178 230 286 360 405
#     4  11  22  41  68  99 133 181 228 282 349 423
#
# _framework density 20.269022
#
# number of rings (size 3 to 8) (size 9 to 14) (size 15 to 20)
#    0.000    0.533    6.667    1.600    0.000    2.133 
#    9.600    1.333    0.000    0.000    0.000    0.000 
#    0.000    0.000    0.000    0.000    0.000    0.000 
#
# Total GULP energy -83551.806734 kJ/mol
# GULP energy per Si atom -5570.120449 kJ/mol
# Density = 2.022289 g / cm^3
# Si number density = 20.269022 Si / 1000 Ang^3
#
#
#
# Elastic Constant Matrix: (Units=GPa)
#
#
# Indices 1 2 3 4 5 6 
#
# 1 84.6039 47.9017 11.4351 -26.2918 -2.7795 17.4619
# 2 47.9017 166.7594 28.8043 -33.5464 8.0654 -3.0311
# 3 11.4351 28.8043 45.2360 -20.3215 2.0029 -5.0367
# 4 -26.2918 -33.5464 -20.3215 38.4198 -1.4192 3.2942
# 5 -2.7795 8.0654 2.0029 -1.4192 14.8815 1.3785
# 6 17.4619 -3.0311 -5.0367 3.2942 1.3785 52.7544
#
#
#
# Elastic Compliance Matrix: (Units=1/GPa)
#
#
# Indices 1 2 3 4 5 6 
#
# 1 0.019135 -0.003977 0.001685 0.011408 0.007267 -0.007304
# 2 -0.003977 0.008453 -0.002679 0.002936 -0.004821 0.001489
# 3 0.001685 -0.002679 0.030135 0.014607 -0.001015 0.001280
# 4 0.011408 0.002936 0.014607 0.044684 0.003306 -0.005090
# 5 0.007267 -0.004821 -0.001015 0.003306 0.072071 -0.004869
# 6 -0.007304 0.001489 0.001280 -0.005090 -0.004869 0.022026
#
#
# Mechanical properties :
#
#
# Convention : Reuss Voigt Hill
#
# Bulk Modulus (GPa) = 20.92829 52.54240 36.73534
# Shear Modulus (GPa) = 22.48488 35.10837 28.79663
#
# Velocity S-wave (km/s) = 3.33426 4.16639 3.77333
# Velocity P-wave (km/s) = 5.01705 7.00884 6.09486
#
# Compressibility (1/GPa) = 0.04778222
#
# Stress axis : x y z
#
# Youngs Moduli (GPa) = 52.25979 118.30604 33.18395
#
# Poissons Ratio (x) = 0.47050 -0.05592
# Poissons Ratio (y) = 0.20783 0.08889
# Poissons Ratio (z) = -0.08807 0.31689
#
# Static dielectric constant tensor:
#      x y z
#    x 1.706350 0.006370 -0.025990 
#    y 0.006370 1.702350 -0.018970 
#    z -0.025990 -0.018970 1.742410 
# 
# From -- ./inp_files/205731.got.cif
#   From: 2010.05.17/outbox.cif.g08.bks.cpg/sg2_103_cif.got.tgz:205731.got - 2010.06.03 11:33:40.
