data_PCOD9103403
_publ_section_title
;
Structure prediction by ZEFSAII (Michael W. Deem and Ramdas Pophale) SiO2 
 PCOD9103403
Probable space group: P -1
;
_chemical_formula_sum "Si O2"
_cell_formula_units_Z 16
_cell_length_a 7.473717
_cell_length_b 16.306129
_cell_length_c 13.394320
_cell_angle_alpha 142.571254
_cell_angle_beta 53.597967
_cell_angle_gamma 103.204377
_cell_volume 693.170306
_symmetry_space_group_name_H-M "P -1"
_symmetry_group_IT_number 2
_symmetry_cell_setting 'triclinic'
loop_
_space_group_symop_operation_xyz
x,y,z
-x,-y,-z
loop_
_atom_site_type_symbol
_atom_site_label
_atom_site_fract_x
_atom_site_fract_y
_atom_site_fract_z
Si Si1 0.431325 0.684485 0.135471
Si Si2 0.028546 0.463048 0.671448
Si Si3 0.484955 0.959267 0.350708
Si Si4 0.921654 0.262145 0.116703
Si Si5 0.061278 0.704869 0.623921
Si Si6 0.690145 0.775203 0.489804
Si Si7 0.312686 0.946052 0.957510
Si Si8 0.565039 0.574041 0.206579
O O1 0.350122 0.855099 0.295738
O O2 0.438678 0.665124 0.233339
O O3 0.295046 0.604129 0.045500
O O4 0.729108 0.581356 0.903323
O O5 0.158690 0.571301 0.748404
O O6 0.105951 0.322928 0.587783
O O7 0.080288 0.376738 0.464052
O O8 0.500000 0.000000 0.500000
O O9 0.335825 0.092362 0.447807
O O10 0.785350 0.860881 0.126732
O O11 0.933484 0.302858 0.267435
O O12 0.754407 0.174842 0.080948
O O13 0.342661 0.612279 0.395983
O O14 0.938062 0.886717 0.813172
O O15 0.718398 0.643190 0.276323
O O16 0.437891 0.864899 0.731779
O O17 0.500000 0.000000 0.000000
#
# Coordination Sequence:
#
# PCOD9103403 Si02
#       8
#     2   2   2   2   2   2   2   2
#     4   9  21  41  62  92 123 166 219 254 301 379
#     4  10  24  40  61  96 129 164 205 264 320 373
#     4  11  22  40  68  95 122 168 217 257 308 385
#     4  11  23  42  65  92 125 169 217 255 312 385
#     4  11  20  40  67  93 124 166 214 259 314 379
#     4  12  22  41  62  92 128 167 204 263 322 364
#     4  12  24  41  63  96 132 165 207 268 322 374
#     4  10  20  38  66  89 123 168 213 258 305 373
#
# _framework density 23.082352
#
# number of rings (size 3 to 8) (size 9 to 14) (size 15 to 20)
#    0.000    1.250    5.000    1.500    0.000    1.000 
#    2.250    0.000    0.000    7.500    0.000    0.000 
#    0.000    0.000    0.000    0.000    0.000    0.000 
#
# Total GULP energy -89287.035868 kJ/mol
# GULP energy per Si atom -5580.439742 kJ/mol
# Density = 2.302982 g / cm^3
# Si number density = 23.082352 Si / 1000 Ang^3
#
#
#
# Elastic Constant Matrix: (Units=GPa)
#
#
# Indices 1 2 3 4 5 6 
#
# 1 66.8103 29.3059 31.7480 9.6291 23.4121 9.8382
# 2 29.3059 119.5901 50.5623 13.4960 10.0861 10.4036
# 3 31.7480 50.5623 100.0093 -13.2592 22.6439 1.4750
# 4 9.6291 13.4960 -13.2592 46.5158 -1.0826 7.2847
# 5 23.4121 10.0861 22.6439 -1.0826 32.2368 6.8618
# 6 9.8382 10.4036 1.4750 7.2847 6.8618 31.0084
#
#
#
# Elastic Compliance Matrix: (Units=1/GPa)
#
#
# Indices 1 2 3 4 5 6 
#
# 1 0.023630 -0.002123 -0.004096 -0.005379 -0.013293 -0.002385
# 2 -0.002123 0.012225 -0.006714 -0.004536 0.002850 -0.002674
# 3 -0.004096 -0.006714 0.017272 0.007126 -0.007391 0.002692
# 4 -0.005379 -0.004536 0.007126 0.026602 0.002025 -0.003808
# 5 -0.013293 0.002850 -0.007391 0.002025 0.046568 -0.007168
# 6 -0.002385 -0.002674 0.002692 -0.003808 -0.007168 0.036256
#
#
# Mechanical properties :
#
#
# Convention : Reuss Voigt Hill
#
# Bulk Modulus (GPa) = 36.68265 56.62691 46.65478
# Shear Modulus (GPa) = 25.31560 33.60509 29.46035
#
# Velocity S-wave (km/s) = 3.31532 3.81974 3.57643
# Velocity P-wave (km/s) = 5.53007 6.63624 6.10825
#
# Compressibility (1/GPa) = 0.02726084
#
# Stress axis : x y z
#
# Youngs Moduli (GPa) = 42.31867 81.80007 57.89658
#
# Poissons Ratio (x) = 0.17367 0.23716
# Poissons Ratio (y) = 0.08985 0.38871
# Poissons Ratio (z) = 0.17335 0.54919
#
# Static dielectric constant tensor:
#      x y z
#    x 1.644910 0.212170 -0.016820 
#    y 0.212170 1.833070 0.056380 
#    z -0.016820 0.056380 1.844290 
# 
# From -- ./inp_files/399765.got.cif
#   From: 2010.05.17/outbox.cif.g08.bks.cpg/sg2_200_cif.got.tgz:399765.got - 2010.06.03 11:33:40.
