data_PCOD9103371
_publ_section_title
;
Structure prediction by ZEFSAII (Michael W. Deem and Ramdas Pophale) SiO2 
 PCOD9103371
Probable space group: P -1
;
_chemical_formula_sum "Si O2"
_cell_formula_units_Z 16
_cell_length_a 7.578127
_cell_length_b 9.577937
_cell_length_c 14.663390
_cell_angle_alpha 53.013815
_cell_angle_beta 71.039644
_cell_angle_gamma 98.102924
_cell_volume 719.893033
_symmetry_space_group_name_H-M "P -1"
_symmetry_group_IT_number 2
_symmetry_cell_setting 'triclinic'
loop_
_space_group_symop_operation_xyz
x,y,z
-x,-y,-z
loop_
_atom_site_type_symbol
_atom_site_label
_atom_site_fract_x
_atom_site_fract_y
_atom_site_fract_z
Si Si1 0.484260 0.656738 0.872691
Si Si2 0.449170 0.734802 0.309446
Si Si3 0.011425 0.753303 0.344074
Si Si4 0.125027 0.952073 0.420294
Si Si5 0.352755 0.851068 0.961437
Si Si6 0.792313 0.970722 0.943735
Si Si7 0.714219 0.360623 0.447229
Si Si8 0.649456 0.566079 0.207937
O O1 0.696055 0.856849 0.736209
O O2 0.324772 0.711804 0.935701
O O3 0.416403 0.553000 0.827585
O O4 0.500000 0.500000 0.000000
O O5 0.233537 0.748983 0.324452
O O6 0.478789 0.705194 0.422955
O O7 0.473635 0.590850 0.289126
O O8 0.613259 0.947332 0.168740
O O9 0.870454 0.547063 0.405889
O O10 0.963066 0.813530 0.426321
O O11 0.039380 0.925034 0.202610
O O12 0.230001 0.820289 0.494698
O O13 0.000000 0.000000 0.500000
O O14 0.564096 0.875733 0.969039
O O15 0.202471 0.846369 0.070311
O O16 0.801377 0.790616 0.065197
O O17 0.716933 0.445035 0.314421
#
# Coordination Sequence:
#
# PCOD9103371 Si02
#       8
#     2   2   2   2   2   2   2   2
#     4  12  22  37  62  90 120 158 205 249 296 359
#     4   9  18  38  58  86 109 151 207 243 283 348
#     4  10  20  38  66  83 116 158 208 247 286 361
#     4  11  24  41  60  90 122 161 205 245 299 365
#     4   9  16  33  58  83 112 143 199 259 277 337
#     4   9  17  35  57  88 112 146 203 250 293 338
#     4  11  23  39  56  88 124 158 196 245 303 359
#     4  11  23  34  60  91 123 153 193 253 308 350
#
# _framework density 22.225524
#
# number of rings (size 3 to 8) (size 9 to 14) (size 15 to 20)
#    0.000    1.750    5.000    2.625    3.500    1.000 
#    0.000    1.250    0.000    3.750    0.000    0.000 
#    0.000    0.000    0.000    0.000    0.000    0.000 
#
# Total GULP energy -89160.842631 kJ/mol
# GULP energy per Si atom -5572.552664 kJ/mol
# Density = 2.217494 g / cm^3
# Si number density = 22.225524 Si / 1000 Ang^3
#
#
#
# Elastic Constant Matrix: (Units=GPa)
#
#
# Indices 1 2 3 4 5 6 
#
# 1 28.5871 31.8722 30.5363 0.3630 17.0342 -1.8188
# 2 31.8722 199.6482 45.5239 23.3925 17.4390 -16.5404
# 3 30.5363 45.5239 161.3172 3.7160 36.7825 -0.2371
# 4 0.3630 23.3925 3.7160 41.6204 1.7867 -0.7515
# 5 17.0342 17.4390 36.7825 1.7867 25.5612 0.7353
# 6 -1.8188 -16.5404 -0.2371 -0.7515 0.7353 15.9793
#
#
#
# Elastic Compliance Matrix: (Units=1/GPa)
#
#
# Indices 1 2 3 4 5 6 
#
# 1 0.068288 -0.007587 -0.002401 0.005519 -0.037315 0.001860
# 2 -0.007587 0.007277 -0.000832 -0.003893 0.001377 0.006410
# 3 -0.002401 -0.000832 0.009510 0.000126 -0.011512 -0.000458
# 4 0.005519 -0.003893 0.000126 0.026247 -0.002979 -0.002028
# 5 -0.037315 0.001377 -0.011512 -0.002979 0.080020 -0.006815
# 6 0.001860 0.006410 -0.000458 -0.002028 -0.006815 0.069639
#
#
# Mechanical properties :
#
#
# Convention : Reuss Voigt Hill
#
# Bulk Modulus (GPa) = 15.76459 67.26858 41.51659
# Shear Modulus (GPa) = 16.46003 35.40683 25.93343
#
# Velocity S-wave (km/s) = 2.72433 3.99566 3.41960
# Velocity P-wave (km/s) = 4.12364 7.18465 5.85762
#
# Compressibility (1/GPa) = 0.06343329
#
# Stress axis : x y z
#
# Youngs Moduli (GPa) = 14.64379 137.42553 105.15582
#
# Poissons Ratio (x) = 1.04267 0.25252
# Poissons Ratio (y) = 0.11110 0.08750
# Poissons Ratio (z) = 0.03517 0.11435
#
# Static dielectric constant tensor:
#      x y z
#    x 1.901090 0.003700 -0.014870 
#    y 0.003700 1.858930 0.036000 
#    z -0.014870 0.036000 1.918390 
# 
# From -- ./inp_files/227571.got.cif
#   From: 2010.05.17/outbox.cif.g08.bks.cpg/sg2_114_cif.got.tgz:227571.got - 2010.06.03 11:33:40.
