data_PCOD9103172
_publ_section_title
;
Structure prediction by ZEFSAII (Michael W. Deem and Ramdas Pophale) SiO2 
 PCOD9103172
Probable space group: P -1
;
_chemical_formula_sum "Si O2"
_cell_formula_units_Z 16
_cell_length_a 13.177570
_cell_length_b 22.148738
_cell_length_c 9.552630
_cell_angle_alpha 58.199830
_cell_angle_beta 111.631353
_cell_angle_gamma 158.644910
_cell_volume 792.827610
_symmetry_space_group_name_H-M "P -1"
_symmetry_group_IT_number 2
_symmetry_cell_setting 'triclinic'
loop_
_space_group_symop_operation_xyz
x,y,z
-x,-y,-z
loop_
_atom_site_type_symbol
_atom_site_label
_atom_site_fract_x
_atom_site_fract_y
_atom_site_fract_z
Si Si1 0.799192 0.165604 0.359434
Si Si2 0.065550 0.873615 0.338757
Si Si3 0.250567 0.710588 0.898658
Si Si4 0.787528 0.483464 0.424429
Si Si5 0.796968 0.054216 0.241991
Si Si6 0.759973 0.755941 0.575107
Si Si7 0.134152 0.310144 0.822208
Si Si8 0.775847 0.340089 0.740671
O O1 0.002948 0.242026 0.472937
O O2 0.894542 0.301033 0.192925
O O3 0.747272 0.084937 0.295773
O O4 0.500000 0.000000 0.500000
O O5 0.895692 0.828704 0.400130
O O6 0.961443 0.799563 0.217797
O O7 0.429857 0.105367 0.243970
O O8 0.328983 0.750628 0.052706
O O9 0.000000 0.500000 0.000000
O O10 0.438151 0.293197 0.456363
O O11 0.953453 0.660948 0.297262
O O12 0.826324 0.455350 0.611666
O O13 0.925896 0.521665 0.322171
O O14 0.981722 0.104040 0.352991
O O15 0.480060 0.834925 0.288413
O O16 0.988142 0.199904 0.029478
O O17 0.498650 0.537565 0.736147
#
# Coordination Sequence:
#
# PCOD9103172 Si02
#       8
#     2   2   2   2   2   2   2   2
#     4   9  22  36  60  93 123 166 203 257 314 367
#     4  10  20  40  65  91 122 172 210 258 316 378
#     4  11  24  39  61  92 132 163 211 261 318 373
#     4   9  24  37  63  87 130 163 210 254 318 367
#     4  11  21  39  67  92 129 159 220 261 314 371
#     4   9  22  40  63  93 127 167 209 259 315 376
#     4  10  20  38  65  91 124 162 214 262 306 376
#     4  11  23  41  61  96 122 172 207 266 309 374
#
# _framework density 20.18093
#
# number of rings (size 3 to 8) (size 9 to 14) (size 15 to 20)
#    0.750    1.250    1.250    1.500    5.250    6.500 
#    0.000    0.625    0.000    0.000    0.000    0.000 
#    0.000    0.000    0.000    0.000    0.000    0.000 
#
# Total GULP energy -89195.398841 kJ/mol
# GULP energy per Si atom -5574.712428 kJ/mol
# Density = 2.013500 g / cm^3
# Si number density = 20.180930 Si / 1000 Ang^3
#
#
#
# Elastic Constant Matrix: (Units=GPa)
#
#
# Indices 1 2 3 4 5 6 
#
# 1 111.8792 41.9242 47.6454 3.6887 -9.4732 26.0289
# 2 41.9242 69.8618 14.7671 5.0583 -13.4355 -1.2350
# 3 47.6454 14.7671 105.9169 7.1556 -17.6407 -0.7402
# 4 3.6887 5.0583 7.1556 27.2752 -1.6817 -3.6274
# 5 -9.4732 -13.4355 -17.6407 -1.6817 33.4193 -1.0722
# 6 26.0289 -1.2350 -0.7402 -3.6274 -1.0722 23.9763
#
#
#
# Elastic Compliance Matrix: (Units=1/GPa)
#
#
# Indices 1 2 3 4 5 6 
#
# 1 0.024745 -0.014021 -0.010051 -0.002198 -0.004951 -0.028449
# 2 -0.014021 0.023757 0.004591 -0.000953 0.008492 0.016822
# 3 -0.010051 0.004591 0.014669 -0.001348 0.007048 0.011712
# 4 -0.002198 -0.000953 -0.001348 0.038606 0.000486 0.008158
# 5 -0.004951 0.008492 0.007048 0.000486 0.035925 0.007710
# 6 -0.028449 0.016822 0.011712 0.008158 0.007710 0.075400
#
#
# Mechanical properties :
#
#
# Convention : Reuss Voigt Hill
#
# Bulk Modulus (GPa) = 41.30659 55.14794 48.22727
# Shear Modulus (GPa) = 19.22088 29.15558 24.18823
#
# Velocity S-wave (km/s) = 3.08949 3.80506 3.46579
# Velocity P-wave (km/s) = 5.76534 6.83306 6.32178
#
# Compressibility (1/GPa) = 0.02420921
#
# Stress axis : x y z
#
# Youngs Moduli (GPa) = 40.41274 42.09308 68.16871
#
# Poissons Ratio (x) = 0.59018 0.68518
# Poissons Ratio (y) = 0.56662 -0.31297
# Poissons Ratio (z) = 0.40620 -0.19325
#
# Static dielectric constant tensor:
#      x y z
#    x 1.726980 -0.003410 0.017510 
#    y -0.003410 1.736570 0.006410 
#    z 0.017510 0.006410 1.735290 
# 
# From -- ./inp_files/320304.got.cif
#   From: 2010.05.17/outbox.cif.g08.bks.cpg/sg2_161_cif.got.tgz:320304.got - 2010.06.03 11:33:40.
