data_PCOD9103392
_publ_section_title
;
Structure prediction by ZEFSAII (Michael W. Deem and Ramdas Pophale) SiO2 
 PCOD9103392
Probable space group: P -1
;
_chemical_formula_sum "Si O2"
_cell_formula_units_Z 14
_cell_length_a 12.152506
_cell_length_b 13.013191
_cell_length_c 6.722693
_cell_angle_alpha 63.380580
_cell_angle_beta 96.510021
_cell_angle_gamma 48.419596
_cell_volume 561.053846
_symmetry_space_group_name_H-M "P -1"
_symmetry_group_IT_number 2
_symmetry_cell_setting 'triclinic'
loop_
_space_group_symop_operation_xyz
x,y,z
-x,-y,-z
loop_
_atom_site_type_symbol
_atom_site_label
_atom_site_fract_x
_atom_site_fract_y
_atom_site_fract_z
Si Si1 0.246111 0.634345 0.223551
Si Si2 0.706571 0.725288 0.861154
Si Si3 0.820897 0.220415 0.344190
Si Si4 0.623473 0.929722 0.274490
Si Si5 0.869066 0.832196 0.921544
Si Si6 0.653801 0.230589 0.646375
Si Si7 0.005293 0.280348 0.396481
O O1 0.075495 0.689133 0.166822
O O2 0.442350 0.415832 0.516276
O O3 0.230007 0.775691 0.190913
O O4 0.260816 0.649475 0.978123
O O5 0.666426 0.792827 0.564365
O O6 0.508213 0.873037 0.798534
O O7 0.797041 0.762468 0.952118
O O8 0.853392 0.502347 0.114217
O O9 0.681751 0.258826 0.406625
O O10 0.898395 0.257848 0.467016
O O11 0.000000 0.000000 0.500000
O O12 0.500000 0.000000 0.000000
O O13 0.826724 0.807787 0.365559
O O14 0.892381 0.841214 0.682482
O O15 0.730721 0.038417 0.815188
#
# Coordination Sequence:
#
# PCOD9103392 Si02
#       7
#     2   2   2   2   2   2   2
#     4  10  23  39  62  95 124 164 212 261 319 375
#     4  10  23  43  65  93 131 170 209 262 322 382
#     4  11  22  42  67  88 125 172 209 261 316 375
#     4  10  22  42  65  96 127 166 216 262 313 378
#     4  10  20  38  66  88 124 168 206 259 313 380
#     4  11  22  41  62  96 126 161 215 265 315 371
#     4  10  22  42  66  93 129 171 213 259 325 382
#
# _framework density 24.953040999999999
#
# number of rings (size 3 to 8) (size 9 to 14) (size 15 to 20)
#    0.000    1.714    2.857    2.571    0.000    9.714 
#    2.571    4.286    0.000    0.000    0.000    0.000 
#    0.000    0.000    0.000    0.000    0.000    0.000 
#
# Total GULP energy -78341.748543 kJ/mol
# GULP energy per Si atom -5595.839182 kJ/mol
# Density = 2.489625 g / cm^3
# Si number density = 24.953041 Si / 1000 Ang^3
#
#
#
# Elastic Constant Matrix: (Units=GPa)
#
#
# Indices 1 2 3 4 5 6 
#
# 1 105.4608 46.9834 59.4082 -30.7351 15.5972 14.6976
# 2 46.9834 88.6250 48.5468 -25.4008 5.9533 17.0691
# 3 59.4082 48.5468 117.5839 -14.9848 20.9418 6.8234
# 4 -30.7351 -25.4008 -14.9848 45.2352 -3.4107 5.7912
# 5 15.5972 5.9533 20.9418 -3.4107 37.5189 0.3154
# 6 14.6976 17.0691 6.8234 5.7912 0.3154 34.9855
#
#
#
# Elastic Compliance Matrix: (Units=1/GPa)
#
#
# Indices 1 2 3 4 5 6 
#
# 1 0.018080 -0.001763 -0.006229 0.009935 -0.002797 -0.007140
# 2 -0.001763 0.019765 -0.005866 0.009285 0.001793 -0.009312
# 3 -0.006229 -0.005866 0.014279 -0.003584 -0.004804 0.003330
# 4 0.009935 0.009285 -0.003584 0.034616 -0.000341 -0.013732
# 5 -0.002797 0.001793 -0.004804 -0.000341 0.030173 0.001021
# 6 -0.007140 -0.009312 0.003330 -0.013732 0.001021 0.037740
#
#
# Mechanical properties :
#
#
# Convention : Reuss Voigt Hill
#
# Bulk Modulus (GPa) = 40.96562 69.06071 55.01316
# Shear Modulus (GPa) = 26.24613 33.99666 30.12140
#
# Velocity S-wave (km/s) = 3.24670 3.69511 3.47814
# Velocity P-wave (km/s) = 5.52335 6.77801 6.18259
#
# Compressibility (1/GPa) = 0.02441071
#
# Stress axis : x y z
#
# Youngs Moduli (GPa) = 55.30900 50.59378 70.03424
#
# Poissons Ratio (x) = 0.08918 0.43621
# Poissons Ratio (y) = 0.09749 0.41079
# Poissons Ratio (z) = 0.34450 0.29676
#
# Static dielectric constant tensor:
#      x y z
#    x 2.006780 -0.012810 0.031220 
#    y -0.012810 1.976850 0.073710 
#    z 0.031220 0.073710 1.988900 
# 
# From -- ./inp_files/119666.got.cif
#   From: 2010.05.17/outbox.cif.g08.bks.cpg/sg2_60_cif.got.tgz:119666.got - 2010.06.03 11:33:40.
