data_PCOD9103028
_publ_section_title
;
Structure prediction by ZEFSAII (Michael W. Deem and Ramdas Pophale) SiO2 
 PCOD9103028
Probable space group: P -1
;
_chemical_formula_sum "Si O2"
_cell_formula_units_Z 16
_cell_length_a 6.203036
_cell_length_b 11.201477
_cell_length_c 15.638434
_cell_angle_alpha 121.938689
_cell_angle_beta 123.589982
_cell_angle_gamma 92.327409
_cell_volume 677.407304
_symmetry_space_group_name_H-M "P -1"
_symmetry_group_IT_number 2
_symmetry_cell_setting 'triclinic'
loop_
_space_group_symop_operation_xyz
x,y,z
-x,-y,-z
loop_
_atom_site_type_symbol
_atom_site_label
_atom_site_fract_x
_atom_site_fract_y
_atom_site_fract_z
Si Si1 0.245549 0.991148 0.703308
Si Si2 0.507667 0.201145 0.689608
Si Si3 0.892691 0.099243 0.955312
Si Si4 0.379129 0.374382 0.244255
Si Si5 0.307002 0.664995 0.392106
Si Si6 0.885329 0.780652 0.129290
Si Si7 0.632666 0.516247 0.176909
Si Si8 0.792220 0.323552 0.425372
O O1 0.308436 0.038053 0.634781
O O2 0.120191 0.102080 0.755665
O O3 0.086383 0.802020 0.611972
O O4 0.556851 0.046479 0.841372
O O5 0.500698 0.200820 0.584749
O O6 0.439816 0.339533 0.763263
O O7 0.837762 0.248781 0.808075
O O8 0.047563 0.271978 0.100312
O O9 0.051835 0.122145 0.908252
O O10 0.000000 0.000000 0.000000
O O11 0.405368 0.528771 0.355320
O O12 0.577428 0.426816 0.222504
O O13 0.489858 0.278514 0.292550
O O14 0.284917 0.695336 0.498384
O O15 0.971696 0.590474 0.256820
O O16 0.590747 0.614986 0.987442
O O17 0.000000 0.500000 0.500000
#
# Coordination Sequence:
#
# PCOD9103028 Si02
#       8
#     2   2   2   2   2   2   2   2
#     4  11  24  43  64  97 137 168 214 268 316 388
#     4  10  23  42  64  96 131 168 217 264 326 381
#     4  10  20  38  64  96 132 164 206 265 325 385
#     4  10  21  41  64  97 127 164 218 266 322 383
#     4  11  23  40  68  92 123 177 217 264 321 374
#     4  10  22  39  65 101 131 172 206 264 336 379
#     4  10  20  40  67  98 133 161 212 267 320 395
#     4  12  25  45  66  92 131 174 222 267 314 384
#
# _framework density 23.619465999999999
#
# number of rings (size 3 to 8) (size 9 to 14) (size 15 to 20)
#    0.000    1.500    2.500    2.250    0.000    6.000 
#    4.500    2.500    0.000    0.000    0.000    0.000 
#    0.000    0.000    0.000    0.000    0.000    0.000 
#
# Total GULP energy -89447.554788 kJ/mol
# GULP energy per Si atom -5590.472174 kJ/mol
# Density = 2.356571 g / cm^3
# Si number density = 23.619466 Si / 1000 Ang^3
#
#
#
# Elastic Constant Matrix: (Units=GPa)
#
#
# Indices 1 2 3 4 5 6 
#
# 1 64.5687 33.8628 28.6758 3.0114 0.7289 -13.1859
# 2 33.8628 137.9386 41.2030 -11.6741 -8.3619 9.3033
# 3 28.6758 41.2030 70.0627 0.2415 -8.2733 13.1554
# 4 3.0114 -11.6741 0.2415 31.8853 -2.9165 -1.8697
# 5 0.7289 -8.3619 -8.2733 -2.9165 32.1162 -4.4078
# 6 -13.1859 9.3033 13.1554 -1.8697 -4.4078 29.3351
#
#
#
# Elastic Compliance Matrix: (Units=1/GPa)
#
#
# Indices 1 2 3 4 5 6 
#
# 1 0.027458 -0.004803 -0.012244 -0.003414 -0.002768 0.018723
# 2 -0.004803 0.010044 -0.003097 0.004122 0.001832 -0.003417
# 3 -0.012244 -0.003097 0.024342 -0.000706 0.003628 -0.014937
# 4 -0.003414 0.004122 -0.000706 0.033583 0.004049 0.000224
# 5 -0.002768 0.001832 0.003628 0.004049 0.033226 0.001798
# 6 0.018723 -0.003417 -0.014937 0.000224 0.001798 0.050572
#
#
# Mechanical properties :
#
#
# Convention : Reuss Voigt Hill
#
# Bulk Modulus (GPa) = 46.39401 53.33924 49.86663
# Shear Modulus (GPa) = 22.05578 29.92256 25.98917
#
# Velocity S-wave (km/s) = 3.05912 3.56316 3.32072
# Velocity P-wave (km/s) = 5.67121 6.28967 5.98843
#
# Compressibility (1/GPa) = 0.02155451
#
# Stress axis : x y z
#
# Youngs Moduli (GPa) = 36.41912 99.55993 41.08205
#
# Poissons Ratio (x) = 0.47817 0.50303
# Poissons Ratio (y) = 0.17491 0.12725
# Poissons Ratio (z) = 0.44593 0.30838
#
# Static dielectric constant tensor:
#      x y z
#    x 1.886280 0.051960 0.036540 
#    y 0.051960 1.882280 0.007650 
#    z 0.036540 0.007650 1.964130 
# 
# From -- ./inp_files/70890.got.cif
#   From: 2010.05.17/outbox.cif.g08.bks.cpg/sg2_36_cif.got.tgz:70890.got - 2010.06.03 11:33:40.
