data_PCOD9103905
_publ_section_title
;
Structure prediction by ZEFSAII (Michael W. Deem and Ramdas Pophale) SiO2 
 PCOD9103905
Probable space group: P -1
;
_chemical_formula_sum "Si O2"
_cell_formula_units_Z 16
_cell_length_a 9.174208
_cell_length_b 12.595711
_cell_length_c 10.451810
_cell_angle_alpha 91.656910
_cell_angle_beta 63.128448
_cell_angle_gamma 133.376803
_cell_volume 705.415801
_symmetry_space_group_name_H-M "P -1"
_symmetry_group_IT_number 2
_symmetry_cell_setting 'triclinic'
loop_
_space_group_symop_operation_xyz
x,y,z
-x,-y,-z
loop_
_atom_site_type_symbol
_atom_site_label
_atom_site_fract_x
_atom_site_fract_y
_atom_site_fract_z
Si Si1 0.704794 0.881485 0.186498
Si Si2 0.827146 0.322027 0.508096
Si Si3 0.618416 0.305690 0.150030
Si Si4 0.958250 0.991005 0.702076
Si Si5 0.035784 0.205503 0.476676
Si Si6 0.996522 0.372610 0.153695
Si Si7 0.892570 0.772133 0.029457
Si Si8 0.435483 0.513402 0.666725
O O1 0.453332 0.781659 0.355218
O O2 0.699156 0.775010 0.095669
O O3 0.911125 0.949021 0.212016
O O4 0.829690 0.042794 0.073357
O O5 0.868636 0.227009 0.552153
O O6 0.900690 0.344517 0.332239
O O7 0.000000 0.500000 0.500000
O O8 0.341047 0.153418 0.201378
O O9 0.760996 0.273763 0.148043
O O10 0.607364 0.383165 0.278574
O O11 0.794823 0.444126 0.976555
O O12 0.042936 0.922121 0.598698
O O13 0.052099 0.140749 0.594354
O O14 0.314146 0.385848 0.347149
O O15 0.108833 0.310816 0.089208
O O16 0.800590 0.661410 0.184814
O O17 0.500000 0.500000 0.500000
#
# Coordination Sequence:
#
# PCOD9103905 Si02
#       8
#     2   2   2   2   2   2   2   2
#     4  11  25  44  67  98 135 180 222 285 338 404
#     4  12  28  44  69 104 138 178 229 283 342 406
#     4   9  22  41  67 101 134 179 227 274 342 398
#     4  10  22  41  67  99 136 175 232 274 334 409
#     4  10  23  38  62 104 132 174 225 278 336 397
#     4  10  23  44  68  98 139 179 220 287 334 401
#     4  10  23  42  67  95 133 181 229 265 349 399
#     4  10  20  38  69  96 134 179 225 277 333 401
#
# _framework density 22.681657999999999
#
# number of rings (size 3 to 8) (size 9 to 14) (size 15 to 20)
#    0.000    1.750    0.000    2.250   10.500    4.000 
#    2.250    6.250    0.000    0.000    0.000    0.000 
#    0.000    0.000    0.000    0.000    0.000    0.000 
#
# Total GULP energy -89352.619337 kJ/mol
# GULP energy per Si atom -5584.538709 kJ/mol
# Density = 2.263003 g / cm^3
# Si number density = 22.681658 Si / 1000 Ang^3
#
#
#
# Elastic Constant Matrix: (Units=GPa)
#
#
# Indices 1 2 3 4 5 6 
#
# 1 76.4165 48.7165 38.0217 1.8720 -5.0319 -13.2692
# 2 48.7165 101.0133 64.6651 -5.5425 -3.3898 -10.7722
# 3 38.0217 64.6651 175.9474 7.3733 -12.5718 -7.1850
# 4 1.8720 -5.5425 7.3733 32.4790 -4.7921 -5.7180
# 5 -5.0319 -3.3898 -12.5718 -4.7921 23.7974 -1.8489
# 6 -13.2692 -10.7722 -7.1850 -5.7180 -1.8489 26.8519
#
#
#
# Elastic Compliance Matrix: (Units=1/GPa)
#
#
# Indices 1 2 3 4 5 6 
#
# 1 0.020231 -0.008571 -0.000709 -0.000902 0.002997 0.006384
# 2 -0.008571 0.017608 -0.004766 0.004939 -0.000629 0.002561
# 3 -0.000709 -0.004766 0.007867 -0.002215 0.002848 -0.000433
# 4 -0.000902 0.004939 -0.002215 0.034780 0.007033 0.008834
# 5 0.002997 -0.000629 0.002848 0.007033 0.046003 0.006656
# 6 0.006384 0.002561 -0.000433 0.008834 0.006656 0.043647
#
#
# Mechanical properties :
#
#
# Convention : Reuss Voigt Hill
#
# Bulk Modulus (GPa) = 56.77805 72.90932 64.84368
# Shear Modulus (GPa) = 24.49780 30.09057 27.29418
#
# Velocity S-wave (km/s) = 3.29001 3.64627 3.47271
# Velocity P-wave (km/s) = 6.28642 7.06693 6.68807
#
# Compressibility (1/GPa) = 0.01761244
#
# Stress axis : x y z
#
# Youngs Moduli (GPa) = 49.42863 56.79333 127.11147
#
# Poissons Ratio (x) = 0.48679 0.09014
# Poissons Ratio (y) = 0.42367 0.60586
# Poissons Ratio (z) = 0.03505 0.27070
#
# Static dielectric constant tensor:
#      x y z
#    x 1.869330 -0.021110 0.002770 
#    y -0.021110 1.895870 0.032220 
#    z 0.002770 0.032220 1.878890 
# 
# From -- ./inp_files/392604.got.cif
#   From: 2010.05.17/outbox.cif.g08.bks.cpg/sg2_197_cif.got.tgz:392604.got - 2010.06.03 11:33:40.
