data_PCOD9103808
_publ_section_title
;
Structure prediction by ZEFSAII (Michael W. Deem and Ramdas Pophale) SiO2 
 PCOD9103808
Probable space group: P -1
;
_chemical_formula_sum "Si O2"
_cell_formula_units_Z 16
_cell_length_a 16.394714
_cell_length_b 21.404551
_cell_length_c 6.075958
_cell_angle_alpha 88.983537
_cell_angle_beta 102.885089
_cell_angle_gamma 157.336715
_cell_volume 693.291974
_symmetry_space_group_name_H-M "P -1"
_symmetry_group_IT_number 2
_symmetry_cell_setting 'triclinic'
loop_
_space_group_symop_operation_xyz
x,y,z
-x,-y,-z
loop_
_atom_site_type_symbol
_atom_site_label
_atom_site_fract_x
_atom_site_fract_y
_atom_site_fract_z
Si Si1 0.068582 0.401554 0.625337
Si Si2 0.752635 0.083964 0.163964
Si Si3 0.124589 0.339229 0.990321
Si Si4 0.297653 0.031132 0.477863
Si Si5 0.626234 0.787872 0.736751
Si Si6 0.049779 0.082788 0.330601
Si Si7 0.402537 0.868894 0.581671
Si Si8 0.568024 0.572445 0.285893
O O1 0.098411 0.389980 0.880388
O O2 0.336927 0.586419 0.655168
O O3 0.872362 0.219140 0.388936
O O4 0.898502 0.342637 0.562397
O O5 0.665469 0.961377 0.247903
O O6 0.982154 0.228935 0.136046
O O7 0.536098 0.960579 0.892859
O O8 0.412107 0.526479 0.176142
O O9 0.976760 0.187842 0.748899
O O10 0.337806 0.129585 0.416572
O O11 0.489163 0.117347 0.467895
O O12 0.737295 0.800849 0.703817
O O13 0.812336 0.929654 0.045904
O O14 0.145315 0.210361 0.511904
O O15 0.000000 0.000000 0.500000
O O16 0.500000 0.000000 0.500000
O O17 0.500000 0.500000 0.500000
O O18 0.500000 0.500000 0.000000
#
# Coordination Sequence:
#
# PCOD9103808 Si02
#       8
#     2   2   2   2   2   2   2   2
#     4  11  22  39  69  97 140 180 243 298 357 445
#     4  10  20  38  68  95 132 181 243 296 362 420
#     4  10  22  40  66  99 132 180 244 296 359 424
#     4  10  23  39  66  99 141 181 236 293 363 437
#     4  11  26  46  69 105 146 197 238 297 378 453
#     4  11  27  49  75  98 151 198 244 299 385 442
#     4  11  20  40  65 102 132 187 237 304 362 424
#     4  12  29  45  76 111 145 187 256 319 371 442
#
# _framework density 23.078299000000001
#
# number of rings (size 3 to 8) (size 9 to 14) (size 15 to 20)
#    0.000    1.250    3.750    2.625   10.500    2.500 
#    0.000    0.625    0.000    0.000    0.000    0.000 
#    0.000    0.000    0.000    0.000    0.000    0.000 
#
# Total GULP energy -89224.193959 kJ/mol
# GULP energy per Si atom -5576.512122 kJ/mol
# Density = 2.302577 g / cm^3
# Si number density = 23.078299 Si / 1000 Ang^3
#
#
#
# Elastic Constant Matrix: (Units=GPa)
#
#
# Indices 1 2 3 4 5 6 
#
# 1 76.1025 20.0430 43.6897 7.7420 12.2553 15.4864
# 2 20.0430 106.5801 48.7181 -2.4367 11.0296 10.9713
# 3 43.6897 48.7181 151.9950 -10.0086 10.8602 5.5111
# 4 7.7420 -2.4367 -10.0086 45.8658 4.6112 16.0425
# 5 12.2553 11.0296 10.8602 4.6112 43.1478 2.1902
# 6 15.4864 10.9713 5.5111 16.0425 2.1902 39.5791
#
#
#
# Elastic Compliance Matrix: (Units=1/GPa)
#
#
# Indices 1 2 3 4 5 6 
#
# 1 0.017702 -0.000356 -0.004671 -0.001862 -0.003296 -0.005240
# 2 -0.000356 0.011472 -0.003246 0.001198 -0.001992 -0.002964
# 3 -0.004671 -0.003246 0.009140 0.002490 -0.000434 0.000470
# 4 -0.001862 0.001198 0.002490 0.026715 -0.002720 -0.010628
# 5 -0.003296 -0.001992 -0.000434 -0.002720 0.024939 0.001625
# 6 -0.005240 -0.002964 0.000470 -0.010628 0.001625 0.032290
#
#
# Mechanical properties :
#
#
# Convention : Reuss Voigt Hill
#
# Bulk Modulus (GPa) = 45.93875 62.17548 54.05711
# Shear Modulus (GPa) = 34.23215 40.53367 37.38291
#
# Velocity S-wave (km/s) = 3.85555 4.19543 4.02908
# Velocity P-wave (km/s) = 6.30628 7.10412 6.71705
#
# Compressibility (1/GPa) = 0.02176812
#
# Stress axis : x y z
#
# Youngs Moduli (GPa) = 56.48983 87.16883 109.40536
#
# Poissons Ratio (x) = 0.03101 0.51108
# Poissons Ratio (y) = 0.02009 0.35514
# Poissons Ratio (z) = 0.26389 0.28296
#
# Static dielectric constant tensor:
#      x y z
#    x 1.916440 0.037100 -0.051210 
#    y 0.037100 1.920160 -0.025710 
#    z -0.051210 -0.025710 1.897160 
# 
# From -- ./inp_files/112847.got.cif
#   From: 2010.05.17/outbox.cif.g08.bks.cpg/sg2_57_cif.got.tgz:112847.got - 2010.06.03 11:33:40.
