data_PCOD9103948
_publ_section_title
;
Structure prediction by ZEFSAII (Michael W. Deem and Ramdas Pophale) SiO2 
 PCOD9103948
Probable space group: P -1
;
_chemical_formula_sum "Si O2"
_cell_formula_units_Z 16
_cell_length_a 14.888201
_cell_length_b 7.904391
_cell_length_c 8.926868
_cell_angle_alpha 53.446634
_cell_angle_beta 96.420183
_cell_angle_gamma 118.551548
_cell_volume 718.686841
_symmetry_space_group_name_H-M "P -1"
_symmetry_group_IT_number 2
_symmetry_cell_setting 'triclinic'
loop_
_space_group_symop_operation_xyz
x,y,z
-x,-y,-z
loop_
_atom_site_type_symbol
_atom_site_label
_atom_site_fract_x
_atom_site_fract_y
_atom_site_fract_z
Si Si1 0.301434 0.883299 0.156021
Si Si2 0.667500 0.553035 0.684433
Si Si3 0.828728 0.292832 0.501090
Si Si4 0.698464 0.758580 0.269064
Si Si5 0.477329 0.699850 0.958382
Si Si6 0.616144 0.241633 0.363113
Si Si7 0.877813 0.915790 0.630337
Si Si8 0.081839 0.166562 0.659047
O O1 0.291007 0.622744 0.269935
O O2 0.210200 0.843522 0.273233
O O3 0.414961 0.045417 0.167307
O O4 0.309944 0.034807 0.930220
O O5 0.662827 0.705879 0.463622
O O6 0.753257 0.733876 0.725451
O O7 0.558899 0.378501 0.837978
O O8 0.719252 0.230939 0.432589
O O9 0.899103 0.580718 0.400456
O O10 0.888018 0.181421 0.481579
O O11 0.635937 0.490139 0.319599
O O12 0.823389 0.854746 0.243773
O O13 0.389255 0.711381 0.838843
O O14 0.500000 0.500000 0.000000
O O15 0.500000 0.000000 0.500000
O O16 0.900165 0.830931 0.519768
O O17 0.960117 0.947540 0.756902
#
# Coordination Sequence:
#
# PCOD9103948 Si02
#       8
#     2   2   2   2   2   2   2   2
#     4  12  22  41  63  93 130 170 210 261 323 379
#     4  11  24  43  61  93 127 167 217 266 315 385
#     4  11  21  39  68  94 131 168 213 265 324 379
#     4  10  22  41  65  87 130 170 207 267 321 374
#     4  12  24  39  61  90 126 170 213 257 319 379
#     4  11  21  39  62  94 131 165 215 263 308 386
#     4  10  20  38  70  89 124 172 211 264 332 372
#     4   9  20  42  63  93 126 165 216 269 320 382
#
# _framework density 22.262826
#
# number of rings (size 3 to 8) (size 9 to 14) (size 15 to 20)
#    0.000    1.250    6.250    1.500    0.000    2.500 
#    0.000    1.250    2.750    0.000    0.000    0.000 
#    0.000    0.000    0.000    0.000    0.000    0.000 
#
# Total GULP energy -89270.676965 kJ/mol
# GULP energy per Si atom -5579.417310 kJ/mol
# Density = 2.221216 g / cm^3
# Si number density = 22.262826 Si / 1000 Ang^3
#
#
#
# Elastic Constant Matrix: (Units=GPa)
#
#
# Indices 1 2 3 4 5 6 
#
# 1 33.7950 18.4874 -0.8825 8.0016 9.2414 0.1629
# 2 18.4874 114.3191 5.7552 0.9761 15.7788 13.0710
# 3 -0.8825 5.7552 96.1762 11.4948 12.7546 7.7328
# 4 8.0016 0.9761 11.4948 14.7940 3.8225 5.1154
# 5 9.2414 15.7788 12.7546 3.8225 21.9986 6.4146
# 6 0.1629 13.0710 7.7328 5.1154 6.4146 44.5690
#
#
#
# Elastic Compliance Matrix: (Units=1/GPa)
#
#
# Indices 1 2 3 4 5 6 
#
# 1 0.042497 -0.005600 0.005123 -0.024851 -0.014085 0.005478
# 2 -0.005600 0.010662 -0.000371 0.004925 -0.005097 -0.002874
# 3 0.005123 -0.000371 0.012727 -0.010777 -0.007448 0.000191
# 4 -0.024851 0.004925 -0.010777 0.092577 0.000018 -0.010112
# 5 -0.014085 -0.005097 -0.007448 0.000018 0.061082 -0.005955
# 6 0.005478 -0.002874 0.000191 -0.010112 -0.005955 0.025244
#
#
# Mechanical properties :
#
#
# Convention : Reuss Voigt Hill
#
# Bulk Modulus (GPa) = 15.57916 32.33449 23.95683
# Shear Modulus (GPa) = 18.66493 31.00100 24.83296
#
# Velocity S-wave (km/s) = 2.89864 3.73567 3.34345
# Velocity P-wave (km/s) = 4.26800 5.75869 5.06845
#
# Compressibility (1/GPa) = 0.06418830
#
# Stress axis : x y z
#
# Youngs Moduli (GPa) = 23.53124 93.79194 78.57190
#
# Poissons Ratio (x) = 0.52528 -0.40250
# Poissons Ratio (y) = 0.13179 0.02914
# Poissons Ratio (z) = -0.12054 0.03479
#
# Static dielectric constant tensor:
#      x y z
#    x 1.876220 -0.291780 0.137140 
#    y -0.291780 0.751340 0.603660 
#    z 0.137140 0.603660 1.491670 
# 
# From -- ./inp_files/328467.got.cif
#   From: 2010.05.17/outbox.cif.g08.bks.cpg/sg2_165_cif.got.tgz:328467.got - 2010.06.03 11:33:40.
