data_PCOD9103085
_publ_section_title
;
Structure prediction by ZEFSAII (Michael W. Deem and Ramdas Pophale) SiO2 
 PCOD9103085
Probable space group: P -1
;
_chemical_formula_sum "Si O2"
_cell_formula_units_Z 14
_cell_length_a 16.482893
_cell_length_b 5.731669
_cell_length_c 8.178436
_cell_angle_alpha 79.194614
_cell_angle_beta 127.098647
_cell_angle_gamma 119.157325
_cell_volume 531.860044
_symmetry_space_group_name_H-M "P -1"
_symmetry_group_IT_number 2
_symmetry_cell_setting 'triclinic'
loop_
_space_group_symop_operation_xyz
x,y,z
-x,-y,-z
loop_
_atom_site_type_symbol
_atom_site_label
_atom_site_fract_x
_atom_site_fract_y
_atom_site_fract_z
Si Si1 0.274765 0.957461 0.046528
Si Si2 0.318451 0.213646 0.395300
Si Si3 0.554925 0.244470 0.700372
Si Si4 0.910025 0.571303 0.970320
Si Si5 0.625543 0.544925 0.091783
Si Si6 0.832535 0.556298 0.513861
Si Si7 0.899107 0.105991 0.601179
O O1 0.397923 0.967009 0.223770
O O2 0.252314 0.092775 0.160544
O O3 0.176655 0.650759 0.978229
O O4 0.293427 0.136054 0.887960
O O5 0.419285 0.134846 0.555580
O O6 0.389176 0.533959 0.405216
O O7 0.225124 0.068827 0.438557
O O8 0.603485 0.397919 0.910280
O O9 0.994006 0.821009 0.153107
O O10 0.837040 0.550254 0.720208
O O11 0.000000 0.500000 0.000000
O O12 0.701383 0.451910 0.305886
O O13 0.500000 0.500000 0.000000
O O14 0.892072 0.386064 0.530550
O O15 0.900966 0.877976 0.516131
#
# Coordination Sequence:
#
# PCOD9103085 Si02
#       7
#     2   2   2   2   2   2   2
#     4  11  22  41  67  96 138 172 234 281 347 404
#     4  10  20  38  65 101 131 174 228 287 344 400
#     4  10  23  38  65  97 136 177 229 284 343 413
#     4  10  21  44  72 101 132 179 233 292 341 402
#     4  11  27  44  63  97 142 187 226 279 350 420
#     4  11  24  42  70 102 136 181 232 282 344 408
#     4  11  23  42  74 101 136 178 237 284 344 405
#
# _framework density 26.322714000000001
#
# number of rings (size 3 to 8) (size 9 to 14) (size 15 to 20)
#    0.000    1.429    2.857    2.571    4.000    2.857 
#    2.571    3.571    0.000    0.000    0.000    0.000 
#    0.000    0.000    0.000    0.000    0.000    0.000 
#
# Total GULP energy -78199.866080 kJ/mol
# GULP energy per Si atom -5585.704720 kJ/mol
# Density = 2.626280 g / cm^3
# Si number density = 26.322714 Si / 1000 Ang^3
#
#
#
# Elastic Constant Matrix: (Units=GPa)
#
#
# Indices 1 2 3 4 5 6 
#
# 1 94.0402 39.8635 35.2146 -8.4955 9.4405 20.8859
# 2 39.8635 111.5770 44.0383 -3.7105 6.6600 -11.1387
# 3 35.2146 44.0383 147.0446 -10.5546 22.2230 12.0254
# 4 -8.4955 -3.7105 -10.5546 38.2284 -9.7479 8.3894
# 5 9.4405 6.6600 22.2230 -9.7479 35.0901 5.0893
# 6 20.8859 -11.1387 12.0254 8.3894 5.0893 46.5402
#
#
#
# Elastic Compliance Matrix: (Units=1/GPa)
#
#
# Indices 1 2 3 4 5 6 
#
# 1 0.016085 -0.006165 -0.000914 0.004800 0.000109 -0.009335
# 2 -0.006165 0.013074 -0.003131 -0.002726 -0.000652 0.007267
# 3 -0.000914 -0.003131 0.008870 0.001456 -0.004017 -0.002454
# 4 0.004800 -0.002726 0.001456 0.031696 0.008535 -0.009830
# 5 0.000109 -0.000652 -0.004017 0.008535 0.034151 -0.004440
# 6 -0.009335 0.007267 -0.002454 -0.009830 -0.004440 0.030307
#
#
# Mechanical properties :
#
#
# Convention : Reuss Voigt Hill
#
# Bulk Modulus (GPa) = 56.78822 65.65496 61.22159
# Shear Modulus (GPa) = 31.15790 39.54144 35.34967
#
# Velocity S-wave (km/s) = 3.44421 3.88000 3.66858
# Velocity P-wave (km/s) = 6.11862 6.71335 6.42287
#
# Compressibility (1/GPa) = 0.01760929
#
# Stress axis : x y z
#
# Youngs Moduli (GPa) = 62.16831 76.48560 112.74573
#
# Poissons Ratio (x) = 0.47152 0.10309
# Poissons Ratio (y) = 0.38325 0.35299
# Poissons Ratio (z) = 0.05685 0.23946
#
# Static dielectric constant tensor:
#      x y z
#    x 2.068020 -0.078300 -0.010840 
#    y -0.078300 2.176590 -0.032640 
#    z -0.010840 -0.032640 2.170760 
# 
# From -- ./inp_files/64020.got.cif
#   From: 2010.05.17/outbox.cif.g08.bks.cpg/sg2_33_cif.got.tgz:64020.got - 2010.06.03 11:33:40.
