data_PCOD9103362
_publ_section_title
;
Structure prediction by ZEFSAII (Michael W. Deem and Ramdas Pophale) SiO2 
 PCOD9103362
Probable space group: P -1
;
_chemical_formula_sum "Si O2"
_cell_formula_units_Z 15
_cell_length_a 10.166434
_cell_length_b 8.036483
_cell_length_c 16.134625
_cell_angle_alpha 45.982101
_cell_angle_beta 45.641009
_cell_angle_gamma 47.656579
_cell_volume 630.974496
_symmetry_space_group_name_H-M "P -1"
_symmetry_group_IT_number 2
_symmetry_cell_setting 'triclinic'
loop_
_space_group_symop_operation_xyz
x,y,z
-x,-y,-z
loop_
_atom_site_type_symbol
_atom_site_label
_atom_site_fract_x
_atom_site_fract_y
_atom_site_fract_z
Si Si1 0.165773 0.948587 0.872883
Si Si2 0.798555 0.316766 0.587181
Si Si3 0.431345 0.284925 0.145044
Si Si4 0.552523 0.109670 0.855233
Si Si5 0.125674 0.795379 0.634338
Si Si6 0.175351 0.571917 0.864813
Si Si7 0.500000 0.500000 0.500000
Si Si8 0.010844 0.544168 0.312261
O O1 0.374773 0.921839 0.829234
O O2 0.227731 0.698387 0.878262
O O3 0.066673 0.170377 0.776503
O O4 0.000000 0.000000 0.000000
O O5 0.704361 0.256693 0.733657
O O6 0.624852 0.381820 0.572898
O O7 0.904873 0.511223 0.454583
O O8 0.976728 0.058475 0.580451
O O9 0.245635 0.411591 0.243325
O O10 0.367605 0.128140 0.157904
O O11 0.500000 0.500000 0.000000
O O12 0.347567 0.322564 0.846188
O O13 0.500000 0.000000 0.000000
O O14 0.108670 0.752386 0.753636
O O15 0.352617 0.741788 0.532260
O O16 0.082313 0.579477 0.676428
O O17 0.000000 0.500000 0.000000
#
# Coordination Sequence:
#
# PCOD9103362 Si02
#       8
#     2   2   2   2   2   2   1   2
#     4  12  26  47  70 101 148 193 241 299 372 436
#     4  11  24  42  72 109 142 187 242 299 358 432
#     4  12  25  44  73 107 144 189 240 295 369 432
#     4  12  25  45  75 107 145 191 244 305 356 432
#     4  11  22  42  72 106 143 178 246 295 358 429
#     4  12  26  45  71 105 141 189 248 309 361 431
#     4  10  20  38  66 104 142 178 232 286 360 420
#     4  11  24  43  72 106 140 187 235 299 358 441
#
# _framework density 23.772751
#
# number of rings (size 3 to 8) (size 9 to 14) (size 15 to 20)
#    0.000    0.533    4.000    5.600    1.867    0.000 
#    2.400    1.333    0.000    0.000    0.000    0.000 
#    0.000    0.000    0.000    0.000    0.000    0.000 
#
# Total GULP energy -83551.405132 kJ/mol
# GULP energy per Si atom -5570.093675 kJ/mol
# Density = 2.371864 g / cm^3
# Si number density = 23.772751 Si / 1000 Ang^3
#
#
#
# Elastic Constant Matrix: (Units=GPa)
#
#
# Indices 1 2 3 4 5 6 
#
# 1 51.8801 16.1236 22.0981 0.0709 24.2504 -5.3626
# 2 16.1236 107.1917 26.6890 -2.9492 2.3740 -34.2848
# 3 22.0981 26.6890 168.9452 23.1518 -3.6911 -17.4707
# 4 0.0709 -2.9492 23.1518 30.2825 -4.8833 2.5666
# 5 24.2504 2.3740 -3.6911 -4.8833 28.5174 -4.9747
# 6 -5.3626 -34.2848 -17.4707 2.5666 -4.9747 52.7545
#
#
#
# Elastic Compliance Matrix: (Units=1/GPa)
#
#
# Indices 1 2 3 4 5 6 
#
# 1 0.038592 -0.005182 -0.005175 -0.001776 -0.034108 -0.004288
# 2 -0.005182 0.012748 -0.000669 0.001895 0.004963 0.007912
# 3 -0.005175 -0.000669 0.007795 -0.005414 0.004948 0.002350
# 4 -0.001776 0.001895 -0.005414 0.038633 0.006924 -0.001968
# 5 -0.034108 0.004963 0.004948 0.006924 0.066767 0.007356
# 6 -0.004288 0.007912 0.002350 -0.001968 0.007356 0.025230
#
#
# Mechanical properties :
#
#
# Convention : Reuss Voigt Hill
#
# Bulk Modulus (GPa) = 26.96569 50.87092 38.91831
# Shear Modulus (GPa) = 22.30383 39.85130 31.07756
#
# Velocity S-wave (km/s) = 3.06634 4.09876 3.61955
# Velocity P-wave (km/s) = 4.88921 6.62156 5.82020
#
# Compressibility (1/GPa) = 0.03708416
#
# Stress axis : x y z
#
# Youngs Moduli (GPa) = 25.91209 78.44343 128.29316
#
# Poissons Ratio (x) = 0.40646 0.66387
# Poissons Ratio (y) = 0.13426 0.08585
# Poissons Ratio (z) = 0.13408 0.05249
#
# Static dielectric constant tensor:
#      x y z
#    x 1.799000 -0.053260 -0.051930 
#    y -0.053260 1.808830 0.001860 
#    z -0.051930 0.001860 1.920000 
# 
# From -- ./inp_files/565676.got.cif
#   From: 2010.05.17/outbox.cif.g08.bks.cpg/sg2_283_cif.got.tgz:565676.got - 2010.06.03 11:33:40.
