data_PCOD9103299
_publ_section_title
;
Structure prediction by ZEFSAII (Michael W. Deem and Ramdas Pophale) SiO2 
 PCOD9103299
Probable space group: P -1
;
_chemical_formula_sum "Si O2"
_cell_formula_units_Z 16
_cell_length_a 18.437264
_cell_length_b 24.172619
_cell_length_c 5.531307
_cell_angle_alpha 67.288527
_cell_angle_beta 76.982136
_cell_angle_gamma 18.122193
_cell_volume 615.072129
_symmetry_space_group_name_H-M "P -1"
_symmetry_group_IT_number 2
_symmetry_cell_setting 'triclinic'
loop_
_space_group_symop_operation_xyz
x,y,z
-x,-y,-z
loop_
_atom_site_type_symbol
_atom_site_label
_atom_site_fract_x
_atom_site_fract_y
_atom_site_fract_z
Si Si1 0.920696 0.893067 0.298223
Si Si2 0.890636 0.376352 0.290159
Si Si3 0.417004 0.232830 0.820572
Si Si4 0.558566 0.227085 0.367388
Si Si5 0.781978 0.221807 0.839296
Si Si6 0.315733 0.743228 0.645933
Si Si7 0.338770 0.060846 0.156748
Si Si8 0.858310 0.705608 0.482954
O O1 0.841452 0.984201 0.462152
O O2 0.109474 0.689041 0.488227
O O3 0.635907 0.088470 0.085788
O O4 0.051625 0.846168 0.134002
O O5 0.037268 0.314471 0.437291
O O6 0.095469 0.211290 0.191136
O O7 0.613993 0.616224 0.995540
O O8 0.423382 0.277203 0.525106
O O9 0.520671 0.089678 0.890728
O O10 0.108105 0.468468 0.729499
O O11 0.569127 0.278717 0.435001
O O12 0.639913 0.331305 0.497940
O O13 0.606608 0.343671 0.003200
O O14 0.000000 0.000000 0.000000
O O15 0.000000 0.000000 0.500000
O O16 0.575957 0.894069 0.446325
O O17 0.209810 0.219403 0.865123
#
# Coordination Sequence:
#
# PCOD9103299 Si02
#       8
#     2   2   2   2   2   2   2   2
#     4  12  24  40  69  94 135 174 220 282 334 407
#     4  12  25  44  62 104 128 178 220 274 344 402
#     4  12  23  42  68 100 124 180 230 270 338 408
#     4  12  24  40  69  94 135 174 220 282 334 407
#     4  10  20  38  65  96 131 181 226 275 349 405
#     4  10  20  38  65  96 131 181 226 275 349 405
#     4  11  24  43  65  95 136 172 218 282 338 400
#     4  11  24  43  65  95 136 172 218 282 338 400
#
# _framework density 26.013207999999999
#
# number of rings (size 3 to 8) (size 9 to 14) (size 15 to 20)
#    0.000    0.750    7.500    2.250    0.000    0.000 
#    0.000    2.500    0.000    0.000    0.000    0.000 
#    0.000    0.000    0.000    0.000    0.000    0.000 
#
# Total GULP energy -89520.792856 kJ/mol
# GULP energy per Si atom -5595.049554 kJ/mol
# Density = 2.595400 g / cm^3
# Si number density = 26.013208 Si / 1000 Ang^3
#
#
#
# Elastic Constant Matrix: (Units=GPa)
#
#
# Indices 1 2 3 4 5 6 
#
# 1 103.2455 3.1279 8.0440 -0.9034 4.4399 6.0564
# 2 3.1279 61.3383 13.0479 -9.1414 0.6703 7.5112
# 3 8.0440 13.0479 70.3154 2.2844 12.2324 13.6879
# 4 -0.9034 -9.1414 2.2844 36.9248 0.0597 0.1941
# 5 4.4399 0.6703 12.2324 0.0597 43.1068 1.0448
# 6 6.0564 7.5112 13.6879 0.1941 1.0448 34.9534
#
#
#
# Elastic Compliance Matrix: (Units=1/GPa)
#
#
# Indices 1 2 3 4 5 6 
#
# 1 0.009862 -0.000136 -0.000707 0.000260 -0.000780 -0.001381
# 2 -0.000136 0.017976 -0.003064 0.004650 0.000663 -0.002685
# 3 -0.000707 -0.003064 0.016815 -0.001779 -0.004512 -0.005659
# 4 0.000260 0.004650 -0.001779 0.028352 0.000379 -0.000516
# 5 -0.000780 0.000663 -0.004512 0.000379 0.024523 0.001024
# 6 -0.001381 -0.002685 -0.005659 -0.000516 0.001024 0.031614
#
#
# Mechanical properties :
#
#
# Convention : Reuss Voigt Hill
#
# Bulk Modulus (GPa) = 27.14467 31.48208 29.31337
# Shear Modulus (GPa) = 33.50406 37.04231 35.27318
#
# Velocity S-wave (km/s) = 3.59271 3.77766 3.68635
# Velocity P-wave (km/s) = 5.26001 5.58178 5.42328
#
# Compressibility (1/GPa) = 0.03683964
#
# Stress axis : x y z
#
# Youngs Moduli (GPa) = 101.40282 55.62907 59.46956
#
# Poissons Ratio (x) = 0.00758 0.04204
# Poissons Ratio (y) = 0.01381 0.18220
# Poissons Ratio (z) = 0.07168 0.17043
#
# Static dielectric constant tensor:
#      x y z
#    x 2.060230 -0.024760 0.002150 
#    y -0.024760 2.047350 0.046470 
#    z 0.002150 0.046470 2.230640 
# 
# From -- ./inp_files/106128.got.cif
#   From: 2010.05.17/outbox.cif.g08.bks.cpg/sg2_54_cif.got.tgz:106128.got - 2010.06.03 11:33:40.
