data_PCOD9103417
_publ_section_title
;
Structure prediction by ZEFSAII (Michael W. Deem and Ramdas Pophale) SiO2 
 PCOD9103417
Probable space group: P -1
;
_chemical_formula_sum "Si O2"
_cell_formula_units_Z 16
_cell_length_a 14.702774
_cell_length_b 11.352226
_cell_length_c 14.920642
_cell_angle_alpha 116.081313
_cell_angle_beta 33.766987
_cell_angle_gamma 137.760586
_cell_volume 821.064566
_symmetry_space_group_name_H-M "P -1"
_symmetry_group_IT_number 2
_symmetry_cell_setting 'triclinic'
loop_
_space_group_symop_operation_xyz
x,y,z
-x,-y,-z
loop_
_atom_site_type_symbol
_atom_site_label
_atom_site_fract_x
_atom_site_fract_y
_atom_site_fract_z
Si Si1 0.254741 0.561276 0.032646
Si Si2 0.724989 0.001869 0.400053
Si Si3 0.294165 0.265294 0.577904
Si Si4 0.780429 0.165260 0.215960
Si Si5 0.245766 0.082893 0.369516
Si Si6 0.358168 0.865659 0.161115
Si Si7 0.732541 0.670628 0.927782
Si Si8 0.784147 0.008820 0.984339
O O1 0.219995 0.651840 0.167562
O O2 0.290248 0.438824 0.005645
O O3 0.001306 0.401072 0.130759
O O4 0.503941 0.739627 0.833141
O O5 0.681951 0.822458 0.389041
O O6 0.487625 0.931356 0.610283
O O7 0.753095 0.061688 0.293758
O O8 0.991158 0.193662 0.290944
O O9 0.500000 0.500000 0.500000
O O10 0.298262 0.180486 0.455788
O O11 0.018179 0.156636 0.775709
O O12 0.846463 0.121809 0.061249
O O13 0.216357 0.906772 0.330490
O O14 0.000000 0.000000 0.500000
O O15 0.553625 0.933618 0.097084
O O16 0.500000 0.000000 0.000000
O O17 0.734144 0.827787 0.991120
O O18 0.500000 0.500000 0.000000
#
# Coordination Sequence:
#
# PCOD9103417 Si02
#       8
#     2   2   2   2   2   2   2   2
#     4  10  21  40  64  90 123 167 210 245 317 366
#     4   9  22  39  63  87 131 152 206 257 310 354
#     4  11  23  38  60  88 124 164 202 249 307 370
#     4  10  21  41  64  91 122 160 203 263 304 369
#     4  11  24  39  59  89 126 161 209 260 301 362
#     4  10  21  39  59  85 120 163 202 250 303 362
#     4  10  20  38  66  90 124 161 202 256 304 365
#     4  11  22  39  65  90 124 161 207 255 311 359
#
# _framework density 19.486896999999999
#
# number of rings (size 3 to 8) (size 9 to 14) (size 15 to 20)
#    0.000    1.750    1.250    3.000    1.750    8.500 
#    0.000    7.500    0.000    0.000    0.000    0.000 
#    0.000    0.000    0.000    0.000    0.000    0.000 
#
# Total GULP energy -89218.437052 kJ/mol
# GULP energy per Si atom -5576.152316 kJ/mol
# Density = 1.944254 g / cm^3
# Si number density = 19.486897 Si / 1000 Ang^3
#
#
#
# Elastic Constant Matrix: (Units=GPa)
#
#
# Indices 1 2 3 4 5 6 
#
# 1 46.0708 40.5244 34.8217 5.8080 -23.3108 -1.1882
# 2 40.5244 138.2447 60.2396 3.9833 -12.4145 15.1788
# 3 34.8217 60.2396 110.6228 5.6886 -17.4983 8.6910
# 4 5.8080 3.9833 5.6886 34.3660 0.0308 4.2162
# 5 -23.3108 -12.4145 -17.4983 0.0308 33.4156 0.8497
# 6 -1.1882 15.1788 8.6910 4.2162 0.8497 31.9917
#
#
#
# Elastic Compliance Matrix: (Units=1/GPa)
#
#
# Indices 1 2 3 4 5 6 
#
# 1 0.051107 -0.010485 -0.006208 -0.007499 0.028289 0.008797
# 2 -0.010485 0.012001 -0.003644 0.001624 -0.004634 -0.005185
# 3 -0.006208 -0.003644 0.013387 -0.000487 0.001380 -0.002111
# 4 -0.007499 0.001624 -0.000487 0.030858 -0.004787 -0.004857
# 5 0.028289 -0.004634 0.001380 -0.004787 0.048610 0.002214
# 6 0.008797 -0.005185 -0.002111 -0.004857 0.002214 0.035199
#
#
# Mechanical properties :
#
#
# Convention : Reuss Voigt Hill
#
# Bulk Modulus (GPa) = 27.91696 62.90108 45.40902
# Shear Modulus (GPa) = 20.51040 30.57817 25.54429
#
# Velocity S-wave (km/s) = 3.24778 3.96557 3.62449
# Velocity P-wave (km/s) = 5.33116 7.30181 6.39287
#
# Compressibility (1/GPa) = 0.03582052
#
# Stress axis : x y z
#
# Youngs Moduli (GPa) = 19.56676 83.32400 74.69699
#
# Poissons Ratio (x) = 0.87368 0.46375
# Poissons Ratio (y) = 0.20517 0.27219
# Poissons Ratio (z) = 0.12148 0.30363
#
# Static dielectric constant tensor:
#      x y z
#    x 1.724550 -0.035300 -0.011860 
#    y -0.035300 1.710000 -0.010960 
#    z -0.011860 -0.010960 1.709280 
# 
# From -- ./inp_files/178996.got.cif
#   From: 2010.05.17/outbox.cif.g08.bks.cpg/sg2_90_cif.got.tgz:178996.got - 2010.06.03 11:33:40.
