data_PCOD9103076
_publ_section_title
;
Structure prediction by ZEFSAII (Michael W. Deem and Ramdas Pophale) SiO2 
 PCOD9103076
Probable space group: P -1
;
_chemical_formula_sum "Si O2"
_cell_formula_units_Z 16
_cell_length_a 12.622737
_cell_length_b 5.015579
_cell_length_c 20.283704
_cell_angle_alpha 71.698097
_cell_angle_beta 35.307055
_cell_angle_gamma 93.026271
_cell_volume 582.252289
_symmetry_space_group_name_H-M "P -1"
_symmetry_group_IT_number 2
_symmetry_cell_setting 'triclinic'
loop_
_space_group_symop_operation_xyz
x,y,z
-x,-y,-z
loop_
_atom_site_type_symbol
_atom_site_label
_atom_site_fract_x
_atom_site_fract_y
_atom_site_fract_z
Si Si1 0.992420 0.507898 0.292857
Si Si2 0.802224 0.218903 0.055022
Si Si3 0.381867 0.250513 0.016764
Si Si4 0.513423 0.278930 0.281289
Si Si5 0.103934 0.992116 0.725995
Si Si6 0.608183 0.286934 0.767672
Si Si7 0.770538 0.698095 0.221540
Si Si8 0.939105 0.241546 0.477100
O O1 0.248838 0.839194 0.129559
O O2 0.868010 0.695831 0.354728
O O3 0.977515 0.270254 0.376584
O O4 0.875431 0.265444 0.308205
O O5 0.749525 0.437226 0.112083
O O6 0.602380 0.076501 0.115692
O O7 0.778104 0.954021 0.143549
O O8 0.016572 0.317996 0.897373
O O9 0.547185 0.364814 0.863249
O O10 0.500000 0.500000 0.000000
O O11 0.161675 0.230871 0.107359
O O12 0.412062 0.479087 0.291897
O O13 0.563261 0.335265 0.328886
O O14 0.321565 0.906860 0.380490
O O15 0.226319 0.157179 0.719829
O O16 0.856172 0.377281 0.635147
O O17 0.000000 0.000000 0.500000
#
# Coordination Sequence:
#
# PCOD9103076 Si02
#       8
#     2   2   2   2   2   2   2   2
#     4  10  24  46  69 105 141 187 237 291 359 428
#     4  10  20  38  64  99 135 178 237 292 356 416
#     4  10  22  39  68 102 140 182 229 294 359 425
#     4  10  23  40  67  98 137 190 238 291 347 423
#     4  10  23  42  70 101 144 181 230 296 362 423
#     4  10  21  40  61 103 138 178 233 290 358 415
#     4  10  21  40  65 102 135 181 232 301 354 416
#     4  10  23  47  69  98 144 188 244 287 351 423
#
# _framework density 27.479496999999999
#
# number of rings (size 3 to 8) (size 9 to 14) (size 15 to 20)
#    0.750    1.250    1.250    1.125    1.750    5.500 
#    9.000    1.250    0.000    0.000    0.000    0.000 
#    0.000    0.000    0.000    0.000    0.000    0.000 
#
# Total GULP energy -89287.724225 kJ/mol
# GULP energy per Si atom -5580.482764 kJ/mol
# Density = 2.741695 g / cm^3
# Si number density = 27.479497 Si / 1000 Ang^3
#
#
#
# Elastic Constant Matrix: (Units=GPa)
#
#
# Indices 1 2 3 4 5 6 
#
# 1 132.6999 57.7611 35.1837 -20.5144 6.4774 37.8583
# 2 57.7611 149.4639 25.5560 -1.3139 -9.7934 28.0559
# 3 35.1837 25.5560 88.4865 -4.4798 -11.7431 4.8793
# 4 -20.5144 -1.3139 -4.4798 25.1276 1.9629 -9.5918
# 5 6.4774 -9.7934 -11.7431 1.9629 36.3824 -12.5663
# 6 37.8583 28.0559 4.8793 -9.5918 -12.5663 59.2482
#
#
#
# Elastic Compliance Matrix: (Units=1/GPa)
#
#
# Indices 1 2 3 4 5 6 
#
# 1 0.014208 -0.003762 -0.004806 0.008408 -0.008050 -0.007248
# 2 -0.003762 0.008732 -0.000800 -0.003610 0.002352 -0.001751
# 3 -0.004806 -0.000800 0.014072 -0.000601 0.006444 0.003560
# 4 0.008408 -0.003610 -0.000601 0.047937 -0.004118 0.003273
# 5 -0.008050 0.002352 0.006444 -0.004118 0.035428 0.010347
# 6 -0.007248 -0.001751 0.003560 0.003273 0.010347 0.024769
#
#
# Mechanical properties :
#
#
# Convention : Reuss Voigt Hill
#
# Bulk Modulus (GPa) = 54.71755 67.51689 61.11722
# Shear Modulus (GPa) = 29.41614 40.96161 35.18887
#
# Velocity S-wave (km/s) = 3.27536 3.86505 3.58236
# Velocity P-wave (km/s) = 5.85315 6.67393 6.27697
#
# Compressibility (1/GPa) = 0.01827567
#
# Stress axis : x y z
#
# Youngs Moduli (GPa) = 70.38228 114.51714 71.06504
#
# Poissons Ratio (x) = 0.43084 0.34153
# Poissons Ratio (y) = 0.26479 0.05686
# Poissons Ratio (z) = 0.33825 0.09163
#
# Static dielectric constant tensor:
#      x y z
#    x 2.156700 0.044290 0.002350 
#    y 0.044290 2.296420 -0.084030 
#    z 0.002350 -0.084030 2.277140 
# 
# From -- ./inp_files/592744.got.cif
#   From: 2010.05.17/outbox.cif.g08.bks.cpg/sg2_297_cif.got.tgz:592744.got - 2010.06.03 11:33:40.
