data_PCOD9103552
_publ_section_title
;
Structure prediction by ZEFSAII (Michael W. Deem and Ramdas Pophale) SiO2 
 PCOD9103552
Probable space group: P -1
;
_chemical_formula_sum "Si O2"
_cell_formula_units_Z 13
_cell_length_a 8.143290
_cell_length_b 6.590905
_cell_length_c 15.580535
_cell_angle_alpha 126.584167
_cell_angle_beta 116.300381
_cell_angle_gamma 88.838185
_cell_volume 566.396366
_symmetry_space_group_name_H-M "P -1"
_symmetry_group_IT_number 2
_symmetry_cell_setting 'triclinic'
loop_
_space_group_symop_operation_xyz
x,y,z
-x,-y,-z
loop_
_atom_site_type_symbol
_atom_site_label
_atom_site_fract_x
_atom_site_fract_y
_atom_site_fract_z
Si Si1 0.772427 0.909963 0.233076
Si Si2 0.735774 0.339611 0.672592
Si Si3 0.920545 0.480108 0.073684
Si Si4 0.834502 0.813806 0.526726
Si Si5 0.554169 0.968097 0.907068
Si Si6 0.500000 0.500000 0.500000
Si Si7 0.559583 0.622965 0.270479
O O1 0.861574 0.742973 0.147675
O O2 0.640648 0.052090 0.193271
O O3 0.624568 0.696923 0.208261
O O4 0.942170 0.117259 0.379930
O O5 0.637155 0.463900 0.607701
O O6 0.565495 0.213071 0.673242
O O7 0.921017 0.518209 0.816096
O O8 0.800017 0.100181 0.590040
O O9 0.733750 0.214828 0.976978
O O10 0.000000 0.500000 0.000000
O O11 0.695599 0.635058 0.522282
O O12 0.756043 0.678425 0.384225
O O13 0.579807 0.682331 0.831169
O O14 0.500000 0.000000 0.000000
#
# Coordination Sequence:
#
# PCOD9103552 Si02
#       7
#     2   2   2   2   2   1   2
#     4  11  25  45  69  95 139 179 229 284 343 403
#     4  10  24  43  70 102 136 177 232 284 342 407
#     4  11  25  46  72  98 139 188 232 284 340 409
#     4  10  24  43  71 100 134 175 230 284 342 408
#     4  12  27  43  67 100 140 181 227 279 337 414
#     4  10  20  38  66  98 136 164 220 284 338 394
#     4  11  23  43  69 100 136 182 219 288 342 408
#
# _framework density 22.952124000000001
#
# number of rings (size 3 to 8) (size 9 to 14) (size 15 to 20)
#    0.000    1.231    1.538    3.692    4.308   11.077 
#    0.000    0.000    0.000    0.000    0.000    0.000 
#    0.000    0.000    0.000    0.000    0.000    0.000 
#
# Total GULP energy -72454.079889 kJ/mol
# GULP energy per Si atom -5573.390761 kJ/mol
# Density = 2.289988 g / cm^3
# Si number density = 22.952124 Si / 1000 Ang^3
#
#
#
# Elastic Constant Matrix: (Units=GPa)
#
#
# Indices 1 2 3 4 5 6 
#
# 1 68.0282 32.5227 17.9579 -17.4712 10.3517 0.0499
# 2 32.5227 48.7035 21.7849 -18.7364 -5.8607 11.0974
# 3 17.9579 21.7849 89.8331 -6.5500 12.2836 -9.6780
# 4 -17.4712 -18.7364 -6.5500 28.5032 3.4944 1.6377
# 5 10.3517 -5.8607 12.2836 3.4944 48.4760 -11.3953
# 6 0.0499 11.0974 -9.6780 1.6377 -11.3953 29.0019
#
#
#
# Elastic Compliance Matrix: (Units=1/GPa)
#
#
# Indices 1 2 3 4 5 6 
#
# 1 0.024816 -0.016583 0.000778 0.005152 -0.007049 0.003502
# 2 -0.016583 0.049736 -0.010314 0.020695 0.005647 -0.021394
# 3 0.000778 -0.010314 0.014508 -0.003042 -0.003045 0.007762
# 4 0.005152 0.020695 -0.003042 0.052537 -0.004863 -0.013820
# 5 -0.007049 0.005647 -0.003045 -0.004863 0.025627 0.007179
# 6 0.003502 -0.021394 0.007762 -0.013820 0.007179 0.048852
#
#
# Mechanical properties :
#
#
# Convention : Reuss Voigt Hill
#
# Bulk Modulus (GPa) = 27.15900 39.01064 33.08482
# Shear Modulus (GPa) = 17.81970 30.14950 23.98460
#
# Velocity S-wave (km/s) = 2.78939 3.62827 3.23613
# Velocity P-wave (km/s) = 4.71517 5.88098 5.33004
#
# Compressibility (1/GPa) = 0.03682021
#
# Stress axis : x y z
#
# Youngs Moduli (GPa) = 40.29681 20.10636 68.92577
#
# Poissons Ratio (x) = 0.33343 -0.05359
# Poissons Ratio (y) = 0.66825 0.71090
# Poissons Ratio (z) = -0.03133 0.20738
#
# Static dielectric constant tensor:
#      x y z
#    x 1.890410 -0.043240 -0.037660 
#    y -0.043240 1.870380 0.028510 
#    z -0.037660 0.028510 1.922900 
# 
# From -- ./inp_files/36135.got.cif
#   From: 2010.05.17/outbox.cif.g08.bks.cpg/sg2_19_cif.got.tgz:36135.got - 2010.06.03 11:33:40.
