data_PCOD9103978
_publ_section_title
;
Structure prediction by ZEFSAII (Michael W. Deem and Ramdas Pophale) SiO2 
 PCOD9103978
Probable space group: P -1
;
_chemical_formula_sum "Si O2"
_cell_formula_units_Z 16
_cell_length_a 19.640775
_cell_length_b 10.607500
_cell_length_c 8.762939
_cell_angle_alpha 103.440184
_cell_angle_beta 140.526865
_cell_angle_gamma 47.072846
_cell_volume 659.896410
_symmetry_space_group_name_H-M "P -1"
_symmetry_group_IT_number 2
_symmetry_cell_setting 'triclinic'
loop_
_space_group_symop_operation_xyz
x,y,z
-x,-y,-z
loop_
_atom_site_type_symbol
_atom_site_label
_atom_site_fract_x
_atom_site_fract_y
_atom_site_fract_z
Si Si1 0.906073 0.973584 0.533032
Si Si2 0.840719 0.735429 0.368527
Si Si3 0.389050 0.601141 0.675703
Si Si4 0.200694 0.079382 0.157639
Si Si5 0.297246 0.207778 0.143742
Si Si6 0.354303 0.129707 0.648683
Si Si7 0.734879 0.248286 0.995893
Si Si8 0.795679 0.492681 0.713449
O O1 0.864818 0.863245 0.426632
O O2 0.121233 0.796220 0.847784
O O3 0.795282 0.137364 0.533642
O O4 0.822247 0.120204 0.275193
O O5 0.823847 0.714392 0.506693
O O6 0.000000 0.500000 0.500000
O O7 0.679124 0.844136 0.008198
O O8 0.322124 0.521923 0.501631
O O9 0.500000 0.500000 0.000000
O O10 0.533969 0.496997 0.765403
O O11 0.188822 0.195674 0.031818
O O12 0.345132 0.006160 0.500624
O O13 0.000973 0.264711 0.943264
O O14 0.265603 0.880464 0.143769
O O15 0.214445 0.425522 0.117192
O O16 0.500000 0.000000 0.500000
O O17 0.302083 0.306442 0.509731
O O18 0.500000 0.000000 0.000000
#
# Coordination Sequence:
#
# PCOD9103978 Si02
#       8
#     2   2   2   2   2   2   2   2
#     4  10  22  40  63 104 130 169 227 290 330 392
#     4  12  24  42  64  96 135 176 212 270 349 407
#     4  10  22  36  67 101 129 168 229 289 327 387
#     4  11  20  41  65  95 128 175 231 279 330 399
#     4  11  22  37  64  92 127 170 231 278 317 397
#     4  11  26  39  62  96 141 179 213 281 347 405
#     4  10  20  38  70  98 128 173 232 283 328 392
#     4  11  22  41  66  98 127 175 232 280 333 397
#
# _framework density 24.246230000000001
#
# number of rings (size 3 to 8) (size 9 to 14) (size 15 to 20)
#    0.000    1.250    2.500    5.250    5.250    0.000 
#    0.000    0.625    0.000    0.750    0.000    0.000 
#    0.000    0.000    0.000    0.000    0.000    0.000 
#
# Total GULP energy -89471.371883 kJ/mol
# GULP energy per Si atom -5591.960743 kJ/mol
# Density = 2.419104 g / cm^3
# Si number density = 24.246230 Si / 1000 Ang^3
#
#
#
# Elastic Constant Matrix: (Units=GPa)
#
#
# Indices 1 2 3 4 5 6 
#
# 1 53.1252 46.2766 22.3834 1.3953 3.1921 -20.8755
# 2 46.2766 160.2269 32.5194 20.4137 13.3338 -29.2335
# 3 22.3834 32.5194 102.2100 11.2249 15.0408 -1.8561
# 4 1.3953 20.4137 11.2249 45.4730 -5.5988 6.6414
# 5 3.1921 13.3338 15.0408 -5.5988 32.5202 -4.2442
# 6 -20.8755 -29.2335 -1.8561 6.6414 -4.2442 38.2920
#
#
#
# Elastic Compliance Matrix: (Units=1/GPa)
#
#
# Indices 1 2 3 4 5 6 
#
# 1 0.030912 -0.006229 -0.005351 0.001903 0.003880 0.011937
# 2 -0.006229 0.009991 -0.000640 -0.005255 -0.003477 0.004727
# 3 -0.005351 -0.000640 0.012267 -0.002855 -0.005763 -0.002955
# 4 0.001903 -0.005255 -0.002855 0.026881 0.007002 -0.006998
# 5 0.003880 -0.003477 -0.005763 0.007002 0.035920 0.001948
# 6 0.011937 0.004727 -0.002955 -0.006998 0.001948 0.037518
#
#
# Mechanical properties :
#
#
# Convention : Reuss Voigt Hill
#
# Bulk Modulus (GPa) = 34.80727 57.54677 46.17702
# Shear Modulus (GPa) = 26.66584 37.54922 32.10753
#
# Velocity S-wave (km/s) = 3.31991 3.93957 3.64294
# Velocity P-wave (km/s) = 5.39283 6.66930 6.06474
#
# Compressibility (1/GPa) = 0.02872963
#
# Stress axis : x y z
#
# Youngs Moduli (GPa) = 32.35021 100.08552 81.51869
#
# Poissons Ratio (x) = 0.62347 0.43619
# Poissons Ratio (y) = 0.20152 0.05218
# Poissons Ratio (z) = 0.17310 0.06407
#
# Static dielectric constant tensor:
#      x y z
#    x 1.926270 -0.067280 -0.381230 
#    y -0.067280 1.881440 0.196330 
#    z -0.381230 0.196330 -0.028870 
# 
# From -- ./inp_files/346246.got.cif
#   From: 2010.05.17/outbox.cif.g08.bks.cpg/sg2_174_cif.got.tgz:346246.got - 2010.06.03 11:33:40.
