data_PCOD9103397
_publ_section_title
;
Structure prediction by ZEFSAII (Michael W. Deem and Ramdas Pophale) SiO2 
 PCOD9103397
Probable space group: P -1
;
_chemical_formula_sum "Si O2"
_cell_formula_units_Z 14
_cell_length_a 17.795548
_cell_length_b 7.884854
_cell_length_c 7.913903
_cell_angle_alpha 127.075071
_cell_angle_beta 60.480954
_cell_angle_gamma 81.112412
_cell_volume 585.636946
_symmetry_space_group_name_H-M "P -1"
_symmetry_group_IT_number 2
_symmetry_cell_setting 'triclinic'
loop_
_space_group_symop_operation_xyz
x,y,z
-x,-y,-z
loop_
_atom_site_type_symbol
_atom_site_label
_atom_site_fract_x
_atom_site_fract_y
_atom_site_fract_z
Si Si1 0.045795 0.771222 0.662771
Si Si2 0.383346 0.102056 0.496345
Si Si3 0.482397 0.332237 0.645261
Si Si4 0.061685 0.297618 0.546190
Si Si5 0.272792 0.648445 0.332143
Si Si6 0.544837 0.696194 0.818097
Si Si7 0.830684 0.760484 0.273414
O O1 0.070300 0.501554 0.553585
O O2 0.165907 0.676246 0.412259
O O3 0.958393 0.863103 0.660062
O O4 0.000000 0.000000 0.000000
O O5 0.431589 0.261531 0.514728
O O6 0.257683 0.287357 0.678291
O O7 0.413020 0.975004 0.576556
O O8 0.454786 0.812641 0.143390
O O9 0.529761 0.484587 0.633412
O O10 0.372422 0.507320 0.997624
O O11 0.157036 0.162159 0.505009
O O12 0.947497 0.497877 0.905268
O O13 0.332128 0.475234 0.334503
O O14 0.220573 0.964155 0.612175
O O15 0.500000 0.000000 0.000000
#
# Coordination Sequence:
#
# PCOD9103397 Si02
#       7
#     2   2   2   2   2   2   2
#     4  11  23  44  63  95 131 172 212 274 330 386
#     4  10  20  38  66  88 127 166 214 261 321 392
#     4  10  20  39  63  95 120 170 216 262 321 390
#     4  10  25  41  64  94 133 168 221 271 325 385
#     4  11  21  39  67  88 126 169 214 269 327 382
#     4  11  23  39  60  93 133 163 211 271 327 397
#     4  11  20  42  67  96 127 175 221 269 320 395
#
# _framework density 23.905595999999999
#
# number of rings (size 3 to 8) (size 9 to 14) (size 15 to 20)
#    0.000    1.429    4.286    1.714    2.000    1.143 
#    2.571    0.000    0.000    0.000    0.000    0.000 
#    0.000    0.000    0.000    0.000    0.000    0.000 
#
# Total GULP energy -78027.454159 kJ/mol
# GULP energy per Si atom -5573.389583 kJ/mol
# Density = 2.385119 g / cm^3
# Si number density = 23.905596 Si / 1000 Ang^3
#
#
#
# Elastic Constant Matrix: (Units=GPa)
#
#
# Indices 1 2 3 4 5 6 
#
# 1 183.3802 63.2559 26.2752 8.0296 9.8525 19.6378
# 2 63.2559 90.4276 0.0474 23.7840 5.8306 13.9130
# 3 26.2752 0.0474 42.1635 2.0744 13.0392 -1.9528
# 4 8.0296 23.7840 2.0744 26.3830 4.0433 -2.7742
# 5 9.8525 5.8306 13.0392 4.0433 39.4650 4.5416
# 6 19.6378 13.9130 -1.9528 -2.7742 4.5416 32.6807
#
#
#
# Elastic Compliance Matrix: (Units=1/GPa)
#
#
# Indices 1 2 3 4 5 6 
#
# 1 0.008663 -0.006604 -0.005895 0.003404 0.000706 -0.002555
# 2 -0.006604 0.021524 0.004860 -0.018368 -0.000519 -0.006391
# 3 -0.005895 0.004860 0.030702 -0.003072 -0.009579 0.004378
# 4 0.003404 -0.018368 -0.003072 0.055430 -0.004050 0.010859
# 5 0.000706 -0.000519 -0.009579 -0.004050 0.029418 -0.005208
# 6 -0.002555 -0.006391 0.004378 0.010859 -0.005208 0.036763
#
#
# Mechanical properties :
#
#
# Convention : Reuss Voigt Hill
#
# Bulk Modulus (GPa) = 21.92551 55.01427 38.46989
# Shear Modulus (GPa) = 23.47625 34.79859 29.13742
#
# Velocity S-wave (km/s) = 3.13715 3.81946 3.49500
# Velocity P-wave (km/s) = 4.72376 6.52029 5.69333
#
# Compressibility (1/GPa) = 0.04560897
#
# Stress axis : x y z
#
# Youngs Moduli (GPa) = 115.43965 46.46025 32.57147
#
# Poissons Ratio (x) = 0.30683 0.19201
# Poissons Ratio (y) = 0.76238 -0.15829
# Poissons Ratio (z) = 0.68052 -0.22578
#
# Static dielectric constant tensor:
#      x y z
#    x 2.015170 -0.116130 0.043530 
#    y -0.116130 2.081920 -0.133860 
#    z 0.043530 -0.133860 1.948790 
# 
# From -- ./inp_files/299606.got.cif
#   From: 2010.05.17/outbox.cif.g08.bks.cpg/sg2_150_cif.got.tgz:299606.got - 2010.06.03 11:33:40.
