data_PCOD9103273
_publ_section_title
;
Structure prediction by ZEFSAII (Michael W. Deem and Ramdas Pophale) SiO2 
 PCOD9103273
Probable space group: P -1
;
_chemical_formula_sum "Si O2"
_cell_formula_units_Z 10
_cell_length_a 11.151575
_cell_length_b 6.930897
_cell_length_c 6.890860
_cell_angle_alpha 103.899189
_cell_angle_beta 88.919335
_cell_angle_gamma 121.797781
_cell_volume 435.646502
_symmetry_space_group_name_H-M "P -1"
_symmetry_group_IT_number 2
_symmetry_cell_setting 'triclinic'
loop_
_space_group_symop_operation_xyz
x,y,z
-x,-y,-z
loop_
_atom_site_type_symbol
_atom_site_label
_atom_site_fract_x
_atom_site_fract_y
_atom_site_fract_z
Si Si1 0.647518 0.117451 0.408127
Si Si2 0.880688 0.792773 0.822095
Si Si3 0.651038 0.737366 0.075292
Si Si4 0.173821 0.355145 0.638848
Si Si5 0.080018 0.622296 0.324881
O O1 0.711632 0.380309 0.383672
O O2 0.769375 0.152998 0.564142
O O3 0.500000 0.000000 0.500000
O O4 0.636504 0.951319 0.193442
O O5 0.889349 0.805275 0.591404
O O6 0.885263 0.560133 0.811403
O O7 0.736692 0.772443 0.885099
O O8 0.000000 0.000000 0.000000
O O9 0.743737 0.713038 0.234103
O O10 0.500000 0.500000 0.000000
O O11 0.041931 0.347156 0.749592
O O12 0.000000 0.500000 0.500000
#
# Coordination Sequence:
#
# PCOD9103273 Si02
#       5
#     2   2   2   2   2
#     4  10  21  40  63  89 124 160 199 251 307 364
#     4  10  20  38  65  95 121 154 207 252 295 370
#     4  12  25  40  63  92 120 163 212 247 301 366
#     4  10  23  43  62  87 129 163 194 256 308 350
#     4   8  17  37  61  86 121 158 193 243 306 359
#
# _framework density 22.954393
#
# number of rings (size 3 to 8) (size 9 to 14) (size 15 to 20)
#    0.000    2.400    0.000    6.000    0.000    8.000 
#    0.000    8.000    0.000    0.000    0.000    0.000 
#    0.000    0.000    0.000    0.000    0.000    0.000 
#
# Total GULP energy -55860.177997 kJ/mol
# GULP energy per Si atom -5586.017800 kJ/mol
# Density = 2.290215 g / cm^3
# Si number density = 22.954393 Si / 1000 Ang^3
#
#
#
# Elastic Constant Matrix: (Units=GPa)
#
#
# Indices 1 2 3 4 5 6 
#
# 1 92.4017 24.3186 30.9891 -2.4295 -14.9106 26.0533
# 2 24.3186 89.6579 23.3958 19.3208 -14.2447 16.2650
# 3 30.9891 23.3958 122.4323 19.1964 -12.8271 -1.1214
# 4 -2.4295 19.3208 19.1964 47.3407 -3.1117 -0.1932
# 5 -14.9106 -14.2447 -12.8271 -3.1117 57.1429 -3.7426
# 6 26.0533 16.2650 -1.1214 -0.1932 -3.7426 51.3243
#
#
#
# Elastic Compliance Matrix: (Units=1/GPa)
#
#
# Indices 1 2 3 4 5 6 
#
# 1 0.015035 -0.002219 -0.003725 0.003309 0.002266 -0.006832
# 2 -0.002219 0.014120 -0.001106 -0.005297 0.002192 -0.003232
# 3 -0.003725 -0.001106 0.010032 -0.003734 0.000966 0.002517
# 4 0.003309 -0.005297 -0.003734 0.024974 0.000066 0.000016
# 5 0.002266 0.002192 0.000966 0.000066 0.018829 -0.000451
# 6 -0.006832 -0.003232 0.002517 0.000016 -0.000451 0.023999
#
#
# Mechanical properties :
#
#
# Convention : Reuss Voigt Hill
#
# Bulk Modulus (GPa) = 39.86340 51.32209 45.59275
# Shear Modulus (GPa) = 38.62444 46.21411 42.41928
#
# Velocity S-wave (km/s) = 4.10647 4.49185 4.30348
# Velocity P-wave (km/s) = 6.31571 7.02205 6.67822
#
# Compressibility (1/GPa) = 0.02508567
#
# Stress axis : x y z
#
# Youngs Moduli (GPa) = 66.51140 70.81972 99.68384
#
# Poissons Ratio (x) = 0.15718 0.37136
# Poissons Ratio (y) = 0.14762 0.11023
# Poissons Ratio (z) = 0.24778 0.07831
#
# Static dielectric constant tensor:
#      x y z
#    x 1.908670 -0.096270 0.041110 
#    y -0.096270 1.871850 -0.001530 
#    z 0.041110 -0.001530 1.849570 
# 
# From -- ./inp_files/57285.got.cif
#   From: 2010.05.17/outbox.cif.g08.bks.cpg/sg2_29_cif.got.tgz:57285.got - 2010.06.03 11:33:40.
