data_PCOD9103004
_publ_section_title
;
Structure prediction by ZEFSAII (Michael W. Deem and Ramdas Pophale) SiO2 
 PCOD9103004
Probable space group: P -1
;
_chemical_formula_sum "Si O2"
_cell_formula_units_Z 16
_cell_length_a 15.906138
_cell_length_b 11.626834
_cell_length_c 14.662913
_cell_angle_alpha 37.158360
_cell_angle_beta 33.369159
_cell_angle_gamma 27.096875
_cell_volume 663.723152
_symmetry_space_group_name_H-M "P -1"
_symmetry_group_IT_number 2
_symmetry_cell_setting 'triclinic'
loop_
_space_group_symop_operation_xyz
x,y,z
-x,-y,-z
loop_
_atom_site_type_symbol
_atom_site_label
_atom_site_fract_x
_atom_site_fract_y
_atom_site_fract_z
Si Si1 0.409611 0.817637 0.976765
Si Si2 0.295185 0.190220 0.168591
Si Si3 0.073488 0.818564 0.687637
Si Si4 0.117773 0.396821 0.831408
Si Si5 0.662183 0.572344 0.720553
Si Si6 0.340814 0.767134 0.312362
Si Si7 0.870978 0.857930 0.462608
Si Si8 0.525103 0.745989 0.537392
O O1 0.548334 0.779953 0.957940
O O2 0.544676 0.730999 0.817487
O O3 0.207497 0.120791 0.957940
O O4 0.365837 0.632082 0.135203
O O5 0.190387 0.192269 0.354834
O O6 0.106987 0.414764 0.132138
O O7 0.413306 0.911692 0.190906
O O8 0.120115 0.554886 0.809094
O O9 0.226962 0.773038 0.500000
O O10 0.107949 0.933313 0.666371
O O11 0.843383 0.043504 0.713175
O O12 0.282710 0.334633 0.645166
O O13 0.566802 0.738580 0.610332
O O14 0.907152 0.398230 0.610332
O O15 0.481952 0.476786 0.333629
O O16 0.688308 0.990027 0.472525
#
# Coordination Sequence:
#
# PCOD9103004 Si02
#       8
#     2   2   2   2   2   2   2   2
#     4  11  26  44  63  80 121 171 195 242 313 356
#     4  10  20  38  64  96 120 152 202 251 291 352
#     4   8  15  30  58  91 126 149 186 247 299 348
#     4  10  20  38  64  96 120 152 202 251 291 352
#     4  11  26  46  57  84 127 159 201 250 297 360
#     4   8  15  30  58  91 126 149 186 247 299 348
#     4  11  20  36  65  95 119 158 199 245 298 352
#     4  11  20  36  65  95 119 158 199 245 298 352
#
# _framework density 24.106437
#
# number of rings (size 3 to 8) (size 9 to 14) (size 15 to 20)
#    0.000    2.000    3.750    1.500    1.750    4.500 
#    0.000    3.750    0.000    0.000    0.000    0.000 
#    0.000    0.000    0.000    0.000    0.000    0.000 
#
# Total GULP energy -89633.477641 kJ/mol
# GULP energy per Si atom -5602.092353 kJ/mol
# Density = 2.405157 g / cm^3
# Si number density = 24.106437 Si / 1000 Ang^3
#
#
#
# Elastic Constant Matrix: (Units=GPa)
#
#
# Indices 1 2 3 4 5 6 
#
# 1 130.6258 75.1523 34.5097 3.2307 -18.5870 -11.5514
# 2 75.1523 127.2120 35.5890 -20.4297 8.7801 -11.2583
# 3 34.5097 35.5890 99.8995 -14.0378 -16.1149 4.7780
# 4 3.2307 -20.4297 -14.0378 44.3588 16.4826 1.6395
# 5 -18.5870 8.7801 -16.1149 16.4826 45.6029 0.9090
# 6 -11.5514 -11.2583 4.7780 1.6395 0.9090 42.1858
#
#
#
# Elastic Compliance Matrix: (Units=1/GPa)
#
#
# Indices 1 2 3 4 5 6 
#
# 1 0.018173 -0.013376 -0.001145 -0.013234 0.014326 0.001742
# 2 -0.013376 0.020373 -0.003173 0.015244 -0.016043 0.001887
# 3 -0.001145 -0.003173 0.012502 0.001112 0.004214 -0.002710
# 4 -0.013234 0.015244 0.001112 0.039102 -0.022054 -0.000726
# 5 0.014326 -0.016043 0.004214 -0.022054 0.040334 -0.000848
# 6 0.001742 0.001887 -0.002710 -0.000726 -0.000848 0.025039
#
#
# Mechanical properties :
#
#
# Convention : Reuss Voigt Hill
#
# Bulk Modulus (GPa) = 63.85518 72.02659 67.94088
# Shear Modulus (GPa) = 25.49342 40.59526 33.04434
#
# Velocity S-wave (km/s) = 3.25551 4.10811 3.70641
# Velocity P-wave (km/s) = 6.37789 7.24193 6.82360
#
# Compressibility (1/GPa) = 0.01566044
#
# Stress axis : x y z
#
# Youngs Moduli (GPa) = 55.02657 49.08461 79.98899
#
# Poissons Ratio (x) = 0.65654 0.09156
# Poissons Ratio (y) = 0.73602 0.25383
# Poissons Ratio (z) = 0.06298 0.15576
#
# Static dielectric constant tensor:
#      x y z
#    x 1.871890 0.038850 -0.011920 
#    y 0.038850 1.866020 0.002970 
#    z -0.011920 0.002970 2.007000 
# 
# From -- ./inp_files/424994.got.cif
#   From: 2010.05.17/outbox.cif.g08.bks.cpg/sg2_213_cif.got.tgz:424994.got - 2010.06.03 11:33:40.
