data_PCOD9103737
_publ_section_title
;
Structure prediction by ZEFSAII (Michael W. Deem and Ramdas Pophale) SiO2 
 PCOD9103737
Probable space group: P -1
;
_chemical_formula_sum "Si O2"
_cell_formula_units_Z 14
_cell_length_a 10.537917
_cell_length_b 9.586969
_cell_length_c 13.201375
_cell_angle_alpha 34.483489
_cell_angle_beta 129.367635
_cell_angle_gamma 110.392018
_cell_volume 535.417249
_symmetry_space_group_name_H-M "P -1"
_symmetry_group_IT_number 2
_symmetry_cell_setting 'triclinic'
loop_
_space_group_symop_operation_xyz
x,y,z
-x,-y,-z
loop_
_atom_site_type_symbol
_atom_site_label
_atom_site_fract_x
_atom_site_fract_y
_atom_site_fract_z
Si Si1 0.262391 0.423055 0.170123
Si Si2 0.607238 0.285375 0.098444
Si Si3 0.362631 0.012952 0.190765
Si Si4 0.842694 0.158832 0.982218
Si Si5 0.092109 0.602279 0.781923
Si Si6 0.008724 0.295755 0.538013
Si Si7 0.748710 0.095520 0.607753
O O1 0.296273 0.113685 0.358284
O O2 0.395277 0.531280 0.111010
O O3 0.231808 0.540039 0.196746
O O4 0.084704 0.570378 0.918160
O O5 0.524662 0.063105 0.189812
O O6 0.813047 0.185117 0.299715
O O7 0.500000 0.500000 0.000000
O O8 0.390603 0.827541 0.415852
O O9 0.240057 0.308197 0.997127
O O10 0.257521 0.911383 0.117120
O O11 0.057785 0.045455 0.149083
O O12 0.837250 0.983346 0.182834
O O13 0.958847 0.646156 0.595084
O O14 0.000000 0.500000 0.500000
O O15 0.812364 0.284113 0.457578
#
# Coordination Sequence:
#
# PCOD9103737 Si02
#       7
#     2   2   2   2   2   2   2
#     4   9  18  33  50  76  95 130 160 204 241 280
#     4   8  16  30  56  66  94 129 173 193 232 284
#     4  10  16  33  52  72  94 131 166 204 229 282
#     4  10  20  27  52  76 104 119 162 204 246 283
#     4   8  16  32  49  66  97 127 164 194 234 287
#     4  10  19  31  47  76 101 127 162 195 243 296
#     4   9  19  30  51  71 102 126 163 193 249 287
#
# _framework density 26.147831
#
# number of rings (size 3 to 8) (size 9 to 14) (size 15 to 20)
#    1.714    1.143    2.857    0.857    0.000    1.143 
#    0.000    0.714    0.000    0.000    0.000    2.000 
#    0.000    0.000    0.000    0.000    0.000    0.000 
#
# Total GULP energy -77948.258793 kJ/mol
# GULP energy per Si atom -5567.732771 kJ/mol
# Density = 2.608832 g / cm^3
# Si number density = 26.147831 Si / 1000 Ang^3
#
#
#
# Elastic Constant Matrix: (Units=GPa)
#
#
# Indices 1 2 3 4 5 6 
#
# 1 84.3778 42.1041 21.2202 -4.0187 -18.0184 16.8122
# 2 42.1041 189.7973 24.3475 5.0848 -18.7425 7.6130
# 3 21.2202 24.3475 73.5253 16.1047 -26.3864 -5.7874
# 4 -4.0187 5.0848 16.1047 31.6298 -3.4308 -7.7383
# 5 -18.0184 -18.7425 -26.3864 -3.4308 40.4322 -4.9724
# 6 16.8122 7.6130 -5.7874 -7.7383 -4.9724 34.3699
#
#
#
# Elastic Compliance Matrix: (Units=1/GPa)
#
#
# Indices 1 2 3 4 5 6 
#
# 1 0.016328 -0.002627 -0.004078 0.003172 0.002809 -0.006971
# 2 -0.002627 0.006080 -0.000681 -0.000899 0.001100 -0.000220
# 3 -0.004078 -0.000681 0.021643 -0.008779 0.011927 0.005539
# 4 0.003172 -0.000899 -0.008779 0.037910 -0.000829 0.005584
# 5 0.002809 0.001100 0.011927 -0.000829 0.034854 0.005246
# 6 -0.006971 -0.000220 0.005539 0.005584 0.005246 0.035503
#
#
# Mechanical properties :
#
#
# Convention : Reuss Voigt Hill
#
# Bulk Modulus (GPa) = 34.15362 58.11601 46.13482
# Shear Modulus (GPa) = 28.27287 38.62162 33.44724
#
# Velocity S-wave (km/s) = 3.29183 3.84741 3.58041
# Velocity P-wave (km/s) = 5.24770 6.48158 5.89700
#
# Compressibility (1/GPa) = 0.02927947
#
# Stress axis : x y z
#
# Youngs Moduli (GPa) = 61.24524 164.46215 46.20525
#
# Poissons Ratio (x) = 0.43203 0.18842
# Poissons Ratio (y) = 0.16089 0.03146
# Poissons Ratio (z) = 0.24975 0.11197
#
# Static dielectric constant tensor:
#      x y z
#    x 2.252260 0.040650 0.032390 
#    y 0.040650 2.011440 -0.005240 
#    z 0.032390 -0.005240 2.269250 
# 
# From -- ./inp_files/411519.got.cif
#   From: 2010.05.17/outbox.cif.g08.bks.cpg/sg2_206_cif.got.tgz:411519.got - 2010.06.03 11:33:40.
