data_PCOD9103640
_publ_section_title
;
Structure prediction by ZEFSAII (Michael W. Deem and Ramdas Pophale) SiO2 
 PCOD9103640
Probable space group: P -1
;
_chemical_formula_sum "Si O2"
_cell_formula_units_Z 14
_cell_length_a 11.106325
_cell_length_b 10.960892
_cell_length_c 8.957460
_cell_angle_alpha 120.805201
_cell_angle_beta 111.226016
_cell_angle_gamma 114.434563
_cell_volume 579.218135
_symmetry_space_group_name_H-M "P -1"
_symmetry_group_IT_number 2
_symmetry_cell_setting 'triclinic'
loop_
_space_group_symop_operation_xyz
x,y,z
-x,-y,-z
loop_
_atom_site_type_symbol
_atom_site_label
_atom_site_fract_x
_atom_site_fract_y
_atom_site_fract_z
Si Si1 0.578834 0.859557 0.438153
Si Si2 0.628681 0.500658 0.657861
Si Si3 0.881172 0.862467 0.512157
Si Si4 0.229342 0.530329 0.848093
Si Si5 0.783041 0.165482 0.497245
Si Si6 0.329571 0.668819 0.650345
Si Si7 0.275401 0.136378 0.936669
O O1 0.477563 0.722215 0.456908
O O2 0.750113 0.882125 0.519670
O O3 0.696624 0.095368 0.581704
O O4 0.399370 0.710293 0.148350
O O5 0.500000 0.500000 0.500000
O O6 0.768753 0.536955 0.624484
O O7 0.690953 0.664261 0.917334
O O8 0.746309 0.617128 0.267172
O O9 0.000000 0.000000 0.500000
O O10 0.046704 0.947060 0.756367
O O11 0.243662 0.613131 0.743259
O O12 0.015518 0.372355 0.723528
O O13 0.727185 0.965792 0.275349
O O14 0.307814 0.795453 0.630345
O O15 0.552424 0.798185 0.854365
#
# Coordination Sequence:
#
# PCOD9103640 Si02
#       7
#     2   2   2   2   2   2   2
#     4  12  23  39  69  94 132 167 215 272 316 379
#     4  10  24  42  64  93 134 175 202 265 338 377
#     4  11  18  34  61  98 124 151 220 273 308 361
#     4  11  22  39  68  96 126 173 215 270 313 374
#     4  11  24  39  69 101 122 170 225 262 309 387
#     4  11  22  45  62  93 141 168 210 262 327 384
#     4  10  20  38  67  92 123 166 214 266 309 373
#
# _framework density 24.170511000000001
#
# number of rings (size 3 to 8) (size 9 to 14) (size 15 to 20)
#    0.000    1.143    4.286    3.857    0.000    0.571 
#    0.000   12.143    0.000    0.000    0.000    0.000 
#    0.000    0.000    0.000    0.000    0.000    0.000 
#
# Total GULP energy -77969.088163 kJ/mol
# GULP energy per Si atom -5569.220583 kJ/mol
# Density = 2.411550 g / cm^3
# Si number density = 24.170511 Si / 1000 Ang^3
#
#
#
# Elastic Constant Matrix: (Units=GPa)
#
#
# Indices 1 2 3 4 5 6 
#
# 1 45.0954 24.8331 39.6645 1.5982 -7.0697 2.8137
# 2 24.8331 137.9986 28.8679 -11.4508 9.9225 5.3108
# 3 39.6645 28.8679 68.7837 13.9119 24.7813 17.0541
# 4 1.5982 -11.4508 13.9119 15.1570 -7.3258 9.2662
# 5 -7.0697 9.9225 24.7813 -7.3258 26.4985 5.0323
# 6 2.8137 5.3108 17.0541 9.2662 5.0323 33.4289
#
#
#
# Elastic Compliance Matrix: (Units=1/GPa)
#
#
# Indices 1 2 3 4 5 6 
#
# 1 -0.001178 -0.007118 0.025794 -0.052216 -0.037770 0.008230
# 2 -0.007118 0.009096 0.001501 0.005409 -0.004759 -0.002395
# 3 0.025794 0.001501 -0.023718 0.047277 0.043462 -0.009957
# 4 -0.052216 0.005409 0.047277 0.017991 -0.051822 -0.017769
# 5 -0.037770 -0.004759 0.043462 -0.051822 -0.025524 -0.000031
# 6 0.008230 -0.002395 -0.009957 -0.017769 -0.000031 0.039612
#
#
# Mechanical properties :
#
#
# Convention : Reuss Voigt Hill
#
# Bulk Modulus (GPa) = 40.72274 48.73431 44.72852
# Shear Modulus (GPa) = -314.67100 25.58435 -144.54333
#
# Velocity S-wave (km/s) = -11.42237 3.25698 -7.74153
# Velocity P-wave (km/s) = 12.53300 5.86092 7.83345
#
# Compressibility (1/GPa) = 0.02455631
#
# Stress axis : x y z
#
# Youngs Moduli (GPa) = -849.23806 109.93252 -42.16205
#
# Poissons Ratio (x) = 0.78247 1.08755
# Poissons Ratio (y) = -6.04463 0.06328
# Poissons Ratio (z) = 21.90566 -0.16500
#
# Static dielectric constant tensor:
#      x y z
#    x 1.997010 0.058040 -0.082070 
#    y 0.058040 2.021160 -0.035380 
#    z -0.082070 -0.035380 2.023780 
# 
# From -- ./inp_files/334306.got.cif
#   From: 2010.05.17/outbox.cif.g08.bks.cpg/sg2_168_cif.got.tgz:334306.got - 2010.06.03 11:33:40.
