data_PCOD9103749
_publ_section_title
;
Structure prediction by ZEFSAII (Michael W. Deem and Ramdas Pophale) SiO2 
 PCOD9103749
Probable space group: P -1
;
_chemical_formula_sum "Si O2"
_cell_formula_units_Z 15
_cell_length_a 11.758253
_cell_length_b 8.661649
_cell_length_c 14.184723
_cell_angle_alpha 111.107376
_cell_angle_beta 28.647997
_cell_angle_gamma 95.177728
_cell_volume 557.762117
_symmetry_space_group_name_H-M "P -1"
_symmetry_group_IT_number 2
_symmetry_cell_setting 'triclinic'
loop_
_space_group_symop_operation_xyz
x,y,z
-x,-y,-z
loop_
_atom_site_type_symbol
_atom_site_label
_atom_site_fract_x
_atom_site_fract_y
_atom_site_fract_z
Si Si1 0.500000 0.000000 0.000000
Si Si2 0.189124 0.074756 0.593486
Si Si3 0.461115 0.348832 0.722676
Si Si4 0.193100 0.051085 0.091824
Si Si5 0.804576 0.200779 0.737509
Si Si6 0.533434 0.263796 0.428710
Si Si7 0.040324 0.654431 0.839640
Si Si8 0.139812 0.623145 0.444609
O O1 0.504972 0.928866 0.866097
O O2 0.427239 0.829492 0.053286
O O3 0.423416 0.118379 0.464488
O O4 0.989637 0.213569 0.689304
O O5 0.368662 0.851134 0.387424
O O6 0.976691 0.058412 0.817092
O O7 0.514715 0.304117 0.563554
O O8 0.612265 0.455695 0.677216
O O9 0.150770 0.407494 0.980360
O O10 0.112236 0.209924 0.107466
O O11 0.107993 0.168295 0.283526
O O12 0.741292 0.350838 0.734018
O O13 0.000000 0.000000 0.500000
O O14 0.309560 0.452265 0.578855
O O15 0.829406 0.231586 0.176190
O O16 0.000000 0.500000 0.500000
#
# Coordination Sequence:
#
# PCOD9103749 Si02
#       8
#     1   2   2   2   2   2   2   2
#     4  10  20  38  68  88 126 168 212 262 320 380
#     4  10  22  40  67  91 128 168 216 271 320 382
#     4  11  22  44  66  91 128 173 218 271 322 395
#     4  10  21  41  62  94 129 167 212 267 328 387
#     4  11  20  41  62  91 129 168 207 266 326 380
#     4  11  24  44  63  92 133 168 216 277 323 384
#     4  11  24  40  68  90 131 173 215 267 338 380
#     4  11  23  40  66  94 133 171 212 268 329 391
#
# _framework density 26.893184999999999
#
# number of rings (size 3 to 8) (size 9 to 14) (size 15 to 20)
#    0.000    1.333    6.667    1.600    1.867    0.533 
#    4.800    1.333    0.000    0.000    0.000    0.000 
#    0.000    0.000    0.000    0.000    0.000    0.000 
#
# Total GULP energy -83626.059867 kJ/mol
# GULP energy per Si atom -5575.070658 kJ/mol
# Density = 2.683198 g / cm^3
# Si number density = 26.893185 Si / 1000 Ang^3
#
#
#
# Elastic Constant Matrix: (Units=GPa)
#
#
# Indices 1 2 3 4 5 6 
#
# 1 143.8823 58.8511 46.6210 -30.6158 -22.8120 6.4906
# 2 58.8511 100.1006 23.0363 -38.0076 -4.8589 20.4667
# 3 46.6210 23.0363 98.6604 -33.6789 -17.2355 12.1173
# 4 -30.6158 -38.0076 -33.6789 43.0126 10.9254 -13.2613
# 5 -22.8120 -4.8589 -17.2355 10.9254 41.2860 -17.0362
# 6 6.4906 20.4667 12.1173 -13.2613 -17.0362 58.4302
#
#
#
# Elastic Compliance Matrix: (Units=1/GPa)
#
#
# Indices 1 2 3 4 5 6 
#
# 1 0.011337 -0.006603 -0.003573 -0.000994 0.005577 0.003195
# 2 -0.006603 0.019643 0.003285 0.015191 -0.006116 -0.005164
# 3 -0.003573 0.003285 0.015443 0.011836 0.001368 -0.000871
# 4 -0.000994 0.015191 0.011836 0.047104 -0.005726 0.001356
# 5 0.005577 -0.006116 0.001368 -0.005726 0.032562 0.009433
# 6 0.003195 -0.005164 -0.000871 0.001356 0.009433 0.021807
#
#
# Mechanical properties :
#
#
# Convention : Reuss Voigt Hill
#
# Bulk Modulus (GPa) = 30.63603 66.62888 48.63246
# Shear Modulus (GPa) = 28.97548 42.82143 35.89845
#
# Velocity S-wave (km/s) = 3.28598 3.99466 3.65753
# Velocity P-wave (km/s) = 5.08069 6.79011 5.99662
#
# Compressibility (1/GPa) = 0.03264131
#
# Stress axis : x y z
#
# Youngs Moduli (GPa) = 88.20507 50.90910 64.75261
#
# Poissons Ratio (x) = 0.33616 0.23137
# Poissons Ratio (y) = 0.58244 -0.21273
# Poissons Ratio (z) = 0.31516 -0.16725
#
# Static dielectric constant tensor:
#      x y z
#    x 2.520090 -0.021700 -0.500270 
#    y -0.021700 2.179020 0.139960 
#    z -0.500270 0.139960 2.931780 
# 
# From -- ./inp_files/515727.got.cif
#   From: 2010.05.17/outbox.cif.g08.bks.cpg/sg2_258_cif.got.tgz:515727.got - 2010.06.03 11:33:40.
