data_PCOD9103238
_publ_section_title
;
Structure prediction by ZEFSAII (Michael W. Deem and Ramdas Pophale) SiO2 
 PCOD9103238
Probable space group: P -1
;
_chemical_formula_sum "Si O2"
_cell_formula_units_Z 14
_cell_length_a 9.173783
_cell_length_b 14.065727
_cell_length_c 8.575006
_cell_angle_alpha 59.550543
_cell_angle_beta 48.887986
_cell_angle_gamma 49.431734
_cell_volume 627.184422
_symmetry_space_group_name_H-M "P -1"
_symmetry_group_IT_number 2
_symmetry_cell_setting 'triclinic'
loop_
_space_group_symop_operation_xyz
x,y,z
-x,-y,-z
loop_
_atom_site_type_symbol
_atom_site_label
_atom_site_fract_x
_atom_site_fract_y
_atom_site_fract_z
Si Si1 0.965126 0.745801 0.870691
Si Si2 0.954365 0.494693 0.852739
Si Si3 0.543566 0.372351 0.985545
Si Si4 0.256588 0.915453 0.829595
Si Si5 0.271841 0.593151 0.496961
Si Si6 0.514189 0.099217 0.025713
Si Si7 0.980663 0.994157 0.699460
O O1 0.723775 0.783667 0.938989
O O2 0.128678 0.694757 0.647942
O O3 0.967066 0.866339 0.841989
O O4 0.021843 0.643836 0.052209
O O5 0.133834 0.519591 0.619849
O O6 0.707485 0.595363 0.899323
O O7 0.000000 0.500000 0.000000
O O8 0.670076 0.365125 0.741105
O O9 0.500000 0.500000 0.000000
O O10 0.661736 0.234557 0.098000
O O11 0.425886 0.934462 0.806175
O O12 0.203276 0.972439 0.645846
O O13 0.000000 0.000000 0.000000
O O14 0.500000 0.500000 0.500000
O O15 0.500000 0.000000 0.000000
O O16 0.735581 0.106719 0.820222
O O17 0.000000 0.000000 0.500000
#
# Coordination Sequence:
#
# PCOD9103238 Si02
#       7
#     2   2   2   2   2   2   2
#     4  10  20  38  65  93 133 174 231 289 342 406
#     4  10  20  40  64  95 130 174 225 276 337 407
#     4  12  25  43  67 101 146 177 226 295 352 415
#     4  10  22  40  66  92 136 178 223 288 346 404
#     4  11  23  38  69  98 127 187 238 273 348 418
#     4   9  20  40  64  92 134 179 218 280 348 402
#     4  10  22  39  65  98 125 179 236 281 348 422
#
# _framework density 22.32198
#
# number of rings (size 3 to 8) (size 9 to 14) (size 15 to 20)
#    0.000    1.714    2.857    2.571    4.000    0.571 
#    0.000    2.857   15.714    0.000    0.000    0.000 
#    0.000    0.000    0.000    0.000    0.000    0.000 
#
# Total GULP energy -77995.257134 kJ/mol
# GULP energy per Si atom -5571.089795 kJ/mol
# Density = 2.227117 g / cm^3
# Si number density = 22.321980 Si / 1000 Ang^3
#
#
#
# Elastic Constant Matrix: (Units=GPa)
#
#
# Indices 1 2 3 4 5 6 
#
# 1 141.6417 49.2539 28.9484 1.6136 5.1050 -28.2417
# 2 49.2539 121.5550 21.0392 16.7409 -11.5476 -10.4925
# 3 28.9484 21.0392 85.4421 7.5896 -10.0527 -18.2335
# 4 1.6136 16.7409 7.5896 26.0314 -1.0342 -7.1630
# 5 5.1050 -11.5476 -10.0527 -1.0342 35.8149 0.5780
# 6 -28.2417 -10.4925 -18.2335 -7.1630 0.5780 62.7519
#
#
#
# Elastic Compliance Matrix: (Units=1/GPa)
#
#
# Indices 1 2 3 4 5 6 
#
# 1 0.009686 -0.004025 -0.002244 0.003465 -0.003264 0.003460
# 2 -0.004025 0.011183 -0.000520 -0.006890 0.003849 -0.000915
# 3 -0.002244 -0.000520 0.013844 -0.002696 0.003918 0.002582
# 4 0.003465 -0.006890 -0.002696 0.044632 -0.002260 0.004739
# 5 -0.003264 0.003849 0.003918 -0.002260 0.030666 -0.000227
# 6 0.003460 -0.000915 0.002582 0.004739 -0.000227 0.018633
#
#
# Mechanical properties :
#
#
# Convention : Reuss Voigt Hill
#
# Bulk Modulus (GPa) = 47.31660 60.79132 54.05396
# Shear Modulus (GPa) = 33.49673 41.54613 37.52143
#
# Velocity S-wave (km/s) = 3.87798 4.31887 4.10435
# Velocity P-wave (km/s) = 6.42612 7.22240 6.83586
#
# Compressibility (1/GPa) = 0.02113423
#
# Stress axis : x y z
#
# Youngs Moduli (GPa) = 103.23708 89.41865 72.23477
#
# Poissons Ratio (x) = 0.35992 0.16211
# Poissons Ratio (y) = 0.41554 0.03759
# Poissons Ratio (z) = 0.23168 0.04653
#
# Static dielectric constant tensor:
#      x y z
#    x 1.925570 0.073850 0.058230 
#    y 0.073850 1.922280 -0.027310 
#    z 0.058230 -0.027310 1.927500 
# 
# From -- ./inp_files/199923.got.cif
#   From: 2010.05.17/outbox.cif.g08.bks.cpg/sg2_100_cif.got.tgz:199923.got - 2010.06.03 11:33:40.
