data_PCOD9103198
_publ_section_title
;
Structure prediction by ZEFSAII (Michael W. Deem and Ramdas Pophale) SiO2 
 PCOD9103198
Probable space group: P -1
;
_chemical_formula_sum "Si O2"
_cell_formula_units_Z 12
_cell_length_a 9.303137
_cell_length_b 5.302342
_cell_length_c 28.327271
_cell_angle_alpha 62.653786
_cell_angle_beta 29.578295
_cell_angle_gamma 53.755641
_cell_volume 550.981846
_symmetry_space_group_name_H-M "P -1"
_symmetry_group_IT_number 2
_symmetry_cell_setting 'triclinic'
loop_
_space_group_symop_operation_xyz
x,y,z
-x,-y,-z
loop_
_atom_site_type_symbol
_atom_site_label
_atom_site_fract_x
_atom_site_fract_y
_atom_site_fract_z
Si Si1 0.765122 0.825893 0.086587
Si Si2 0.725968 0.823624 0.624243
Si Si3 0.746852 0.866767 0.190107
Si Si4 0.448828 0.351799 0.479501
Si Si5 0.723749 0.910005 0.989751
Si Si6 0.551165 0.474365 0.342968
O O1 0.995644 0.451825 0.058546
O O2 0.586942 0.917470 0.179751
O O3 0.570261 0.919242 0.084854
O O4 0.000000 0.000000 0.000000
O O5 0.477556 0.853012 0.735033
O O6 0.575544 0.756326 0.625538
O O7 0.075001 0.549867 0.555522
O O8 0.273935 0.834852 0.399497
O O9 0.090011 0.869563 0.084977
O O10 0.774263 0.552588 0.235828
O O11 0.500000 0.500000 0.500000
O O12 0.666001 0.367632 0.372186
O O13 0.500000 0.000000 0.500000
O O14 0.500000 0.000000 0.000000
#
# Coordination Sequence:
#
# PCOD9103198 Si02
#       6
#     2   2   2   2   2   2
#     4   9  19  38  60  89 121 168 208 261 318 390
#     4  10  21  40  66  86 122 174 214 252 312 387
#     4   9  21  36  65  84 126 162 227 250 319 376
#     4  12  24  40  63  97 132 160 213 267 320 374
#     4  10  20  38  65  92 125 167 217 261 322 379
#     4  10  21  40  66  86 121 175 217 248 316 383
#
# _framework density 21.779302000000001
#
# number of rings (size 3 to 8) (size 9 to 14) (size 15 to 20)
#    1.000    1.000    0.000    4.000    0.000    2.667 
#    0.000   10.000    0.000    0.000    0.000    0.000 
#    0.000    0.000    0.000    0.000    0.000    0.000 
#
# Total GULP energy -66851.718680 kJ/mol
# GULP energy per Si atom -5570.976557 kJ/mol
# Density = 2.172973 g / cm^3
# Si number density = 21.779302 Si / 1000 Ang^3
#
#
#
# Elastic Constant Matrix: (Units=GPa)
#
#
# Indices 1 2 3 4 5 6 
#
# 1 185.5334 29.0342 50.9658 -15.1152 48.7520 -5.3197
# 2 29.0342 77.6851 12.2243 -11.8478 14.9395 0.3049
# 3 50.9658 12.2243 57.4768 -19.5867 33.5302 -9.7163
# 4 -15.1152 -11.8478 -19.5867 29.1003 -3.4891 9.3628
# 5 48.7520 14.9395 33.5302 -3.4891 41.8026 -1.3413
# 6 -5.3197 0.3049 -9.7163 9.3628 -1.3413 38.3617
#
#
#
# Elastic Compliance Matrix: (Units=1/GPa)
#
#
# Indices 1 2 3 4 5 6 
#
# 1 0.008211 -0.001116 -0.002467 0.001314 -0.007090 -0.000046
# 2 -0.001116 0.015202 0.004411 0.008186 -0.007030 -0.001402
# 3 -0.002467 0.004411 0.050625 0.028856 -0.036765 0.004117
# 4 0.001314 0.008186 0.028856 0.057417 -0.023049 -0.007393
# 5 -0.007090 -0.007030 -0.036765 -0.023049 0.062190 -0.002439
# 6 -0.000046 -0.001402 0.004117 -0.007393 -0.002439 0.028834
#
#
# Mechanical properties :
#
#
# Convention : Reuss Voigt Hill
#
# Bulk Modulus (GPa) = 13.21152 56.12710 34.66931
# Shear Modulus (GPa) = 20.32060 37.08433 28.70247
#
# Velocity S-wave (km/s) = 3.05786 4.13090 3.63420
# Velocity P-wave (km/s) = 4.30657 6.96988 5.79335
#
# Compressibility (1/GPa) = 0.07569151
#
# Stress axis : x y z
#
# Youngs Moduli (GPa) = 121.78630 65.78227 19.75313
#
# Poissons Ratio (x) = 0.07345 0.04874
# Poissons Ratio (y) = 0.13597 -0.08713
# Poissons Ratio (z) = 0.30049 -0.29015
#
# Static dielectric constant tensor:
#      x y z
#    x 1.858220 0.022880 0.066570 
#    y 0.022880 1.807880 -0.017230 
#    z 0.066570 -0.017230 1.901170 
# 
# From -- ./inp_files/616320.got.cif
#   From: 2010.05.17/outbox.cif.g08.bks.cpg/sg2_309_cif.got.tgz:616320.got - 2010.06.03 11:33:40.
