data_PCOD9103510
_publ_section_title
;
Structure prediction by ZEFSAII (Michael W. Deem and Ramdas Pophale) SiO2 
 PCOD9103510
Probable space group: P -1
;
_chemical_formula_sum "Si O2"
_cell_formula_units_Z 12
_cell_length_a 6.374718
_cell_length_b 13.512922
_cell_length_c 8.721482
_cell_angle_alpha 134.169904
_cell_angle_beta 112.468532
_cell_angle_gamma 56.473874
_cell_volume 449.219273
_symmetry_space_group_name_H-M "P -1"
_symmetry_group_IT_number 2
_symmetry_cell_setting 'triclinic'
loop_
_space_group_symop_operation_xyz
x,y,z
-x,-y,-z
loop_
_atom_site_type_symbol
_atom_site_label
_atom_site_fract_x
_atom_site_fract_y
_atom_site_fract_z
Si Si1 0.856545 0.032400 0.655799
Si Si2 0.503368 0.730735 0.658199
Si Si3 0.210119 0.536749 0.356863
Si Si4 0.404422 0.630119 0.985943
Si Si5 0.263935 0.211222 0.483343
Si Si6 0.133394 0.169372 0.061537
O O1 0.627727 0.202518 0.788098
O O2 0.067889 0.034701 0.837348
O O3 0.750162 0.912240 0.539611
O O4 0.000000 0.000000 0.500000
O O5 0.287311 0.676200 0.557091
O O6 0.737021 0.566660 0.589346
O O7 0.508623 0.777305 0.533951
O O8 0.592336 0.834979 0.905225
O O9 0.920662 0.622627 0.324696
O O10 0.401300 0.432567 0.168170
O O11 0.110199 0.684934 0.915000
O O12 0.500000 0.500000 0.000000
O O13 0.144398 0.178852 0.256200
#
# Coordination Sequence:
#
# PCOD9103510 Si02
#       6
#     2   2   2   2   2   2
#     4  10  21  40  64  89 133 175 201 256 323 374
#     4   9  21  37  61 102 127 154 214 263 316 370
#     4  11  20  36  66  95 126 162 205 269 311 373
#     4  10  22  38  61  92 128 167 209 258 314 376
#     4  10  20  38  66  95 127 162 206 262 316 369
#     4   8  20  37  64  89 127 162 206 260 307 369
#
# _framework density 26.713013
#
# number of rings (size 3 to 8) (size 9 to 14) (size 15 to 20)
#    2.000    0.333    0.000    4.000    2.333    0.000 
#    0.000    5.833    0.000    3.000    0.000    0.000 
#    0.000    0.000    0.000    0.000    0.000    0.000 
#
# Total GULP energy -66897.131716 kJ/mol
# GULP energy per Si atom -5574.760976 kJ/mol
# Density = 2.665221 g / cm^3
# Si number density = 26.713013 Si / 1000 Ang^3
#
#
#
# Elastic Constant Matrix: (Units=GPa)
#
#
# Indices 1 2 3 4 5 6 
#
# 1 75.2769 35.7086 18.9934 10.0620 -2.0561 1.1378
# 2 35.7086 119.0990 11.6626 14.1222 -11.2951 19.3033
# 3 18.9934 11.6626 69.2671 15.3108 -3.0035 8.4272
# 4 10.0620 14.1222 15.3108 43.4182 -0.4936 2.7413
# 5 -2.0561 -11.2951 -3.0035 -0.4936 54.7781 12.4662
# 6 1.1378 19.3033 8.4272 2.7413 12.4662 50.4792
#
#
#
# Elastic Compliance Matrix: (Units=1/GPa)
#
#
# Indices 1 2 3 4 5 6 
#
# 1 0.016718 -0.005038 -0.003868 -0.001047 -0.001214 0.002552
# 2 -0.005038 0.011238 0.000771 -0.002407 0.003285 -0.004993
# 3 -0.003868 0.000771 0.016953 -0.005115 0.001616 -0.003159
# 4 -0.001047 -0.002407 -0.005115 0.025817 -0.000714 0.000572
# 5 -0.001214 0.003285 0.001616 -0.000714 0.020451 -0.006510
# 6 0.002552 -0.004993 -0.003159 0.000572 -0.006510 0.023766
#
#
# Mechanical properties :
#
#
# Convention : Reuss Voigt Hill
#
# Bulk Modulus (GPa) = 34.91724 44.04133 39.47929
# Shear Modulus (GPa) = 35.52186 42.88700 39.20443
#
# Velocity S-wave (km/s) = 3.65054 4.01118 3.83510
# Velocity P-wave (km/s) = 5.55592 6.16242 5.86701
#
# Compressibility (1/GPa) = 0.02863915
#
# Stress axis : x y z
#
# Youngs Moduli (GPa) = 59.81435 88.98630 58.98813
#
# Poissons Ratio (x) = 0.44835 0.22815
# Poissons Ratio (y) = 0.30137 -0.04550
# Poissons Ratio (z) = 0.23134 -0.06864
#
# Static dielectric constant tensor:
#      x y z
#    x 2.146410 -0.152760 0.145890 
#    y -0.152760 2.238000 -0.045820 
#    z 0.145890 -0.045820 2.207090 
# 
# From -- ./inp_files/131241.got.cif
#   From: 2010.05.17/outbox.cif.g08.bks.cpg/sg2_66_cif.got.tgz:131241.got - 2010.06.03 11:33:40.
