data_PCOD9103914
_publ_section_title
;
Structure prediction by ZEFSAII (Michael W. Deem and Ramdas Pophale) SiO2 
 PCOD9103914
Probable space group: P -1
;
_chemical_formula_sum "Si O2"
_cell_formula_units_Z 16
_cell_length_a 12.933884
_cell_length_b 12.770112
_cell_length_c 9.919806
_cell_angle_alpha 145.854883
_cell_angle_beta 136.842041
_cell_angle_gamma 53.888378
_cell_volume 628.600085
_symmetry_space_group_name_H-M "P -1"
_symmetry_group_IT_number 2
_symmetry_cell_setting 'triclinic'
loop_
_space_group_symop_operation_xyz
x,y,z
-x,-y,-z
loop_
_atom_site_type_symbol
_atom_site_label
_atom_site_fract_x
_atom_site_fract_y
_atom_site_fract_z
Si Si1 0.194654 0.335601 0.612643
Si Si2 0.884169 0.177621 0.745210
Si Si3 0.080759 0.476927 0.387387
Si Si4 0.398772 0.104146 0.409034
Si Si5 0.639861 0.052421 0.090617
Si Si6 0.322372 0.511227 0.417040
Si Si7 0.861796 0.804571 0.200559
Si Si8 0.414600 0.597406 0.255706
O O1 0.162615 0.477100 0.608633
O O2 0.244175 0.150038 0.387795
O O3 0.036940 0.358029 0.564381
O O4 0.332957 0.415072 0.918722
O O5 0.719301 0.261347 0.689231
O O6 0.977063 0.232155 0.753609
O O7 0.871981 0.952624 0.489798
O O8 0.983736 0.282765 0.065935
O O9 0.204025 0.483538 0.396933
O O10 0.479279 0.298756 0.643915
O O11 0.500000 0.000000 0.500000
O O12 0.384303 0.992232 0.136741
O O13 0.669355 0.270505 0.364721
O O14 0.773608 0.925778 0.134195
O O15 0.500000 0.000000 0.000000
O O16 0.479409 0.443155 0.558097
O O17 0.243492 0.381809 0.088048
#
# Coordination Sequence:
#
# PCOD9103914 Si02
#       8
#     2   2   2   2   2   2   2   2
#     4  10  20  38  69  98 142 188 231 297 359 431
#     4   9  20  40  70  97 141 191 230 307 345 425
#     4   9  19  39  67 102 138 189 242 289 367 423
#     4  12  24  41  66 107 148 184 238 300 358 429
#     4  12  27  47  72 107 147 188 243 302 367 432
#     4  11  23  43  74 102 140 193 238 297 365 433
#     4  10  21  45  69  97 144 186 242 291 358 429
#     4  11  21  40  70 104 142 184 240 294 366 429
#
# _framework density 25.453385000000001
#
# number of rings (size 3 to 8) (size 9 to 14) (size 15 to 20)
#    0.000    1.500    2.500    2.625    1.750    0.500 
#    2.250    6.250    2.750    0.000    0.000    0.000 
#    0.000    0.000    0.000    0.000    0.000    0.000 
#
# Total GULP energy -89621.204942 kJ/mol
# GULP energy per Si atom -5601.325309 kJ/mol
# Density = 2.539545 g / cm^3
# Si number density = 25.453385 Si / 1000 Ang^3
#
#
#
# Elastic Constant Matrix: (Units=GPa)
#
#
# Indices 1 2 3 4 5 6 
#
# 1 91.8705 30.5738 60.1027 -2.8099 -22.8904 -38.9362
# 2 30.5738 116.6536 44.2590 0.6808 -4.1256 -12.4442
# 3 60.1027 44.2590 161.3867 6.6076 -12.8118 -2.3706
# 4 -2.8099 0.6808 6.6076 40.8843 -0.5672 -7.0391
# 5 -22.8904 -4.1256 -12.8118 -0.5672 45.7719 -5.6586
# 6 -38.9362 -12.4442 -2.3706 -7.0391 -5.6586 52.3316
#
#
#
# Elastic Compliance Matrix: (Units=1/GPa)
#
#
# Indices 1 2 3 4 5 6 
#
# 1 0.036496 -0.001362 -0.011704 0.009783 0.018637 0.029631
# 2 -0.001362 0.009895 -0.002221 0.000313 -0.000252 0.001254
# 3 -0.011704 -0.002221 0.010855 -0.004265 -0.004277 -0.009781
# 4 0.009783 0.000313 -0.004265 0.027872 0.005494 0.011503
# 5 0.018637 -0.000252 -0.004277 0.005494 0.032221 0.017836
# 6 0.029631 0.001254 -0.009781 0.011503 0.017836 0.044486
#
#
# Mechanical properties :
#
#
# Convention : Reuss Voigt Hill
#
# Bulk Modulus (GPa) = 37.49065 71.08686 54.28875
# Shear Modulus (GPa) = 24.83974 43.46258 34.15116
#
# Velocity S-wave (km/s) = 3.12732 4.13672 3.66692
# Velocity P-wave (km/s) = 5.27269 7.12779 6.26924
#
# Compressibility (1/GPa) = 0.02667332
#
# Stress axis : x y z
#
# Youngs Moduli (GPa) = 27.40038 101.06182 92.11937
#
# Poissons Ratio (x) = 0.13762 1.07815
# Poissons Ratio (y) = 0.03731 0.20458
# Poissons Ratio (z) = 0.32069 0.22444
#
# Static dielectric constant tensor:
#      x y z
#    x 2.065050 -0.014100 0.007120 
#    y -0.014100 1.972340 -0.015420 
#    z 0.007120 -0.015420 2.051940 
# 
# From -- ./inp_files/456068.got.cif
#   From: 2010.05.17/outbox.cif.g08.bks.cpg/sg2_229_cif.got.tgz:456068.got - 2010.06.03 11:33:40.
