data_PCOD9103756
_publ_section_title
;
Structure prediction by ZEFSAII (Michael W. Deem and Ramdas Pophale) SiO2 
 PCOD9103756
Probable space group: P -1
;
_chemical_formula_sum "Si O2"
_cell_formula_units_Z 14
_cell_length_a 9.426776
_cell_length_b 9.553583
_cell_length_c 13.608176
_cell_angle_alpha 116.056217
_cell_angle_beta 141.952645
_cell_angle_gamma 69.573277
_cell_volume 678.540392
_symmetry_space_group_name_H-M "P -1"
_symmetry_group_IT_number 2
_symmetry_cell_setting 'triclinic'
loop_
_space_group_symop_operation_xyz
x,y,z
-x,-y,-z
loop_
_atom_site_type_symbol
_atom_site_label
_atom_site_fract_x
_atom_site_fract_y
_atom_site_fract_z
Si Si1 0.580668 0.848774 0.133477
Si Si2 0.162365 0.443626 0.888327
Si Si3 0.664959 0.848090 0.539175
Si Si4 0.116446 0.250365 0.999049
Si Si5 0.615716 0.264674 0.820837
Si Si6 0.185658 0.940072 0.819638
Si Si7 0.700892 0.621507 0.667201
O O1 0.746711 0.699307 0.169930
O O2 0.479240 0.857656 0.189558
O O3 0.719065 0.996267 0.212147
O O4 0.368183 0.823797 0.933645
O O5 0.943559 0.533720 0.753441
O O6 0.088941 0.370066 0.930725
O O7 0.354970 0.571309 0.057173
O O8 0.549379 0.733417 0.361918
O O9 0.675805 0.766398 0.625217
O O10 0.923595 0.887598 0.659243
O O11 0.500000 0.000000 0.500000
O O12 0.284237 0.318192 0.194103
O O13 0.871275 0.224314 0.909647
O O14 0.195222 0.089774 0.943689
O O15 0.500000 0.500000 0.500000
#
# Coordination Sequence:
#
# PCOD9103756 Si02
#       7
#     2   2   2   2   2   2   2
#     4  10  23  40  64  87 126 172 208 255 309 392
#     4  10  21  42  64  92 127 165 210 261 314 378
#     4  12  25  39  62  97 132 160 208 270 306 366
#     4  10  20  38  68  90 124 164 215 265 308 370
#     4  11  21  38  63  90 123 166 209 255 319 360
#     4  10  22  42  62  92 125 165 215 253 319 368
#     4  11  23  38  65  98 124 161 211 265 315 361
#
# _framework density 20.632524
#
# number of rings (size 3 to 8) (size 9 to 14) (size 15 to 20)
#    0.000    1.429    1.429    5.571    4.000    1.714 
#    0.000    7.143    0.000    0.000    0.000    0.000 
#    0.000    0.000    0.000    0.000    0.000    0.000 
#
# Total GULP energy -78243.980398 kJ/mol
# GULP energy per Si atom -5588.855743 kJ/mol
# Density = 2.058556 g / cm^3
# Si number density = 20.632524 Si / 1000 Ang^3
#
#
#
# Elastic Constant Matrix: (Units=GPa)
#
#
# Indices 1 2 3 4 5 6 
#
# 1 94.6589 15.1089 11.9711 -7.6748 3.1873 31.7768
# 2 15.1089 70.7579 22.2149 -24.1694 5.8855 4.6449
# 3 11.9711 22.2149 102.7710 1.2391 14.8900 5.8049
# 4 -7.6748 -24.1694 1.2391 38.3209 6.2580 -0.8238
# 5 3.1873 5.8855 14.8900 6.2580 29.7622 -5.5083
# 6 31.7768 4.6449 5.8049 -0.8238 -5.5083 25.6279
#
#
#
# Elastic Compliance Matrix: (Units=1/GPa)
#
#
# Indices 1 2 3 4 5 6 
#
# 1 0.020155 -0.000471 0.000378 0.004482 -0.008119 -0.026592
# 2 -0.000471 0.020859 -0.003601 0.014060 -0.005818 -0.003180
# 3 0.000378 -0.003601 0.011468 -0.001768 -0.005365 -0.003624
# 4 0.004482 0.014060 -0.001768 0.037679 -0.011977 -0.009068
# 5 -0.008119 -0.005818 -0.005365 -0.011977 0.044816 0.021584
# 6 -0.026592 -0.003180 -0.003624 -0.009068 0.021584 0.077737
#
#
# Mechanical properties :
#
#
# Convention : Reuss Voigt Hill
#
# Bulk Modulus (GPa) = 22.17528 40.75306 31.46417
# Shear Modulus (GPa) = 21.26452 33.33508 27.29980
#
# Velocity S-wave (km/s) = 3.21383 4.02388 3.64145
# Velocity P-wave (km/s) = 4.95405 6.43301 5.74135
#
# Compressibility (1/GPa) = 0.04509525
#
# Stress axis : x y z
#
# Youngs Moduli (GPa) = 49.61478 47.94108 87.19929
#
# Poissons Ratio (x) = 0.02257 -0.03299
# Poissons Ratio (y) = 0.02336 0.31401
# Poissons Ratio (z) = -0.01877 0.17264
#
# Static dielectric constant tensor:
#      x y z
#    x 1.751220 0.000630 -0.000340 
#    y 0.000630 1.777540 -0.004600 
#    z -0.000340 -0.004600 1.714160 
# 
# From -- ./inp_files/184122.got.cif
#   From: 2010.05.17/outbox.cif.g08.bks.cpg/sg2_93_cif.got.tgz:184122.got - 2010.06.03 11:33:40.
