data_PCOD9103753
_publ_section_title
;
Structure prediction by ZEFSAII (Michael W. Deem and Ramdas Pophale) SiO2 
 PCOD9103753
Probable space group: P -1
;
_chemical_formula_sum "Si O2"
_cell_formula_units_Z 16
_cell_length_a 9.494552
_cell_length_b 15.018360
_cell_length_c 12.089803
_cell_angle_alpha 137.540224
_cell_angle_beta 63.263708
_cell_angle_gamma 136.243530
_cell_volume 792.040679
_symmetry_space_group_name_H-M "P -1"
_symmetry_group_IT_number 2
_symmetry_cell_setting 'triclinic'
loop_
_space_group_symop_operation_xyz
x,y,z
-x,-y,-z
loop_
_atom_site_type_symbol
_atom_site_label
_atom_site_fract_x
_atom_site_fract_y
_atom_site_fract_z
Si Si1 0.339188 0.706213 0.546807
Si Si2 0.859045 0.704097 0.578267
Si Si3 0.599822 0.077256 0.691311
Si Si4 0.052925 0.639849 0.019042
Si Si5 0.027412 0.533958 0.681447
Si Si6 0.744193 0.965854 0.355750
Si Si7 0.482706 0.464786 0.637188
Si Si8 0.331235 0.370553 0.849607
O O1 0.201150 0.684880 0.676748
O O2 0.490665 0.678857 0.517672
O O3 0.194544 0.549067 0.366362
O O4 0.447779 0.879570 0.601552
O O5 0.961234 0.617076 0.481935
O O6 0.694916 0.643405 0.679016
O O7 0.709912 0.601580 0.431698
O O8 0.043513 0.904882 0.670134
O O9 0.459763 0.115748 0.721610
O O10 0.732500 0.189019 0.852502
O O11 0.742394 0.086058 0.554945
O O12 0.877228 0.656741 0.093039
O O13 0.000000 0.500000 0.000000
O O14 0.061131 0.586025 0.843736
O O15 0.721884 0.813415 0.284205
O O16 0.428878 0.457140 0.775756
O O17 0.500000 0.500000 0.000000
#
# Coordination Sequence:
#
# PCOD9103753 Si02
#       8
#     2   2   2   2   2   2   2   2
#     4  10  20  38  68  90 120 168 210 254 302 373
#     4  10  21  39  66  92 120 163 203 264 301 369
#     4  11  23  39  65  94 126 165 207 262 310 369
#     4  12  26  40  63  93 130 164 206 261 317 366
#     4  10  21  41  63  92 125 166 212 249 309 374
#     4  11  23  40  64  93 127 161 217 252 312 377
#     4  10  21  38  63  92 123 156 211 251 310 365
#     4  12  25  41  64  91 127 166 205 259 314 371
#
# _framework density 20.200983000000001
#
# number of rings (size 3 to 8) (size 9 to 14) (size 15 to 20)
#    0.000    1.250    2.500    3.750    3.500    1.500 
#    0.000    0.625    2.750    0.000    0.000    0.000 
#    0.000    0.000    0.000    0.000    0.000    0.000 
#
# Total GULP energy -89370.326500 kJ/mol
# GULP energy per Si atom -5585.645406 kJ/mol
# Density = 2.015500 g / cm^3
# Si number density = 20.200983 Si / 1000 Ang^3
#
#
#
# Elastic Constant Matrix: (Units=GPa)
#
#
# Indices 1 2 3 4 5 6 
#
# 1 83.2753 14.9365 13.4791 -2.7801 7.9480 -5.4160
# 2 14.9365 94.7241 24.8324 -18.9058 13.0473 -4.1205
# 3 13.4791 24.8324 64.2202 -21.2048 22.7536 3.2240
# 4 -2.7801 -18.9058 -21.2048 25.9425 -10.5898 6.0342
# 5 7.9480 13.0473 22.7536 -10.5898 26.6032 -0.7408
# 6 -5.4160 -4.1205 3.2240 6.0342 -0.7408 28.6710
#
#
#
# Elastic Compliance Matrix: (Units=1/GPa)
#
#
# Indices 1 2 3 4 5 6 
#
# 1 0.013033 -0.001635 -0.002712 -0.003635 -0.002129 0.003242
# 2 -0.001635 0.012918 -0.001786 0.007128 -0.001476 0.000210
# 3 -0.002712 -0.001786 0.028600 0.017020 -0.016222 -0.007986
# 4 -0.003635 0.007128 0.017020 0.064024 0.008105 -0.014841
# 5 -0.002129 -0.001476 -0.016222 0.008105 0.056077 0.000953
# 6 0.003242 0.000210 -0.007986 -0.014841 0.000953 0.039567
#
#
# Mechanical properties :
#
#
# Convention : Reuss Voigt Hill
#
# Bulk Modulus (GPa) = 23.64905 38.74617 31.19761
# Shear Modulus (GPa) = 20.78300 28.84145 24.81223
#
# Velocity S-wave (km/s) = 3.21099 3.78262 3.50847
# Velocity P-wave (km/s) = 5.04773 6.18867 5.64709
#
# Compressibility (1/GPa) = 0.04228500
#
# Stress axis : x y z
#
# Youngs Moduli (GPa) = 76.72644 77.41062 34.96549
#
# Poissons Ratio (x) = 0.12660 0.09482
# Poissons Ratio (y) = 0.12548 0.06244
# Poissons Ratio (z) = 0.20806 0.13824
#
# Static dielectric constant tensor:
#      x y z
#    x 1.777380 0.086220 0.080080 
#    y 0.086220 1.802270 0.074000 
#    z 0.080080 0.074000 1.810410 
# 
# From -- ./inp_files/189561.got.cif
#   From: 2010.05.17/outbox.cif.g08.bks.cpg/sg2_95_cif.got.tgz:189561.got - 2010.06.03 11:33:40.
