data_PCOD9103936
_publ_section_title
;
Structure prediction by ZEFSAII (Michael W. Deem and Ramdas Pophale) SiO2 
 PCOD9103936
Probable space group: P -1
;
_chemical_formula_sum "Si O2"
_cell_formula_units_Z 14
_cell_length_a 9.129969
_cell_length_b 9.741175
_cell_length_c 7.914971
_cell_angle_alpha 68.821519
_cell_angle_beta 75.756708
_cell_angle_gamma 83.770882
_cell_volume 636.059617
_symmetry_space_group_name_H-M "P -1"
_symmetry_group_IT_number 2
_symmetry_cell_setting 'triclinic'
loop_
_space_group_symop_operation_xyz
x,y,z
-x,-y,-z
loop_
_atom_site_type_symbol
_atom_site_label
_atom_site_fract_x
_atom_site_fract_y
_atom_site_fract_z
Si Si1 0.556620 0.290277 0.196623
Si Si2 0.442234 0.592636 0.238938
Si Si3 0.361893 0.053131 0.240237
Si Si4 0.167489 0.846152 0.616539
Si Si5 0.352843 0.153992 0.828185
Si Si6 0.891686 0.364865 0.552149
Si Si7 0.047736 0.085474 0.783016
O O1 0.515565 0.434019 0.252188
O O2 0.411369 0.186098 0.286368
O O3 0.705540 0.211046 0.262555
O O4 0.580175 0.333929 0.974030
O O5 0.560306 0.693472 0.258227
O O6 0.281773 0.591790 0.377847
O O7 0.255918 0.937772 0.409115
O O8 0.520782 0.968885 0.197185
O O9 0.301610 0.115877 0.051450
O O10 0.095219 0.705808 0.608116
O O11 0.058625 0.963845 0.686830
O O12 0.214722 0.145990 0.744271
O O13 0.000000 0.500000 0.500000
O O14 0.941049 0.225482 0.715194
O O15 0.000000 0.000000 0.000000
#
# Coordination Sequence:
#
# PCOD9103936 Si02
#       7
#     2   2   2   2   2   2   2
#     4  10  22  39  72 100 128 171 229 281 327 391
#     4  10  23  46  66  96 136 177 222 273 335 405
#     4  10  20  38  70 104 126 163 229 289 322 386
#     4  12  24  43  69  98 133 177 229 283 331 400
#     4  10  21  41  73  94 131 175 226 273 333 396
#     4  12  29  46  64 100 146 178 221 281 346 400
#     4  12  27  47  70 100 138 184 224 275 342 413
#
# _framework density 22.010515000000002
#
# number of rings (size 3 to 8) (size 9 to 14) (size 15 to 20)
#    0.000    1.143    2.857    2.571    6.000    0.571 
#    5.143    1.429    0.000    0.000    0.000    0.000 
#    0.000    0.000    0.000    0.000    0.000    0.000 
#
# Total GULP energy -78389.457599 kJ/mol
# GULP energy per Si atom -5599.246971 kJ/mol
# Density = 2.196042 g / cm^3
# Si number density = 22.010515 Si / 1000 Ang^3
#
#
#
# Elastic Constant Matrix: (Units=GPa)
#
#
# Indices 1 2 3 4 5 6 
#
# 1 72.7712 33.5304 13.3915 2.9076 -1.0545 13.7652
# 2 33.5304 134.5229 18.8421 -3.0834 -8.4520 27.5815
# 3 13.3915 18.8421 62.1840 0.3526 -6.7048 5.9407
# 4 2.9076 -3.0834 0.3526 24.6429 -2.8717 4.5170
# 5 -1.0545 -8.4520 -6.7048 -2.8717 29.6760 -2.7387
# 6 13.7652 27.5815 5.9407 4.5170 -2.7387 44.8186
#
#
#
# Elastic Compliance Matrix: (Units=1/GPa)
#
#
# Indices 1 2 3 4 5 6 
#
# 1 0.016250 -0.003333 -0.002383 -0.001997 -0.001334 -0.002504
# 2 -0.003333 0.009675 -0.001536 0.002765 0.002108 -0.004877
# 3 -0.002383 -0.001536 0.017470 0.000321 0.003413 -0.000462
# 4 -0.001997 0.002765 0.000321 0.042619 0.004438 -0.005155
# 5 -0.001334 0.002108 0.003413 0.004438 0.035486 0.000382
# 6 -0.002504 -0.004877 -0.000462 -0.005155 0.000382 0.026687
#
#
# Mechanical properties :
#
#
# Convention : Reuss Voigt Hill
#
# Bulk Modulus (GPa) = 34.61248 44.55623 39.58435
# Shear Modulus (GPa) = 29.01548 33.40844 31.21196
#
# Velocity S-wave (km/s) = 3.63472 3.90017 3.76978
# Velocity P-wave (km/s) = 5.77706 6.36937 6.08043
#
# Compressibility (1/GPa) = 0.02889132
#
# Stress axis : x y z
#
# Youngs Moduli (GPa) = 61.53860 103.35590 57.23970
#
# Poissons Ratio (x) = 0.34446 0.13640
# Poissons Ratio (y) = 0.20509 0.08795
# Poissons Ratio (z) = 0.14664 0.15880
#
# Static dielectric constant tensor:
#      x y z
#    x 1.796150 0.041450 0.021840 
#    y 0.041450 1.805100 0.004380 
#    z 0.021840 0.004380 1.823020 
# 
# From -- ./inp_files/157206.got.cif
#   From: 2010.05.17/outbox.cif.g08.bks.cpg/sg2_79_cif.got.tgz:157206.got - 2010.06.03 11:33:40.
