data_PCOD9103593
_publ_section_title
;
Structure prediction by ZEFSAII (Michael W. Deem and Ramdas Pophale) SiO2 
 PCOD9103593
Probable space group: P -1
;
_chemical_formula_sum "Si O2"
_cell_formula_units_Z 16
_cell_length_a 11.654350
_cell_length_b 14.491685
_cell_length_c 5.519890
_cell_angle_alpha 63.154783
_cell_angle_beta 84.804224
_cell_angle_gamma 121.821083
_cell_volume 636.902375
_symmetry_space_group_name_H-M "P -1"
_symmetry_group_IT_number 2
_symmetry_cell_setting 'triclinic'
loop_
_space_group_symop_operation_xyz
x,y,z
-x,-y,-z
loop_
_atom_site_type_symbol
_atom_site_label
_atom_site_fract_x
_atom_site_fract_y
_atom_site_fract_z
Si Si1 0.336259 0.443633 0.677852
Si Si2 0.276729 0.206346 0.811173
Si Si3 0.105794 0.709637 0.076571
Si Si4 0.743011 0.410395 0.770954
Si Si5 0.348590 0.961438 0.478507
Si Si6 0.887042 0.647931 0.811894
Si Si7 0.420583 0.221804 0.278541
Si Si8 0.140917 0.913716 0.199844
O O1 0.500000 0.500000 0.500000
O O2 0.228985 0.299018 0.728951
O O3 0.322891 0.553116 0.463927
O O4 0.275804 0.405208 0.008922
O O5 0.382489 0.256721 0.494638
O O6 0.352039 0.231031 0.033385
O O7 0.155741 0.044685 0.001290
O O8 0.171113 0.643676 0.260745
O O9 0.111185 0.814528 0.114004
O O10 0.227762 0.804593 0.734635
O O11 0.953702 0.623119 0.058051
O O12 0.862103 0.550251 0.723707
O O13 0.597041 0.306600 0.091690
O O14 0.305907 0.975301 0.201625
O O15 0.500000 0.000000 0.500000
O O16 0.339795 0.064240 0.502212
O O17 0.005668 0.806631 0.539202
#
# Coordination Sequence:
#
# PCOD9103593 Si02
#       8
#     2   2   2   2   2   2   2   2
#     4  12  27  48  73 106 145 195 250 310 372 448
#     4  11  25  46  77 109 150 191 252 307 375 440
#     4  11  23  46  71 106 149 191 247 303 377 449
#     4  12  26  43  74 106 149 197 246 307 374 446
#     4  10  20  38  67 109 143 187 241 304 372 441
#     4  11  27  47  69 104 147 195 253 303 378 447
#     4  11  23  43  73 113 147 190 242 312 375 436
#     4  10  24  45  72 103 148 194 243 314 371 447
#
# _framework density 25.121587999999999
#
# number of rings (size 3 to 8) (size 9 to 14) (size 15 to 20)
#    0.000    1.000    3.750    1.875    1.750    7.000 
#    0.000    2.500    0.000    0.000    0.000    0.000 
#    0.000    0.000    0.000    0.000    0.000    0.000 
#
# Total GULP energy -89318.584887 kJ/mol
# GULP energy per Si atom -5582.411555 kJ/mol
# Density = 2.506441 g / cm^3
# Si number density = 25.121588 Si / 1000 Ang^3
#
#
#
# Elastic Constant Matrix: (Units=GPa)
#
#
# Indices 1 2 3 4 5 6 
#
# 1 90.6200 13.6834 36.9437 -9.9433 2.9607 7.3161
# 2 13.6834 96.1725 13.6508 -3.9932 8.8918 -7.9881
# 3 36.9437 13.6508 106.9668 -20.0498 -6.9586 -7.9024
# 4 -9.9433 -3.9932 -20.0498 51.3774 2.7789 6.5235
# 5 2.9607 8.8918 -6.9586 2.7789 35.8004 -3.6029
# 6 7.3161 -7.9881 -7.9024 6.5235 -3.6029 41.8772
#
#
#
# Elastic Compliance Matrix: (Units=1/GPa)
#
#
# Indices 1 2 3 4 5 6 
#
# 1 0.013711 -0.001344 -0.004754 0.001315 -0.002223 -0.003945
# 2 -0.001344 0.011137 -0.000964 0.000128 -0.002658 0.001929
# 3 -0.004754 -0.000964 0.012113 0.003228 0.003007 0.002688
# 4 0.001315 0.000128 0.003228 0.021458 -0.001487 -0.003067
# 5 -0.002223 -0.002658 0.003007 -0.001487 0.029803 0.003245
# 6 -0.003945 0.001929 0.002688 -0.003067 0.003245 0.026201
#
#
# Mechanical properties :
#
#
# Convention : Reuss Voigt Hill
#
# Bulk Modulus (GPa) = 43.78366 46.92391 45.35378
# Shear Modulus (GPa) = 36.72203 41.10974 38.91588
#
# Velocity S-wave (km/s) = 3.82746 4.04967 3.94013
# Velocity P-wave (km/s) = 6.08269 6.37069 6.22836
#
# Compressibility (1/GPa) = 0.02283957
#
# Stress axis : x y z
#
# Youngs Moduli (GPa) = 72.93215 89.78899 82.55766
#
# Poissons Ratio (x) = 0.12064 0.39245
# Poissons Ratio (y) = 0.09799 0.07955
# Poissons Ratio (z) = 0.34669 0.08652
#
# Static dielectric constant tensor:
#      x y z
#    x 2.094750 0.019390 0.014700 
#    y 0.019390 1.987600 -0.019000 
#    z 0.014700 -0.019000 2.103080 
# 
# From -- ./inp_files/77180.got.cif
#   From: 2010.05.17/outbox.cif.g08.bks.cpg/sg2_39_cif.got.tgz:77180.got - 2010.06.03 11:33:40.
