data_PCOD9103500
_publ_section_title
;
Structure prediction by ZEFSAII (Michael W. Deem and Ramdas Pophale) SiO2 
 PCOD9103500
Probable space group: P -1
;
_chemical_formula_sum "Si O2"
_cell_formula_units_Z 15
_cell_length_a 15.174476
_cell_length_b 12.528567
_cell_length_c 18.639977
_cell_angle_alpha 24.258629
_cell_angle_beta 29.907969
_cell_angle_gamma 44.661097
_cell_volume 669.788683
_symmetry_space_group_name_H-M "P -1"
_symmetry_group_IT_number 2
_symmetry_cell_setting 'triclinic'
loop_
_space_group_symop_operation_xyz
x,y,z
-x,-y,-z
loop_
_atom_site_type_symbol
_atom_site_label
_atom_site_fract_x
_atom_site_fract_y
_atom_site_fract_z
Si Si1 0.230959 0.608580 0.043056
Si Si2 0.810186 0.590745 0.644629
Si Si3 0.617386 0.035677 0.544853
Si Si4 0.440353 0.804949 0.230452
Si Si5 0.418267 0.164284 0.146597
Si Si6 0.000000 0.500000 0.000000
Si Si7 0.108058 0.250766 0.824630
Si Si8 0.840655 0.894703 0.964106
O O1 0.170918 0.531834 0.215727
O O2 0.306967 0.373971 0.105223
O O3 0.050704 0.621781 0.121736
O O4 0.407912 0.911878 0.733977
O O5 0.705378 0.805633 0.603188
O O6 0.645572 0.349879 0.863936
O O7 0.013716 0.782967 0.350898
O O8 0.602296 0.005016 0.660787
O O9 0.773660 0.337626 0.232010
O O10 0.290917 0.492270 0.512607
O O11 0.344031 0.950656 0.265101
O O12 0.631070 0.812167 0.129954
O O13 0.500000 0.000000 0.000000
O O14 0.933859 0.699733 0.978084
O O15 0.170848 0.152163 0.914089
O O16 0.000000 0.000000 0.000000
#
# Coordination Sequence:
#
# PCOD9103500 Si02
#       8
#     2   2   2   2   2   1   2   2
#     4   9  19  40  67  96 126 169 223 270 322 395
#     4   8  17  37  67  99 118 168 219 272 322 382
#     4   8  16  33  63  99 122 166 212 272 323 385
#     4  12  28  45  66  99 129 178 229 278 326 387
#     4   9  19  38  69  92 128 163 229 270 324 375
#     4  10  20  38  66  94 132 174 220 260 340 396
#     4  12  29  44  64 100 142 180 215 266 347 403
#     4  11  25  43  67  96 137 175 218 276 339 388
#
# _framework density 22.395123000000002
#
# number of rings (size 3 to 8) (size 9 to 14) (size 15 to 20)
#    0.000    2.133    0.000    3.600    7.467    2.133 
#    0.000    6.000    0.000    0.000    0.000    0.000 
#    0.000    0.000    0.000    0.000    0.000    0.000 
#
# Total GULP energy -83573.244365 kJ/mol
# GULP energy per Si atom -5571.549624 kJ/mol
# Density = 2.234415 g / cm^3
# Si number density = 22.395123 Si / 1000 Ang^3
#
#
#
# Elastic Constant Matrix: (Units=GPa)
#
#
# Indices 1 2 3 4 5 6 
#
# 1 99.0810 29.5718 47.8561 2.4630 -19.6633 -10.6049
# 2 29.5718 90.4243 24.0054 -3.0417 0.1464 9.4895
# 3 47.8561 24.0054 157.6211 0.0012 -25.4195 -5.1591
# 4 2.4630 -3.0417 0.0012 27.5210 1.9397 -17.9611
# 5 -19.6633 0.1464 -25.4195 1.9397 18.0513 3.9154
# 6 -10.6049 9.4895 -5.1591 -17.9611 3.9154 27.5031
#
#
#
# Elastic Compliance Matrix: (Units=1/GPa)
#
#
# Indices 1 2 3 4 5 6 
#
# 1 0.015831 -0.005430 -0.001592 0.001389 0.013451 0.006672
# 2 -0.005430 0.014097 -0.001814 -0.002893 -0.006480 -0.008265
# 3 -0.001592 -0.001814 0.008865 -0.001352 0.011080 -0.000785
# 4 0.001389 -0.002893 -0.001352 0.069267 -0.018470 0.049145
# 5 0.013451 -0.006480 0.011080 -0.018470 0.091056 -0.015524
# 6 0.006672 -0.008265 -0.000785 0.049145 -0.015524 0.075941
#
#
# Mechanical properties :
#
#
# Convention : Reuss Voigt Hill
#
# Bulk Modulus (GPa) = 47.34501 61.11034 54.22767
# Shear Modulus (GPa) = 16.67944 30.99460 23.83702
#
# Velocity S-wave (km/s) = 2.73203 3.72424 3.26603
# Velocity P-wave (km/s) = 5.58020 6.77051 6.20397
#
# Compressibility (1/GPa) = 0.02112155
#
# Stress axis : x y z
#
# Youngs Moduli (GPa) = 63.16599 70.93820 112.80231
#
# Poissons Ratio (x) = 0.38519 0.17959
# Poissons Ratio (y) = 0.34299 0.20460
# Poissons Ratio (z) = 0.10057 0.12867
#
# Static dielectric constant tensor:
#      x y z
#    x 1.755750 -0.023690 0.017820 
#    y -0.023690 1.870570 0.001860 
#    z 0.017820 0.001860 1.845070 
# 
# From -- ./inp_files/456625.got.cif
#   From: 2010.05.17/outbox.cif.g08.bks.cpg/sg2_229_cif.got.tgz:456625.got - 2010.06.03 11:33:40.
