data_PCOD9103995
_publ_section_title
;
Structure prediction by ZEFSAII (Michael W. Deem and Ramdas Pophale) SiO2 
 PCOD9103995
Probable space group: P -1
;
_chemical_formula_sum "Si O2"
_cell_formula_units_Z 16
_cell_length_a 23.969452
_cell_length_b 9.545128
_cell_length_c 8.260173
_cell_angle_alpha 61.470910
_cell_angle_beta 55.702444
_cell_angle_gamma 25.143006
_cell_volume 660.494964
_symmetry_space_group_name_H-M "P -1"
_symmetry_group_IT_number 2
_symmetry_cell_setting 'triclinic'
loop_
_space_group_symop_operation_xyz
x,y,z
-x,-y,-z
loop_
_atom_site_type_symbol
_atom_site_label
_atom_site_fract_x
_atom_site_fract_y
_atom_site_fract_z
Si Si1 0.707158 0.582929 0.822391
Si Si2 0.843788 0.897935 0.499927
Si Si3 0.419322 0.213282 0.743781
Si Si4 0.746544 0.951809 0.938139
Si Si5 0.419985 0.916110 0.668092
Si Si6 0.001609 0.806982 0.098297
Si Si7 0.199470 0.293140 0.540870
Si Si8 0.095847 0.099776 0.145533
O O1 0.565333 0.878548 0.786037
O O2 0.773077 0.621750 0.678718
O O3 0.805768 0.247387 0.767699
O O4 0.683873 0.578945 0.049184
O O5 0.750365 0.064383 0.718750
O O6 0.889550 0.975271 0.320150
O O7 0.773461 0.933562 0.458086
O O8 0.000000 0.500000 0.500000
O O9 0.393594 0.127125 0.704162
O O10 0.447186 0.314830 0.535265
O O11 0.825114 0.895717 0.975869
O O12 0.846711 0.595980 0.917467
O O13 0.601499 0.184655 0.116298
O O14 0.295810 0.138878 0.620411
O O15 0.949993 0.848148 0.987988
O O16 0.000000 0.000000 0.000000
O O17 0.039628 0.619052 0.676686
#
# Coordination Sequence:
#
# PCOD9103995 Si02
#       8
#     2   2   2   2   2   2   2   2
#     4  10  23  38  65  93 129 175 211 277 311 381
#     4  10  21  37  59  85 142 171 200 248 314 394
#     4   9  21  44  60  92 124 166 237 265 313 362
#     4  11  22  42  62  94 133 176 202 260 333 380
#     4  10  20  38  71  86 120 178 212 272 315 378
#     4  11  24  37  59  94 137 170 207 246 316 406
#     4  11  20  37  63  99 132 169 207 255 338 387
#     4  12  23  37  62  98 139 158 214 255 331 402
#
# _framework density 24.224257000000001
#
# number of rings (size 3 to 8) (size 9 to 14) (size 15 to 20)
#    0.000    1.500    3.750    2.250    5.250    1.000 
#    0.000    1.250    0.000    0.000    0.000    0.000 
#    0.000    0.000    0.000    0.000    0.000    0.000 
#
# Total GULP energy -89473.942665 kJ/mol
# GULP energy per Si atom -5592.121417 kJ/mol
# Density = 2.416912 g / cm^3
# Si number density = 24.224257 Si / 1000 Ang^3
#
#
#
# Elastic Constant Matrix: (Units=GPa)
#
#
# Indices 1 2 3 4 5 6 
#
# 1 146.6779 11.1632 63.9383 -9.1025 -8.7786 23.6328
# 2 11.1632 41.2673 24.3246 -16.7308 -4.3623 7.8551
# 3 63.9383 24.3246 225.0768 -5.4880 -25.5798 7.8926
# 4 -9.1025 -16.7308 -5.4880 25.0948 6.2287 -8.6761
# 5 -8.7786 -4.3623 -25.5798 6.2287 51.9159 -2.8653
# 6 23.6328 7.8551 7.8926 -8.6761 -2.8653 24.4579
#
#
#
# Elastic Compliance Matrix: (Units=1/GPa)
#
#
# Indices 1 2 3 4 5 6 
#
# 1 0.009136 0.000644 -0.002378 0.000433 -0.000073 -0.008123
# 2 0.000644 0.035746 -0.003559 0.022587 -0.001523 -0.003121
# 3 -0.002378 -0.003559 0.005686 -0.002212 0.002427 0.001105
# 4 0.000433 0.022587 -0.002212 0.060805 -0.005644 0.013950
# 5 -0.000073 -0.001523 0.002427 -0.005644 0.021008 0.000235
# 6 -0.008123 -0.003121 0.001105 0.013950 0.000235 0.054357
#
#
# Mechanical properties :
#
#
# Convention : Reuss Voigt Hill
#
# Bulk Modulus (GPa) = 25.01062 67.98602 46.49832
# Shear Modulus (GPa) = 23.73596 41.20010 32.46803
#
# Velocity S-wave (km/s) = 3.13364 4.12852 3.66500
# Velocity P-wave (km/s) = 4.84148 7.13109 6.09477
#
# Compressibility (1/GPa) = 0.03998302
#
# Stress axis : x y z
#
# Youngs Moduli (GPa) = 109.45202 27.97512 175.86444
#
# Poissons Ratio (x) = -0.01802 0.41819
# Poissons Ratio (y) = -0.07051 0.62593
# Poissons Ratio (z) = 0.26027 0.09957
#
# Static dielectric constant tensor:
#      x y z
#    x 1.890130 -0.048750 0.027640 
#    y -0.048750 1.955430 -0.036620 
#    z 0.027640 -0.036620 1.996260 
# 
# From -- ./inp_files/279820.got.cif
#   From: 2010.05.17/outbox.cif.g08.bks.cpg/sg2_140_cif.got.tgz:279820.got - 2010.06.03 11:33:40.
