data_PCOD9103154
_publ_section_title
;
Structure prediction by ZEFSAII (Michael W. Deem and Ramdas Pophale) SiO2 
 PCOD9103154
Probable space group: P -1
;
_chemical_formula_sum "Si O2"
_cell_formula_units_Z 16
_cell_length_a 7.448456
_cell_length_b 9.940894
_cell_length_c 19.786560
_cell_angle_alpha 45.652347
_cell_angle_beta 67.664260
_cell_angle_gamma 103.257154
_cell_volume 642.857990
_symmetry_space_group_name_H-M "P -1"
_symmetry_group_IT_number 2
_symmetry_cell_setting 'triclinic'
loop_
_space_group_symop_operation_xyz
x,y,z
-x,-y,-z
loop_
_atom_site_type_symbol
_atom_site_label
_atom_site_fract_x
_atom_site_fract_y
_atom_site_fract_z
Si Si1 0.760425 0.260449 0.965188
Si Si2 0.068742 0.143511 0.128587
Si Si3 0.567694 0.757072 0.427127
Si Si4 0.459606 0.189880 0.158742
Si Si5 0.795602 0.668766 0.645524
Si Si6 0.209734 0.840596 0.637775
Si Si7 0.096394 0.688488 0.483893
Si Si8 0.699099 0.855302 0.027505
O O1 0.519880 0.204960 0.975137
O O2 0.070838 0.593637 0.797781
O O3 0.631113 0.172665 0.090020
O O4 0.781945 0.075341 0.991512
O O5 0.202050 0.095649 0.182549
O O6 0.308870 0.480852 0.972075
O O7 0.048376 0.036922 0.095335
O O8 0.764479 0.985955 0.258760
O O9 0.500000 0.500000 0.500000
O O10 0.277557 0.670519 0.508324
O O11 0.743074 0.927675 0.411162
O O12 0.313783 0.001696 0.312494
O O13 0.471978 0.431842 0.805781
O O14 0.968339 0.669641 0.674733
O O15 0.833695 0.591588 0.596277
O O16 0.000000 0.000000 0.500000
O O17 0.500000 0.000000 0.500000
O O18 0.000000 0.500000 0.500000
#
# Coordination Sequence:
#
# PCOD9103154 Si02
#       8
#     2   2   2   2   2   2   2   2
#     4   9  18  36  62  88 122 165 210 261 311 379
#     4  10  21  39  64  95 123 169 214 261 325 385
#     4  12  27  43  65  95 133 176 218 274 329 389
#     4  10  20  38  65  90 127 165 214 263 319 393
#     4  11  24  41  69  97 131 172 215 266 322 387
#     4  11  23  44  65  93 127 172 221 264 325 388
#     4  12  26  43  65  98 132 174 218 274 329 386
#     4   9  19  35  61  93 122 162 213 258 309 379
#
# _framework density 24.888856000000001
#
# number of rings (size 3 to 8) (size 9 to 14) (size 15 to 20)
#    0.000    1.500    2.500    2.250    7.000    2.500 
#    0.000    0.000    0.000    2.250    0.000    0.000 
#    0.000    0.000    0.000    0.000    0.000    0.000 
#
# Total GULP energy -89469.599477 kJ/mol
# GULP energy per Si atom -5591.849967 kJ/mol
# Density = 2.483221 g / cm^3
# Si number density = 24.888856 Si / 1000 Ang^3
#
#
#
# Elastic Constant Matrix: (Units=GPa)
#
#
# Indices 1 2 3 4 5 6 
#
# 1 29.9460 0.7228 -0.2704 5.0946 0.4441 2.3845
# 2 0.7228 152.1848 16.5520 18.1786 3.2599 -14.4856
# 3 -0.2704 16.5520 69.2043 1.4886 4.5950 -5.6402
# 4 5.0946 18.1786 1.4886 39.3258 -7.5386 -3.8121
# 5 0.4441 3.2599 4.5950 -7.5386 25.0727 2.8281
# 6 2.3845 -14.4856 -5.6402 -3.8121 2.8281 23.9391
#
#
#
# Elastic Compliance Matrix: (Units=1/GPa)
#
#
# Indices 1 2 3 4 5 6 
#
# 1 0.034632 0.000120 0.000011 -0.005269 -0.001763 -0.004005
# 2 0.000120 0.007552 -0.001257 -0.003507 -0.002256 0.003970
# 3 0.000011 -0.001257 0.015216 -0.000279 -0.003064 0.003141
# 4 -0.005269 -0.003507 -0.000279 0.029719 0.009314 0.001969
# 5 -0.001763 -0.002256 -0.003064 0.009314 0.044208 -0.005651
# 6 -0.004005 0.003970 0.003141 0.001969 -0.005651 0.046295
#
#
# Mechanical properties :
#
#
# Convention : Reuss Voigt Hill
#
# Bulk Modulus (GPa) = 18.13308 31.70488 24.91898
# Shear Modulus (GPa) = 25.21980 33.28957 29.25469
#
# Velocity S-wave (km/s) = 3.18669 3.66119 3.43215
# Velocity P-wave (km/s) = 4.56524 5.53522 5.07346
#
# Compressibility (1/GPa) = 0.05514782
#
# Stress axis : x y z
#
# Youngs Moduli (GPa) = 28.87495 132.41243 65.72003
#
# Poissons Ratio (x) = -0.01593 -0.00069
# Poissons Ratio (y) = -0.00347 0.08262
# Poissons Ratio (z) = -0.00030 0.16645
#
# Static dielectric constant tensor:
#      x y z
#    x 2.076010 0.041860 0.051540 
#    y 0.041860 1.945840 -0.006090 
#    z 0.051540 -0.006090 2.035500 
# 
# From -- ./inp_files/190256.got.cif
#   From: 2010.05.17/outbox.cif.g08.bks.cpg/sg2_96_cif.got.tgz:190256.got - 2010.06.03 11:33:40.
