data_PCOD9103785
_publ_section_title
;
Structure prediction by ZEFSAII (Michael W. Deem and Ramdas Pophale) SiO2 
 PCOD9103785
Probable space group: P -1
;
_chemical_formula_sum "Si O2"
_cell_formula_units_Z 14
_cell_length_a 5.301368
_cell_length_b 20.268969
_cell_length_c 7.764651
_cell_angle_alpha 132.110881
_cell_angle_beta 117.917483
_cell_angle_gamma 63.827743
_cell_volume 536.538750
_symmetry_space_group_name_H-M "P -1"
_symmetry_group_IT_number 2
_symmetry_cell_setting 'triclinic'
loop_
_space_group_symop_operation_xyz
x,y,z
-x,-y,-z
loop_
_atom_site_type_symbol
_atom_site_label
_atom_site_fract_x
_atom_site_fract_y
_atom_site_fract_z
Si Si1 0.796374 0.915587 0.107026
Si Si2 0.686273 0.483496 0.807102
Si Si3 0.418918 0.925996 0.475652
Si Si4 0.928267 0.766403 0.652886
Si Si5 0.656374 0.367447 0.253896
Si Si6 0.761923 0.770948 0.105237
Si Si7 0.337955 0.696694 0.343249
O O1 0.658266 0.842509 0.043890
O O2 0.104092 0.910147 0.291657
O O3 0.630179 0.018195 0.263123
O O4 0.865349 0.871680 0.866483
O O5 0.716522 0.434302 0.543264
O O6 0.444950 0.572370 0.840939
O O7 0.594778 0.409942 0.776499
O O8 0.000000 0.500000 0.000000
O O9 0.643491 0.833990 0.345186
O O10 0.500000 0.000000 0.500000
O O11 0.634731 0.729896 0.463059
O O12 0.065410 0.712562 0.775267
O O13 0.168932 0.740137 0.537410
O O14 0.390745 0.315277 0.109596
O O15 0.100000 0.732583 0.184710
#
# Coordination Sequence:
#
# PCOD9103785 Si02
#       7
#     2   2   2   2   2   2   2
#     4  10  20  38  68  93 130 175 231 276 334 412
#     4  10  20  41  66 101 139 175 230 287 335 398
#     4   9  20  36  65  97 127 168 231 278 333 406
#     4  11  24  44  66 100 135 185 225 281 341 407
#     4  10  21  39  70  95 135 186 229 272 346 403
#     4  11  21  41  67  99 133 182 229 276 341 412
#     4  11  26  42  67  99 143 176 227 287 342 398
#
# _framework density 26.093178000000002
#
# number of rings (size 3 to 8) (size 9 to 14) (size 15 to 20)
#    0.000    1.714    2.857    1.714    4.000    0.571 
#    0.000    5.714    0.000    0.000    0.000    0.000 
#    0.000    0.000    0.000    0.000    0.000    0.000 
#
# Total GULP energy -78328.195712 kJ/mol
# GULP energy per Si atom -5594.871122 kJ/mol
# Density = 2.603379 g / cm^3
# Si number density = 26.093178 Si / 1000 Ang^3
#
#
#
# Elastic Constant Matrix: (Units=GPa)
#
#
# Indices 1 2 3 4 5 6 
#
# 1 70.6727 25.2669 26.6301 -1.4879 6.4890 0.4619
# 2 25.2669 131.0236 37.2587 -20.7504 7.6990 -29.5178
# 3 26.6301 37.2587 127.0274 1.4934 12.0125 0.7077
# 4 -1.4879 -20.7504 1.4934 41.3519 -9.9164 -2.3689
# 5 6.4890 7.6990 12.0125 -9.9164 49.5244 -0.5911
# 6 0.4619 -29.5178 0.7077 -2.3689 -0.5911 49.2381
#
#
#
# Elastic Compliance Matrix: (Units=1/GPa)
#
#
# Indices 1 2 3 4 5 6 
#
# 1 0.016236 -0.003042 -0.002356 -0.001301 -0.001368 -0.002021
# 2 -0.003042 0.011723 -0.002983 0.006470 0.000684 0.007419
# 3 -0.002356 -0.002983 0.009477 -0.002535 -0.002058 -0.002049
# 4 -0.001301 0.006470 -0.002535 0.029145 0.005680 0.005398
# 5 -0.001368 0.000684 -0.002058 0.005680 0.021913 0.000989
# 6 -0.002021 0.007419 -0.002049 0.005398 0.000989 0.025077
#
#
# Mechanical properties :
#
#
# Convention : Reuss Voigt Hill
#
# Bulk Modulus (GPa) = 48.36764 56.33723 52.35244
# Shear Modulus (GPa) = 36.43672 43.99408 40.21540
#
# Velocity S-wave (km/s) = 3.74091 4.11059 3.93010
# Velocity P-wave (km/s) = 6.10213 6.64582 6.37977
#
# Compressibility (1/GPa) = 0.02067498
#
# Stress axis : x y z
#
# Youngs Moduli (GPa) = 61.58995 85.30358 105.51997
#
# Poissons Ratio (x) = 0.25952 0.24856
# Poissons Ratio (y) = 0.18737 0.31474
# Poissons Ratio (z) = 0.14508 0.25444
#
# Static dielectric constant tensor:
#      x y z
#    x 1.741480 -0.593010 -0.710010 
#    y -0.593010 1.035790 -1.020470 
#    z -0.710010 -1.020470 1.078020 
# 
# From -- ./inp_files/54821.got.cif
#   From: 2010.05.17/outbox.cif.g08.bks.cpg/sg2_28_cif.got.tgz:54821.got - 2010.06.03 11:33:40.
