data_PCOD9103122
_publ_section_title
;
Structure prediction by ZEFSAII (Michael W. Deem and Ramdas Pophale) SiO2 
 PCOD9103122
Probable space group: P -1
;
_chemical_formula_sum "Si O2"
_cell_formula_units_Z 12
_cell_length_a 9.495093
_cell_length_b 8.783208
_cell_length_c 10.369277
_cell_angle_alpha 98.333766
_cell_angle_beta 58.642428
_cell_angle_gamma 119.952385
_cell_volume 632.072019
_symmetry_space_group_name_H-M "P -1"
_symmetry_group_IT_number 2
_symmetry_cell_setting 'triclinic'
loop_
_space_group_symop_operation_xyz
x,y,z
-x,-y,-z
loop_
_atom_site_type_symbol
_atom_site_label
_atom_site_fract_x
_atom_site_fract_y
_atom_site_fract_z
Si Si1 0.026418 0.123982 0.882042
Si Si2 0.141425 0.014233 0.547948
Si Si3 0.458682 0.659064 0.534764
Si Si4 0.376679 0.896201 0.925120
Si Si5 0.404022 0.880382 0.403505
Si Si6 0.796503 0.473998 0.131708
O O1 0.069346 0.043787 0.724000
O O2 0.183624 0.331823 0.859524
O O3 0.829849 0.124412 0.960303
O O4 0.000000 0.000000 0.000000
O O5 0.355229 0.184946 0.462252
O O6 0.193477 0.856927 0.494327
O O7 0.000000 0.000000 0.500000
O O8 0.500000 0.500000 0.500000
O O9 0.424387 0.712910 0.415811
O O10 0.268824 0.598894 0.701372
O O11 0.350272 0.698812 0.901888
O O12 0.475106 0.015290 0.765748
O O13 0.500000 0.000000 0.000000
O O14 0.500000 0.000000 0.500000
O O15 0.000000 0.500000 0.000000
#
# Coordination Sequence:
#
# PCOD9103122 Si02
#       6
#     2   2   2   2   2   2
#     4  11  23  38  62  89 120 165 211 248 305 377
#     4  11  22  38  62  93 124 156 202 259 315 358
#     4  11  21  40  65  89 119 163 216 252 300 377
#     4  11  22  40  62  90 126 159 200 261 316 359
#     4  10  20  38  65  88 118 165 209 244 306 376
#     4  10  22  38  62  86 123 160 210 249 306 366
#
# _framework density 18.985178999999999
#
# number of rings (size 3 to 8) (size 9 to 14) (size 15 to 20)
#    0.000    1.333    5.000    3.000    2.333    0.000 
#    0.000    3.333    0.000    0.000    0.000    0.000 
#    0.000    0.000    0.000    0.000    0.000    0.000 
#
# Total GULP energy -66804.623263 kJ/mol
# GULP energy per Si atom -5567.051939 kJ/mol
# Density = 1.894197 g / cm^3
# Si number density = 18.985179 Si / 1000 Ang^3
#
#
#
# Elastic Constant Matrix: (Units=GPa)
#
#
# Indices 1 2 3 4 5 6 
#
# 1 115.6743 44.0250 37.7676 -4.4825 3.5961 -8.8513
# 2 44.0250 111.7299 41.9937 -10.3255 18.6278 -7.5634
# 3 37.7676 41.9937 141.9079 -11.2242 -9.3608 6.7090
# 4 -4.4825 -10.3255 -11.2242 23.5160 -5.5999 1.1382
# 5 3.5961 18.6278 -9.3608 -5.5999 34.3824 6.4266
# 6 -8.8513 -7.5634 6.7090 1.1382 6.4266 25.4698
#
#
#
# Elastic Compliance Matrix: (Units=1/GPa)
#
#
# Indices 1 2 3 4 5 6 
#
# 1 0.010843 -0.003092 -0.002265 -0.000764 -0.000893 0.003706
# 2 -0.003092 0.013780 -0.004092 0.000986 -0.009291 0.006396
# 3 -0.002265 -0.004092 0.010010 0.004578 0.007168 -0.006653
# 4 -0.000764 0.000986 0.004578 0.047562 0.009610 -0.005729
# 5 -0.000893 -0.009291 0.007168 0.009610 0.040653 -0.015645
# 6 0.003706 0.006396 -0.006653 -0.005729 -0.015645 0.048405
#
#
# Mechanical properties :
#
#
# Convention : Reuss Voigt Hill
#
# Bulk Modulus (GPa) = 63.55625 68.54275 66.04950
# Shear Modulus (GPa) = 25.58898 33.04203 29.31550
#
# Velocity S-wave (km/s) = 3.67528 4.17635 3.93380
# Velocity P-wave (km/s) = 7.18051 7.70957 7.44974
#
# Compressibility (1/GPa) = 0.01573409
#
# Stress axis : x y z
#
# Youngs Moduli (GPa) = 92.22424 72.57126 99.89852
#
# Poissons Ratio (x) = 0.22439 0.22631
# Poissons Ratio (y) = 0.28515 0.40879
# Poissons Ratio (z) = 0.20892 0.29697
#
# Static dielectric constant tensor:
#      x y z
#    x 1.684600 -0.105320 -0.035630 
#    y -0.105320 1.833090 -0.001120 
#    z -0.035630 -0.001120 1.674880 
# 
# From -- ./inp_files/147717.got.cif
#   From: 2010.05.17/outbox.cif.g08.bks.cpg/sg2_74_cif.got.tgz:147717.got - 2010.06.03 11:33:40.
