data_PCOD9103428
_publ_section_title
;
Structure prediction by ZEFSAII (Michael W. Deem and Ramdas Pophale) SiO2 
 PCOD9103428
Probable space group: P -1
;
_chemical_formula_sum "Si O2"
_cell_formula_units_Z 14
_cell_length_a 13.239090
_cell_length_b 9.908686
_cell_length_c 6.509479
_cell_angle_alpha 105.424973
_cell_angle_beta 86.534508
_cell_angle_gamma 132.607305
_cell_volume 597.188669
_symmetry_space_group_name_H-M "P -1"
_symmetry_group_IT_number 2
_symmetry_cell_setting 'triclinic'
loop_
_space_group_symop_operation_xyz
x,y,z
-x,-y,-z
loop_
_atom_site_type_symbol
_atom_site_label
_atom_site_fract_x
_atom_site_fract_y
_atom_site_fract_z
Si Si1 0.519627 0.678684 0.986346
Si Si2 0.017685 0.668336 0.461391
Si Si3 0.778794 0.486185 0.088364
Si Si4 0.649095 0.626658 0.649008
Si Si5 0.530393 0.215511 0.574458
Si Si6 0.293753 0.850568 0.285956
Si Si7 0.921939 0.798764 0.823039
O O1 0.369454 0.580557 0.872719
O O2 0.642757 0.756524 0.849829
O O3 0.500000 0.500000 0.000000
O O4 0.550079 0.822995 0.216605
O O5 0.886144 0.576880 0.296423
O O6 0.021292 0.788111 0.685028
O O7 0.000000 0.500000 0.500000
O O8 0.156243 0.793251 0.358866
O O9 0.741799 0.291673 0.946629
O O10 0.848637 0.638643 0.951989
O O11 0.500000 0.500000 0.500000
O O12 0.620171 0.439362 0.643140
O O13 0.813979 0.764264 0.654731
O O14 0.637984 0.190779 0.570922
O O15 0.422019 0.080118 0.353392
O O16 0.000000 0.000000 0.000000
#
# Coordination Sequence:
#
# PCOD9103428 Si02
#       7
#     2   2   2   2   2   2   2
#     4   9  17  35  65  83 119 169 209 252 334 372
#     4  12  25  42  68  93 135 181 212 264 341 396
#     4  11  22  44  66  94 133 170 219 275 327 388
#     4  11  21  39  61  90 130 166 211 275 324 384
#     4   9  19  37  63  92 117 160 218 262 315 384
#     4  10  20  38  66  91 121 167 216 266 319 387
#     4  12  27  43  64 101 136 171 227 272 321 409
#
# _framework density 23.443179000000001
#
# number of rings (size 3 to 8) (size 9 to 14) (size 15 to 20)
#    0.000    1.429    5.714    1.286    2.000    1.714 
#    0.000    0.000    0.000    6.000    0.000    0.000 
#    0.000    0.000    0.000    0.000    0.000    0.000 
#
# Total GULP energy -77955.887805 kJ/mol
# GULP energy per Si atom -5568.277700 kJ/mol
# Density = 2.338982 g / cm^3
# Si number density = 23.443179 Si / 1000 Ang^3
#
#
#
# Elastic Constant Matrix: (Units=GPa)
#
#
# Indices 1 2 3 4 5 6 
#
# 1 165.7192 22.2279 50.8905 4.5336 -21.2394 4.8045
# 2 22.2279 23.9287 20.1630 8.9901 -2.7504 -7.8593
# 3 50.8905 20.1630 122.7939 37.3798 -11.6190 -5.0427
# 4 4.5336 8.9901 37.3798 27.7271 -4.9019 2.8975
# 5 -21.2394 -2.7504 -11.6190 -4.9019 50.0039 -5.1188
# 6 4.8045 -7.8593 -5.0427 2.8975 -5.1188 29.8280
#
#
#
# Elastic Compliance Matrix: (Units=1/GPa)
#
#
# Indices 1 2 3 4 5 6 
#
# 1 0.009005 -0.008975 -0.005030 0.009203 0.002540 -0.005124
# 2 -0.008975 0.064843 0.000920 -0.023007 -0.000148 0.020896
# 3 -0.005030 0.000920 0.017636 -0.023863 0.000329 0.006409
# 4 0.009203 -0.023007 -0.023863 0.076609 0.002709 -0.018555
# 5 0.002540 -0.000148 0.000329 0.002709 0.021726 0.003073
# 6 -0.005124 0.020896 0.006409 -0.018555 0.003073 0.043270
#
#
# Mechanical properties :
#
#
# Convention : Reuss Voigt Hill
#
# Bulk Modulus (GPa) = 15.31088 55.44495 35.37792
# Shear Modulus (GPa) = 17.79175 36.12249 26.95712
#
# Velocity S-wave (km/s) = 2.75786 3.92963 3.39468
# Velocity P-wave (km/s) = 4.08488 6.65518 5.52167
#
# Compressibility (1/GPa) = 0.06531302
#
# Stress axis : x y z
#
# Youngs Moduli (GPa) = 111.04776 15.42194 56.70351
#
# Poissons Ratio (x) = 0.13842 0.28522
# Poissons Ratio (y) = 0.99668 -0.05217
# Poissons Ratio (z) = 0.55856 -0.01419
#
# Static dielectric constant tensor:
#      x y z
#    x 1.916380 0.024890 0.032020 
#    y 0.024890 2.082180 -0.111370 
#    z 0.032020 -0.111370 1.995880 
# 
# From -- ./inp_files/263480.got.cif
#   From: 2010.05.17/outbox.cif.g08.bks.cpg/sg2_132_cif.got.tgz:263480.got - 2010.06.03 11:33:40.
