data_PCOD9103963
_publ_section_title
;
Structure prediction by ZEFSAII (Michael W. Deem and Ramdas Pophale) SiO2 
 PCOD9103963
Probable space group: P -1
;
_chemical_formula_sum "Si O2"
_cell_formula_units_Z 14
_cell_length_a 9.194980
_cell_length_b 8.497319
_cell_length_c 13.044731
_cell_angle_alpha 113.140739
_cell_angle_beta 141.734167
_cell_angle_gamma 76.003555
_cell_volume 576.433800
_symmetry_space_group_name_H-M "P -1"
_symmetry_group_IT_number 2
_symmetry_cell_setting 'triclinic'
loop_
_space_group_symop_operation_xyz
x,y,z
-x,-y,-z
loop_
_atom_site_type_symbol
_atom_site_label
_atom_site_fract_x
_atom_site_fract_y
_atom_site_fract_z
Si Si1 0.305339 0.257086 0.555113
Si Si2 0.495749 0.220675 0.103564
Si Si3 0.733153 0.497744 0.820162
Si Si4 0.336584 0.881248 0.031187
Si Si5 0.937884 0.191763 0.485355
Si Si6 0.595658 0.083102 0.416232
Si Si7 0.820593 0.695734 0.713956
O O1 0.581238 0.317111 0.711309
O O2 0.279706 0.049099 0.479065
O O3 0.188744 0.354448 0.423437
O O4 0.174366 0.295775 0.598147
O O5 0.394449 0.374126 0.145664
O O6 0.530336 0.234030 0.004045
O O7 0.748689 0.195989 0.289437
O O8 0.320629 0.050244 0.994330
O O9 0.739182 0.559056 0.721597
O O10 0.000000 0.500000 0.000000
O O11 0.085024 0.787485 0.902669
O O12 0.487950 0.959972 0.231129
O O13 0.790888 0.228900 0.514453
O O14 0.000000 0.000000 0.500000
O O15 0.374179 0.170142 0.354329
#
# Coordination Sequence:
#
# PCOD9103963 Si02
#       7
#     2   2   2   2   2   2   2
#     4  11  24  41  65  96 136 168 216 267 334 394
#     4  10  21  42  66  95 129 172 216 272 318 386
#     4  12  27  45  63  95 138 179 218 259 330 399
#     4  10  20  38  70  93 123 166 224 265 323 371
#     4   9  18  39  65  95 126 161 219 269 321 379
#     4  10  21  40  66 101 127 167 220 272 319 385
#     4  12  22  41  66  96 132 173 219 270 325 377
#
# _framework density 24.287264
#
# number of rings (size 3 to 8) (size 9 to 14) (size 15 to 20)
#    0.000    1.429    4.286    2.143    2.000    0.571 
#    0.000    2.857    0.000    0.000    0.000    0.000 
#    0.000    0.000    0.000    0.000    0.000    0.000 
#
# Total GULP energy -78177.265152 kJ/mol
# GULP energy per Si atom -5584.090368 kJ/mol
# Density = 2.423198 g / cm^3
# Si number density = 24.287264 Si / 1000 Ang^3
#
#
#
# Elastic Constant Matrix: (Units=GPa)
#
#
# Indices 1 2 3 4 5 6 
#
# 1 165.6231 48.6015 32.9017 1.7596 17.2924 33.1984
# 2 48.6015 61.0592 12.5463 -8.2751 -0.4468 13.7596
# 3 32.9017 12.5463 67.1160 -7.5703 21.0155 7.0034
# 4 1.7596 -8.2751 -7.5703 28.7771 8.6046 7.7210
# 5 17.2924 -0.4468 21.0155 8.6046 45.9049 10.6764
# 6 33.1984 13.7596 7.0034 7.7210 10.6764 44.7367
#
#
#
# Elastic Compliance Matrix: (Units=1/GPa)
#
#
# Indices 1 2 3 4 5 6 
#
# 1 0.009363 -0.006185 -0.002893 -0.001726 -0.000996 -0.004058
# 2 -0.006185 0.023477 -0.000900 0.007281 0.002623 -0.004373
# 3 -0.002893 -0.000900 0.020490 0.008220 -0.009876 0.000155
# 4 -0.001726 0.007281 0.008220 0.043990 -0.009528 -0.007564
# 5 -0.000996 0.002623 -0.009876 -0.009528 0.029397 -0.003893
# 6 -0.004058 -0.004373 0.000155 -0.007564 -0.003893 0.028919
#
#
# Mechanical properties :
#
#
# Convention : Reuss Voigt Hill
#
# Bulk Modulus (GPa) = 29.96509 53.54417 41.75463
# Shear Modulus (GPa) = 26.77837 37.20032 31.98934
#
# Velocity S-wave (km/s) = 3.32410 3.91791 3.63316
# Velocity P-wave (km/s) = 5.20552 6.52386 5.90162
#
# Compressibility (1/GPa) = 0.03337217
#
# Stress axis : x y z
#
# Youngs Moduli (GPa) = 106.80121 42.59474 48.80539
#
# Poissons Ratio (x) = 0.26346 0.14121
# Poissons Ratio (y) = 0.66058 0.04394
# Poissons Ratio (z) = 0.30902 0.03835
#
# Static dielectric constant tensor:
#      x y z
#    x 2.030460 0.010010 -0.047480 
#    y 0.010010 1.930630 0.017350 
#    z -0.047480 0.017350 1.965460 
# 
# From -- ./inp_files/238848.got.cif
#   From: 2010.05.17/outbox.cif.g08.bks.cpg/sg2_120_cif.got.tgz:238848.got - 2010.06.03 11:33:40.
