data_PCOD9103401
_publ_section_title
;
Structure prediction by ZEFSAII (Michael W. Deem and Ramdas Pophale) SiO2 
 PCOD9103401
Probable space group: P -1
;
_chemical_formula_sum "Si O2"
_cell_formula_units_Z 16
_cell_length_a 9.340061
_cell_length_b 33.740829
_cell_length_c 16.437751
_cell_angle_alpha 162.030127
_cell_angle_beta 41.747665
_cell_angle_gamma 146.846814
_cell_volume 834.291184
_symmetry_space_group_name_H-M "P -1"
_symmetry_group_IT_number 2
_symmetry_cell_setting 'triclinic'
loop_
_space_group_symop_operation_xyz
x,y,z
-x,-y,-z
loop_
_atom_site_type_symbol
_atom_site_label
_atom_site_fract_x
_atom_site_fract_y
_atom_site_fract_z
Si Si1 0.966671 0.785100 0.562258
Si Si2 0.103075 0.664623 0.823877
Si Si3 0.696689 0.328146 0.778564
Si Si4 0.296318 0.479823 0.979830
Si Si5 0.170103 0.178413 0.816791
Si Si6 0.874809 0.258542 0.853621
Si Si7 0.247158 0.136296 0.053261
Si Si8 0.771406 0.925109 0.238788
O O1 0.758750 0.636754 0.299605
O O2 0.821837 0.768029 0.674546
O O3 0.233619 0.795907 0.486533
O O4 0.068598 0.951504 0.800783
O O5 0.433943 0.782899 0.914769
O O6 0.000000 0.500000 0.500000
O O7 0.022838 0.648094 0.921179
O O8 0.978591 0.743358 0.986900
O O9 0.470933 0.285839 0.857330
O O10 0.614757 0.354640 0.777106
O O11 0.000000 0.500000 0.000000
O O12 0.014237 0.378759 0.952554
O O13 0.500000 0.500000 0.000000
O O14 0.175229 0.144844 0.843761
O O15 0.000000 0.000000 0.500000
O O16 0.551694 0.162019 0.795209
O O17 0.917107 0.119327 0.561628
O O18 0.173645 0.122872 0.963779
#
# Coordination Sequence:
#
# PCOD9103401 Si02
#       8
#     2   2   2   2   2   2   2   2
#     4  10  21  41  63  88 123 167 215 244 317 384
#     4  11  25  40  62  95 134 163 203 264 336 365
#     4  10  23  38  63  91 123 162 208 256 310 375
#     4  11  22  36  62  91 124 155 206 264 316 365
#     4  12  23  40  69  97 124 163 217 271 310 372
#     4  10  20  39  62  90 119 167 210 255 305 383
#     4  10  22  41  63  86 126 173 203 257 311 391
#     4  10  20  38  66  89 118 159 225 254 298 375
#
# _framework density 19.177956999999999
#
# number of rings (size 3 to 8) (size 9 to 14) (size 15 to 20)
#    0.000    1.500    2.500    3.000    7.000    0.000 
#    2.250    1.250    0.000    3.750    0.000    0.000 
#    0.000    0.000    0.000    0.000    0.000    0.000 
#
# Total GULP energy -89305.229099 kJ/mol
# GULP energy per Si atom -5581.576819 kJ/mol
# Density = 1.913431 g / cm^3
# Si number density = 19.177957 Si / 1000 Ang^3
#
#
#
# Elastic Constant Matrix: (Units=GPa)
#
#
# Indices 1 2 3 4 5 6 
#
# 1 131.2499 37.7360 46.7981 -21.2487 -2.7657 -29.3483
# 2 37.7360 103.0270 28.6997 -18.6262 11.4256 -25.8009
# 3 46.7981 28.6997 88.7452 -23.2467 8.1629 -13.4587
# 4 -21.2487 -18.6262 -23.2467 33.2016 -2.7885 6.0479
# 5 -2.7657 11.4256 8.1629 -2.7885 27.0645 0.3764
# 6 -29.3483 -25.8009 -13.4587 6.0479 0.3764 39.6323
#
#
#
# Elastic Compliance Matrix: (Units=1/GPa)
#
#
# Indices 1 2 3 4 5 6 
#
# 1 0.011289 -0.001435 -0.004235 0.002717 0.003240 0.005542
# 2 -0.001435 0.013580 -0.000984 0.004327 -0.005232 0.006833
# 3 -0.004235 -0.000984 0.016313 0.007696 -0.004153 0.000628
# 4 0.002717 0.004327 0.007696 0.039429 0.000172 0.001424
# 5 0.003240 -0.005232 -0.004153 0.000172 0.040798 -0.002831
# 6 0.005542 0.006833 0.000628 0.001424 -0.002831 0.033807
#
#
# Mechanical properties :
#
#
# Convention : Reuss Voigt Hill
#
# Bulk Modulus (GPa) = 35.87608 61.05441 48.46524
# Shear Modulus (GPa) = 28.11916 33.96556 31.04236
#
# Velocity S-wave (km/s) = 3.83328 4.21298 4.02761
# Velocity P-wave (km/s) = 6.19190 7.45456 6.85237
#
# Compressibility (1/GPa) = 0.02787373
#
# Stress axis : x y z
#
# Youngs Moduli (GPa) = 88.58202 73.64000 61.30167
#
# Poissons Ratio (x) = 0.10571 0.25959
# Poissons Ratio (y) = 0.12716 0.06031
# Poissons Ratio (z) = 0.37511 0.07244
#
# Static dielectric constant tensor:
#      x y z
#    x 1.685040 0.007060 0.005350 
#    y 0.007060 1.700060 0.013870 
#    z 0.005350 0.013870 1.696560 
# 
# From -- ./inp_files/508634.got.cif
#   From: 2010.05.17/outbox.cif.g08.bks.cpg/sg2_255_cif.got.tgz:508634.got - 2010.06.03 11:33:40.
