data_PCOD9103678
_publ_section_title
;
Structure prediction by ZEFSAII (Michael W. Deem and Ramdas Pophale) SiO2 
 PCOD9103678
Probable space group: P -1
;
_chemical_formula_sum "Si O2"
_cell_formula_units_Z 12
_cell_length_a 12.290069
_cell_length_b 9.932763
_cell_length_c 14.644547
_cell_angle_alpha 141.339143
_cell_angle_beta 27.305594
_cell_angle_gamma 124.588665
_cell_volume 459.997842
_symmetry_space_group_name_H-M "P -1"
_symmetry_group_IT_number 2
_symmetry_cell_setting 'triclinic'
loop_
_space_group_symop_operation_xyz
x,y,z
-x,-y,-z
loop_
_atom_site_type_symbol
_atom_site_label
_atom_site_fract_x
_atom_site_fract_y
_atom_site_fract_z
Si Si1 0.804357 0.095499 0.822277
Si Si2 0.679332 0.130170 0.320775
Si Si3 0.955066 0.659988 0.357490
Si Si4 0.502070 0.256555 0.721232
Si Si5 0.682666 0.639750 0.814761
Si Si6 0.400256 0.849845 0.805957
O O1 0.977187 0.209534 0.707656
O O2 0.933363 0.820708 0.546963
O O3 0.518675 0.228120 0.052038
O O4 0.804801 0.114657 0.940825
O O5 0.617169 0.254011 0.532044
O O6 0.606869 0.252222 0.340840
O O7 0.475531 0.004078 0.412172
O O8 0.000000 0.000000 0.000000
O O9 0.671272 0.683379 0.563991
O O10 0.185845 0.398779 0.044488
O O11 0.599082 0.430663 0.793863
O O12 0.000000 0.500000 0.500000
O O13 0.622737 0.878585 0.045075
#
# Coordination Sequence:
#
# PCOD9103678 Si02
#       6
#     2   2   2   2   2   2
#     4   9  20  38  62  98 132 160 206 264 317 377
#     4  11  26  46  64  90 130 173 216 265 319 380
#     4   9  19  39  64  91 127 165 207 262 317 375
#     4  10  24  45  65  91 129 171 217 262 315 384
#     4  10  20  38  67  96 125 164 208 258 315 374
#     4  11  23  38  66  98 126 165 210 265 322 374
#
# _framework density 26.087081000000001
#
# number of rings (size 3 to 8) (size 9 to 14) (size 15 to 20)
#    0.000    2.000    0.000    4.000    0.000   12.000 
#    0.000    7.500    0.000    0.000    0.000    0.000 
#    0.000    0.000    0.000    0.000    0.000    0.000 
#
# Total GULP energy -66936.994604 kJ/mol
# GULP energy per Si atom -5578.082884 kJ/mol
# Density = 2.602771 g / cm^3
# Si number density = 26.087081 Si / 1000 Ang^3
#
#
#
# Elastic Constant Matrix: (Units=GPa)
#
#
# Indices 1 2 3 4 5 6 
#
# 1 102.8359 34.5319 33.9639 -8.3899 29.6747 -31.3650
# 2 34.5319 111.3488 11.6417 -8.2097 31.6171 18.2961
# 3 33.9639 11.6417 102.0717 -10.0513 12.9854 -4.6749
# 4 -8.3899 -8.2097 -10.0513 27.0420 -9.6127 7.6721
# 5 29.6747 31.6171 12.9854 -9.6127 42.4801 -12.0941
# 6 -31.3650 18.2961 -4.6749 7.6721 -12.0941 30.8343
#
#
#
# Elastic Compliance Matrix: (Units=1/GPa)
#
#
# Indices 1 2 3 4 5 6 
#
# 1 0.028677 -0.017262 -0.007179 -0.009313 0.005035 0.042617
# 2 -0.017262 0.027308 0.004106 0.009758 -0.019632 -0.043269
# 3 -0.007179 0.004106 0.012210 0.005290 -0.003599 -0.010616
# 4 -0.009313 0.009758 0.005290 0.046620 0.000850 -0.025727
# 5 0.005035 -0.019632 -0.003599 0.000850 0.045576 0.033890
# 6 0.042617 -0.043269 -0.010616 -0.025727 0.033890 0.119541
#
#
# Mechanical properties :
#
#
# Convention : Reuss Voigt Hill
#
# Bulk Modulus (GPa) = 36.32969 52.94792 44.63881
# Shear Modulus (GPa) = 15.16168 35.81254 25.48711
#
# Velocity S-wave (km/s) = 2.41341 3.70916 3.12909
# Velocity P-wave (km/s) = 4.66076 6.21969 5.49578
#
# Compressibility (1/GPa) = 0.02752569
#
# Stress axis : x y z
#
# Youngs Moduli (GPa) = 34.87091 36.61865 81.89919
#
# Poissons Ratio (x) = 0.63210 0.58797
# Poissons Ratio (y) = 0.60194 -0.33628
# Poissons Ratio (z) = 0.25035 -0.15036
#
# Static dielectric constant tensor:
#      x y z
#    x 2.148630 -0.040600 -0.001790 
#    y -0.040600 2.135390 0.056200 
#    z -0.001790 0.056200 2.059310 
# 
# From -- ./inp_files/519188.got.cif
#   From: 2010.05.17/outbox.cif.g08.bks.cpg/sg2_260_cif.got.tgz:519188.got - 2010.06.03 11:33:40.
