data_PCOD9103453
_publ_section_title
;
Structure prediction by ZEFSAII (Michael W. Deem and Ramdas Pophale) SiO2 
 PCOD9103453
Probable space group: P -1
;
_chemical_formula_sum "Si O2"
_cell_formula_units_Z 14
_cell_length_a 9.054182
_cell_length_b 9.547100
_cell_length_c 11.827110
_cell_angle_alpha 99.378069
_cell_angle_beta 100.771367
_cell_angle_gamma 47.349348
_cell_volume 737.753681
_symmetry_space_group_name_H-M "P -1"
_symmetry_group_IT_number 2
_symmetry_cell_setting 'triclinic'
loop_
_space_group_symop_operation_xyz
x,y,z
-x,-y,-z
loop_
_atom_site_type_symbol
_atom_site_label
_atom_site_fract_x
_atom_site_fract_y
_atom_site_fract_z
Si Si1 0.445551 0.873582 0.951510
Si Si2 0.435711 0.639582 0.611600
Si Si3 0.341521 0.002052 0.543047
Si Si4 0.182748 0.894073 0.099350
Si Si5 0.872507 0.852989 0.253446
Si Si6 0.016742 0.067112 0.338588
Si Si7 0.261549 0.536514 0.161524
O O1 0.634351 0.658078 0.914320
O O2 0.280633 0.983189 0.839654
O O3 0.353952 0.867252 0.051899
O O4 0.500000 0.000000 0.000000
O O5 0.500000 0.500000 0.500000
O O6 0.595285 0.527098 0.719423
O O7 0.212764 0.742579 0.641661
O O8 0.435072 0.801019 0.585683
O O9 0.242930 0.141256 0.656425
O O10 0.170243 0.050806 0.440247
O O11 0.500000 0.000000 0.500000
O O12 0.101336 0.023407 0.217335
O O13 0.249991 0.691813 0.112513
O O14 0.000000 0.000000 0.000000
O O15 0.033732 0.653399 0.187265
O O16 0.999549 0.906405 0.330383
#
# Coordination Sequence:
#
# PCOD9103453 Si02
#       7
#     2   2   2   2   2   2   2
#     4  12  25  41  66  95 134 172 212 275 328 379
#     4  11  20  39  67  98 125 169 224 259 323 392
#     4  11  23  40  66  95 134 167 207 275 331 379
#     4  11  21  42  66  94 128 170 225 261 313 390
#     4  10  21  44  63  92 131 170 217 263 323 385
#     4  10  20  38  66  92 125 173 210 265 315 386
#     4  11  21  41  71  92 128 174 222 267 316 388
#
# _framework density 18.976524000000001
#
# number of rings (size 3 to 8) (size 9 to 14) (size 15 to 20)
#    0.000    1.143    5.714    4.714    2.000    0.571 
#    0.000    4.286    0.000    0.000    0.000    0.000 
#    0.000    0.000    0.000    0.000    0.000    0.000 
#
# Total GULP energy -78129.278512 kJ/mol
# GULP energy per Si atom -5580.662751 kJ/mol
# Density = 1.893333 g / cm^3
# Si number density = 18.976524 Si / 1000 Ang^3
#
#
#
# Elastic Constant Matrix: (Units=GPa)
#
#
# Indices 1 2 3 4 5 6 
#
# 1 106.9230 54.4270 54.9523 12.0849 -26.2490 -3.1405
# 2 54.4270 155.3721 67.6476 18.8782 -18.3881 -4.0379
# 3 54.9523 67.6476 127.5765 14.4935 -30.8915 0.4757
# 4 12.0849 18.8782 14.4935 50.8976 -10.7785 -7.4197
# 5 -26.2490 -18.3881 -30.8915 -10.7785 34.0839 9.3960
# 6 -3.1405 -4.0379 0.4757 -7.4197 9.3960 22.2151
#
#
#
# Elastic Compliance Matrix: (Units=1/GPa)
#
#
# Indices 1 2 3 4 5 6 
#
# 1 0.013932 -0.002867 -0.002743 -0.000193 0.007061 -0.001544
# 2 -0.002867 0.009165 -0.003844 -0.001772 -0.001715 0.001476
# 3 -0.002743 -0.003844 0.013392 -0.000571 0.009284 -0.005491
# 4 -0.000193 -0.001772 -0.000571 0.022124 0.003883 0.005410
# 5 0.007061 -0.001715 0.009284 0.003883 0.048678 -0.018804
# 6 -0.001544 0.001476 -0.005491 0.005410 -0.018804 0.054942
#
#
# Mechanical properties :
#
#
# Convention : Reuss Voigt Hill
#
# Bulk Modulus (GPa) = 56.88520 82.65840 69.77180
# Shear Modulus (GPa) = 26.73778 35.62896 31.18337
#
# Velocity S-wave (km/s) = 3.75773 4.33775 4.05811
# Velocity P-wave (km/s) = 6.99064 8.29101 7.66844
#
# Compressibility (1/GPa) = 0.01757926
#
# Stress axis : x y z
#
# Youngs Moduli (GPa) = 71.77927 109.11207 74.67190
#
# Poissons Ratio (x) = 0.31281 0.20486
# Poissons Ratio (y) = 0.20578 0.28706
# Poissons Ratio (z) = 0.19692 0.41946
#
# Static dielectric constant tensor:
#      x y z
#    x 1.658780 -0.025280 -0.006350 
#    y -0.025280 1.686830 0.031950 
#    z -0.006350 0.031950 1.703560 
# 
# From -- ./inp_files/387842.got.cif
#   From: 2010.05.17/outbox.cif.g08.bks.cpg/sg2_194_cif.got.tgz:387842.got - 2010.06.03 11:33:40.
