data_PCOD9103872
_publ_section_title
;
Structure prediction by ZEFSAII (Michael W. Deem and Ramdas Pophale) SiO2 
 PCOD9103872
Probable space group: P -1
;
_chemical_formula_sum "Si O2"
_cell_formula_units_Z 14
_cell_length_a 17.990605
_cell_length_b 9.671334
_cell_length_c 9.047863
_cell_angle_alpha 117.014108
_cell_angle_beta 28.903049
_cell_angle_gamma 133.268114
_cell_volume 504.244020
_symmetry_space_group_name_H-M "P -1"
_symmetry_group_IT_number 2
_symmetry_cell_setting 'triclinic'
loop_
_space_group_symop_operation_xyz
x,y,z
-x,-y,-z
loop_
_atom_site_type_symbol
_atom_site_label
_atom_site_fract_x
_atom_site_fract_y
_atom_site_fract_z
Si Si1 0.718424 0.834443 0.394063
Si Si2 0.355499 0.080747 0.721488
Si Si3 0.407913 0.790691 0.354784
Si Si4 0.752987 0.416348 0.892381
Si Si5 0.030502 0.228521 0.547849
Si Si6 0.755714 0.817719 0.635666
Si Si7 0.105521 0.707500 0.626493
O O1 0.787198 0.787122 0.397215
O O2 0.726041 0.837796 0.203835
O O3 0.836056 0.075771 0.340224
O O4 0.472146 0.669149 0.757064
O O5 0.450143 0.002926 0.421697
O O6 0.530679 0.245914 0.614131
O O7 0.161516 0.882394 0.057545
O O8 0.183989 0.660083 0.607231
O O9 0.559999 0.800348 0.985227
O O10 0.896069 0.591420 0.603734
O O11 0.754755 0.245984 0.737101
O O12 0.871770 0.526093 0.891634
O O13 0.230048 0.316275 0.341483
O O14 0.939489 0.040658 0.500108
#
# Coordination Sequence:
#
# PCOD9103872 Si02
#       7
#     2   2   2   2   2   2   2
#     4  11  21  39  63  92 122 169 202 261 307 369
#     4   9  21  36  63  91 131 155 207 253 326 353
#     4   9  18  37  60  91 117 167 196 255 300 372
#     4  11  22  35  64  97 119 161 218 255 295 381
#     4  10  22  41  59  97 121 168 206 257 301 381
#     4  10  20  38  69  82 127 169 211 242 312 370
#     4  10  21  35  61  94 126 152 208 264 305 349
#
# _framework density 27.764337000000001
#
# number of rings (size 3 to 8) (size 9 to 14) (size 15 to 20)
#    0.000    2.000    2.857    0.429    2.000    5.714 
#    0.000    6.429    0.000    7.714    0.000    0.000 
#    0.000    0.000    0.000    0.000    0.000    0.000 
#
# Total GULP energy -78147.962071 kJ/mol
# GULP energy per Si atom -5581.997291 kJ/mol
# Density = 2.770114 g / cm^3
# Si number density = 27.764337 Si / 1000 Ang^3
#
#
#
# Elastic Constant Matrix: (Units=GPa)
#
#
# Indices 1 2 3 4 5 6 
#
# 1 228.1395 17.9696 44.9429 -2.8144 -6.5578 44.8431
# 2 17.9696 50.5328 14.3914 -4.9142 3.2191 18.7514
# 3 44.9429 14.3914 125.5399 8.3858 7.8900 3.4545
# 4 -2.8144 -4.9142 8.3858 19.2229 7.2477 -7.5403
# 5 -6.5578 3.2191 7.8900 7.2477 46.1140 -6.8840
# 6 44.8431 18.7514 3.4545 -7.5403 -6.8840 47.6793
#
#
#
# Elastic Compliance Matrix: (Units=1/GPa)
#
#
# Indices 1 2 3 4 5 6 
#
# 1 0.005832 0.000479 -0.001982 -0.000480 0.000382 -0.005551
# 2 0.000479 0.024736 -0.002871 0.005149 -0.003417 -0.009650
# 3 -0.001982 -0.002871 0.009290 -0.004174 -0.000784 0.001547
# 4 -0.000480 0.005149 -0.004174 0.061011 -0.008229 0.007190
# 5 0.000382 -0.003417 -0.000784 -0.008229 0.023882 0.003188
# 6 -0.005551 -0.009650 0.001547 0.007190 0.003188 0.031475
#
#
# Mechanical properties :
#
#
# Convention : Reuss Voigt Hill
#
# Bulk Modulus (GPa) = 32.14356 62.09110 47.11733
# Shear Modulus (GPa) = 28.51565 44.39710 36.45638
#
# Velocity S-wave (km/s) = 3.20826 4.00317 3.62755
# Velocity P-wave (km/s) = 5.03252 6.61660 5.87817
#
# Compressibility (1/GPa) = 0.03111043
#
# Stress axis : x y z
#
# Youngs Moduli (GPa) = 171.46411 40.42765 107.64499
#
# Poissons Ratio (x) = -0.01938 0.21335
# Poissons Ratio (y) = -0.08218 0.30903
# Poissons Ratio (z) = 0.33984 0.11606
#
# Static dielectric constant tensor:
#      x y z
#    x 2.246890 -0.116370 0.009520 
#    y -0.116370 2.362240 0.079150 
#    z 0.009520 0.079150 2.186620 
# 
# From -- ./inp_files/333321.got.cif
#   From: 2010.05.17/outbox.cif.g08.bks.cpg/sg2_167_cif.got.tgz:333321.got - 2010.06.03 11:33:40.
