data_PCOD9103234
_publ_section_title
;
Structure prediction by ZEFSAII (Michael W. Deem and Ramdas Pophale) SiO2 
 PCOD9103234
Probable space group: P -1
;
_chemical_formula_sum "Si O2"
_cell_formula_units_Z 16
_cell_length_a 11.891609
_cell_length_b 9.769834
_cell_length_c 14.289313
_cell_angle_alpha 128.810828
_cell_angle_beta 140.953186
_cell_angle_gamma 51.754117
_cell_volume 784.760271
_symmetry_space_group_name_H-M "P -1"
_symmetry_group_IT_number 2
_symmetry_cell_setting 'triclinic'
loop_
_space_group_symop_operation_xyz
x,y,z
-x,-y,-z
loop_
_atom_site_type_symbol
_atom_site_label
_atom_site_fract_x
_atom_site_fract_y
_atom_site_fract_z
Si Si1 0.396937 0.844043 0.352162
Si Si2 0.557022 0.662477 0.993349
Si Si3 0.807789 0.627577 0.969583
Si Si4 0.400575 0.321395 0.754204
Si Si5 0.151524 0.078152 0.431872
Si Si6 0.783551 0.097774 0.409555
Si Si7 0.243227 0.970952 0.833517
Si Si8 0.478934 0.527057 0.608601
O O1 0.419004 0.797808 0.236967
O O2 0.767307 0.744974 0.430999
O O3 0.500000 0.000000 0.500000
O O4 0.203426 0.947507 0.318652
O O5 0.735262 0.586824 0.008602
O O6 0.605691 0.697008 0.146152
O O7 0.428187 0.521812 0.846065
O O8 0.421622 0.840731 0.938325
O O9 0.818045 0.833798 0.073862
O O10 0.642834 0.609139 0.787189
O O11 0.000000 0.500000 0.000000
O O12 0.507128 0.340965 0.606848
O O13 0.258083 0.952677 0.533743
O O14 0.931625 0.116127 0.316019
O O15 0.712607 0.313790 0.437213
O O16 0.708486 0.009096 0.235563
O O17 0.000000 0.000000 0.500000
O O18 0.500000 0.500000 0.500000
#
# Coordination Sequence:
#
# PCOD9103234 Si02
#       8
#     2   2   2   2   2   2   2   2
#     4  10  20  38  65  93 130 175 215 273 327 393
#     4  11  23  42  66  95 129 174 223 267 333 397
#     4  12  26  41  67  96 135 168 215 283 339 395
#     4  10  22  40  68  89 129 181 218 266 324 405
#     4  10  21  38  64  95 131 174 218 268 333 390
#     4  10  21  37  65  98 134 168 218 282 327 397
#     4  11  23  40  64  96 132 169 217 279 333 393
#     4  12  23  41  67 100 131 170 229 273 338 398
#
# _framework density 20.388392
#
# number of rings (size 3 to 8) (size 9 to 14) (size 15 to 20)
#    0.000    1.250    3.750    1.875    3.500    0.500 
#    0.000    1.875    5.500    0.000    0.000    0.000 
#    0.000    0.000    0.000    0.000    0.000    0.000 
#
# Total GULP energy -89119.925180 kJ/mol
# GULP energy per Si atom -5569.995324 kJ/mol
# Density = 2.034199 g / cm^3
# Si number density = 20.388392 Si / 1000 Ang^3
#
#
#
# Elastic Constant Matrix: (Units=GPa)
#
#
# Indices 1 2 3 4 5 6 
#
# 1 119.8173 40.2753 48.3810 3.8004 -9.6160 -17.2322
# 2 40.2753 104.9498 36.5065 10.1451 7.4409 -13.3657
# 3 48.3810 36.5065 95.8947 22.0666 -6.0218 -8.6476
# 4 3.8004 10.1451 22.0666 31.6805 -5.6064 2.3432
# 5 -9.6160 7.4409 -6.0218 -5.6064 42.0116 17.6961
# 6 -17.2322 -13.3657 -8.6476 2.3432 17.6961 36.1301
#
#
#
# Elastic Compliance Matrix: (Units=1/GPa)
#
#
# Indices 1 2 3 4 5 6 
#
# 1 0.011828 -0.002895 -0.005342 0.003437 0.002041 0.002070
# 2 -0.002895 0.013141 -0.002527 -0.003718 -0.006503 0.006302
# 3 -0.005342 -0.002527 0.016533 -0.010216 -0.000312 0.001290
# 4 0.003437 -0.003718 -0.010216 0.041872 0.009615 -0.009606
# 5 0.002041 -0.006503 -0.000312 0.009615 0.034721 -0.019136
# 6 0.002070 0.006302 0.001290 -0.009606 -0.019136 0.041301
#
#
# Mechanical properties :
#
#
# Convention : Reuss Voigt Hill
#
# Bulk Modulus (GPa) = 50.06048 63.44305 56.75176
# Shear Modulus (GPa) = 26.65517 34.99770 30.82643
#
# Velocity S-wave (km/s) = 3.61968 4.14762 3.89261
# Velocity P-wave (km/s) = 6.48661 7.35675 6.93534
#
# Compressibility (1/GPa) = 0.01997584
#
# Stress axis : x y z
#
# Youngs Moduli (GPa) = 84.54205 76.09646 60.48575
#
# Poissons Ratio (x) = 0.22026 0.32311
# Poissons Ratio (y) = 0.24471 0.15284
# Poissons Ratio (z) = 0.45161 0.19229
#
# Static dielectric constant tensor:
#      x y z
#    x 1.831690 -0.023450 -0.004310 
#    y -0.023450 1.674360 0.083950 
#    z -0.004310 0.083950 1.704600 
# 
# From -- ./inp_files/428814.got.cif
#   From: 2010.05.17/outbox.cif.g08.bks.cpg/sg2_215_cif.got.tgz:428814.got - 2010.06.03 11:33:40.
