data_PCOD9103241
_publ_section_title
;
Structure prediction by ZEFSAII (Michael W. Deem and Ramdas Pophale) SiO2 
 PCOD9103241
Probable space group: P -1
;
_chemical_formula_sum "Si O2"
_cell_formula_units_Z 14
_cell_length_a 25.446646
_cell_length_b 9.017486
_cell_length_c 10.199842
_cell_angle_alpha 107.266204
_cell_angle_beta 143.463694
_cell_angle_gamma 44.904905
_cell_volume 749.280875
_symmetry_space_group_name_H-M "P -1"
_symmetry_group_IT_number 2
_symmetry_cell_setting 'triclinic'
loop_
_space_group_symop_operation_xyz
x,y,z
-x,-y,-z
loop_
_atom_site_type_symbol
_atom_site_label
_atom_site_fract_x
_atom_site_fract_y
_atom_site_fract_z
Si Si1 0.935130 0.540656 0.521229
Si Si2 0.773413 0.201040 0.745763
Si Si3 0.441202 0.616303 0.264420
Si Si4 0.645504 0.911178 0.882805
Si Si5 0.012760 0.616194 0.949882
Si Si6 0.878283 0.047035 0.217563
Si Si7 0.296527 0.346636 0.324897
O O1 0.000000 0.500000 0.500000
O O2 0.955674 0.635959 0.700605
O O3 0.754432 0.770992 0.189455
O O4 0.030115 0.249292 0.673806
O O5 0.603347 0.362224 0.442062
O O6 0.751886 0.404072 0.699630
O O7 0.823806 0.150702 0.985579
O O8 0.905371 0.912981 0.860652
O O9 0.500000 0.500000 0.500000
O O10 0.390859 0.868636 0.200184
O O11 0.283316 0.742559 0.967415
O O12 0.729241 0.684187 0.881139
O O13 0.483125 0.068064 0.639284
O O14 0.192512 0.403486 0.232556
O O15 0.000000 0.500000 0.000000
O O16 0.000000 0.000000 0.500000
#
# Coordination Sequence:
#
# PCOD9103241 Si02
#       7
#     2   2   2   2   2   2   2
#     4  12  22  40  65  91 121 163 209 255 302 368
#     4  10  22  40  60  89 123 167 203 248 309 373
#     4   9  19  36  59  89 125 160 204 250 303 366
#     4  10  20  38  65  94 117 160 214 256 298 355
#     4  12  24  42  63  89 130 166 201 252 320 375
#     4  11  21  36  61  95 123 153 210 259 304 350
#     4  10  21  39  65  90 123 162 207 252 306 369
#
# _framework density 18.684581999999999
#
# number of rings (size 3 to 8) (size 9 to 14) (size 15 to 20)
#    0.000    1.429    4.286    1.286    2.000    1.143 
#    0.000    5.000    0.000    0.000    0.000    0.000 
#    0.000    0.000    0.000    0.000    0.000    0.000 
#
# Total GULP energy -78093.565607 kJ/mol
# GULP energy per Si atom -5578.111829 kJ/mol
# Density = 1.864206 g / cm^3
# Si number density = 18.684582 Si / 1000 Ang^3
#
#
#
# Elastic Constant Matrix: (Units=GPa)
#
#
# Indices 1 2 3 4 5 6 
#
# 1 104.8272 21.8291 39.4808 -1.6176 31.6968 -11.3478
# 2 21.8291 67.5095 11.6533 -3.0388 17.5083 -17.1254
# 3 39.4808 11.6533 106.9355 6.3528 31.5022 -8.7586
# 4 -1.6176 -3.0388 6.3528 26.2566 2.7447 -2.8603
# 5 31.6968 17.5083 31.5022 2.7447 39.4966 -5.2557
# 6 -11.3478 -17.1254 -8.7586 -2.8603 -5.2557 20.4567
#
#
#
# Elastic Compliance Matrix: (Units=1/GPa)
#
#
# Indices 1 2 3 4 5 6 
#
# 1 0.013572 -0.000613 -0.002271 0.002659 -0.008428 0.004250
# 2 -0.000613 0.021343 0.001398 0.004768 -0.008195 0.016687
# 3 -0.002271 0.001398 0.012919 -0.001883 -0.008575 0.002976
# 4 0.002659 0.004768 -0.001883 0.040718 -0.004346 0.009237
# 5 -0.008428 -0.008195 -0.008575 -0.004346 0.042194 -0.004974
# 6 0.004250 0.016687 0.002976 0.009237 -0.004974 0.066498
#
#
# Mechanical properties :
#
#
# Convention : Reuss Voigt Hill
#
# Bulk Modulus (GPa) = 22.29077 47.24430 34.76753
# Shear Modulus (GPa) = 23.23753 30.99592 27.11672
#
# Velocity S-wave (km/s) = 3.53040 4.07738 3.81371
# Velocity P-wave (km/s) = 5.34549 6.89252 6.16770
#
# Compressibility (1/GPa) = 0.04486161
#
# Stress axis : x y z
#
# Youngs Moduli (GPa) = 73.68161 46.85475 77.40441
#
# Poissons Ratio (x) = 0.02872 0.17579
# Poissons Ratio (y) = 0.04517 -0.10822
# Poissons Ratio (z) = 0.16734 -0.06551
#
# Static dielectric constant tensor:
#      x y z
#    x 1.655700 0.003130 0.031120 
#    y 0.003130 1.659200 0.062070 
#    z 0.031120 0.062070 1.800740 
# 
# From -- ./inp_files/189891.got.cif
#   From: 2010.05.17/outbox.cif.g08.bks.cpg/sg2_95_cif.got.tgz:189891.got - 2010.06.03 11:33:40.
