data_PCOD9103451
_publ_section_title
;
Structure prediction by ZEFSAII (Michael W. Deem and Ramdas Pophale) SiO2 
 PCOD9103451
Probable space group: P -1
;
_chemical_formula_sum "Si O2"
_cell_formula_units_Z 16
_cell_length_a 15.461572
_cell_length_b 15.011320
_cell_length_c 9.364611
_cell_angle_alpha 132.519618
_cell_angle_beta 58.644761
_cell_angle_gamma 151.859549
_cell_volume 737.458766
_symmetry_space_group_name_H-M "P -1"
_symmetry_group_IT_number 2
_symmetry_cell_setting 'triclinic'
loop_
_space_group_symop_operation_xyz
x,y,z
-x,-y,-z
loop_
_atom_site_type_symbol
_atom_site_label
_atom_site_fract_x
_atom_site_fract_y
_atom_site_fract_z
Si Si1 0.028253 0.672150 0.692115
Si Si2 0.896040 0.026434 0.573667
Si Si3 0.307493 0.317619 0.382636
Si Si4 0.086155 0.306643 0.463743
Si Si5 0.762799 0.334139 0.114050
Si Si6 0.378639 0.055726 0.193782
Si Si7 0.396632 0.177138 0.995330
Si Si8 0.808095 0.522865 0.004283
O O1 0.940629 0.674215 0.650964
O O2 0.926743 0.600964 0.851176
O O3 0.000000 0.500000 0.500000
O O4 0.246455 0.934735 0.792753
O O5 0.714369 0.932806 0.624743
O O6 0.942477 0.071299 0.412892
O O7 0.836578 0.862340 0.559685
O O8 0.062375 0.260927 0.774072
O O9 0.500000 0.500000 0.500000
O O10 0.272049 0.415098 0.456240
O O11 0.310073 0.223537 0.148628
O O12 0.082182 0.427747 0.687204
O O13 0.572656 0.182663 0.199242
O O14 0.775567 0.204780 0.974096
O O15 0.754757 0.360924 0.983497
O O16 0.415928 0.150931 0.112208
O O17 0.609802 0.385801 0.981132
#
# Coordination Sequence:
#
# PCOD9103451 Si02
#       8
#     2   2   2   2   2   2   2   2
#     4  12  26  44  63  93 139 176 209 262 314 387
#     4  10  20  38  66  92 125 163 214 272 327 367
#     4  11  21  42  71  96 128 160 215 282 318 369
#     4  11  24  36  60  98 127 167 218 256 319 384
#     4   9  19  34  60  92 121 162 216 268 319 373
#     4   9  16  33  62  88 119 161 214 269 317 368
#     4  10  22  43  62  92 126 174 211 263 323 376
#     4  10  21  41  66  88 125 172 215 261 322 378
#
# _framework density 21.696127000000001
#
# number of rings (size 3 to 8) (size 9 to 14) (size 15 to 20)
#    0.000    1.750    2.500    4.125    1.750    2.000 
#    4.500    0.625    0.000    0.000    0.000    0.000 
#    0.000    0.000    0.000    0.000    0.000    0.000 
#
# Total GULP energy -89120.547288 kJ/mol
# GULP energy per Si atom -5570.034205 kJ/mol
# Density = 2.164675 g / cm^3
# Si number density = 21.696127 Si / 1000 Ang^3
#
#
#
# Elastic Constant Matrix: (Units=GPa)
#
#
# Indices 1 2 3 4 5 6 
#
# 1 89.4253 28.8912 22.2731 -10.7881 -2.3864 -10.4792
# 2 28.8912 99.3997 28.0603 1.1058 8.9186 -0.5156
# 3 22.2731 28.0603 65.3060 -1.7862 -5.5628 -3.3862
# 4 -10.7881 1.1058 -1.7862 31.1610 -6.1424 2.3180
# 5 -2.3864 8.9186 -5.5628 -6.1424 30.4081 8.5704
# 6 -10.4792 -0.5156 -3.3862 2.3180 8.5704 26.0838
#
#
#
# Elastic Compliance Matrix: (Units=1/GPa)
#
#
# Indices 1 2 3 4 5 6 
#
# 1 0.014137 -0.003449 -0.002868 0.004789 0.001330 0.004376
# 2 -0.003449 0.013017 -0.004970 -0.003100 -0.005732 0.000385
# 3 -0.002868 -0.004970 0.018867 0.001319 0.005120 -0.000601
# 4 0.004789 -0.003100 0.001319 0.036267 0.010125 -0.004516
# 5 0.001330 -0.005732 0.005120 0.010125 0.041438 -0.013429
# 6 0.004376 0.000385 -0.000601 -0.004516 -0.013429 0.044840
#
#
# Mechanical properties :
#
#
# Convention : Reuss Voigt Hill
#
# Bulk Modulus (GPa) = 42.65000 45.84226 44.24613
# Shear Modulus (GPa) = 25.13119 29.19101 27.16110
#
# Velocity S-wave (km/s) = 3.40711 3.67201 3.54204
# Velocity P-wave (km/s) = 5.93114 6.25726 6.09638
#
# Compressibility (1/GPa) = 0.02344666
#
# Stress axis : x y z
#
# Youngs Moduli (GPa) = 70.73418 76.82452 53.00225
#
# Poissons Ratio (x) = 0.26500 0.15203
# Poissons Ratio (y) = 0.24399 0.26340
# Poissons Ratio (z) = 0.20289 0.38179
#
# Static dielectric constant tensor:
#      x y z
#    x 1.889110 0.054910 -0.062400 
#    y 0.054910 1.940670 0.021780 
#    z -0.062400 0.021780 1.818770 
# 
# From -- ./inp_files/315752.got.cif
#   From: 2010.05.17/outbox.cif.g08.bks.cpg/sg2_158_cif.got.tgz:315752.got - 2010.06.03 11:33:40.
