data_PCOD9103942
_publ_section_title
;
Structure prediction by ZEFSAII (Michael W. Deem and Ramdas Pophale) SiO2 
 PCOD9103942
Probable space group: P -1
;
_chemical_formula_sum "Si O2"
_cell_formula_units_Z 16
_cell_length_a 8.081788
_cell_length_b 15.623067
_cell_length_c 13.332507
_cell_angle_alpha 150.563596
_cell_angle_beta 65.191401
_cell_angle_gamma 127.972503
_cell_volume 622.118452
_symmetry_space_group_name_H-M "P -1"
_symmetry_group_IT_number 2
_symmetry_cell_setting 'triclinic'
loop_
_space_group_symop_operation_xyz
x,y,z
-x,-y,-z
loop_
_atom_site_type_symbol
_atom_site_label
_atom_site_fract_x
_atom_site_fract_y
_atom_site_fract_z
Si Si1 0.459892 0.871115 0.276353
Si Si2 0.835592 0.453772 0.584272
Si Si3 0.101948 0.411336 0.970393
Si Si4 0.331923 0.373613 0.056140
Si Si5 0.461530 0.233064 0.289429
Si Si6 0.191914 0.254271 0.609171
Si Si7 0.162902 0.400746 0.556426
Si Si8 0.713889 0.071659 0.818614
O O1 0.448880 0.975318 0.281915
O O2 0.500000 0.000000 0.500000
O O3 0.231400 0.639557 0.118014
O O4 0.641736 0.818446 0.157437
O O5 0.838946 0.637401 0.831092
O O6 0.606780 0.343113 0.467027
O O7 0.000000 0.500000 0.500000
O O8 0.927883 0.350970 0.529475
O O9 0.047700 0.238708 0.722863
O O10 0.895685 0.314583 0.998773
O O11 0.277741 0.425676 0.016659
O O12 0.564173 0.576091 0.239055
O O13 0.264781 0.267695 0.355304
O O14 0.638456 0.364903 0.291317
O O15 0.362697 0.998966 0.119027
O O16 0.150150 0.355343 0.629751
O O17 0.173353 0.051837 0.364464
#
# Coordination Sequence:
#
# PCOD9103942 Si02
#       8
#     2   2   2   2   2   2   2   2
#     4  11  24  41  65  96 140 198 233 289 362 411
#     4  10  20  38  70 106 134 185 233 291 353 419
#     4  11  24  40  64 100 142 183 239 287 352 438
#     4  11  22  42  66 100 143 178 239 293 347 430
#     4   9  19  39  64 108 139 181 235 288 350 432
#     4  10  20  41  69 104 139 184 229 292 356 433
#     4   9  18  35  70 104 136 187 231 280 357 420
#     4  11  21  40  63 100 147 178 232 289 354 429
#
# _framework density 25.718575000000001
#
# number of rings (size 3 to 8) (size 9 to 14) (size 15 to 20)
#    0.000    1.750    2.500    3.750    0.000    3.000 
#    4.500    0.000    0.000   15.750    0.000    0.000 
#    0.000    0.000    0.000    0.000    0.000    0.000 
#
# Total GULP energy -89201.730375 kJ/mol
# GULP energy per Si atom -5575.108148 kJ/mol
# Density = 2.566004 g / cm^3
# Si number density = 25.718575 Si / 1000 Ang^3
#
#
#
# Elastic Constant Matrix: (Units=GPa)
#
#
# Indices 1 2 3 4 5 6 
#
# 1 116.4629 24.8729 20.8919 4.1243 -29.6097 -16.0891
# 2 24.8729 175.5819 26.0867 16.7969 -18.8654 -7.1143
# 3 20.8919 26.0867 90.0061 10.1039 -41.6012 7.9425
# 4 4.1243 16.7969 10.1039 36.3889 0.2485 -14.5962
# 5 -29.6097 -18.8654 -41.6012 0.2485 42.7501 6.1732
# 6 -16.0891 -7.1143 7.9425 -14.5962 6.1732 50.1583
#
#
#
# Elastic Compliance Matrix: (Units=1/GPa)
#
#
# Indices 1 2 3 4 5 6 
#
# 1 0.010897 -0.000726 0.001413 -0.000553 0.008319 0.001984
# 2 -0.000726 0.006331 -0.000403 -0.002883 0.001966 -0.000352
# 3 0.001413 -0.000403 0.025825 -0.011516 0.027505 -0.010430
# 4 -0.000553 -0.002883 -0.011516 0.037834 -0.015119 0.014108
# 5 0.008319 0.001966 0.027505 -0.015119 0.058758 -0.013040
# 6 0.001984 -0.000352 -0.010430 0.014108 -0.013040 0.027885
#
#
# Mechanical properties :
#
#
# Convention : Reuss Voigt Hill
#
# Bulk Modulus (GPa) = 22.92470 58.41707 40.67089
# Shear Modulus (GPa) = 27.54785 46.53943 37.04364
#
# Velocity S-wave (km/s) = 3.27636 4.25851 3.79931
# Velocity P-wave (km/s) = 4.82138 6.85151 5.92406
#
# Compressibility (1/GPa) = 0.04362107
#
# Stress axis : x y z
#
# Youngs Moduli (GPa) = 91.77120 157.95594 38.72171
#
# Poissons Ratio (x) = 0.11475 -0.05473
# Poissons Ratio (y) = 0.06667 0.01559
# Poissons Ratio (z) = -0.12970 0.06361
#
# Static dielectric constant tensor:
#      x y z
#    x 2.120750 0.130020 0.037180 
#    y 0.130020 2.075600 0.049400 
#    z 0.037180 0.049400 2.046990 
# 
# From -- ./inp_files/504624.got.cif
#   From: 2010.05.17/outbox.cif.g08.bks.cpg/sg2_253_cif.got.tgz:504624.got - 2010.06.03 11:33:40.
