data_PCOD9103891
_publ_section_title
;
Structure prediction by ZEFSAII (Michael W. Deem and Ramdas Pophale) SiO2 
 PCOD9103891
Probable space group: P -1
;
_chemical_formula_sum "Si O2"
_cell_formula_units_Z 14
_cell_length_a 14.309991
_cell_length_b 9.223602
_cell_length_c 11.814763
_cell_angle_alpha 63.541690
_cell_angle_beta 129.002057
_cell_angle_gamma 148.939274
_cell_volume 607.995119
_symmetry_space_group_name_H-M "P -1"
_symmetry_group_IT_number 2
_symmetry_cell_setting 'triclinic'
loop_
_space_group_symop_operation_xyz
x,y,z
-x,-y,-z
loop_
_atom_site_type_symbol
_atom_site_label
_atom_site_fract_x
_atom_site_fract_y
_atom_site_fract_z
Si Si1 0.251654 0.832902 0.171439
Si Si2 0.155128 0.043747 0.162552
Si Si3 0.008190 0.951382 0.336085
Si Si4 0.442478 0.528474 0.562048
Si Si5 0.875114 0.156394 0.146265
Si Si6 0.055707 0.705699 0.598072
Si Si7 0.348408 0.911335 0.547656
O O1 0.148197 0.869409 0.147159
O O2 0.100719 0.503683 0.172167
O O3 0.482311 0.041035 0.321170
O O4 0.277830 0.925844 0.030423
O O5 0.084961 0.962610 0.269933
O O6 0.409963 0.372164 0.257824
O O7 0.000000 0.000000 0.000000
O O8 0.189299 0.224347 0.466447
O O9 0.880584 0.969446 0.197965
O O10 0.936259 0.717480 0.435087
O O11 0.500000 0.500000 0.500000
O O12 0.517416 0.794194 0.506852
O O13 0.836910 0.135408 0.256991
O O14 0.238252 0.844225 0.604661
O O15 0.858742 0.365373 0.587066
#
# Coordination Sequence:
#
# PCOD9103891 Si02
#       7
#     2   2   2   2   2   2   2
#     4  11  25  42  68 101 129 178 223 270 325 398
#     4  11  22  40  66  96 132 166 219 274 325 383
#     4  11  22  45  66 101 129 173 223 271 327 390
#     4  10  20  38  69  94 122 175 223 263 313 393
#     4  11  24  42  69  99 134 171 223 276 326 389
#     4  11  25  42  67  96 138 173 214 281 333 385
#     4  11  23  43  65 100 132 173 226 266 333 391
#
# _framework density 23.026499000000001
#
# number of rings (size 3 to 8) (size 9 to 14) (size 15 to 20)
#    0.000    1.143    5.714    1.286    4.000    1.714 
#    0.000    2.143    0.000    0.000    0.000    0.000 
#    0.000    0.000    0.000    0.000    0.000    0.000 
#
# Total GULP energy -78147.646327 kJ/mol
# GULP energy per Si atom -5581.974738 kJ/mol
# Density = 2.297409 g / cm^3
# Si number density = 23.026499 Si / 1000 Ang^3
#
#
#
# Elastic Constant Matrix: (Units=GPa)
#
#
# Indices 1 2 3 4 5 6 
#
# 1 102.6694 5.3611 38.5634 -12.5579 -0.3765 -18.2342
# 2 5.3611 76.6590 20.9810 -5.8666 8.0619 -10.1521
# 3 38.5634 20.9810 145.5369 -11.8762 6.7300 -8.6232
# 4 -12.5579 -5.8666 -11.8762 30.1632 -3.5338 3.8510
# 5 -0.3765 8.0619 6.7300 -3.5338 43.3549 1.7762
# 6 -18.2342 -10.1521 -8.6232 3.8510 1.7762 24.2597
#
#
#
# Elastic Compliance Matrix: (Units=1/GPa)
#
#
# Indices 1 2 3 4 5 6 
#
# 1 0.012628 0.001226 -0.002758 0.003356 0.000236 0.008474
# 2 0.001226 0.014689 -0.001821 0.001536 -0.002574 0.006366
# 3 -0.002758 -0.001821 0.008020 0.001585 -0.000794 -0.000178
# 4 0.003356 0.001536 0.001585 0.036047 0.002525 -0.002178
# 5 0.000236 -0.002574 -0.000794 0.002525 0.024012 -0.003341
# 6 0.008474 0.006366 -0.000178 -0.002178 -0.003341 0.050781
#
#
# Mechanical properties :
#
#
# Convention : Reuss Voigt Hill
#
# Bulk Modulus (GPa) = 34.92687 50.51959 42.72323
# Shear Modulus (GPa) = 30.78320 36.88621 33.83470
#
# Velocity S-wave (km/s) = 3.66028 4.00672 3.83741
# Velocity P-wave (km/s) = 5.75018 6.58730 6.18292
#
# Compressibility (1/GPa) = 0.02863125
#
# Stress axis : x y z
#
# Youngs Moduli (GPa) = 79.18755 68.07979 124.68997
#
# Poissons Ratio (x) = -0.08346 0.34387
# Poissons Ratio (y) = -0.09708 0.22704
# Poissons Ratio (z) = 0.21839 0.12396
#
# Static dielectric constant tensor:
#      x y z
#    x 1.926560 0.005410 0.013010 
#    y 0.005410 1.905220 -0.012490 
#    z 0.013010 -0.012490 1.907830 
# 
# From -- ./inp_files/446991.got.cif
#   From: 2010.05.17/outbox.cif.g08.bks.cpg/sg2_224_cif.got.tgz:446991.got - 2010.06.03 11:33:40.
