data_PCOD9103554
_publ_section_title
;
Structure prediction by ZEFSAII (Michael W. Deem and Ramdas Pophale) SiO2 
 PCOD9103554
Probable space group: P -1
;
_chemical_formula_sum "Si O2"
_cell_formula_units_Z 14
_cell_length_a 11.752621
_cell_length_b 11.574368
_cell_length_c 18.248995
_cell_angle_alpha 149.335408
_cell_angle_beta 145.671747
_cell_angle_gamma 52.840721
_cell_volume 663.403123
_symmetry_space_group_name_H-M "P -1"
_symmetry_group_IT_number 2
_symmetry_cell_setting 'triclinic'
loop_
_space_group_symop_operation_xyz
x,y,z
-x,-y,-z
loop_
_atom_site_type_symbol
_atom_site_label
_atom_site_fract_x
_atom_site_fract_y
_atom_site_fract_z
Si Si1 0.177608 0.956926 0.624564
Si Si2 0.395287 0.630838 0.726448
Si Si3 0.854588 0.735482 0.096729
Si Si4 0.252610 0.474447 0.350078
Si Si5 0.086479 0.149453 0.218527
Si Si6 0.383278 0.910533 0.010441
Si Si7 0.951190 0.305342 0.971788
O O1 0.110489 0.022896 0.705633
O O2 0.186546 0.695588 0.465383
O O3 0.439291 0.124897 0.858711
O O4 0.000000 0.000000 0.500000
O O5 0.302893 0.716829 0.796129
O O6 0.230962 0.385410 0.471307
O O7 0.621008 0.631037 0.877736
O O8 0.474341 0.841721 0.821793
O O9 0.021629 0.775231 0.140232
O O10 0.859950 0.519467 0.034233
O O11 0.500000 0.500000 0.500000
O O12 0.130550 0.245489 0.211944
O O13 0.179539 0.433235 0.204709
O O14 0.832305 0.079851 0.063423
O O15 0.159809 0.931601 0.166507
#
# Coordination Sequence:
#
# PCOD9103554 Si02
#       7
#     2   2   2   2   2   2   2
#     4  11  22  44  73 100 136 186 232 280 358 405
#     4  10  20  38  66  98 140 173 233 282 350 400
#     4  10  22  42  68  98 139 185 225 289 337 426
#     4  12  25  44  72 102 138 186 233 293 351 409
#     4  12  23  40  70  99 138 183 236 282 344 420
#     4  10  21  39  67 102 135 178 232 287 340 416
#     4  11  23  40  64 100 143 179 231 279 353 406
#
# _framework density 21.103307000000001
#
# number of rings (size 3 to 8) (size 9 to 14) (size 15 to 20)
#    0.000    1.143    4.286    2.571    0.000    1.714 
#    0.000    0.714    9.429    0.000    0.000    0.000 
#    0.000    0.000    0.000    0.000    0.000    0.000 
#
# Total GULP energy -78061.431768 kJ/mol
# GULP energy per Si atom -5575.816555 kJ/mol
# Density = 2.105528 g / cm^3
# Si number density = 21.103307 Si / 1000 Ang^3
#
#
#
# Elastic Constant Matrix: (Units=GPa)
#
#
# Indices 1 2 3 4 5 6 
#
# 1 90.4438 37.5686 21.3836 11.8769 -15.0709 -3.4436
# 2 37.5686 144.3428 37.8456 -9.3568 -2.0025 -5.5509
# 3 21.3836 37.8456 83.4904 -8.3004 -24.0338 1.1709
# 4 11.8769 -9.3568 -8.3004 43.5285 -4.1259 -5.0140
# 5 -15.0709 -2.0025 -24.0338 -4.1259 32.4421 -0.9927
# 6 -3.4436 -5.5509 1.1709 -5.0140 -0.9927 25.7704
#
#
#
# Elastic Compliance Matrix: (Units=1/GPa)
#
#
# Indices 1 2 3 4 5 6 
#
# 1 0.014238 -0.003645 -0.000944 -0.004299 0.005159 0.000523
# 2 -0.003645 0.009113 -0.004142 0.002015 -0.003885 0.001906
# 3 -0.000944 -0.004142 0.018373 0.004080 0.013419 -0.000542
# 4 -0.004299 0.002015 0.004080 0.026373 0.004657 0.004985
# 5 0.005159 -0.003885 0.013419 0.004657 0.043570 0.001827
# 6 0.000523 0.001906 -0.000542 0.004985 0.001827 0.040350
#
#
# Mechanical properties :
#
#
# Convention : Reuss Voigt Hill
#
# Bulk Modulus (GPa) = 41.21725 56.87471 49.04598
# Shear Modulus (GPa) = 28.15856 35.11348 31.63602
#
# Velocity S-wave (km/s) = 3.65680 4.08350 3.87602
# Velocity P-wave (km/s) = 6.11581 7.01729 6.58200
#
# Compressibility (1/GPa) = 0.02426169
#
# Stress axis : x y z
#
# Youngs Moduli (GPa) = 70.23396 109.73686 54.42863
#
# Poissons Ratio (x) = 0.40003 0.05137
# Poissons Ratio (y) = 0.25603 0.22543
# Poissons Ratio (z) = 0.06629 0.45450
#
# Static dielectric constant tensor:
#      x y z
#    x 1.783340 -0.007320 -0.058030 
#    y -0.007320 1.802590 0.005910 
#    z -0.058030 0.005910 1.800260 
# 
# From -- ./inp_files/597900.got.cif
#   From: 2010.05.17/outbox.cif.g08.bks.cpg/sg2_299_cif.got.tgz:597900.got - 2010.06.03 11:33:40.
