data_PCOD9103909
_publ_section_title
;
Structure prediction by ZEFSAII (Michael W. Deem and Ramdas Pophale) SiO2 
 PCOD9103909
Probable space group: P -1
;
_chemical_formula_sum "Si O2"
_cell_formula_units_Z 16
_cell_length_a 5.766587
_cell_length_b 14.901790
_cell_length_c 9.081072
_cell_angle_alpha 96.354790
_cell_angle_beta 69.912555
_cell_angle_gamma 92.525390
_cell_volume 728.370860
_symmetry_space_group_name_H-M "P -1"
_symmetry_group_IT_number 2
_symmetry_cell_setting 'triclinic'
loop_
_space_group_symop_operation_xyz
x,y,z
-x,-y,-z
loop_
_atom_site_type_symbol
_atom_site_label
_atom_site_fract_x
_atom_site_fract_y
_atom_site_fract_z
Si Si1 0.798275 0.493021 0.409238
Si Si2 0.680265 0.217666 0.488226
Si Si3 0.718114 0.662408 0.282597
Si Si4 0.881018 0.241070 0.935134
Si Si5 0.477716 0.392231 0.002397
Si Si6 0.178778 0.903082 0.290610
Si Si7 0.648365 0.933676 0.562208
Si Si8 0.020763 0.312061 0.229405
O O1 0.500000 0.500000 0.500000
O O2 0.854754 0.580989 0.315778
O O3 0.850394 0.400983 0.293027
O O4 0.000000 0.500000 0.500000
O O5 0.517207 0.305220 0.570449
O O6 0.699620 0.163621 0.626735
O O7 0.524774 0.154099 0.399224
O O8 0.942615 0.250327 0.373263
O O9 0.897223 0.745512 0.227091
O O10 0.636459 0.633060 0.134102
O O11 0.778598 0.145214 0.884308
O O12 0.713409 0.329110 0.960885
O O13 0.969147 0.251912 0.084975
O O14 0.290357 0.356713 0.163214
O O15 0.500000 0.500000 0.000000
O O16 0.901107 0.913230 0.416676
O O17 0.289076 0.004328 0.299331
O O18 0.500000 0.000000 0.500000
#
# Coordination Sequence:
#
# PCOD9103909 Si02
#       8
#     2   2   2   2   2   2   2   2
#     4  12  28  43  65  98 139 179 233 293 347 398
#     4  11  21  40  64  97 131 163 225 278 338 399
#     4  11  23  40  64  93 124 179 225 273 336 404
#     4  11  23  41  65  93 131 177 223 272 337 414
#     4  11  24  42  64  87 133 177 229 274 332 403
#     4  10  20  38  69  98 124 174 216 270 337 415
#     4   9  20  37  66  99 129 159 219 276 333 407
#     4  11  27  40  62  99 133 177 222 288 341 394
#
# _framework density 21.966833000000001
#
# number of rings (size 3 to 8) (size 9 to 14) (size 15 to 20)
#    0.000    1.250    3.750    1.500    7.000    3.000 
#    0.000    0.625    0.000    7.500    0.000    0.000 
#    0.000    0.000    0.000    0.000    0.000    0.000 
#
# Total GULP energy -89248.047144 kJ/mol
# GULP energy per Si atom -5578.002946 kJ/mol
# Density = 2.191684 g / cm^3
# Si number density = 21.966833 Si / 1000 Ang^3
#
#
#
# Elastic Constant Matrix: (Units=GPa)
#
#
# Indices 1 2 3 4 5 6 
#
# 1 57.2413 -0.9770 5.8637 5.3747 -11.9432 6.0272
# 2 -0.9770 55.7429 15.6539 24.8871 -6.1165 17.9238
# 3 5.8637 15.6539 61.8656 13.6193 -10.5690 16.1104
# 4 5.3747 24.8871 13.6193 42.4263 5.0046 3.7053
# 5 -11.9432 -6.1165 -10.5690 5.0046 27.6263 -1.8261
# 6 6.0272 17.9238 16.1104 3.7053 -1.8261 37.0337
#
#
#
# Elastic Compliance Matrix: (Units=1/GPa)
#
#
# Indices 1 2 3 4 5 6 
#
# 1 0.021471 0.006966 0.001805 -0.008333 0.012615 -0.006195
# 2 0.006966 0.033645 0.002009 -0.021581 0.014118 -0.015436
# 3 0.001805 0.002009 0.021621 -0.008773 0.010473 -0.009278
# 4 -0.008333 -0.021581 -0.008773 0.041365 -0.018532 0.010565
# 5 0.012615 0.014118 0.010473 -0.018532 0.051542 -0.009046
# 6 -0.006195 -0.015436 -0.009278 0.010565 -0.009046 0.038014
#
#
# Mechanical properties :
#
#
# Convention : Reuss Voigt Hill
#
# Bulk Modulus (GPa) = 10.17332 23.99233 17.08282
# Shear Modulus (GPa) = 22.84532 31.70453 27.27493
#
# Velocity S-wave (km/s) = 3.22839 3.80319 3.52752
# Velocity P-wave (km/s) = 4.30557 5.49831 4.93809
#
# Compressibility (1/GPa) = 0.09829634
#
# Stress axis : x y z
#
# Youngs Moduli (GPa) = 46.57529 29.72226 46.25130
#
# Poissons Ratio (x) = -0.20704 -0.08349
# Poissons Ratio (y) = -0.32443 -0.09292
# Poissons Ratio (z) = -0.08408 -0.05971
#
# Static dielectric constant tensor:
#      x y z
#    x 1.912410 0.089020 -0.007070 
#    y 0.089020 1.857140 0.010980 
#    z -0.007070 0.010980 1.812220 
# 
# From -- ./inp_files/52254.got.cif
#   From: 2010.05.17/outbox.cif.g08.bks.cpg/sg2_27_cif.got.tgz:52254.got - 2010.06.03 11:33:40.
