data_PCOD9103458
_publ_section_title
;
Structure prediction by ZEFSAII (Michael W. Deem and Ramdas Pophale) SiO2 
 PCOD9103458
Probable space group: P -1
;
_chemical_formula_sum "Si O2"
_cell_formula_units_Z 16
_cell_length_a 13.928149
_cell_length_b 9.020692
_cell_length_c 9.053808
_cell_angle_alpha 126.683371
_cell_angle_beta 57.647495
_cell_angle_gamma 129.471967
_cell_volume 681.656314
_symmetry_space_group_name_H-M "P -1"
_symmetry_group_IT_number 2
_symmetry_cell_setting 'triclinic'
loop_
_space_group_symop_operation_xyz
x,y,z
-x,-y,-z
loop_
_atom_site_type_symbol
_atom_site_label
_atom_site_fract_x
_atom_site_fract_y
_atom_site_fract_z
Si Si1 0.821564 0.813271 0.663172
Si Si2 0.461733 0.931405 0.658097
Si Si3 0.800837 0.386036 0.395663
Si Si4 0.877690 0.288796 0.542782
Si Si5 0.044762 0.454008 0.090260
Si Si6 0.950925 0.938188 0.173719
Si Si7 0.574858 0.700523 0.958534
Si Si8 0.420254 0.271225 0.359135
O O1 0.862422 0.635694 0.488402
O O2 0.716676 0.727068 0.829490
O O3 0.732126 0.815239 0.603579
O O4 0.940417 0.006961 0.754240
O O5 0.332343 0.710132 0.636192
O O6 0.561382 0.894335 0.653858
O O7 0.500000 0.000000 0.500000
O O8 0.422011 0.098239 0.852596
O O9 0.769328 0.300356 0.537685
O O10 0.904232 0.323105 0.206188
O O11 0.000000 0.500000 0.500000
O O12 0.876821 0.348454 0.749416
O O13 0.887618 0.082310 0.365350
O O14 0.116280 0.312842 0.927778
O O15 0.000000 0.500000 0.000000
O O16 0.000000 0.000000 0.000000
O O17 0.522088 0.695074 0.833735
O O18 0.500000 0.500000 0.000000
O O19 0.500000 0.500000 0.500000
#
# Coordination Sequence:
#
# PCOD9103458 Si02
#       8
#     2   2   2   2   2   2   2   2
#     4  10  21  37  68  90 128 169 216 260 331 382
#     4  12  23  42  67  95 127 170 219 268 326 390
#     4  11  20  42  66  90 130 172 205 269 326 383
#     4  10  20  38  66  92 127 166 218 264 318 386
#     4  11  24  42  64  95 132 168 215 271 325 384
#     4  12  20  40  69  93 123 174 216 263 326 389
#     4  10  22  39  62  94 131 169 216 263 319 391
#     4  10  21  40  63  88 130 170 209 272 322 377
#
# _framework density 23.472237
#
# number of rings (size 3 to 8) (size 9 to 14) (size 15 to 20)
#    0.750    0.500    6.250    2.625    0.000    0.500 
#    2.250    2.500    0.000    0.000    0.000    0.000 
#    0.000    0.000    0.000    0.000    0.000    0.000 
#
# Total GULP energy -89223.830501 kJ/mol
# GULP energy per Si atom -5576.489406 kJ/mol
# Density = 2.341881 g / cm^3
# Si number density = 23.472237 Si / 1000 Ang^3
#
#
#
# Elastic Constant Matrix: (Units=GPa)
#
#
# Indices 1 2 3 4 5 6 
#
# 1 98.2087 10.2350 17.8669 6.1035 14.0299 -24.2115
# 2 10.2350 76.3902 35.7493 1.7007 2.9258 -26.7808
# 3 17.8669 35.7493 141.0584 23.1019 20.6420 -12.7279
# 4 6.1035 1.7007 23.1019 37.5487 -12.1497 2.6764
# 5 14.0299 2.9258 20.6420 -12.1497 37.6696 -0.0752
# 6 -24.2115 -26.7808 -12.7279 2.6764 -0.0752 37.1762
#
#
#
# Elastic Compliance Matrix: (Units=1/GPa)
#
#
# Indices 1 2 3 4 5 6 
#
# 1 0.014172 0.002173 0.000904 -0.006361 -0.007971 0.011546
# 2 0.002173 0.019639 -0.003995 0.000186 -0.000057 0.014181
# 3 0.000904 -0.003995 0.011220 -0.010079 -0.009421 0.002259
# 4 -0.006361 0.000186 -0.010079 0.041470 0.021232 -0.010402
# 5 -0.007971 -0.000057 -0.009421 0.021232 0.041511 -0.009903
# 6 0.011546 0.014181 0.002259 -0.010402 -0.009903 0.046137
#
#
# Mechanical properties :
#
#
# Convention : Reuss Voigt Hill
#
# Bulk Modulus (GPa) = 23.15050 49.26220 36.20635
# Shear Modulus (GPa) = 26.26287 39.26597 32.76442
#
# Velocity S-wave (km/s) = 3.34861 4.09451 3.74020
# Velocity P-wave (km/s) = 4.98350 6.58683 5.84045
#
# Compressibility (1/GPa) = 0.04319561
#
# Stress axis : x y z
#
# Youngs Moduli (GPa) = 70.56157 50.91974 89.12379
#
# Poissons Ratio (x) = -0.11064 -0.08059
# Poissons Ratio (y) = -0.15332 0.35604
# Poissons Ratio (z) = -0.06381 0.20342
#
# Static dielectric constant tensor:
#      x y z
#    x 2.002200 0.011260 0.067450 
#    y 0.011260 1.951810 0.022980 
#    z 0.067450 0.022980 1.948310 
# 
# From -- ./inp_files/296711.got.cif
#   From: 2010.05.17/outbox.cif.g08.bks.cpg/sg2_149_cif.got.tgz:296711.got - 2010.06.03 11:33:40.
