data_PCOD9103297
_publ_section_title
;
Structure prediction by ZEFSAII (Michael W. Deem and Ramdas Pophale) SiO2 
 PCOD9103297
Probable space group: P -1
;
_chemical_formula_sum "Si O2"
_cell_formula_units_Z 14
_cell_length_a 10.724697
_cell_length_b 7.227000
_cell_length_c 7.398858
_cell_angle_alpha 81.041033
_cell_angle_beta 96.395169
_cell_angle_gamma 83.553097
_cell_volume 558.015219
_symmetry_space_group_name_H-M "P -1"
_symmetry_group_IT_number 2
_symmetry_cell_setting 'triclinic'
loop_
_space_group_symop_operation_xyz
x,y,z
-x,-y,-z
loop_
_atom_site_type_symbol
_atom_site_label
_atom_site_fract_x
_atom_site_fract_y
_atom_site_fract_z
Si Si1 0.385722 0.911947 0.584906
Si Si2 0.677182 0.370604 0.650299
Si Si3 0.829760 0.782653 0.040806
Si Si4 0.878138 0.862297 0.638263
Si Si5 0.634027 0.557406 0.955579
Si Si6 0.965241 0.268491 0.640591
Si Si7 0.300790 0.836332 0.961808
O O1 0.379507 0.704198 0.528389
O O2 0.500000 0.000000 0.500000
O O3 0.389436 0.889471 0.806030
O O4 0.253493 0.044399 0.492487
O O5 0.634549 0.554961 0.736955
O O6 0.824379 0.369418 0.631648
O O7 0.651773 0.206422 0.818387
O O8 0.939454 0.683284 0.197220
O O9 0.813941 0.000856 0.063588
O O10 0.857099 0.763266 0.837654
O O11 0.963689 0.724120 0.538925
O O12 0.944592 0.046050 0.672754
O O13 0.688279 0.724415 0.040129
O O14 0.500000 0.500000 0.000000
O O15 0.733478 0.372214 0.054073
#
# Coordination Sequence:
#
# PCOD9103297 Si02
#       7
#     2   2   2   2   2   2   2
#     4  11  22  37  66  98 123 168 219 255 321 384
#     4   9  23  43  59  94 131 163 207 267 311 370
#     4  12  22  41  71  94 127 173 212 256 326 379
#     4  10  21  35  62 103 125 165 214 260 317 376
#     4  10  26  44  64  94 129 169 215 266 318 375
#     4  10  20  38  65  96 130 165 214 259 317 383
#     4  10  23  43  66  93 126 171 211 263 323 369
#
# _framework density 25.088923999999999
#
# number of rings (size 3 to 8) (size 9 to 14) (size 15 to 20)
#    0.857    0.857    4.286    0.429    4.000    1.714 
#    2.571    1.429    0.000    0.000    0.000    0.000 
#    0.000    0.000    0.000    0.000    0.000    0.000 
#
# Total GULP energy -78139.020764 kJ/mol
# GULP energy per Si atom -5581.358626 kJ/mol
# Density = 2.503182 g / cm^3
# Si number density = 25.088924 Si / 1000 Ang^3
#
#
#
# Elastic Constant Matrix: (Units=GPa)
#
#
# Indices 1 2 3 4 5 6 
#
# 1 130.6331 19.0880 77.0063 10.2436 9.6775 10.0592
# 2 19.0880 38.6805 24.3458 4.5436 9.9725 -1.5360
# 3 77.0063 24.3458 107.9967 4.2125 -20.7460 8.3501
# 4 10.2436 4.5436 4.2125 28.2594 -3.8658 -4.9657
# 5 9.6775 9.9725 -20.7460 -3.8658 39.8028 0.7012
# 6 10.0592 -1.5360 8.3501 -4.9657 0.7012 25.0000
#
#
#
# Elastic Compliance Matrix: (Units=1/GPa)
#
#
# Indices 1 2 3 4 5 6 
#
# 1 0.019312 0.006929 -0.018004 -0.008132 -0.016562 -0.002482
# 2 0.006929 0.041187 -0.018615 -0.008596 -0.022627 0.004887
# 3 -0.018004 -0.018615 0.031289 0.007815 0.026171 -0.003532
# 4 -0.008132 -0.008596 0.007815 0.041624 0.012105 0.008062
# 5 -0.016562 -0.022627 0.026171 0.012105 0.049680 -0.002457
# 6 -0.002482 0.004887 -0.003532 0.008062 -0.002457 0.044149
#
#
# Mechanical properties :
#
#
# Convention : Reuss Voigt Hill
#
# Bulk Modulus (GPa) = 30.85665 57.57671 44.21668
# Shear Modulus (GPa) = 16.81100 29.07045 22.94072
#
# Velocity S-wave (km/s) = 2.59135 3.40766 3.02715
# Velocity P-wave (km/s) = 4.61293 6.20336 5.46630
#
# Compressibility (1/GPa) = 0.03240793
#
# Stress axis : x y z
#
# Youngs Moduli (GPa) = 51.78233 24.27927 31.95961
#
# Poissons Ratio (x) = -0.16823 0.57541
# Poissons Ratio (y) = -0.35879 0.59492
# Poissons Ratio (z) = 0.93231 0.45195
#
# Static dielectric constant tensor:
#      x y z
#    x 1.989920 -0.029460 -0.023330 
#    y -0.029460 2.039750 -0.018640 
#    z -0.023330 -0.018640 1.967800 
# 
# From -- ./inp_files/170567.got.cif
#   From: 2010.05.17/outbox.cif.g08.bks.cpg/sg2_86_cif.got.tgz:170567.got - 2010.06.03 11:33:40.
