data_PCOD9103624
_publ_section_title
;
Structure prediction by ZEFSAII (Michael W. Deem and Ramdas Pophale) SiO2 
 PCOD9103624
Probable space group: P -1
;
_chemical_formula_sum "Si O2"
_cell_formula_units_Z 14
_cell_length_a 7.996540
_cell_length_b 5.234314
_cell_length_c 20.003578
_cell_angle_alpha 86.078844
_cell_angle_beta 137.929530
_cell_angle_gamma 90.308688
_cell_volume 558.408889
_symmetry_space_group_name_H-M "P -1"
_symmetry_group_IT_number 2
_symmetry_cell_setting 'triclinic'
loop_
_space_group_symop_operation_xyz
x,y,z
-x,-y,-z
loop_
_atom_site_type_symbol
_atom_site_label
_atom_site_fract_x
_atom_site_fract_y
_atom_site_fract_z
Si Si1 0.725885 0.199337 0.063314
Si Si2 0.107198 0.227109 0.067898
Si Si3 0.386691 0.834092 0.411243
Si Si4 0.377578 0.358293 0.707857
Si Si5 0.444749 0.568133 0.865333
Si Si6 0.815096 0.396903 0.522377
Si Si7 0.511918 0.851992 0.674985
O O1 0.754069 0.291311 0.146317
O O2 0.000962 0.159896 0.111086
O O3 0.610265 0.411244 0.972772
O O4 0.500000 0.000000 0.000000
O O5 0.392742 0.229640 0.128200
O O6 0.000000 0.500000 0.000000
O O7 0.000000 0.000000 0.000000
O O8 0.603935 0.631304 0.452321
O O9 0.193111 0.686776 0.400087
O O10 0.500000 0.000000 0.500000
O O11 0.299603 0.021346 0.322598
O O12 0.377138 0.387077 0.787310
O O13 0.556302 0.572190 0.727422
O O14 0.101937 0.446165 0.597532
O O15 0.441297 0.075576 0.703298
O O16 0.717994 0.190107 0.445019
#
# Coordination Sequence:
#
# PCOD9103624 Si02
#       7
#     2   2   2   2   2   2   2
#     4  10  20  41  70  89 126 171 215 257 325 392
#     4  10  20  38  67  91 121 162 208 254 313 389
#     4   9  20  38  65  87 121 167 220 258 309 382
#     4  12  26  38  63  92 132 160 212 273 317 372
#     4  10  24  42  60 100 130 165 215 269 323 385
#     4  10  21  41  63  91 124 172 218 256 316 382
#     4  11  23  41  61  90 122 173 211 256 318 377
#
# _framework density 25.071237
#
# number of rings (size 3 to 8) (size 9 to 14) (size 15 to 20)
#    0.000    1.714    2.857    0.857    6.000    0.000 
#    2.571    1.429    0.000    0.000    0.000    0.000 
#    0.000    0.000    0.000    0.000    0.000    0.000 
#
# Total GULP energy -78023.689800 kJ/mol
# GULP energy per Si atom -5573.120700 kJ/mol
# Density = 2.501417 g / cm^3
# Si number density = 25.071237 Si / 1000 Ang^3
#
#
#
# Elastic Constant Matrix: (Units=GPa)
#
#
# Indices 1 2 3 4 5 6 
#
# 1 156.6267 65.3912 41.3772 1.8651 -39.4153 4.1131
# 2 65.3912 143.1092 44.9816 19.9702 -21.3605 1.2903
# 3 41.3772 44.9816 113.2126 5.2214 -48.1389 -14.9906
# 4 1.8651 19.9702 5.2214 43.8193 -4.4343 -24.2875
# 5 -39.4153 -21.3605 -48.1389 -4.4343 50.2598 8.2433
# 6 4.1131 1.2903 -14.9906 -24.2875 8.2433 37.2213
#
#
#
# Elastic Compliance Matrix: (Units=1/GPa)
#
#
# Indices 1 2 3 4 5 6 
#
# 1 0.009487 -0.003649 0.000648 0.001047 0.006847 -0.001494
# 2 -0.003649 0.010927 -0.004378 -0.008181 -0.002046 -0.006624
# 3 0.000648 -0.004378 0.017168 0.005466 0.014363 0.007380
# 4 0.001047 -0.008181 0.005466 0.042510 0.001444 0.029788
# 5 0.006847 -0.002046 0.014363 0.001444 0.038695 -0.002529
# 6 -0.001494 -0.006624 0.007380 0.029788 -0.002529 0.050231
#
#
# Mechanical properties :
#
#
# Convention : Reuss Voigt Hill
#
# Bulk Modulus (GPa) = 43.81392 79.60537 61.70965
# Shear Modulus (GPa) = 26.12557 43.67330 34.89944
#
# Velocity S-wave (km/s) = 3.23159 4.17822 3.73501
# Velocity P-wave (km/s) = 5.60695 7.42275 6.57781
#
# Compressibility (1/GPa) = 0.02282380
#
# Stress axis : x y z
#
# Youngs Moduli (GPa) = 105.41046 91.51646 58.24911
#
# Poissons Ratio (x) = 0.33395 -0.03773
# Poissons Ratio (y) = 0.38465 0.25499
# Poissons Ratio (z) = -0.06828 0.40062
#
# Static dielectric constant tensor:
#      x y z
#    x 2.069150 0.002140 -0.012600 
#    y 0.002140 2.015230 -0.031760 
#    z -0.012600 -0.031760 2.098540 
# 
# From -- ./inp_files/553556.got.cif
#   From: 2010.05.17/outbox.cif.g08.bks.cpg/sg2_277_cif.got.tgz:553556.got - 2010.06.03 11:33:40.
