data_PCOD9103533
_publ_section_title
;
Structure prediction by ZEFSAII (Michael W. Deem and Ramdas Pophale) SiO2 
 PCOD9103533
Probable space group: P -1
;
_chemical_formula_sum "Si O2"
_cell_formula_units_Z 16
_cell_length_a 12.276713
_cell_length_b 8.493610
_cell_length_c 12.404466
_cell_angle_alpha 101.859545
_cell_angle_beta 113.770105
_cell_angle_gamma 125.861853
_cell_volume 770.715216
_symmetry_space_group_name_H-M "P -1"
_symmetry_group_IT_number 2
_symmetry_cell_setting 'triclinic'
loop_
_space_group_symop_operation_xyz
x,y,z
-x,-y,-z
loop_
_atom_site_type_symbol
_atom_site_label
_atom_site_fract_x
_atom_site_fract_y
_atom_site_fract_z
Si Si1 0.906917 0.672658 0.447996
Si Si2 0.788570 0.205830 0.321938
Si Si3 0.309537 0.206828 0.014392
Si Si4 0.039618 0.070125 0.704957
Si Si5 0.946612 0.627430 0.123360
Si Si6 0.845986 0.710011 0.890501
Si Si7 0.983841 0.333005 0.190223
Si Si8 0.544108 0.213603 0.990237
O O1 0.778214 0.387385 0.362256
O O2 0.887534 0.762480 0.347619
O O3 0.101332 0.779218 0.541900
O O4 0.917088 0.805499 0.570878
O O5 0.913053 0.305897 0.277977
O O6 0.597563 0.934154 0.185145
O O7 0.191726 0.153546 0.857993
O O8 0.488680 0.309443 0.054775
O O9 0.191844 0.933962 0.966895
O O10 0.315754 0.353715 0.126826
O O11 0.949329 0.117245 0.747370
O O12 0.029855 0.544647 0.179556
O O13 0.905955 0.630540 0.985340
O O14 0.748060 0.422878 0.067799
O O15 0.859824 0.639170 0.769618
O O16 0.000000 0.000000 0.000000
O O17 0.500000 0.000000 0.000000
#
# Coordination Sequence:
#
# PCOD9103533 Si02
#       8
#     2   2   2   2   2   2   2   2
#     4  10  18  31  48  69 106 136 175 208 248 299
#     4  10  19  32  51  75 103 141 167 208 254 304
#     4   9  18  32  47  77 104 135 161 205 260 303
#     4  10  18  29  46  73 106 131 164 213 248 301
#     4  11  20  31  52  79 106 136 165 200 265 318
#     4   9  20  32  49  68 108 133 171 214 246 302
#     4  10  16  33  47  73 102 135 170 205 249 302
#     4  11  18  32  51  74 114 136 160 201 261 322
#
# _framework density 20.759937000000001
#
# number of rings (size 3 to 8) (size 9 to 14) (size 15 to 20)
#    0.000    2.000    6.250    0.375    0.000    2.000 
#    0.000    0.000    0.000    0.000    0.000    3.500 
#    0.000   19.000    0.000    0.000    0.000    0.000 
#
# Total GULP energy -89072.049425 kJ/mol
# GULP energy per Si atom -5567.003089 kJ/mol
# Density = 2.071269 g / cm^3
# Si number density = 20.759937 Si / 1000 Ang^3
#
#
#
# Elastic Constant Matrix: (Units=GPa)
#
#
# Indices 1 2 3 4 5 6 
#
# 1 112.2479 25.8816 30.2138 10.0733 -28.6348 -20.7629
# 2 25.8816 68.6865 8.4200 -6.8661 -8.1186 -21.1302
# 3 30.2138 8.4200 45.1530 6.2877 -15.2282 -1.0341
# 4 10.0733 -6.8661 6.2877 31.4513 -9.3463 -3.3392
# 5 -28.6348 -8.1186 -15.2282 -9.3463 29.7306 3.7799
# 6 -20.7629 -21.1302 -1.0341 -3.3392 3.7799 32.9550
#
#
#
# Elastic Compliance Matrix: (Units=1/GPa)
#
#
# Indices 1 2 3 4 5 6 
#
# 1 0.014660 -0.001524 -0.006087 -0.000210 0.009637 0.006941
# 2 -0.001524 0.020495 -0.002322 0.007890 0.003834 0.012468
# 3 -0.006087 -0.002322 0.029808 -0.002532 0.008692 -0.005642
# 4 -0.000210 0.007890 -0.002532 0.038376 0.011780 0.007384
# 5 0.009637 0.003834 0.008692 0.011780 0.051601 0.004078
# 6 0.006941 0.012468 -0.005642 0.007384 0.004078 0.042815
#
#
# Mechanical properties :
#
#
# Convention : Reuss Voigt Hill
#
# Bulk Modulus (GPa) = 22.17448 39.45755 30.81601
# Shear Modulus (GPa) = 21.49111 29.59884 25.54498
#
# Velocity S-wave (km/s) = 3.22097 3.78003 3.51165
# Velocity P-wave (km/s) = 4.95353 6.17247 5.59629
#
# Compressibility (1/GPa) = 0.04509689
#
# Stress axis : x y z
#
# Youngs Moduli (GPa) = 68.21265 48.79175 33.54812
#
# Poissons Ratio (x) = 0.07438 0.20421
# Poissons Ratio (y) = 0.10399 0.07789
# Poissons Ratio (z) = 0.41521 0.11328
#
# Static dielectric constant tensor:
#      x y z
#    x 1.825560 -0.021260 -0.052720 
#    y -0.021260 1.826360 -0.041720 
#    z -0.052720 -0.041720 1.832390 
# 
# From -- ./inp_files/415253.got.cif
#   From: 2010.05.17/outbox.cif.g08.bks.cpg/sg2_208_cif.got.tgz:415253.got - 2010.06.03 11:33:40.
