data_PCOD9103194
_publ_section_title
;
Structure prediction by ZEFSAII (Michael W. Deem and Ramdas Pophale) SiO2 
 PCOD9103194
Probable space group: P -1
;
_chemical_formula_sum "Si O2"
_cell_formula_units_Z 12
_cell_length_a 7.285191
_cell_length_b 11.809579
_cell_length_c 9.839216
_cell_angle_alpha 138.222805
_cell_angle_beta 62.615071
_cell_angle_gamma 121.409816
_cell_volume 477.534088
_symmetry_space_group_name_H-M "P -1"
_symmetry_group_IT_number 2
_symmetry_cell_setting 'triclinic'
loop_
_space_group_symop_operation_xyz
x,y,z
-x,-y,-z
loop_
_atom_site_type_symbol
_atom_site_label
_atom_site_fract_x
_atom_site_fract_y
_atom_site_fract_z
Si Si1 0.556090 0.201566 0.787187
Si Si2 0.910678 0.144216 0.815096
Si Si3 0.812726 0.739103 0.583864
Si Si4 0.218741 0.441046 0.851746
Si Si5 0.278662 0.823361 0.588231
Si Si6 0.399151 0.789798 0.817152
O O1 0.750930 0.139165 0.736850
O O2 0.610524 0.217080 0.623147
O O3 0.345943 0.040610 0.756567
O O4 0.587434 0.396166 0.012872
O O5 0.153099 0.257828 0.795893
O O6 0.881155 0.943393 0.688839
O O7 0.818841 0.247734 0.055947
O O8 0.769253 0.612785 0.355359
O O9 0.592357 0.709897 0.716342
O O10 0.022593 0.730464 0.584464
O O11 0.000000 0.500000 0.000000
O O12 0.361497 0.765189 0.647844
O O13 0.500000 0.000000 0.000000
#
# Coordination Sequence:
#
# PCOD9103194 Si02
#       6
#     2   2   2   2   2   2
#     4  10  21  39  63  91 128 154 204 265 294 355
#     4  10  20  40  64  89 122 164 201 250 303 364
#     4  11  21  38  70  90 117 169 205 243 311 367
#     4  10  20  38  65  92 123 163 201 254 309 354
#     4  11  21  38  66  93 120 158 210 253 301 359
#     4  10  22  40  60  93 127 156 202 257 304 362
#
# _framework density 25.129099
#
# number of rings (size 3 to 8) (size 9 to 14) (size 15 to 20)
#    0.000    1.667    6.667    0.500    0.000    2.667 
#    0.000    7.500    0.000    0.000    0.000    1.167 
#    0.000    0.000    0.000    0.000    0.000    0.000 
#
# Total GULP energy -67147.660199 kJ/mol
# GULP energy per Si atom -5595.638350 kJ/mol
# Density = 2.507190 g / cm^3
# Si number density = 25.129099 Si / 1000 Ang^3
#
#
#
# Elastic Constant Matrix: (Units=GPa)
#
#
# Indices 1 2 3 4 5 6 
#
# 1 93.0241 15.0345 38.5299 -13.2677 7.1265 13.2379
# 2 15.0345 79.0006 21.0719 14.3997 13.4261 13.3570
# 3 38.5299 21.0719 118.8125 6.0511 15.6766 12.1565
# 4 -13.2677 14.3997 6.0511 48.7652 -5.3934 5.5527
# 5 7.1265 13.4261 15.6766 -5.3934 36.7303 2.7273
# 6 13.2379 13.3570 12.1565 5.5527 2.7273 26.5030
#
#
#
# Elastic Compliance Matrix: (Units=1/GPa)
#
#
# Indices 1 2 3 4 5 6 
#
# 1 0.014308 -0.001867 -0.004149 0.005699 0.000929 -0.005592
# 2 -0.001867 0.015952 -0.000704 -0.005160 -0.005545 -0.005132
# 3 -0.004149 -0.000704 0.010666 -0.002480 -0.003738 -0.001561
# 4 0.005699 -0.005160 -0.002480 0.025107 0.005895 -0.004975
# 5 0.000929 -0.005545 -0.003738 0.005895 0.031566 -0.000439
# 6 -0.005592 -0.005132 -0.001561 -0.004975 -0.000439 0.044914
#
#
# Mechanical properties :
#
#
# Convention : Reuss Voigt Hill
#
# Bulk Modulus (GPa) = 36.38454 48.90108 42.64281
# Shear Modulus (GPa) = 30.28182 36.81309 33.54746
#
# Velocity S-wave (km/s) = 3.47515 3.83163 3.65773
# Velocity P-wave (km/s) = 5.53287 6.25119 5.90297
#
# Compressibility (1/GPa) = 0.02748420
#
# Stress axis : x y z
#
# Youngs Moduli (GPa) = 69.89280 62.68865 93.75270
#
# Poissons Ratio (x) = 0.11706 0.38902
# Poissons Ratio (y) = 0.13051 0.06601
# Poissons Ratio (z) = 0.29001 0.04414
#
# Static dielectric constant tensor:
#      x y z
#    x 2.037770 -0.004560 -0.026180 
#    y -0.004560 2.090930 0.025720 
#    z -0.026180 0.025720 1.960860 
# 
# From -- ./inp_files/198659.got.cif
#   From: 2010.05.17/outbox.cif.g08.bks.cpg/sg2_100_cif.got.tgz:198659.got - 2010.06.03 11:33:40.
