data_PCOD9103830
_publ_section_title
;
Structure prediction by ZEFSAII (Michael W. Deem and Ramdas Pophale) SiO2 
 PCOD9103830
Probable space group: P -1
;
_chemical_formula_sum "Si O2"
_cell_formula_units_Z 16
_cell_length_a 14.628068
_cell_length_b 8.402140
_cell_length_c 5.291226
_cell_angle_alpha 104.648318
_cell_angle_beta 95.285766
_cell_angle_gamma 101.093652
_cell_volume 610.608236
_symmetry_space_group_name_H-M "P -1"
_symmetry_group_IT_number 2
_symmetry_cell_setting 'triclinic'
loop_
_space_group_symop_operation_xyz
x,y,z
-x,-y,-z
loop_
_atom_site_type_symbol
_atom_site_label
_atom_site_fract_x
_atom_site_fract_y
_atom_site_fract_z
Si Si1 0.418756 0.898047 0.262347
Si Si2 0.732278 0.511690 0.290697
Si Si3 0.625599 0.818431 0.983816
Si Si4 0.751262 0.019170 0.495575
Si Si5 0.864609 0.300324 0.340972
Si Si6 0.179095 0.185423 0.237174
Si Si7 0.944058 0.593085 0.833273
Si Si8 0.390369 0.528602 0.244969
O O1 0.314762 0.873619 0.346200
O O2 0.439869 0.710904 0.215502
O O3 0.500000 0.000000 0.500000
O O4 0.411614 0.020053 0.067896
O O5 0.795038 0.378698 0.183736
O O6 0.802963 0.680231 0.474187
O O7 0.659294 0.458330 0.488731
O O8 0.682623 0.534313 0.027295
O O9 0.718649 0.813908 0.844290
O O10 0.561324 0.634223 0.811979
O O11 0.669748 0.867470 0.293928
O O12 0.808792 0.115736 0.317707
O O13 0.835330 0.989786 0.688769
O O14 0.873264 0.431996 0.629051
O O15 0.971320 0.316321 0.293357
O O16 0.111328 0.259666 0.066049
O O17 0.000000 0.500000 0.000000
#
# Coordination Sequence:
#
# PCOD9103830 Si02
#       8
#     2   2   2   2   2   2   2   2
#     4  11  26  44  66 103 141 176 227 289 350 412
#     4  10  20  38  68  97 128 180 238 274 338 412
#     4  10  23  41  70  97 132 181 230 281 342 419
#     4  11  21  44  66  93 128 173 233 279 341 410
#     4  10  22  36  61  92 128 175 225 279 339 404
#     4   9  21  38  61  92 129 173 221 284 330 402
#     4  10  23  38  58  94 132 173 223 280 341 408
#     4  11  22  43  71 101 134 188 231 282 346 415
#
# _framework density 26.203379999999999
#
# number of rings (size 3 to 8) (size 9 to 14) (size 15 to 20)
#    0.000    1.750    2.500    0.750    5.250    4.500 
#    0.000    1.875    0.000    0.000    0.000    0.000 
#    0.000    0.000    0.000    0.000    0.000    0.000 
#
# Total GULP energy -89146.832635 kJ/mol
# GULP energy per Si atom -5571.677040 kJ/mol
# Density = 2.614374 g / cm^3
# Si number density = 26.203380 Si / 1000 Ang^3
#
#
#
# Elastic Constant Matrix: (Units=GPa)
#
#
# Indices 1 2 3 4 5 6 
#
# 1 109.7247 27.8319 12.3404 -5.8515 -10.2370 -10.1515
# 2 27.8319 100.3772 -7.0044 -5.1419 -4.4456 24.3392
# 3 12.3404 -7.0044 71.5977 -14.3803 5.2819 11.2442
# 4 -5.8515 -5.1419 -14.3803 41.9487 -6.9161 22.1199
# 5 -10.2370 -4.4456 5.2819 -6.9161 22.6163 22.0243
# 6 -10.1515 24.3392 11.2442 22.1199 22.0243 -35.7909
#
#
#
# Elastic Compliance Matrix: (Units=1/GPa)
#
#
# Indices 1 2 3 4 5 6 
#
# 1 0.010585 -0.002568 -0.002056 0.001775 0.005937 -0.000644
# 2 -0.002568 0.009499 0.000690 -0.001694 -0.003856 0.003985
# 3 -0.002056 0.000690 0.014836 0.002200 -0.006550 0.003042
# 4 0.001775 -0.001694 0.002200 0.019325 -0.003017 0.009122
# 5 0.005937 -0.003856 -0.006550 -0.003017 0.034244 0.012844
# 6 -0.000644 0.003985 0.003042 0.009122 0.012844 -0.010550
#
#
# Mechanical properties :
#
#
# Convention : Reuss Voigt Hill
#
# Bulk Modulus (GPa) = 36.96586 38.67060 37.81823
# Shear Modulus (GPa) = 52.72844 22.32361 37.52602
#
# Velocity S-wave (km/s) = 4.49071 2.92196 3.78842
# Velocity P-wave (km/s) = 6.40519 5.11602 5.79656
#
# Compressibility (1/GPa) = 0.02705199
#
# Stress axis : x y z
#
# Youngs Moduli (GPa) = 94.46958 105.27572 67.40361
#
# Poissons Ratio (x) = 0.27039 0.13858
# Poissons Ratio (y) = 0.24264 -0.04652
# Poissons Ratio (z) = 0.19423 -0.07266
#
# Static dielectric constant tensor:
#      x y z
#    x 2.108340 -0.076050 -0.011350 
#    y -0.076050 2.317970 -0.065420 
#    z -0.011350 -0.065420 2.125970 
# 
# From -- ./inp_files/90822.got.cif
#   From: 2010.05.17/outbox.cif.g08.bks.cpg/sg2_46_cif.got.tgz:90822.got - 2010.06.03 11:33:40.
