data_PCOD9103516
_publ_section_title
;
Structure prediction by ZEFSAII (Michael W. Deem and Ramdas Pophale) SiO2 
 PCOD9103516
Probable space group: P -1
;
_chemical_formula_sum "Si O2"
_cell_formula_units_Z 16
_cell_length_a 12.094406
_cell_length_b 12.241703
_cell_length_c 8.261053
_cell_angle_alpha 122.076961
_cell_angle_beta 35.687770
_cell_angle_gamma 122.444167
_cell_volume 590.751502
_symmetry_space_group_name_H-M "P -1"
_symmetry_group_IT_number 2
_symmetry_cell_setting 'triclinic'
loop_
_space_group_symop_operation_xyz
x,y,z
-x,-y,-z
loop_
_atom_site_type_symbol
_atom_site_label
_atom_site_fract_x
_atom_site_fract_y
_atom_site_fract_z
Si Si1 0.917078 0.093839 0.448154
Si Si2 0.243391 0.584913 0.153455
Si Si3 0.721053 0.525012 0.312631
Si Si4 0.633333 0.080785 0.044310
Si Si5 0.653932 0.282965 0.402174
Si Si6 0.554112 0.162794 0.763826
Si Si7 0.931632 0.792255 0.163294
Si Si8 0.863166 0.680729 0.804542
O O1 0.753248 0.108725 0.518883
O O2 0.111026 0.201894 0.262782
O O3 0.926525 0.942163 0.320643
O O4 0.832346 0.127320 0.747398
O O5 0.418083 0.712602 0.048838
O O6 0.283695 0.459733 0.107275
O O7 0.066059 0.632407 0.490960
O O8 0.184270 0.536405 0.003273
O O9 0.500000 0.500000 0.500000
O O10 0.716078 0.436098 0.407352
O O11 0.819082 0.677727 0.324775
O O12 0.548736 0.201037 0.309919
O O13 0.612342 0.965698 0.111922
O O14 0.500000 0.000000 0.000000
O O15 0.550498 0.232479 0.650567
O O16 0.848538 0.226215 0.122503
O O17 0.854150 0.750041 0.042026
#
# Coordination Sequence:
#
# PCOD9103516 Si02
#       8
#     2   2   2   2   2   2   2   2
#     4  10  20  38  66  95 134 172 215 256 333 392
#     4   9  18  38  65  90 127 171 221 250 325 389
#     4  11  26  42  66  95 131 180 221 261 330 398
#     4  10  23  40  65  96 131 180 208 267 330 405
#     4  12  23  43  66  96 129 170 225 277 323 374
#     4  10  21  39  69  97 130 173 219 268 322 389
#     4  11  23  39  67  99 135 167 222 274 317 384
#     4   9  17  35  63  98 124 170 212 260 310 393
#
# _framework density 27.084147999999999
#
# number of rings (size 3 to 8) (size 9 to 14) (size 15 to 20)
#    0.000    1.750    2.500    3.375    5.250    0.500 
#    2.250    0.625    0.000    0.000    0.000    0.000 
#    0.000    0.000    0.000    0.000    0.000    0.000 
#
# Total GULP energy -89513.152731 kJ/mol
# GULP energy per Si atom -5594.572046 kJ/mol
# Density = 2.702250 g / cm^3
# Si number density = 27.084148 Si / 1000 Ang^3
#
#
#
# Elastic Constant Matrix: (Units=GPa)
#
#
# Indices 1 2 3 4 5 6 
#
# 1 53.7367 20.6941 15.5738 -0.7617 4.3409 -14.6721
# 2 20.6941 254.6431 38.4559 -28.4840 2.8948 -26.3300
# 3 15.5738 38.4559 89.6008 -13.4854 12.1003 -18.3599
# 4 -0.7617 -28.4840 -13.4854 48.8344 -5.9641 6.1606
# 5 4.3409 2.8948 12.1003 -5.9641 35.4955 -7.8973
# 6 -14.6721 -26.3300 -18.3599 6.1606 -7.8973 45.4388
#
#
#
# Elastic Compliance Matrix: (Units=1/GPa)
#
#
# Indices 1 2 3 4 5 6 
#
# 1 0.021176 -0.000992 -0.002285 -0.001661 -0.000802 0.005426
# 2 -0.000992 0.004611 -0.001247 0.002227 0.000924 0.001707
# 3 -0.002285 -0.001247 0.013492 0.002181 -0.003151 0.003148
# 4 -0.001661 0.002227 0.002181 0.022828 0.002901 -0.000955
# 5 -0.000802 0.000924 -0.003151 0.002901 0.030632 0.003934
# 6 0.005426 0.001707 0.003148 -0.000955 0.003934 0.026834
#
#
# Mechanical properties :
#
#
# Convention : Reuss Voigt Hill
#
# Bulk Modulus (GPa) = 33.07717 60.82536 46.95127
# Shear Modulus (GPa) = 36.05006 47.50419 41.77712
#
# Velocity S-wave (km/s) = 3.65230 4.19256 3.93172
# Velocity P-wave (km/s) = 5.47950 6.77816 6.16313
#
# Compressibility (1/GPa) = 0.03023233
#
# Stress axis : x y z
#
# Youngs Moduli (GPa) = 47.22323 216.87230 74.12009
#
# Poissons Ratio (x) = 0.21504 0.16937
# Poissons Ratio (y) = 0.04682 0.09239
# Poissons Ratio (z) = 0.10791 0.27034
#
# Static dielectric constant tensor:
#      x y z
#    x 2.349670 0.090200 -0.009580 
#    y 0.090200 2.183260 -0.010080 
#    z -0.009580 -0.010080 2.140650 
# 
# From -- ./inp_files/308263.got.cif
#   From: 2010.05.17/outbox.cif.g08.bks.cpg/sg2_155_cif.got.tgz:308263.got - 2010.06.03 11:33:40.
