data_PCOD9103435
_publ_section_title
;
Structure prediction by ZEFSAII (Michael W. Deem and Ramdas Pophale) SiO2 
 PCOD9103435
Probable space group: P -1
;
_chemical_formula_sum "Si O2"
_cell_formula_units_Z 14
_cell_length_a 11.383705
_cell_length_b 7.960446
_cell_length_c 9.823689
_cell_angle_alpha 59.119862
_cell_angle_beta 124.194781
_cell_angle_gamma 108.170961
_cell_volume 631.603235
_symmetry_space_group_name_H-M "P -1"
_symmetry_group_IT_number 2
_symmetry_cell_setting 'triclinic'
loop_
_space_group_symop_operation_xyz
x,y,z
-x,-y,-z
loop_
_atom_site_type_symbol
_atom_site_label
_atom_site_fract_x
_atom_site_fract_y
_atom_site_fract_z
Si Si1 0.671203 0.237943 0.991561
Si Si2 0.049243 0.304437 0.439455
Si Si3 0.345906 0.220480 0.757948
Si Si4 0.031817 0.724758 0.895928
Si Si5 0.958689 0.235396 0.710593
Si Si6 0.812339 0.915975 0.869600
Si Si7 0.346275 0.409969 0.969123
O O1 0.803165 0.235214 0.975239
O O2 0.658555 0.015578 0.131248
O O3 0.512118 0.278804 0.816105
O O4 0.713818 0.409374 0.058057
O O5 0.217812 0.270561 0.554995
O O6 0.029162 0.537534 0.337377
O O7 0.978813 0.222816 0.291370
O O8 0.981218 0.220565 0.569956
O O9 0.300726 0.335018 0.819987
O O10 0.903086 0.822481 0.846981
O O11 0.000000 0.500000 0.000000
O O12 0.815963 0.136496 0.724243
O O13 0.085294 0.127434 0.916664
O O14 0.672902 0.785398 0.869480
O O15 0.500000 0.500000 0.000000
#
# Coordination Sequence:
#
# PCOD9103435 Si02
#       7
#     2   2   2   2   2   2   2
#     4  10  22  40  62  95 128 170 217 263 324 399
#     4  11  22  41  62 101 129 171 216 274 330 381
#     4  10  22  40  65  93 125 174 221 260 322 393
#     4  12  23  38  63  95 131 165 212 275 329 380
#     4  10  22  35  64  93 130 164 217 271 321 391
#     4  11  21  40  61  96 127 171 218 265 331 394
#     4  10  20  38  66  91 125 172 219 259 319 399
#
# _framework density 22.165811999999999
#
# number of rings (size 3 to 8) (size 9 to 14) (size 15 to 20)
#    0.000    1.429    4.286    0.857    4.000    2.286 
#    0.000    0.714    0.000    3.429    0.000    0.000 
#    0.000    0.000    0.000    0.000    0.000    0.000 
#
# Total GULP energy -77996.920310 kJ/mol
# GULP energy per Si atom -5571.208594 kJ/mol
# Density = 2.211536 g / cm^3
# Si number density = 22.165812 Si / 1000 Ang^3
#
#
#
# Elastic Constant Matrix: (Units=GPa)
#
#
# Indices 1 2 3 4 5 6 
#
# 1 111.6410 11.1391 30.9385 0.1291 -7.3210 29.3515
# 2 11.1391 94.8079 19.4558 -17.4577 -13.1236 12.7268
# 3 30.9385 19.4558 60.0935 1.0538 -16.7082 8.0324
# 4 0.1291 -17.4577 1.0538 27.5844 -0.6429 -5.9636
# 5 -7.3210 -13.1236 -16.7082 -0.6429 40.8391 -2.7454
# 6 29.3515 12.7268 8.0324 -5.9636 -2.7454 53.8716
#
#
#
# Elastic Compliance Matrix: (Units=1/GPa)
#
#
# Indices 1 2 3 4 5 6 
#
# 1 0.012001 0.000294 -0.005595 -0.000943 -0.000455 -0.005902
# 2 0.000294 0.013419 -0.003603 0.008324 0.002906 -0.001723
# 3 -0.005595 -0.003603 0.022633 -0.002830 0.007093 0.000573
# 4 -0.000943 0.008324 -0.002830 0.042505 0.002272 0.003790
# 5 -0.000455 0.002906 0.007093 0.002272 0.028289 0.000197
# 6 -0.005902 -0.001723 0.000573 0.003790 0.000197 0.022529
#
#
# Mechanical properties :
#
#
# Convention : Reuss Voigt Hill
#
# Bulk Modulus (GPa) = 33.06457 43.28992 38.17725
# Shear Modulus (GPa) = 29.53896 38.12628 33.83262
#
# Velocity S-wave (km/s) = 3.65449 4.15185 3.91108
# Velocity P-wave (km/s) = 5.72332 6.52351 6.13647
#
# Compressibility (1/GPa) = 0.03024385
#
# Stress axis : x y z
#
# Youngs Moduli (GPa) = 83.32416 74.52158 44.18343
#
# Poissons Ratio (x) = -0.02189 0.24720
# Poissons Ratio (y) = -0.02447 0.15921
# Poissons Ratio (z) = 0.46619 0.26853
#
# Static dielectric constant tensor:
#      x y z
#    x 1.916220 -0.051170 -0.003440 
#    y -0.051170 2.038350 0.028630 
#    z -0.003440 0.028630 1.844040 
# 
# From -- ./inp_files/242700.got.cif
#   From: 2010.05.17/outbox.cif.g08.bks.cpg/sg2_122_cif.got.tgz:242700.got - 2010.06.03 11:33:40.
