data_PCOD9103605
_publ_section_title
;
Structure prediction by ZEFSAII (Michael W. Deem and Ramdas Pophale) SiO2 
 PCOD9103605
Probable space group: P -1
;
_chemical_formula_sum "Si O2"
_cell_formula_units_Z 16
_cell_length_a 5.147883
_cell_length_b 18.739965
_cell_length_c 7.983827
_cell_angle_alpha 113.508184
_cell_angle_beta 111.238463
_cell_angle_gamma 100.197530
_cell_volume 609.955955
_symmetry_space_group_name_H-M "P -1"
_symmetry_group_IT_number 2
_symmetry_cell_setting 'triclinic'
loop_
_space_group_symop_operation_xyz
x,y,z
-x,-y,-z
loop_
_atom_site_type_symbol
_atom_site_label
_atom_site_fract_x
_atom_site_fract_y
_atom_site_fract_z
Si Si1 0.805894 0.071607 0.705327
Si Si2 0.607543 0.258076 0.224609
Si Si3 0.458697 0.074852 0.956193
Si Si4 0.762278 0.466288 0.066042
Si Si5 0.535374 0.686254 0.344157
Si Si6 0.065369 0.314988 0.105385
Si Si7 0.173030 0.422427 0.512560
Si Si8 0.083954 0.765943 0.340729
O O1 0.866131 0.148773 0.663689
O O2 0.500000 0.000000 0.500000
O O3 0.115485 0.054459 0.787330
O O4 0.696398 0.091030 0.876857
O O5 0.544895 0.161365 0.161538
O O6 0.296198 0.271560 0.174717
O O7 0.865054 0.346339 0.424625
O O8 0.746003 0.264350 0.072057
O O9 0.500000 0.000000 0.000000
O O10 0.633017 0.367328 0.907696
O O11 0.500000 0.500000 0.000000
O O12 0.000000 0.500000 0.000000
O O13 0.823605 0.498497 0.304711
O O14 0.369995 0.743615 0.432370
O O15 0.580100 0.614265 0.399175
O O16 0.858169 0.750956 0.424850
O O17 0.184893 0.408791 0.301493
O O18 0.068469 0.306618 0.901041
#
# Coordination Sequence:
#
# PCOD9103605 Si02
#       8
#     2   2   2   2   2   2   2   2
#     4  12  26  46  67  97 137 179 211 271 347 397
#     4  10  20  38  67  88 121 165 218 249 325 373
#     4  12  24  45  70  99 130 172 226 276 325 399
#     4  10  21  39  61  93 134 169 206 271 333 370
#     4  11  24  38  65  97 126 168 219 265 319 384
#     4  10  21  39  66  83 124 172 211 251 324 380
#     4   9  23  38  67  90 125 164 224 264 315 374
#     4  12  23  43  63  90 133 172 209 259 330 399
#
# _framework density 26.231403
#
# number of rings (size 3 to 8) (size 9 to 14) (size 15 to 20)
#    0.750    0.500    2.500    3.750    5.250    2.000 
#    0.000    1.250    0.000    0.000    0.000    0.000 
#    0.000    0.000    0.000    0.000    0.000    0.000 
#
# Total GULP energy -89331.922248 kJ/mol
# GULP energy per Si atom -5583.245140 kJ/mol
# Density = 2.617170 g / cm^3
# Si number density = 26.231403 Si / 1000 Ang^3
#
#
#
# Elastic Constant Matrix: (Units=GPa)
#
#
# Indices 1 2 3 4 5 6 
#
# 1 169.9793 53.1996 2.3461 16.3719 -2.8342 -6.5205
# 2 53.1996 80.5183 -17.0683 15.5817 8.9230 -21.4509
# 3 2.3461 -17.0683 84.4850 19.2463 -1.5552 -3.2013
# 4 16.3719 15.5817 19.2463 20.8864 2.1039 -5.1716
# 5 -2.8342 8.9230 -1.5552 2.1039 40.2858 -2.3080
# 6 -6.5205 -21.4509 -3.2013 -5.1716 -2.3080 52.8895
#
#
#
# Elastic Compliance Matrix: (Units=1/GPa)
#
#
# Indices 1 2 3 4 5 6 
#
# 1 0.007786 -0.005679 -0.001061 -0.001429 0.001755 -0.001471
# 2 -0.005679 0.025009 0.010300 -0.021364 -0.003978 0.007804
# 3 -0.001061 0.010300 0.019552 -0.024142 -0.000176 0.002862
# 4 -0.001429 -0.021364 -0.024142 0.086818 -0.000941 -0.001854
# 5 0.001755 -0.003978 -0.000176 -0.000941 0.025848 -0.000372
# 6 -0.001471 0.007804 0.002862 -0.001854 -0.000372 0.021867
#
#
# Mechanical properties :
#
#
# Convention : Reuss Voigt Hill
#
# Bulk Modulus (GPa) = 16.81657 45.77083 31.29370
# Shear Modulus (GPa) = 25.05236 42.57935 33.81586
#
# Velocity S-wave (km/s) = 3.09374 4.03329 3.59435
# Velocity P-wave (km/s) = 4.38023 6.25913 5.40200
#
# Compressibility (1/GPa) = 0.05946517
#
# Stress axis : x y z
#
# Youngs Moduli (GPa) = 128.44342 39.98557 51.14690
#
# Poissons Ratio (x) = 0.22707 0.05428
# Poissons Ratio (y) = 0.72939 -0.52679
# Poissons Ratio (z) = 0.13631 -0.41183
#
# Static dielectric constant tensor:
#      x y z
#    x 1.973600 0.003980 0.036550 
#    y 0.003980 1.965590 -0.048910 
#    z 0.036550 -0.048910 2.284580 
# 
# From -- ./inp_files/141453.got.cif
#   From: 2010.05.17/outbox.cif.g08.bks.cpg/sg2_71_cif.got.tgz:141453.got - 2010.06.03 11:33:40.
