data_PCOD9103715
_publ_section_title
;
Structure prediction by ZEFSAII (Michael W. Deem and Ramdas Pophale) SiO2 
 PCOD9103715
Probable space group: P -1
;
_chemical_formula_sum "Si O2"
_cell_formula_units_Z 15
_cell_length_a 11.692913
_cell_length_b 7.729502
_cell_length_c 9.054684
_cell_angle_alpha 93.564973
_cell_angle_beta 108.254652
_cell_angle_gamma 64.420079
_cell_volume 698.449396
_symmetry_space_group_name_H-M "P -1"
_symmetry_group_IT_number 2
_symmetry_cell_setting 'triclinic'
loop_
_space_group_symop_operation_xyz
x,y,z
-x,-y,-z
loop_
_atom_site_type_symbol
_atom_site_label
_atom_site_fract_x
_atom_site_fract_y
_atom_site_fract_z
Si Si1 0.132339 0.320112 0.242665
Si Si2 0.928045 0.938205 0.298034
Si Si3 0.437088 0.610883 0.630817
Si Si4 0.033598 0.785915 0.047747
Si Si5 0.000000 0.500000 0.500000
Si Si6 0.293903 0.465335 0.106417
Si Si7 0.807831 0.008741 0.537875
Si Si8 0.774810 0.404710 0.247616
O O1 0.230418 0.345039 0.164735
O O2 0.089804 0.459233 0.374037
O O3 0.198394 0.109905 0.332185
O O4 0.007063 0.324516 0.099271
O O5 0.872257 0.868225 0.413202
O O6 0.836372 0.167482 0.245949
O O7 0.942051 0.812746 0.154302
O O8 0.076830 0.918890 0.388639
O O9 0.500000 0.500000 0.500000
O O10 0.556384 0.600145 0.782998
O O11 0.332473 0.825688 0.554608
O O12 0.347190 0.533411 0.683376
O O13 0.191005 0.677744 0.133725
O O14 0.000000 0.000000 0.000000
O O15 0.891808 0.445490 0.365601
O O16 0.278271 0.488935 0.924608
#
# Coordination Sequence:
#
# PCOD9103715 Si02
#       8
#     2   2   2   2   1   2   2   2
#     4  12  26  39  65 103 137 178 217 288 344 393
#     4  10  20  38  67  99 126 167 233 284 331 384
#     4  11  25  43  69  97 134 187 227 272 326 414
#     4  12  21  40  67 100 130 170 225 289 335 393
#     4  12  22  42  64 102 136 170 224 282 346 388
#     4  12  25  43  63 103 139 177 221 272 345 409
#     4  10  21  40  62  97 130 176 222 268 334 393
#     4  11  23  44  69 101 132 174 227 284 341 392
#
# _framework density 21.476141999999999
#
# number of rings (size 3 to 8) (size 9 to 14) (size 15 to 20)
#    0.000    0.800    5.333    2.400    1.867    0.533 
#    0.000    0.000    0.000    4.800    0.000    0.000 
#    0.000    0.000    0.000    0.000    0.000    0.000 
#
# Total GULP energy -83610.878154 kJ/mol
# GULP energy per Si atom -5574.058544 kJ/mol
# Density = 2.142726 g / cm^3
# Si number density = 21.476142 Si / 1000 Ang^3
#
#
#
# Elastic Constant Matrix: (Units=GPa)
#
#
# Indices 1 2 3 4 5 6 
#
# 1 143.0038 33.1671 67.1014 -23.7305 -15.9127 -6.2183
# 2 33.1671 55.5401 51.6125 -17.5388 -2.9670 -9.0762
# 3 67.1014 51.6125 162.5341 -8.1308 -18.2248 -10.7376
# 4 -23.7305 -17.5388 -8.1308 54.4743 -7.3685 -10.1849
# 5 -15.9127 -2.9670 -18.2248 -7.3685 48.2634 -6.0389
# 6 -6.2183 -9.0762 -10.7376 -10.1849 -6.0389 38.7000
#
#
#
# Elastic Compliance Matrix: (Units=1/GPa)
#
#
# Indices 1 2 3 4 5 6 
#
# 1 0.009786 -0.001290 -0.002963 0.004174 0.002916 0.002002
# 2 -0.001290 0.030589 -0.008133 0.009548 0.000760 0.007342
# 3 -0.002963 -0.008133 0.010094 -0.002092 0.002039 0.000185
# 4 0.004174 0.009548 -0.002092 0.025682 0.006356 0.010080
# 5 0.002916 0.000760 0.002039 0.006356 0.024304 0.006678
# 6 0.002002 0.007342 0.000185 0.010080 0.006678 0.031629
#
#
# Mechanical properties :
#
#
# Convention : Reuss Voigt Hill
#
# Bulk Modulus (GPa) = 38.91275 73.87112 56.39194
# Shear Modulus (GPa) = 30.22580 42.23402 36.22991
#
# Velocity S-wave (km/s) = 3.75562 4.43940 4.11175
# Velocity P-wave (km/s) = 6.07986 7.79417 6.98977
#
# Compressibility (1/GPa) = 0.02569852
#
# Stress axis : x y z
#
# Youngs Moduli (GPa) = 102.18265 32.69183 99.06489
#
# Poissons Ratio (x) = 0.04217 0.29348
# Poissons Ratio (y) = 0.13182 0.80569
# Poissons Ratio (z) = 0.30272 0.26588
#
# Static dielectric constant tensor:
#      x y z
#    x 1.811120 0.065210 -0.096910 
#    y 0.065210 1.565060 -0.032370 
#    z -0.096910 -0.032370 1.838000 
# 
# From -- ./inp_files/244712.got.cif
#   From: 2010.05.17/outbox.cif.g08.bks.cpg/sg2_123_cif.got.tgz:244712.got - 2010.06.03 11:33:40.
