data_PCOD9103862
_publ_section_title
;
Structure prediction by ZEFSAII (Michael W. Deem and Ramdas Pophale) SiO2 
 PCOD9103862
Probable space group: P -1
;
_chemical_formula_sum "Si O2"
_cell_formula_units_Z 14
_cell_length_a 5.130682
_cell_length_b 13.501204
_cell_length_c 12.066093
_cell_angle_alpha 67.843190
_cell_angle_beta 123.559495
_cell_angle_gamma 114.623882
_cell_volume 621.158886
_symmetry_space_group_name_H-M "P -1"
_symmetry_group_IT_number 2
_symmetry_cell_setting 'triclinic'
loop_
_space_group_symop_operation_xyz
x,y,z
-x,-y,-z
loop_
_atom_site_type_symbol
_atom_site_label
_atom_site_fract_x
_atom_site_fract_y
_atom_site_fract_z
Si Si1 0.366629 0.504482 0.619580
Si Si2 0.884788 0.052935 0.559794
Si Si3 0.355877 0.973016 0.852535
Si Si4 0.154660 0.823858 0.200535
Si Si5 0.419970 0.774154 0.051553
Si Si6 0.645416 0.701722 0.443626
Si Si7 0.614763 0.467857 0.924161
O O1 0.606300 0.612517 0.571628
O O2 0.403324 0.385455 0.634152
O O3 0.000000 0.500000 0.500000
O O4 0.441765 0.513242 0.763264
O O5 0.044937 0.005321 0.720986
O O6 0.043855 0.188677 0.534889
O O7 0.500000 0.000000 0.500000
O O8 0.000000 0.000000 0.500000
O O9 0.637310 0.048802 0.811588
O O10 0.311474 0.842640 0.898719
O O11 0.500000 0.000000 0.000000
O O12 0.339770 0.755287 0.349123
O O13 0.196632 0.776000 0.106160
O O14 0.797670 0.823779 0.151406
O O15 0.453534 0.661136 0.058430
O O16 0.500000 0.500000 0.000000
O O17 0.000000 0.500000 0.000000
#
# Coordination Sequence:
#
# PCOD9103862 Si02
#       7
#     2   2   2   2   2   2   2
#     4  11  25  46  78 105 141 197 258 300 358 443
#     4  11  27  48  72 107 153 191 235 304 381 432
#     4   9  22  42  71 103 131 179 236 286 344 430
#     4  10  20  38  69 101 132 170 234 291 342 412
#     4  11  21  40  65  96 139 178 223 284 355 416
#     4  10  24  43  75 106 144 193 254 300 362 443
#     4  12  28  47  68 105 149 186 234 304 374 422
#
# _framework density 22.538516000000001
#
# number of rings (size 3 to 8) (size 9 to 14) (size 15 to 20)
#    0.000    1.429    1.429    2.143    6.000    9.143 
#    0.000    0.000    0.000    0.000    0.000    0.000 
#    0.000    0.000    0.000    0.000    0.000    0.000 
#
# Total GULP energy -78131.210301 kJ/mol
# GULP energy per Si atom -5580.800736 kJ/mol
# Density = 2.248722 g / cm^3
# Si number density = 22.538516 Si / 1000 Ang^3
#
#
#
# Elastic Constant Matrix: (Units=GPa)
#
#
# Indices 1 2 3 4 5 6 
#
# 1 131.8920 42.1615 68.4753 15.3247 -1.3393 1.1913
# 2 42.1615 117.4403 74.3198 -16.6849 -6.9616 12.3125
# 3 68.4753 74.3198 167.4908 0.3080 -2.2046 2.6505
# 4 15.3247 -16.6849 0.3080 38.6197 1.4940 0.5061
# 5 -1.3393 -6.9616 -2.2046 1.4940 38.8620 19.2684
# 6 1.1913 12.3125 2.6505 0.5061 19.2684 32.4076
#
#
#
# Elastic Compliance Matrix: (Units=1/GPa)
#
#
# Indices 1 2 3 4 5 6 
#
# 1 0.010741 -0.002852 -0.003152 -0.005455 -0.000881 0.001555
# 2 -0.002852 0.015509 -0.005491 0.007738 0.006775 -0.009487
# 3 -0.003152 -0.005491 0.009636 -0.001164 -0.001717 0.002453
# 4 -0.005455 0.007738 -0.001164 0.031387 0.002098 -0.004382
# 5 -0.000881 0.006775 -0.001717 0.002098 0.039625 -0.025994
# 6 0.001555 -0.009487 0.002453 -0.004382 -0.025994 0.049727
#
#
# Mechanical properties :
#
#
# Convention : Reuss Voigt Hill
#
# Bulk Modulus (GPa) = 77.53608 87.41515 82.47562
# Shear Modulus (GPa) = 27.18671 37.43563 32.31117
#
# Velocity S-wave (km/s) = 3.47686 4.07991 3.79040
# Velocity P-wave (km/s) = 7.11297 7.81430 7.47186
#
# Compressibility (1/GPa) = 0.01289722
#
# Stress axis : x y z
#
# Youngs Moduli (GPa) = 93.10252 64.47833 103.77456
#
# Poissons Ratio (x) = 0.18387 0.32710
# Poissons Ratio (y) = 0.26549 0.56981
# Poissons Ratio (z) = 0.29346 0.35404
#
# Static dielectric constant tensor:
#      x y z
#    x 1.841600 0.015500 -0.020060 
#    y 0.015500 2.013520 -0.041450 
#    z -0.020060 -0.041450 1.828180 
# 
# From -- ./inp_files/366842.got.cif
#   From: 2010.05.17/outbox.cif.g08.bks.cpg/sg2_184_cif.got.tgz:366842.got - 2010.06.03 11:33:40.
