data_PCOD9103922
_publ_section_title
;
Structure prediction by ZEFSAII (Michael W. Deem and Ramdas Pophale) SiO2 
 PCOD9103922
Probable space group: P -1
;
_chemical_formula_sum "Si O2"
_cell_formula_units_Z 14
_cell_length_a 22.791510
_cell_length_b 21.400728
_cell_length_c 8.521531
_cell_angle_alpha 37.630014
_cell_angle_beta 140.838102
_cell_angle_gamma 166.693686
_cell_volume 583.758625
_symmetry_space_group_name_H-M "P -1"
_symmetry_group_IT_number 2
_symmetry_cell_setting 'triclinic'
loop_
_space_group_symop_operation_xyz
x,y,z
-x,-y,-z
loop_
_atom_site_type_symbol
_atom_site_label
_atom_site_fract_x
_atom_site_fract_y
_atom_site_fract_z
Si Si1 0.094551 0.071605 0.727130
Si Si2 0.100794 0.846894 0.741148
Si Si3 0.012398 0.521022 0.294027
Si Si4 0.568461 0.349965 0.480960
Si Si5 0.510712 0.120540 0.553980
Si Si6 0.384473 0.430633 0.119105
Si Si7 0.664041 0.864757 0.017968
O O1 0.893301 0.898307 0.783383
O O2 0.378193 0.400725 0.701246
O O3 0.000000 0.000000 0.500000
O O4 0.143601 0.997820 0.975006
O O5 0.818070 0.594800 0.617981
O O6 0.302594 0.073949 0.570588
O O7 0.078692 0.703304 0.016178
O O8 0.215429 0.013391 0.805211
O O9 0.000000 0.500000 0.500000
O O10 0.237897 0.679354 0.382703
O O11 0.733070 0.202746 0.283253
O O12 0.570404 0.252640 0.563846
O O13 0.585906 0.466967 0.172240
O O14 0.410928 0.099365 0.259027
O O15 0.421079 0.542448 0.126115
#
# Coordination Sequence:
#
# PCOD9103922 Si02
#       7
#     2   2   2   2   2   2   2
#     4  10  20  38  70 101 115 149 206 253 294 360
#     4  12  25  38  60  90 122 162 212 250 302 351
#     4  12  25  39  63  88 122 159 213 270 297 337
#     4  11  25  40  61  88 124 169 200 246 304 370
#     4  11  24  42  62  83 123 166 210 244 313 357
#     4   9  21  39  64  89 122 160 192 246 302 360
#     4   9  24  36  67  88 123 157 208 246 303 360
#
# _framework density 23.982516
#
# number of rings (size 3 to 8) (size 9 to 14) (size 15 to 20)
#    0.857    0.571    1.429    3.429    8.000    3.429 
#    0.000    0.000    0.000    5.143    0.000    0.000 
#    0.000    0.000    0.000    0.000    0.000    0.000 
#
# Total GULP energy -78341.095055 kJ/mol
# GULP energy per Si atom -5595.792504 kJ/mol
# Density = 2.392793 g / cm^3
# Si number density = 23.982516 Si / 1000 Ang^3
#
#
#
# Elastic Constant Matrix: (Units=GPa)
#
#
# Indices 1 2 3 4 5 6 
#
# 1 91.5831 17.5135 18.5205 1.4842 6.0714 13.5707
# 2 17.5135 128.0058 27.0431 -8.4661 8.8803 35.4935
# 3 18.5205 27.0431 103.8708 0.0467 7.2770 12.2326
# 4 1.4842 -8.4661 0.0467 43.0147 -0.9406 1.3204
# 5 6.0714 8.8803 7.2770 -0.9406 31.7099 9.5885
# 6 13.5707 35.4935 12.2326 1.3204 9.5885 45.8405
#
#
#
# Elastic Compliance Matrix: (Units=1/GPa)
#
#
# Indices 1 2 3 4 5 6 
#
# 1 0.011781 -0.000571 -0.001599 -0.000466 -0.001019 -0.002392
# 2 -0.000571 0.010512 -0.001741 0.002321 -0.000082 -0.007556
# 3 -0.001599 -0.001741 0.010547 -0.000309 -0.001429 -0.000686
# 4 -0.000466 0.002321 -0.000309 0.023818 0.000962 -0.002464
# 5 -0.001019 -0.000082 -0.001429 0.000962 0.034046 -0.006403
# 6 -0.002392 -0.007556 -0.000686 -0.002464 -0.006403 0.029967
#
#
# Mechanical properties :
#
#
# Convention : Reuss Voigt Hill
#
# Bulk Modulus (GPa) = 39.96855 49.95712 44.96283
# Shear Modulus (GPa) = 36.54157 41.47187 39.00672
#
# Velocity S-wave (km/s) = 3.90766 4.16294 4.03732
# Velocity P-wave (km/s) = 6.08783 6.63194 6.36570
#
# Compressibility (1/GPa) = 0.02501967
#
# Stress axis : x y z
#
# Youngs Moduli (GPa) = 84.88152 95.12789 94.81800
#
# Poissons Ratio (x) = 0.05430 0.15158
# Poissons Ratio (y) = 0.04846 0.16504
# Poissons Ratio (z) = 0.13569 0.16558
#
# Static dielectric constant tensor:
#      x y z
#    x 1.947470 -0.002390 0.017260 
#    y -0.002390 1.951040 0.002740 
#    z 0.017260 0.002740 1.884010 
# 
# From -- ./inp_files/112246.got.cif
#   From: 2010.05.17/outbox.cif.g08.bks.cpg/sg2_57_cif.got.tgz:112246.got - 2010.06.03 11:33:40.
