data_PCOD9103865
_publ_section_title
;
Structure prediction by ZEFSAII (Michael W. Deem and Ramdas Pophale) SiO2 
 PCOD9103865
Probable space group: P -1
;
_chemical_formula_sum "Si O2"
_cell_formula_units_Z 14
_cell_length_a 8.079731
_cell_length_b 6.685889
_cell_length_c 20.023389
_cell_angle_alpha 117.455548
_cell_angle_beta 139.799346
_cell_angle_gamma 81.007730
_cell_volume 582.198224
_symmetry_space_group_name_H-M "P -1"
_symmetry_group_IT_number 2
_symmetry_cell_setting 'triclinic'
loop_
_space_group_symop_operation_xyz
x,y,z
-x,-y,-z
loop_
_atom_site_type_symbol
_atom_site_label
_atom_site_fract_x
_atom_site_fract_y
_atom_site_fract_z
Si Si1 0.813279 0.412443 0.993431
Si Si2 0.363323 0.646695 0.435751
Si Si3 0.279261 0.975253 0.766488
Si Si4 0.851220 0.681641 0.795614
Si Si5 0.237531 0.506044 0.626211
Si Si6 0.735588 0.887483 0.070559
Si Si7 0.174723 0.042800 0.478944
O O1 0.665817 0.608022 0.991678
O O2 0.007881 0.407341 0.114298
O O3 0.588680 0.149179 0.878641
O O4 0.000000 0.500000 0.000000
O O5 0.500000 0.500000 0.500000
O O6 0.139807 0.470680 0.291069
O O7 0.595712 0.808291 0.481806
O O8 0.246565 0.804117 0.472209
O O9 0.186045 0.059345 0.819715
O O10 0.236139 0.691775 0.712364
O O11 0.103767 0.007680 0.654989
O O12 0.536189 0.632696 0.706107
O O13 0.012354 0.958505 0.873206
O O14 0.208027 0.226071 0.579046
O O15 0.000000 0.500000 0.500000
O O16 0.500000 0.000000 0.000000
#
# Coordination Sequence:
#
# PCOD9103865 Si02
#       7
#     2   2   2   2   2   2   2
#     4  12  28  46  69 102 143 193 240 288 359 423
#     4  10  20  38  69 102 135 178 228 285 357 415
#     4  11  22  44  72  98 146 180 236 291 355 425
#     4  11  24  44  71 101 148 181 237 293 355 420
#     4   9  21  42  70 100 135 188 232 286 350 422
#     4  12  26  42  70 106 140 185 237 289 357 422
#     4   9  20  39  65  97 137 177 225 289 343 413
#
# _framework density 24.046793999999998
#
# number of rings (size 3 to 8) (size 9 to 14) (size 15 to 20)
#    0.000    1.429    1.429    3.000    4.000    3.429 
#    0.000    1.429    0.000   15.429    0.000    0.000 
#    0.000    0.000    0.000    0.000    0.000    0.000 
#
# Total GULP energy -78375.846539 kJ/mol
# GULP energy per Si atom -5598.274753 kJ/mol
# Density = 2.399206 g / cm^3
# Si number density = 24.046794 Si / 1000 Ang^3
#
#
#
# Elastic Constant Matrix: (Units=GPa)
#
#
# Indices 1 2 3 4 5 6 
#
# 1 82.0065 36.9046 27.6771 -0.0341 -12.0088 -10.2326
# 2 36.9046 128.3100 57.8054 11.9446 -20.4458 -15.8193
# 3 27.6771 57.8054 124.8916 8.6876 -1.9761 -8.4042
# 4 -0.0341 11.9446 8.6876 35.4917 -7.6357 -8.6489
# 5 -12.0088 -20.4458 -1.9761 -7.6357 50.2636 6.8618
# 6 -10.2326 -15.8193 -8.4042 -8.6489 6.8618 45.3726
#
#
#
# Elastic Compliance Matrix: (Units=1/GPa)
#
#
# Indices 1 2 3 4 5 6 
#
# 1 0.014783 -0.003012 -0.001880 0.002491 0.002330 0.002058
# 2 -0.003012 0.011530 -0.004385 -0.001682 0.003309 0.001707
# 3 -0.001880 -0.004385 0.010529 -0.001542 -0.002055 0.000014
# 4 0.002491 -0.001682 -0.001542 0.031190 0.003900 0.005045
# 5 0.002330 0.003309 -0.002055 0.003900 0.022495 -0.001360
# 6 0.002058 0.001707 0.000014 0.005045 -0.001360 0.024269
#
#
# Mechanical properties :
#
#
# Convention : Reuss Voigt Hill
#
# Bulk Modulus (GPa) = 54.67931 64.44249 59.56090
# Shear Modulus (GPa) = 35.85638 40.41365 38.13501
#
# Velocity S-wave (km/s) = 3.86568 4.10399 3.98661
# Velocity P-wave (km/s) = 6.53549 7.02239 6.78331
#
# Compressibility (1/GPa) = 0.01828845
#
# Stress axis : x y z
#
# Youngs Moduli (GPa) = 67.64486 86.73257 94.97809
#
# Poissons Ratio (x) = 0.26122 0.17856
# Poissons Ratio (y) = 0.20373 0.41646
# Poissons Ratio (z) = 0.12717 0.38030
#
# Static dielectric constant tensor:
#      x y z
#    x 2.008820 0.027820 0.005980 
#    y 0.027820 1.972420 0.067930 
#    z 0.005980 0.067930 1.885450 
# 
# From -- ./inp_files/441873.got.cif
#   From: 2010.05.17/outbox.cif.g08.bks.cpg/sg2_221_cif.got.tgz:441873.got - 2010.06.03 11:33:40.
