data_PCOD9103088
_publ_section_title
;
Structure prediction by ZEFSAII (Michael W. Deem and Ramdas Pophale) SiO2 
 PCOD9103088
Probable space group: P -1
;
_chemical_formula_sum "Si O2"
_cell_formula_units_Z 16
_cell_length_a 16.197066
_cell_length_b 13.483376
_cell_length_c 13.648765
_cell_angle_alpha 120.762769
_cell_angle_beta 138.136152
_cell_angle_gamma 25.332541
_cell_volume 701.655975
_symmetry_space_group_name_H-M "P -1"
_symmetry_group_IT_number 2
_symmetry_cell_setting 'triclinic'
loop_
_space_group_symop_operation_xyz
x,y,z
-x,-y,-z
loop_
_atom_site_type_symbol
_atom_site_label
_atom_site_fract_x
_atom_site_fract_y
_atom_site_fract_z
Si Si1 0.177977 0.327356 0.735391
Si Si2 0.275620 0.682666 0.114701
Si Si3 0.828849 0.887110 0.502667
Si Si4 0.968499 0.088976 0.414283
Si Si5 0.293426 0.486956 0.861529
Si Si6 0.829895 0.764366 0.973791
Si Si7 0.651207 0.826886 0.648488
Si Si8 0.003903 0.129016 0.833280
O O1 0.076632 0.314768 0.564254
O O2 0.164490 0.467936 0.751131
O O3 0.966992 0.504640 0.731997
O O4 0.532885 0.008500 0.901245
O O5 0.620250 0.430846 0.277031
O O6 0.261865 0.581033 0.982742
O O7 0.211146 0.708745 0.183453
O O8 0.000000 0.000000 0.000000
O O9 0.802878 0.000571 0.449848
O O10 0.087113 0.720256 0.715527
O O11 0.553695 0.091257 0.434047
O O12 0.038604 0.929909 0.316917
O O13 0.000000 0.000000 0.500000
O O14 0.640230 0.188050 0.985251
O O15 0.715661 0.867181 0.810376
O O16 0.000000 0.500000 0.000000
O O17 0.012860 0.723336 0.139592
O O18 0.500000 0.000000 0.500000
#
# Coordination Sequence:
#
# PCOD9103088 Si02
#       8
#     2   2   2   2   2   2   2   2
#     4  10  22  39  65 100 139 172 213 278 341 400
#     4  11  23  41  68  99 128 172 226 279 337 396
#     4  11  23  38  67  98 137 173 223 276 332 405
#     4  11  27  48  65  94 134 186 231 274 333 405
#     4  10  20  38  65 101 135 166 214 278 341 401
#     4  10  24  43  66  99 136 178 225 276 339 410
#     4  11  23  39  68 104 133 172 223 273 344 407
#     4  10  23  42  70  92 132 175 224 282 329 396
#
# _framework density 22.803197999999998
#
# number of rings (size 3 to 8) (size 9 to 14) (size 15 to 20)
#    0.000    1.500    1.250    2.625    3.500    8.000 
#    0.000    1.250    0.000    0.000    0.000    0.000 
#    0.000    0.000    0.000    0.000    0.000    0.000 
#
# Total GULP energy -89423.862991 kJ/mol
# GULP energy per Si atom -5588.991437 kJ/mol
# Density = 2.275130 g / cm^3
# Si number density = 22.803198 Si / 1000 Ang^3
#
#
#
# Elastic Constant Matrix: (Units=GPa)
#
#
# Indices 1 2 3 4 5 6 
#
# 1 145.3114 66.0911 37.0778 0.3273 22.5138 -29.3404
# 2 66.0911 127.3801 23.0088 -4.0360 17.8040 -22.1536
# 3 37.0778 23.0088 39.8462 11.5838 8.9967 -8.1669
# 4 0.3273 -4.0360 11.5838 30.9657 -1.4835 -1.3508
# 5 22.5138 17.8040 8.9967 -1.4835 28.4423 -7.3613
# 6 -29.3404 -22.1536 -8.1669 -1.3508 -7.3613 47.9545
#
#
#
# Elastic Compliance Matrix: (Units=1/GPa)
#
#
# Indices 1 2 3 4 5 6 
#
# 1 0.011837 -0.003433 -0.008182 0.002485 -0.003521 0.003792
# 2 -0.003433 0.010956 -0.002839 0.002498 -0.002554 0.002155
# 3 -0.008182 -0.002839 0.039912 -0.015506 -0.005382 -0.000784
# 4 0.002485 0.002498 -0.015506 0.038652 0.003833 0.001711
# 5 -0.003521 -0.002554 -0.005382 0.003833 0.042046 0.002311
# 6 0.003792 0.002155 -0.000784 0.001711 0.002311 0.024439
#
#
# Mechanical properties :
#
#
# Convention : Reuss Voigt Hill
#
# Bulk Modulus (GPa) = 29.58979 62.76589 46.17784
# Shear Modulus (GPa) = 24.03679 33.89650 28.96664
#
# Velocity S-wave (km/s) = 3.25021 3.85967 3.56798
# Velocity P-wave (km/s) = 5.20475 6.88822 6.10479
#
# Compressibility (1/GPa) = 0.03379544
#
# Stress axis : x y z
#
# Youngs Moduli (GPa) = 84.48385 91.27691 25.05509
#
# Poissons Ratio (x) = 0.31336 0.20500
# Poissons Ratio (y) = 0.29004 0.07114
# Poissons Ratio (z) = 0.69124 0.25917
#
# Static dielectric constant tensor:
#      x y z
#    x 1.864730 0.054590 -0.029630 
#    y 0.054590 1.845200 -0.052060 
#    z -0.029630 -0.052060 1.909630 
# 
# From -- ./inp_files/532613.got.cif
#   From: 2010.05.17/outbox.cif.g08.bks.cpg/sg2_267_cif.got.tgz:532613.got - 2010.06.03 11:33:40.
