data_PCOD9103812
_publ_section_title
;
Structure prediction by ZEFSAII (Michael W. Deem and Ramdas Pophale) SiO2 
 PCOD9103812
Probable space group: P -1
;
_chemical_formula_sum "Si O2"
_cell_formula_units_Z 16
_cell_length_a 11.956697
_cell_length_b 7.932480
_cell_length_c 14.721486
_cell_angle_alpha 114.977249
_cell_angle_beta 132.806045
_cell_angle_gamma 38.712961
_cell_volume 622.686402
_symmetry_space_group_name_H-M "P -1"
_symmetry_group_IT_number 2
_symmetry_cell_setting 'triclinic'
loop_
_space_group_symop_operation_xyz
x,y,z
-x,-y,-z
loop_
_atom_site_type_symbol
_atom_site_label
_atom_site_fract_x
_atom_site_fract_y
_atom_site_fract_z
Si Si1 0.950483 0.715065 0.396959
Si Si2 0.362405 0.723804 0.571350
Si Si3 0.189615 0.706212 0.878716
Si Si4 0.716486 0.576120 0.312859
Si Si5 0.174857 0.129862 0.979919
Si Si6 0.237499 0.457649 0.026296
Si Si7 0.817150 0.411997 0.681036
Si Si8 0.336207 0.755623 0.243338
O O1 0.782326 0.702111 0.325714
O O2 0.121732 0.578951 0.545178
O O3 0.082896 0.563236 0.342168
O O4 0.795657 0.038633 0.387399
O O5 0.559763 0.682166 0.634135
O O6 0.210210 0.770095 0.419308
O O7 0.503043 0.425345 0.623087
O O8 0.233246 0.625279 0.779883
O O9 0.918792 0.965668 0.808139
O O10 0.284820 0.826850 0.980704
O O11 0.264148 0.481536 0.940840
O O12 0.462117 0.788243 0.257072
O O13 0.023971 0.304047 0.026320
O O14 0.991332 0.269960 0.827885
O O15 0.317306 0.183146 0.042262
O O16 0.337350 0.550506 0.150659
#
# Coordination Sequence:
#
# PCOD9103812 Si02
#       8
#     2   2   2   2   2   2   2   2
#     4  11  25  41  62  97 135 172 209 271 326 390
#     4  11  23  38  68  99 128 169 216 264 326 392
#     4  11  23  45  68  91 133 179 213 274 329 376
#     4  11  26  43  63  95 134 171 218 264 329 394
#     4  10  20  38  68  96 124 170 221 262 326 390
#     4  10  22  42  65  97 130 170 222 272 324 383
#     4  11  21  39  68  97 127 169 216 261 328 395
#     4  11  23  44  66  96 129 168 218 269 325 388
#
# _framework density 25.695117
#
# number of rings (size 3 to 8) (size 9 to 14) (size 15 to 20)
#    0.000    1.250    3.750    3.375    3.500    2.500 
#    2.250    3.125    0.000    0.000    0.000    0.000 
#    0.000    0.000    0.000    0.000    0.000    0.000 
#
# Total GULP energy -89552.872467 kJ/mol
# GULP energy per Si atom -5597.054529 kJ/mol
# Density = 2.563663 g / cm^3
# Si number density = 25.695117 Si / 1000 Ang^3
#
#
#
# Elastic Constant Matrix: (Units=GPa)
#
#
# Indices 1 2 3 4 5 6 
#
# 1 201.4171 27.6801 18.1090 -4.3715 5.6671 -13.3925
# 2 27.6801 57.1408 10.7486 -1.3455 5.4952 -8.2978
# 3 18.1090 10.7486 85.7436 -10.3397 -7.9867 -9.9269
# 4 -4.3715 -1.3455 -10.3397 23.3173 -1.3783 -0.9308
# 5 5.6671 5.4952 -7.9867 -1.3783 45.2526 6.0695
# 6 -13.3925 -8.2978 -9.9269 -0.9308 6.0695 36.7709
#
#
#
# Elastic Compliance Matrix: (Units=1/GPa)
#
#
# Indices 1 2 3 4 5 6 
#
# 1 0.005462 -0.002223 -0.000703 0.000599 -0.000712 0.001430
# 2 -0.002223 0.019735 -0.001876 -0.000139 -0.002939 0.003619
# 3 -0.000703 -0.001876 0.013297 0.005909 0.002487 0.002649
# 4 0.000599 -0.000139 0.005909 0.045835 0.002031 0.002607
# 5 -0.000712 -0.002939 0.002487 0.002031 0.023594 -0.004094
# 6 0.001430 0.003619 0.002649 0.002607 -0.004094 0.029990
#
#
# Mechanical properties :
#
#
# Convention : Reuss Voigt Hill
#
# Bulk Modulus (GPa) = 34.61467 50.81964 42.71715
# Shear Modulus (GPa) = 31.81697 40.25240 36.03468
#
# Velocity S-wave (km/s) = 3.52269 3.96225 3.74892
# Velocity P-wave (km/s) = 5.48146 6.38384 5.94978
#
# Compressibility (1/GPa) = 0.02888949
#
# Stress axis : x y z
#
# Youngs Moduli (GPa) = 183.09286 50.67045 75.20280
#
# Poissons Ratio (x) = 0.11265 0.05289
# Poissons Ratio (y) = 0.40705 0.14108
# Poissons Ratio (z) = 0.12877 0.09506
#
# Static dielectric constant tensor:
#      x y z
#    x 2.040700 0.038260 0.004840 
#    y 0.038260 2.031320 0.014670 
#    z 0.004840 0.014670 2.068990 
# 
# From -- ./inp_files/515982.got.cif
#   From: 2010.05.17/outbox.cif.g08.bks.cpg/sg2_258_cif.got.tgz:515982.got - 2010.06.03 11:33:40.
