data_PCOD9103240
_publ_section_title
;
Structure prediction by ZEFSAII (Michael W. Deem and Ramdas Pophale) SiO2 
 PCOD9103240
Probable space group: P -1
;
_chemical_formula_sum "Si O2"
_cell_formula_units_Z 16
_cell_length_a 20.448849
_cell_length_b 18.549726
_cell_length_c 8.226007
_cell_angle_alpha 148.121805
_cell_angle_beta 39.460428
_cell_angle_gamma 153.372124
_cell_volume 737.460067
_symmetry_space_group_name_H-M "P -1"
_symmetry_group_IT_number 2
_symmetry_cell_setting 'triclinic'
loop_
_space_group_symop_operation_xyz
x,y,z
-x,-y,-z
loop_
_atom_site_type_symbol
_atom_site_label
_atom_site_fract_x
_atom_site_fract_y
_atom_site_fract_z
Si Si1 0.746465 0.532902 0.734497
Si Si2 0.333574 0.279244 0.234776
Si Si3 0.943919 0.821196 0.363005
Si Si4 0.037154 0.329215 0.687017
Si Si5 0.189101 0.743566 0.233610
Si Si6 0.039185 0.407222 0.354049
Si Si7 0.355675 0.283169 0.567900
Si Si8 0.413433 0.169631 0.569578
O O1 0.873768 0.665862 0.612015
O O2 0.810693 0.465618 0.587223
O O3 0.587337 0.349717 0.613851
O O4 0.734165 0.664559 0.107319
O O5 0.209190 0.275614 0.455978
O O6 0.316532 0.198090 0.294880
O O7 0.484003 0.502239 0.357331
O O8 0.336332 0.181502 0.887895
O O9 0.030307 0.842991 0.390596
O O10 0.941944 0.697863 0.005371
O O11 0.000000 0.000000 0.500000
O O12 0.904263 0.296729 0.820134
O O13 0.156871 0.552191 0.951818
O O14 0.099289 0.733585 0.530408
O O15 0.349172 0.956238 0.308079
O O16 0.000000 0.500000 0.500000
O O17 0.370502 0.195005 0.525226
#
# Coordination Sequence:
#
# PCOD9103240 Si02
#       8
#     2   2   2   2   2   2   2   2
#     4  10  21  40  66  92 125 176 215 258 332 396
#     4  10  21  38  59  97 131 168 213 261 338 384
#     4  12  23  37  65  96 122 165 224 273 314 387
#     4  10  22  41  63  86 126 177 215 255 337 387
#     4  10  23  41  62  90 128 174 215 267 321 395
#     4  11  22  42  64  89 135 174 210 266 330 386
#     4  10  20  38  65  93 135 170 203 276 331 389
#     4  11  22  40  65  99 133 163 219 279 323 382
#
# _framework density 21.696090000000002
#
# number of rings (size 3 to 8) (size 9 to 14) (size 15 to 20)
#    0.000    1.500    2.500    3.750    1.750    0.500 
#    0.000    3.750    0.000    0.000    0.000    0.000 
#    0.000    0.000    0.000    0.000    0.000    0.000 
#
# Total GULP energy -89176.387224 kJ/mol
# GULP energy per Si atom -5573.524202 kJ/mol
# Density = 2.164671 g / cm^3
# Si number density = 21.696090 Si / 1000 Ang^3
#
#
#
# Elastic Constant Matrix: (Units=GPa)
#
#
# Indices 1 2 3 4 5 6 
#
# 1 137.8728 33.3713 21.9649 6.2986 -15.3638 -25.7228
# 2 33.3713 62.2808 22.6543 -1.0256 -5.3389 -14.8456
# 3 21.9649 22.6543 34.9104 -6.2227 -8.2566 -8.7283
# 4 6.2986 -1.0256 -6.2227 33.7343 -4.4151 -6.8555
# 5 -15.3638 -5.3389 -8.2566 -4.4151 29.3713 -1.9054
# 6 -25.7228 -14.8456 -8.7283 -6.8555 -1.9054 31.4612
#
#
#
# Elastic Compliance Matrix: (Units=1/GPa)
#
#
# Indices 1 2 3 4 5 6 
#
# 1 0.009949 -0.002715 -0.001847 -0.000355 0.004563 0.006540
# 2 -0.002715 0.023140 -0.012013 0.000054 -0.000235 0.005364
# 3 -0.001847 -0.012013 0.044464 0.011396 0.011604 0.008343
# 4 -0.000355 0.000054 0.011396 0.035259 0.009050 0.011128
# 5 0.004563 -0.000235 0.011604 0.009050 0.041749 0.011339
# 6 0.006540 0.005364 0.008343 0.011128 0.011339 0.045090
#
#
# Mechanical properties :
#
#
# Convention : Reuss Voigt Hill
#
# Bulk Modulus (GPa) = 22.52074 43.44944 32.98509
# Shear Modulus (GPa) = 20.19374 29.38493 24.78933
#
# Velocity S-wave (km/s) = 3.05414 3.68419 3.38386
# Velocity P-wave (km/s) = 4.77908 6.17799 5.52301
#
# Compressibility (1/GPa) = 0.04440352
#
# Stress axis : x y z
#
# Youngs Moduli (GPa) = 100.50989 43.21521 22.49019
#
# Poissons Ratio (x) = 0.11733 0.04154
# Poissons Ratio (y) = 0.27288 0.27017
# Poissons Ratio (z) = 0.18565 0.51913
#
# Static dielectric constant tensor:
#      x y z
#    x 1.909490 -0.010350 0.038740 
#    y -0.010350 1.792600 0.018190 
#    z 0.038740 0.018190 1.815210 
# 
# From -- ./inp_files/348747.got.cif
#   From: 2010.05.17/outbox.cif.g08.bks.cpg/sg2_175_cif.got.tgz:348747.got - 2010.06.03 11:33:40.
