data_PCOD9103426
_publ_section_title
;
Structure prediction by ZEFSAII (Michael W. Deem and Ramdas Pophale) SiO2 
 PCOD9103426
Probable space group: P -1
;
_chemical_formula_sum "Si O2"
_cell_formula_units_Z 16
_cell_length_a 21.500169
_cell_length_b 7.928822
_cell_length_c 15.344773
_cell_angle_alpha 116.566361
_cell_angle_beta 19.695650
_cell_angle_gamma 123.924351
_cell_volume 702.337336
_symmetry_space_group_name_H-M "P -1"
_symmetry_group_IT_number 2
_symmetry_cell_setting 'triclinic'
loop_
_space_group_symop_operation_xyz
x,y,z
-x,-y,-z
loop_
_atom_site_type_symbol
_atom_site_label
_atom_site_fract_x
_atom_site_fract_y
_atom_site_fract_z
Si Si1 0.966950 0.467454 0.430114
Si Si2 0.629932 0.245693 0.131043
Si Si3 0.788195 0.329344 0.342098
Si Si4 0.447149 0.910290 0.145187
Si Si5 0.313758 0.115089 0.925177
Si Si6 0.789471 0.785112 0.739921
Si Si7 0.201845 0.057910 0.686289
Si Si8 0.026610 0.792556 0.099645
O O1 0.797831 0.236367 0.572941
O O2 0.848962 0.605640 0.589725
O O3 0.000000 0.500000 0.500000
O O4 0.178360 0.550229 0.114151
O O5 0.437294 0.232413 0.440495
O O6 0.516466 0.106280 0.164125
O O7 0.704532 0.095247 0.049541
O O8 0.550112 0.270212 0.628433
O O9 0.926906 0.575432 0.236241
O O10 0.790788 0.166429 0.373328
O O11 0.863022 0.264864 0.139222
O O12 0.594017 0.800194 0.955972
O O13 0.500000 0.000000 0.000000
O O14 0.245378 0.233717 0.114248
O O15 0.178289 0.009336 0.995877
O O16 0.000000 0.000000 0.500000
O O17 0.152264 0.161912 0.693109
O O18 0.000000 0.000000 0.000000
#
# Coordination Sequence:
#
# PCOD9103426 Si02
#       8
#     2   2   2   2   2   2   2   2
#     4  12  23  41  63  89 126 171 211 265 317 376
#     4  10  22  41  59  90 128 160 212 260 316 381
#     4   9  20  40  61  92 126 158 205 258 313 380
#     4  11  22  41  64  87 123 169 209 263 321 368
#     4  10  21  38  62  88 123 160 203 258 312 372
#     4  11  22  42  58  89 127 159 214 260 307 382
#     4   9  20  40  64  91 127 162 205 266 315 376
#     4  10  20  38  66  91 120 164 208 252 319 376
#
# _framework density 22.781075000000001
#
# number of rings (size 3 to 8) (size 9 to 14) (size 15 to 20)
#    0.000    1.750    3.750    0.750    0.000    6.000 
#    2.250    2.500    0.000   16.500    0.000    0.000 
#    0.000    0.000    0.000    0.000    0.000    0.000 
#
# Total GULP energy -89219.357033 kJ/mol
# GULP energy per Si atom -5576.209815 kJ/mol
# Density = 2.272922 g / cm^3
# Si number density = 22.781075 Si / 1000 Ang^3
#
#
#
# Elastic Constant Matrix: (Units=GPa)
#
#
# Indices 1 2 3 4 5 6 
#
# 1 40.3803 3.5297 11.6878 -1.1762 3.2793 7.3065
# 2 3.5297 47.4598 38.6516 -14.3062 -0.2764 3.0959
# 3 11.6878 38.6516 159.6116 -22.2014 -6.9404 -1.2420
# 4 -1.1762 -14.3062 -22.2014 41.4030 -4.7234 -8.7277
# 5 3.2793 -0.2764 -6.9404 -4.7234 18.4971 -15.2424
# 6 7.3065 3.0959 -1.2420 -8.7277 -15.2424 13.5184
#
#
#
# Elastic Compliance Matrix: (Units=1/GPa)
#
#
# Indices 1 2 3 4 5 6 
#
# 1 0.015115 -0.001776 0.002808 0.012863 0.032331 0.037254
# 2 -0.001776 0.027640 -0.005222 0.008072 0.004282 0.004190
# 3 0.002808 -0.005222 0.006098 -0.003636 -0.013467 -0.017293
# 4 0.012863 0.008072 -0.003636 0.010323 -0.041261 -0.048993
# 5 0.032331 0.004282 -0.013467 -0.041261 -0.075822 -0.131822
# 6 0.037254 0.004190 -0.017293 -0.048993 -0.131822 -0.128975
#
#
# Mechanical properties :
#
#
# Convention : Reuss Voigt Hill
#
# Bulk Modulus (GPa) = 24.70658 39.46554 32.08606
# Shear Modulus (GPa) = -40.40371 27.58922 -6.40724
#
# Velocity S-wave (km/s) = -4.21594 3.48380 -1.67888
# Velocity P-wave (km/s) = 3.58191 5.79171 3.21822
#
# Compressibility (1/GPa) = 0.04047505
#
# Stress axis : x y z
#
# Youngs Moduli (GPa) = 66.15921 36.17958 163.98433
#
# Poissons Ratio (x) = 0.06424 -0.46049
# Poissons Ratio (y) = 0.11747 0.85627
# Poissons Ratio (z) = -0.18578 0.18892
#
# Static dielectric constant tensor:
#      x y z
#    x 1.884570 -0.009650 0.064110 
#    y -0.009650 1.886560 0.043730 
#    z 0.064110 0.043730 1.977050 
# 
# From -- ./inp_files/540509.got.cif
#   From: 2010.05.17/outbox.cif.g08.bks.cpg/sg2_271_cif.got.tgz:540509.got - 2010.06.03 11:33:40.
