data_PCOD9103698
_publ_section_title
;
Structure prediction by ZEFSAII (Michael W. Deem and Ramdas Pophale) SiO2 
 PCOD9103698
Probable space group: P -1
;
_chemical_formula_sum "Si O2"
_cell_formula_units_Z 10
_cell_length_a 6.778715
_cell_length_b 11.951486
_cell_length_c 7.319977
_cell_angle_alpha 104.516580
_cell_angle_beta 140.005734
_cell_angle_gamma 65.372397
_cell_volume 344.081805
_symmetry_space_group_name_H-M "P -1"
_symmetry_group_IT_number 2
_symmetry_cell_setting 'triclinic'
loop_
_space_group_symop_operation_xyz
x,y,z
-x,-y,-z
loop_
_atom_site_type_symbol
_atom_site_label
_atom_site_fract_x
_atom_site_fract_y
_atom_site_fract_z
Si Si1 0.681932 0.923495 0.372004
Si Si2 0.044113 0.065761 0.836274
Si Si3 0.289397 0.685043 0.791475
Si Si4 0.153183 0.312769 0.090500
Si Si5 0.444082 0.419833 0.667528
O O1 0.817320 0.931153 0.267844
O O2 0.944307 0.798230 0.583267
O O3 0.715142 0.039563 0.553474
O O4 0.302058 0.948331 0.076689
O O5 0.059426 0.189926 0.982438
O O6 0.559708 0.710075 0.863839
O O7 0.241755 0.562623 0.626750
O O8 0.448804 0.647444 0.088426
O O9 0.278758 0.354799 0.382665
O O10 0.795649 0.414168 0.829703
#
# Coordination Sequence:
#
# PCOD9103698 Si02
#       5
#     2   2   2   2   2
#     4  10  20  38  67  97 129 176 218 268 336 390
#     4  10  21  38  66 100 129 169 226 269 326 405
#     4  11  25  46  71  97 138 180 219 278 334 391
#     4  12  24  45  70  98 136 178 219 279 335 389
#     4  11  28  44  67 104 134 174 232 270 326 407
#
# _framework density 29.062856
#
# number of rings (size 3 to 8) (size 9 to 14) (size 15 to 20)
#    0.000    1.200    0.000    7.200    0.000   11.200 
#    0.000    6.000    0.000    0.000    0.000    0.000 
#    0.000    0.000    0.000    0.000    0.000    0.000 
#
# Total GULP energy -56202.818518 kJ/mol
# GULP energy per Si atom -5620.281852 kJ/mol
# Density = 2.899671 g / cm^3
# Si number density = 29.062856 Si / 1000 Ang^3
#
#
#
# Elastic Constant Matrix: (Units=GPa)
#
#
# Indices 1 2 3 4 5 6 
#
# 1 114.6276 23.7320 34.2970 16.9649 -15.8195 8.0014
# 2 23.7320 189.8432 96.7514 12.8453 -2.1340 -0.3069
# 3 34.2970 96.7514 233.8133 35.6169 -2.0049 -3.5968
# 4 16.9649 12.8453 35.6169 65.8642 -5.6831 1.6175
# 5 -15.8195 -2.1340 -2.0049 -5.6831 72.1447 0.4115
# 6 8.0014 -0.3069 -3.5968 1.6175 0.4115 38.5309
#
#
#
# Elastic Compliance Matrix: (Units=1/GPa)
#
#
# Indices 1 2 3 4 5 6 
#
# 1 0.009800 -0.000611 -0.000945 -0.001672 0.001985 -0.002079
# 2 -0.000611 0.006719 -0.002743 0.000334 0.000015 -0.000090
# 3 -0.000945 -0.002743 0.005939 -0.002482 -0.000324 0.000836
# 4 -0.001672 0.000334 -0.002482 0.016984 0.000916 -0.000605
# 5 0.001985 0.000015 -0.000324 0.000916 0.014363 -0.000634
# 6 -0.002079 -0.000090 0.000836 -0.000605 -0.000634 0.026494
#
#
# Mechanical properties :
#
#
# Convention : Reuss Voigt Hill
#
# Bulk Modulus (GPa) = 72.15360 94.20500 83.17930
# Shear Modulus (GPa) = 53.46616 60.87489 57.17052
#
# Velocity S-wave (km/s) = 4.29379 4.58164 4.44005
# Velocity P-wave (km/s) = 7.03298 7.77645 7.41404
#
# Compressibility (1/GPa) = 0.01385932
#
# Stress axis : x y z
#
# Youngs Moduli (GPa) = 102.04492 148.82670 168.39080
#
# Poissons Ratio (x) = 0.09101 0.15909
# Poissons Ratio (y) = 0.06240 0.46186
# Poissons Ratio (z) = 0.09641 0.40820
#
# Static dielectric constant tensor:
#      x y z
#    x 2.357100 0.010590 -0.005180 
#    y 0.010590 2.272900 -0.005920 
#    z -0.005180 -0.005920 2.114750 
# 
# From -- ./inp_files/208858.got.cif
#   From: 2010.05.17/outbox.cif.g08.bks.cpg/sg2_105_cif.got.tgz:208858.got - 2010.06.03 11:33:40.
