data_PCOD9103631
_publ_section_title
;
Structure prediction by ZEFSAII (Michael W. Deem and Ramdas Pophale) SiO2 
 PCOD9103631
Probable space group: P -1
;
_chemical_formula_sum "Si O2"
_cell_formula_units_Z 13
_cell_length_a 12.097207
_cell_length_b 8.843827
_cell_length_c 8.922866
_cell_angle_alpha 46.953506
_cell_angle_beta 68.576618
_cell_angle_gamma 104.694902
_cell_volume 437.268575
_symmetry_space_group_name_H-M "P -1"
_symmetry_group_IT_number 2
_symmetry_cell_setting 'triclinic'
loop_
_space_group_symop_operation_xyz
x,y,z
-x,-y,-z
loop_
_atom_site_type_symbol
_atom_site_label
_atom_site_fract_x
_atom_site_fract_y
_atom_site_fract_z
Si Si1 0.621431 0.380274 0.020707
Si Si2 0.000000 0.000000 0.000000
Si Si3 0.015180 0.461219 0.753347
Si Si4 0.669084 0.012838 0.131317
Si Si5 0.457480 0.548845 0.305028
Si Si6 0.234248 0.841850 0.623635
Si Si7 0.799578 0.698454 0.992473
O O1 0.788080 0.678517 0.828411
O O2 0.610946 0.116946 0.202834
O O3 0.426190 0.189459 0.306783
O O4 0.616811 0.445360 0.808917
O O5 0.944340 0.952513 0.870243
O O6 0.913951 0.660953 0.262950
O O7 0.157029 0.797944 0.525368
O O8 0.892518 0.269847 0.097772
O O9 0.868599 0.341772 0.788545
O O10 0.532251 0.818473 0.196921
O O11 0.689669 0.795957 0.319932
O O12 0.622892 0.604821 0.174524
O O13 0.237114 0.596242 0.771077
#
# Coordination Sequence:
#
# PCOD9103631 Si02
#       7
#     2   1   2   2   2   2   2
#     4  12  23  41  68 102 138 173 230 276 336 402
#     4  10  22  38  66  98 128 180 226 272 338 402
#     4  10  20  38  67  91 129 179 223 266 339 398
#     4  11  22  43  67  99 136 183 220 277 341 400
#     4  11  24  38  67 103 137 175 226 281 332 402
#     4  10  21  38  66  96 129 180 219 273 338 402
#     4  11  20  39  64  95 129 181 219 275 332 393
#
# _framework density 29.730011000000001
#
# number of rings (size 3 to 8) (size 9 to 14) (size 15 to 20)
#    0.000    1.231    4.615    2.308    0.000    0.000 
#    0.000    0.769    6.769    8.308    0.000    0.000 
#    0.000    0.000    0.000    0.000    0.000    0.000 
#
# Total GULP energy -72406.103788 kJ/mol
# GULP energy per Si atom -5569.700291 kJ/mol
# Density = 2.966234 g / cm^3
# Si number density = 29.730011 Si / 1000 Ang^3
#
#
#
# Elastic Constant Matrix: (Units=GPa)
#
#
# Indices 1 2 3 4 5 6 
#
# 1 65.6833 67.1556 34.3077 -16.5351 5.1860 35.6009
# 2 67.1556 317.1060 51.8838 -34.9467 14.2086 52.5564
# 3 34.3077 51.8838 92.4627 1.8537 10.4720 13.5658
# 4 -16.5351 -34.9467 1.8537 42.2400 2.7891 4.5863
# 5 5.1860 14.2086 10.4720 2.7891 39.3865 10.4260
# 6 35.6009 52.5564 13.5658 4.5863 10.4260 80.5250
#
#
#
# Elastic Compliance Matrix: (Units=1/GPa)
#
#
# Indices 1 2 3 4 5 6 
#
# 1 0.031520 -0.001847 -0.009288 0.012441 0.001292 -0.012041
# 2 -0.001847 0.004527 -0.001554 0.003351 -0.000691 -0.001978
# 3 -0.009288 -0.001554 0.015075 -0.005760 -0.002678 0.003256
# 4 0.012441 0.003351 -0.005760 0.032573 -0.001401 -0.008391
# 5 0.001292 -0.000691 -0.002678 -0.001401 0.027100 -0.003098
# 6 -0.012041 -0.001978 0.003256 -0.008391 -0.003098 0.019363
#
#
# Mechanical properties :
#
#
# Convention : Reuss Voigt Hill
#
# Bulk Modulus (GPa) = 38.84356 86.88290 62.86323
# Shear Modulus (GPa) = 30.46613 53.89062 42.17837
#
# Velocity S-wave (km/s) = 3.20466 4.26216 3.77067
# Velocity P-wave (km/s) = 5.17561 7.31497 6.33623
#
# Compressibility (1/GPa) = 0.02574429
#
# Stress axis : x y z
#
# Youngs Moduli (GPa) = 31.72552 220.90444 66.33718
#
# Poissons Ratio (x) = 0.40795 0.61616
# Poissons Ratio (y) = 0.05859 0.10307
# Poissons Ratio (z) = 0.29467 0.34323
#
# Static dielectric constant tensor:
#      x y z
#    x 2.844520 0.078560 -0.149690 
#    y 0.078560 2.345580 0.191510 
#    z -0.149690 0.191510 2.434700 
# 
# From -- ./inp_files/236667.got.cif
#   From: 2010.05.17/outbox.cif.g08.bks.cpg/sg2_119_cif.got.tgz:236667.got - 2010.06.03 11:33:40.
