data_PCOD9103581
_publ_section_title
;
Structure prediction by ZEFSAII (Michael W. Deem and Ramdas Pophale) SiO2 
 PCOD9103581
Probable space group: P -1
;
_chemical_formula_sum "Si O2"
_cell_formula_units_Z 12
_cell_length_a 7.242432
_cell_length_b 11.846963
_cell_length_c 6.886043
_cell_angle_alpha 52.923419
_cell_angle_beta 84.228727
_cell_angle_gamma 87.664903
_cell_volume 468.844258
_symmetry_space_group_name_H-M "P -1"
_symmetry_group_IT_number 2
_symmetry_cell_setting 'triclinic'
loop_
_space_group_symop_operation_xyz
x,y,z
-x,-y,-z
loop_
_atom_site_type_symbol
_atom_site_label
_atom_site_fract_x
_atom_site_fract_y
_atom_site_fract_z
Si Si1 0.232686 0.738335 0.545059
Si Si2 0.280695 0.008191 0.520559
Si Si3 0.401467 0.389737 0.479975
Si Si4 0.838434 0.785873 0.992688
Si Si5 0.275907 0.967256 0.011368
Si Si6 0.955192 0.488334 0.744773
O O1 0.204184 0.869582 0.556732
O O2 0.443502 0.685907 0.584799
O O3 0.992931 0.672035 0.051925
O O4 0.768834 0.846338 0.731545
O O5 0.771177 0.190512 0.743912
O O6 0.500000 0.000000 0.500000
O O7 0.238302 0.996390 0.762420
O O8 0.500000 0.500000 0.500000
O O9 0.298331 0.290626 0.754498
O O10 0.255936 0.464107 0.275962
O O11 0.907345 0.395906 0.289279
O O12 0.854277 0.932339 0.954644
O O13 0.500000 0.000000 0.000000
O O14 0.000000 0.500000 0.500000
#
# Coordination Sequence:
#
# PCOD9103581 Si02
#       6
#     2   2   2   2   2   2
#     4  11  21  40  73 105 134 181 228 280 347 395
#     4  11  20  39  70 104 137 179 235 280 333 417
#     4  11  19  38  73 103 132 187 222 275 352 402
#     4  10  20  38  67 103 139 172 228 285 339 396
#     4  11  20  38  71 103 131 184 230 278 342 406
#     4  10  22  40  69 104 141 177 230 282 341 412
#
# _framework density 25.594854999999999
#
# number of rings (size 3 to 8) (size 9 to 14) (size 15 to 20)
#    0.000    1.333    8.333    0.000    0.000    0.000 
#    0.000   15.833   14.667   46.000    0.000    0.000 
#    0.000    0.000    0.000    0.000    0.000    0.000 
#
# Total GULP energy -67136.979889 kJ/mol
# GULP energy per Si atom -5594.748324 kJ/mol
# Density = 2.553660 g / cm^3
# Si number density = 25.594855 Si / 1000 Ang^3
#
#
#
# Elastic Constant Matrix: (Units=GPa)
#
#
# Indices 1 2 3 4 5 6 
#
# 1 165.4999 84.7509 71.1372 -23.1871 13.5756 -32.8676
# 2 84.7509 136.6852 52.0910 -24.0977 24.1097 -20.0029
# 3 71.1372 52.0910 109.0255 -0.3586 22.7025 -21.2209
# 4 -23.1871 -24.0977 -0.3586 44.3242 7.6972 17.2653
# 5 13.5756 24.1097 22.7025 7.6972 51.6517 -12.4999
# 6 -32.8676 -20.0029 -21.2209 17.2653 -12.4999 51.7025
#
#
#
# Elastic Compliance Matrix: (Units=1/GPa)
#
#
# Indices 1 2 3 4 5 6 
#
# 1 0.011262 -0.004686 -0.004869 0.001716 0.001894 0.003233
# 2 -0.004686 0.012838 -0.002435 0.006346 -0.005215 -0.002391
# 3 -0.004869 -0.002435 0.014594 -0.004363 -0.002679 0.002762
# 4 0.001716 0.006346 -0.004363 0.032931 -0.009176 -0.011460
# 5 0.001894 -0.005215 -0.002679 -0.009176 0.025619 0.007345
# 6 0.003233 -0.002391 0.002762 -0.011460 0.007345 0.027207
#
#
# Mechanical properties :
#
#
# Convention : Reuss Voigt Hill
#
# Bulk Modulus (GPa) = 67.96186 91.90765 79.93475
# Shear Modulus (GPa) = 32.60824 43.08445 37.84635
#
# Velocity S-wave (km/s) = 3.57321 4.10728 3.84952
# Velocity P-wave (km/s) = 6.60563 7.64720 7.14542
#
# Compressibility (1/GPa) = 0.01471414
#
# Stress axis : x y z
#
# Youngs Moduli (GPa) = 88.79723 77.89300 68.52290
#
# Poissons Ratio (x) = 0.36497 0.33362
# Poissons Ratio (y) = 0.41606 0.16687
# Poissons Ratio (z) = 0.43234 0.18969
#
# Static dielectric constant tensor:
#      x y z
#    x 2.136890 -0.024710 0.064850 
#    y -0.024710 1.989990 0.036320 
#    z 0.064850 0.036320 1.973490 
# 
# From -- ./inp_files/191769.got.cif
#   From: 2010.05.17/outbox.cif.g08.bks.cpg/sg2_96_cif.got.tgz:191769.got - 2010.06.03 11:33:40.
