data_PCOD9103657
_publ_section_title
;
Structure prediction by ZEFSAII (Michael W. Deem and Ramdas Pophale) SiO2 
 PCOD9103657
Probable space group: P -1
;
_chemical_formula_sum "Si O2"
_cell_formula_units_Z 16
_cell_length_a 19.720348
_cell_length_b 8.996635
_cell_length_c 9.342465
_cell_angle_alpha 55.722795
_cell_angle_beta 37.642277
_cell_angle_gamma 74.842411
_cell_volume 778.581416
_symmetry_space_group_name_H-M "P -1"
_symmetry_group_IT_number 2
_symmetry_cell_setting 'triclinic'
loop_
_space_group_symop_operation_xyz
x,y,z
-x,-y,-z
loop_
_atom_site_type_symbol
_atom_site_label
_atom_site_fract_x
_atom_site_fract_y
_atom_site_fract_z
Si Si1 0.285252 0.918445 0.791073
Si Si2 0.701790 0.159391 0.850891
Si Si3 0.493650 0.287506 0.164559
Si Si4 0.085860 0.202974 0.311179
Si Si5 0.961804 0.477584 0.239854
Si Si6 0.988367 0.291103 0.698878
Si Si7 0.417502 0.638398 0.704121
Si Si8 0.332358 0.236479 0.945703
O O1 0.331726 0.752500 0.745859
O O2 0.364145 0.119540 0.476683
O O3 0.306632 0.923033 0.925977
O O4 0.146423 0.851692 0.025954
O O5 0.822686 0.343726 0.550648
O O6 0.589513 0.215951 0.964928
O O7 0.707875 0.989583 0.829827
O O8 0.539771 0.302167 0.240898
O O9 0.500000 0.500000 0.000000
O O10 0.039326 0.361625 0.239794
O O11 0.069834 0.212751 0.504940
O O12 0.223773 0.245316 0.024599
O O13 0.000000 0.000000 0.500000
O O14 0.982246 0.662238 0.208370
O O15 0.000000 0.500000 0.000000
O O16 0.000000 0.500000 0.500000
O O17 0.352731 0.408103 0.930564
O O18 0.537236 0.707172 0.372874
#
# Coordination Sequence:
#
# PCOD9103657 Si02
#       8
#     2   2   2   2   2   2   2   2
#     4  11  18  41  69  88 120 166 220 263 308 378
#     4  11  20  42  66  83 127 167 214 264 314 388
#     4  11  24  40  60  93 124 167 207 265 329 378
#     4  11  21  37  65  92 124 164 219 259 306 386
#     4  11  24  42  61  95 130 169 209 270 332 372
#     4  10  20  38  67  94 120 169 220 261 309 391
#     4  10  21  35  64  90 118 157 213 259 308 375
#     4  11  20  36  63  95 116 158 217 262 299 370
#
# _framework density 20.550197000000001
#
# number of rings (size 3 to 8) (size 9 to 14) (size 15 to 20)
#    0.000    1.250    6.250    2.250    1.750    1.000 
#    2.250    1.250    0.000    0.000    0.000    0.000 
#    0.000    0.000    0.000    0.000    0.000    0.000 
#
# Total GULP energy -89227.360512 kJ/mol
# GULP energy per Si atom -5576.710032 kJ/mol
# Density = 2.050342 g / cm^3
# Si number density = 20.550197 Si / 1000 Ang^3
#
#
#
# Elastic Constant Matrix: (Units=GPa)
#
#
# Indices 1 2 3 4 5 6 
#
# 1 26.4307 10.8020 26.3853 -1.2884 -3.8176 8.7951
# 2 10.8020 108.0545 22.3271 -7.8200 -0.3028 14.3958
# 3 26.3853 22.3271 93.3854 -4.2739 -18.9670 -8.6264
# 4 -1.2884 -7.8200 -4.2739 30.3977 7.2778 -4.4826
# 5 -3.8176 -0.3028 -18.9670 7.2778 32.4839 3.7256
# 6 8.7951 14.3958 -8.6264 -4.4826 3.7256 30.7355
#
#
#
# Elastic Compliance Matrix: (Units=1/GPa)
#
#
# Indices 1 2 3 4 5 6 
#
# 1 0.068365 0.001107 -0.022461 -0.003640 -0.001184 -0.026773
# 2 0.001107 0.010832 -0.003707 0.001830 -0.001659 -0.005962
# 3 -0.022461 -0.003707 0.020775 0.001125 0.007687 0.013227
# 4 -0.003640 0.001830 0.001125 0.036472 -0.008713 0.006876
# 5 -0.001184 -0.001659 0.007687 -0.008713 0.037360 -0.002526
# 6 -0.026773 -0.005962 0.013227 0.006876 -0.002526 0.048011
#
#
# Mechanical properties :
#
#
# Convention : Reuss Voigt Hill
#
# Bulk Modulus (GPa) = 20.05960 38.54437 29.30198
# Shear Modulus (GPa) = 17.32777 29.94717 23.63747
#
# Velocity S-wave (km/s) = 2.90693 3.82156 3.39518
# Velocity P-wave (km/s) = 4.58797 6.18622 5.44604
#
# Compressibility (1/GPa) = 0.04985145
#
# Stress axis : x y z
#
# Youngs Moduli (GPa) = 14.62728 92.31912 48.13418
#
# Poissons Ratio (x) = -0.10218 1.08114
# Poissons Ratio (y) = -0.01619 0.17841
# Poissons Ratio (z) = 0.32854 0.34218
#
# Static dielectric constant tensor:
#      x y z
#    x 1.738900 0.021040 -0.000160 
#    y 0.021040 1.794950 0.017700 
#    z -0.000160 0.017700 1.759560 
# 
# From -- ./inp_files/202024.got.cif
#   From: 2010.05.17/outbox.cif.g08.bks.cpg/sg2_102_cif.got.tgz:202024.got - 2010.06.03 11:33:40.
