data_PCOD9103702
_publ_section_title
;
Structure prediction by ZEFSAII (Michael W. Deem and Ramdas Pophale) SiO2 
 PCOD9103702
Probable space group: P -1
;
_chemical_formula_sum "Si O2"
_cell_formula_units_Z 16
_cell_length_a 5.016855
_cell_length_b 9.528022
_cell_length_c 26.813287
_cell_angle_alpha 47.967708
_cell_angle_beta 63.588320
_cell_angle_gamma 88.672974
_cell_volume 776.561914
_symmetry_space_group_name_H-M "P -1"
_symmetry_group_IT_number 2
_symmetry_cell_setting 'triclinic'
loop_
_space_group_symop_operation_xyz
x,y,z
-x,-y,-z
loop_
_atom_site_type_symbol
_atom_site_label
_atom_site_fract_x
_atom_site_fract_y
_atom_site_fract_z
Si Si1 0.729665 0.353937 0.709701
Si Si2 0.381620 0.426319 0.809252
Si Si3 0.334114 0.858953 0.094268
Si Si4 0.323023 0.119330 0.308590
Si Si5 0.259897 0.508446 0.434051
Si Si6 0.196363 0.056036 0.521904
Si Si7 0.163287 0.056050 0.692841
Si Si8 0.973449 0.914164 0.198538
O O1 0.598198 0.479436 0.727916
O O2 0.839831 0.450670 0.623335
O O3 0.974627 0.286791 0.736416
O O4 0.390240 0.151777 0.776317
O O5 0.445430 0.245783 0.874737
O O6 0.508331 0.640254 0.777307
O O7 0.004272 0.330399 0.848503
O O8 0.229002 0.984159 0.115585
O O9 0.500000 0.000000 0.000000
O O10 0.606939 0.053333 0.318964
O O11 0.048451 0.075653 0.383390
O O12 0.128178 0.977400 0.312447
O O13 0.298762 0.293554 0.475165
O O14 0.587271 0.705501 0.376037
O O15 0.000000 0.500000 0.500000
O O16 0.500000 0.000000 0.500000
O O17 0.000000 0.000000 0.500000
O O18 0.008260 0.962693 0.781669
#
# Coordination Sequence:
#
# PCOD9103702 Si02
#       8
#     2   2   2   2   2   2   2   2
#     4   9  19  36  57  85 114 159 203 250 311 360
#     4  10  21  38  62  88 128 162 197 250 319 376
#     4  10  20  38  67  98 119 150 199 256 314 375
#     4  12  24  41  60  86 125 169 213 250 314 390
#     4  11  23  42  65  89 124 166 222 276 315 363
#     4  12  28  44  61  90 127 167 217 281 332 364
#     4  11  23  39  61  88 118 166 220 255 303 375
#     4   9  19  35  59  87 119 148 196 254 297 367
#
# _framework density 20.603639000000001
#
# number of rings (size 3 to 8) (size 9 to 14) (size 15 to 20)
#    0.000    1.500    1.250    4.125    0.000    8.500 
#    0.000    0.000    0.000    4.500    0.000    0.000 
#    0.000    0.000    0.000    0.000    0.000    0.000 
#
# Total GULP energy -89333.008059 kJ/mol
# GULP energy per Si atom -5583.313004 kJ/mol
# Density = 2.055674 g / cm^3
# Si number density = 20.603639 Si / 1000 Ang^3
#
#
#
# Elastic Constant Matrix: (Units=GPa)
#
#
# Indices 1 2 3 4 5 6 
#
# 1 79.5787 14.9733 2.4498 1.0982 2.1240 -1.4864
# 2 14.9733 85.7057 38.1018 7.0573 -5.1272 -4.3584
# 3 2.4498 38.1018 90.4338 29.4613 1.4459 -3.0867
# 4 1.0982 7.0573 29.4613 29.7866 -2.9221 -1.6950
# 5 2.1240 -5.1272 1.4459 -2.9221 18.5212 9.4193
# 6 -1.4864 -4.3584 -3.0867 -1.6950 9.4193 39.1773
#
#
#
# Elastic Compliance Matrix: (Units=1/GPa)
#
#
# Indices 1 2 3 4 5 6 
#
# 1 0.013205 -0.002977 0.001466 -0.001488 -0.003190 0.000988
# 2 -0.002977 0.015875 -0.008454 0.005320 0.006399 -0.000321
# 3 0.001466 -0.008454 0.021202 -0.019722 -0.008250 0.001916
# 4 -0.001488 0.005320 -0.019722 0.052994 0.012414 -0.001710
# 5 -0.003190 0.006399 -0.008250 0.012414 0.066637 -0.015543
# 6 0.000988 -0.000321 0.001916 -0.001710 -0.015543 0.029341
#
#
# Mechanical properties :
#
#
# Convention : Reuss Voigt Hill
#
# Bulk Modulus (GPa) = 32.94607 40.75200 36.84903
# Shear Modulus (GPa) = 21.80541 30.84323 26.32432
#
# Velocity S-wave (km/s) = 3.25672 3.87328 3.57831
# Velocity P-wave (km/s) = 5.49243 6.31071 5.91573
#
# Compressibility (1/GPa) = 0.03035264
#
# Stress axis : x y z
#
# Youngs Moduli (GPa) = 75.72713 62.99330 47.16479
#
# Poissons Ratio (x) = 0.18752 -0.06915
# Poissons Ratio (y) = 0.22543 0.39873
# Poissons Ratio (z) = -0.11102 0.53255
#
# Static dielectric constant tensor:
#      x y z
#    x 1.729000 -0.007880 0.007850 
#    y -0.007880 1.789920 0.033390 
#    z 0.007850 0.033390 1.732010 
# 
# From -- ./inp_files/603973.got.cif
#   From: 2010.05.17/outbox.cif.g08.bks.cpg/sg2_302_cif.got.tgz:603973.got - 2010.06.03 11:33:40.
