data_PCOD9103861
_publ_section_title
;
Structure prediction by ZEFSAII (Michael W. Deem and Ramdas Pophale) SiO2 
 PCOD9103861
Probable space group: P -1
;
_chemical_formula_sum "Si O2"
_cell_formula_units_Z 15
_cell_length_a 9.882851
_cell_length_b 13.294214
_cell_length_c 9.588643
_cell_angle_alpha 104.762262
_cell_angle_beta 45.908325
_cell_angle_gamma 67.720016
_cell_volume 523.601837
_symmetry_space_group_name_H-M "P -1"
_symmetry_group_IT_number 2
_symmetry_cell_setting 'triclinic'
loop_
_space_group_symop_operation_xyz
x,y,z
-x,-y,-z
loop_
_atom_site_type_symbol
_atom_site_label
_atom_site_fract_x
_atom_site_fract_y
_atom_site_fract_z
Si Si1 0.500000 0.500000 0.500000
Si Si2 0.636534 0.987400 0.757039
Si Si3 0.554837 0.814229 0.610848
Si Si4 0.003311 0.365584 0.306641
Si Si5 0.715135 0.533035 0.845496
Si Si6 0.190869 0.555688 0.947361
Si Si7 0.168799 0.085909 0.765019
Si Si8 0.213392 0.875671 0.148692
O O1 0.725666 0.451402 0.442287
O O2 0.461036 0.405493 0.593795
O O3 0.726712 0.846429 0.553560
O O4 0.828099 0.000870 0.687262
O O5 0.327864 0.168115 0.965009
O O6 0.500000 0.000000 0.000000
O O7 0.431889 0.809516 0.834456
O O8 0.849865 0.652777 0.241956
O O9 0.240355 0.983336 0.810934
O O10 0.914980 0.381592 0.535857
O O11 0.083464 0.451524 0.266897
O O12 0.412698 0.706679 0.039063
O O13 0.333906 0.495033 0.978648
O O14 0.114129 0.701083 0.964811
O O15 0.500000 0.000000 0.500000
O O16 0.085012 0.049230 0.680953
#
# Coordination Sequence:
#
# PCOD9103861 Si02
#       8
#     1   2   2   2   2   2   2   2
#     4  12  26  40  62  94 134 174 220 274 338 390
#     4   9  18  35  63  96 129 165 216 274 322 387
#     4  10  20  40  68  95 134 175 221 275 330 396
#     4  10  21  40  65  99 131 170 218 272 333 397
#     4  10  21  41  68  95 133 174 223 272 327 403
#     4  11  24  42  65  97 133 177 223 276 333 393
#     4  10  22  39  61  95 137 174 215 264 330 407
#     4  10  20  38  69 101 130 175 221 273 336 393
#
# _framework density 28.647722000000002
#
# number of rings (size 3 to 8) (size 9 to 14) (size 15 to 20)
#    0.000    1.867    0.000    5.200    0.000    2.667 
#    0.000    8.000    0.000   14.400    0.000    0.000 
#    0.000    0.000    0.000    0.000    0.000    0.000 
#
# Total GULP energy -83765.179858 kJ/mol
# GULP energy per Si atom -5584.345324 kJ/mol
# Density = 2.858252 g / cm^3
# Si number density = 28.647722 Si / 1000 Ang^3
#
#
#
# Elastic Constant Matrix: (Units=GPa)
#
#
# Indices 1 2 3 4 5 6 
#
# 1 209.9450 72.1584 58.4182 -13.9198 -36.8868 -19.0395
# 2 72.1584 129.8037 63.3117 -21.4478 -8.6804 -45.3493
# 3 58.4182 63.3117 154.4620 -14.9616 -27.2973 -9.9534
# 4 -13.9198 -21.4478 -14.9616 53.6513 -4.9325 -6.8355
# 5 -36.8868 -8.6804 -27.2973 -4.9325 61.9237 -15.5874
# 6 -19.0395 -45.3493 -9.9534 -6.8355 -15.5874 76.3434
#
#
#
# Elastic Compliance Matrix: (Units=1/GPa)
#
#
# Indices 1 2 3 4 5 6 
#
# 1 0.006626 -0.002736 -0.000625 0.000872 0.003546 0.000748
# 2 -0.002736 0.015066 -0.003816 0.005464 0.001385 0.008542
# 3 -0.000625 -0.003816 0.008848 0.000974 0.002923 -0.000585
# 4 0.000872 0.005464 0.000974 0.022650 0.005201 0.006680
# 5 0.003546 0.001385 0.002923 0.005201 0.021928 0.007031
# 6 0.000748 0.008542 -0.000585 0.006680 0.007031 0.020316
#
#
# Mechanical properties :
#
#
# Convention : Reuss Voigt Hill
#
# Bulk Modulus (GPa) = 61.78452 97.99860 79.89156
# Shear Modulus (GPa) = 43.40869 58.40517 50.90693
#
# Velocity S-wave (km/s) = 3.89685 4.52014 4.22002
# Velocity P-wave (km/s) = 6.47002 7.84376 7.18977
#
# Compressibility (1/GPa) = 0.01618528
#
# Stress axis : x y z
#
# Youngs Moduli (GPa) = 150.91803 66.37531 113.02075
#
# Poissons Ratio (x) = 0.18160 0.07067
# Poissons Ratio (y) = 0.41292 0.43128
# Poissons Ratio (z) = 0.09437 0.25329
#
# Static dielectric constant tensor:
#      x y z
#    x 2.279910 0.042070 0.449130 
#    y 0.042070 2.386960 -0.041370 
#    z 0.449130 -0.041370 3.680030 
# 
# From -- ./inp_files/402111.got.cif
#   From: 2010.05.17/outbox.cif.g08.bks.cpg/sg2_202_cif.got.tgz:402111.got - 2010.06.03 11:33:40.
