data_PCOD9103055
_publ_section_title
;
Structure prediction by ZEFSAII (Michael W. Deem and Ramdas Pophale) SiO2 
 PCOD9103055
Probable space group: P -1
;
_chemical_formula_sum "Si O2"
_cell_formula_units_Z 14
_cell_length_a 7.954658
_cell_length_b 11.683886
_cell_length_c 13.737941
_cell_angle_alpha 32.099875
_cell_angle_beta 108.078318
_cell_angle_gamma 95.351997
_cell_volume 607.565044
_symmetry_space_group_name_H-M "P -1"
_symmetry_group_IT_number 2
_symmetry_cell_setting 'triclinic'
loop_
_space_group_symop_operation_xyz
x,y,z
-x,-y,-z
loop_
_atom_site_type_symbol
_atom_site_label
_atom_site_fract_x
_atom_site_fract_y
_atom_site_fract_z
Si Si1 0.917079 0.389287 0.152707
Si Si2 0.394924 0.797232 0.560958
Si Si3 0.893907 0.369415 0.466619
Si Si4 0.192814 0.921002 0.775334
Si Si5 0.786982 0.477419 0.781890
Si Si6 0.922840 0.263786 0.764965
Si Si7 0.548354 0.798346 0.799951
O O1 0.917618 0.147048 0.285878
O O2 0.046216 0.418760 0.242566
O O3 0.700493 0.547092 0.013776
O O4 0.000000 0.500000 0.000000
O O5 0.258598 0.657759 0.615316
O O6 0.597958 0.663896 0.649408
O O7 0.426013 0.829087 0.657005
O O8 0.330785 0.035460 0.319051
O O9 0.842395 0.306795 0.610800
O O10 0.916434 0.616423 0.293596
O O11 0.089388 0.172068 0.616500
O O12 0.404312 0.870447 0.811171
O O13 0.188223 0.743083 0.987154
O O14 0.784948 0.400444 0.726497
O O15 0.000000 0.000000 0.000000
#
# Coordination Sequence:
#
# PCOD9103055 Si02
#       7
#     2   2   2   2   2   2   2
#     4  10  20  38  64  97 136 181 217 271 338 410
#     4  11  24  41  61 103 138 182 221 280 338 411
#     4  11  26  46  73  99 136 177 237 282 340 403
#     4  11  22  40  64 102 137 180 225 274 339 416
#     4  11  23  41  69  97 141 180 229 281 341 400
#     4  11  25  49  74  96 127 186 235 291 339 393
#     4  11  23  37  63 100 150 177 218 271 342 417
#
# _framework density 23.042798000000001
#
# number of rings (size 3 to 8) (size 9 to 14) (size 15 to 20)
#    0.000    1.143    4.286    3.000    4.000    1.143 
#    0.000    0.714    0.000    0.000    0.000    0.000 
#    0.000    0.000    0.000    0.000    0.000    0.000 
#
# Total GULP energy -78360.793592 kJ/mol
# GULP energy per Si atom -5597.199542 kJ/mol
# Density = 2.299035 g / cm^3
# Si number density = 23.042798 Si / 1000 Ang^3
#
#
#
# Elastic Constant Matrix: (Units=GPa)
#
#
# Indices 1 2 3 4 5 6 
#
# 1 94.9417 28.0729 16.6486 5.5970 -5.4401 -14.6746
# 2 28.0729 91.6881 30.9411 -5.8886 -0.4301 -21.1723
# 3 16.6486 30.9411 101.1767 -12.1880 -27.0575 -6.0075
# 4 5.5970 -5.8886 -12.1880 32.7005 -1.9312 -10.6244
# 5 -5.4401 -0.4301 -27.0575 -1.9312 34.7497 -3.7693
# 6 -14.6746 -21.1723 -6.0075 -10.6244 -3.7693 47.9135
#
#
#
# Elastic Compliance Matrix: (Units=1/GPa)
#
#
# Indices 1 2 3 4 5 6 
#
# 1 0.012098 -0.003138 -0.000868 -0.002302 0.001246 0.001797
# 2 -0.003138 0.014686 -0.003923 0.003382 -0.002571 0.005584
# 3 -0.000868 -0.003923 0.015546 0.006771 0.012561 0.002439
# 4 -0.002302 0.003382 0.006771 0.038079 0.008233 0.010730
# 5 0.001246 -0.002571 0.012561 0.008233 0.039805 0.005778
# 6 0.001797 0.005584 0.002439 0.010730 0.005778 0.027029
#
#
# Mechanical properties :
#
#
# Convention : Reuss Voigt Hill
#
# Bulk Modulus (GPa) = 37.77820 48.79242 43.28531
# Shear Modulus (GPa) = 29.08230 37.21566 33.14898
#
# Velocity S-wave (km/s) = 3.55646 4.02315 3.79698
# Velocity P-wave (km/s) = 5.77017 6.54230 6.16833
#
# Compressibility (1/GPa) = 0.02647029
#
# Stress axis : x y z
#
# Youngs Moduli (GPa) = 82.65952 68.09245 64.32528
#
# Poissons Ratio (x) = 0.21367 0.05586
# Poissons Ratio (y) = 0.25939 0.25237
# Poissons Ratio (z) = 0.07178 0.26715
#
# Static dielectric constant tensor:
#      x y z
#    x 1.869770 0.018370 -0.053750 
#    y 0.018370 1.875140 0.001310 
#    z -0.053750 0.001310 1.898790 
# 
# From -- ./inp_files/357240.got.cif
#   From: 2010.05.17/outbox.cif.g08.bks.cpg/sg2_179_cif.got.tgz:357240.got - 2010.06.03 11:33:40.
