data_PCOD9103366
_publ_section_title
;
Structure prediction by ZEFSAII (Michael W. Deem and Ramdas Pophale) SiO2 
 PCOD9103366
Probable space group: P -1
;
_chemical_formula_sum "Si O2"
_cell_formula_units_Z 14
_cell_length_a 9.006671
_cell_length_b 12.389768
_cell_length_c 9.656711
_cell_angle_alpha 68.408729
_cell_angle_beta 120.265742
_cell_angle_gamma 64.437632
_cell_volume 554.013885
_symmetry_space_group_name_H-M "P -1"
_symmetry_group_IT_number 2
_symmetry_cell_setting 'triclinic'
loop_
_space_group_symop_operation_xyz
x,y,z
-x,-y,-z
loop_
_atom_site_type_symbol
_atom_site_label
_atom_site_fract_x
_atom_site_fract_y
_atom_site_fract_z
Si Si1 0.098139 0.622013 0.693703
Si Si2 0.669110 0.693320 0.848547
Si Si3 0.736098 0.563706 0.395096
Si Si4 0.790265 0.462492 0.785504
Si Si5 0.017150 0.110228 0.038955
Si Si6 0.908522 0.943411 0.580353
Si Si7 0.503753 0.088087 0.834098
O O1 0.248330 0.550255 0.650886
O O2 0.779341 0.771200 0.446220
O O3 0.230371 0.446881 0.919521
O O4 0.099417 0.737463 0.727925
O O5 0.610944 0.638526 0.715727
O O6 0.409876 0.899979 0.672406
O O7 0.916117 0.653313 0.959419
O O8 0.764452 0.515077 0.590155
O O9 0.496696 0.780305 0.166069
O O10 0.000000 0.500000 0.500000
O O11 0.778367 0.329252 0.835066
O O12 0.080929 0.046816 0.255907
O O13 0.251280 0.053707 0.088248
O O14 0.000000 0.000000 0.000000
O O15 0.000000 0.000000 0.500000
O O16 0.500000 0.000000 0.000000
#
# Coordination Sequence:
#
# PCOD9103366 Si02
#       7
#     2   2   2   2   2   2   2
#     4  11  24  45  74 109 142 185 248 307 367 432
#     4  11  24  46  79 105 142 184 247 321 363 428
#     4  10  20  38  66 110 138 177 235 296 362 426
#     4  11  22  45  74 106 143 184 250 310 369 423
#     4  12  28  48  70 106 154 198 244 300 375 448
#     4  12  30  48  69 108 152 200 244 296 380 448
#     4  11  24  43  79 113 141 191 252 307 361 436
#
# _framework density 25.270123999999999
#
# number of rings (size 3 to 8) (size 9 to 14) (size 15 to 20)
#    0.000    0.857    4.286    3.429    8.000    1.714 
#    2.571    1.429    0.000    0.000    0.000    0.000 
#    0.000    0.000    0.000    0.000    0.000    0.000 
#
# Total GULP energy -78351.961893 kJ/mol
# GULP energy per Si atom -5596.568707 kJ/mol
# Density = 2.521261 g / cm^3
# Si number density = 25.270124 Si / 1000 Ang^3
#
#
#
# Elastic Constant Matrix: (Units=GPa)
#
#
# Indices 1 2 3 4 5 6 
#
# 1 71.8336 27.2623 30.3208 9.2619 -15.9703 -10.8830
# 2 27.2623 206.9739 45.1565 1.2346 -14.3132 -2.4936
# 3 30.3208 45.1565 103.1929 7.3698 -32.5554 -5.9296
# 4 9.2619 1.2346 7.3698 46.0938 -10.4344 -8.8610
# 5 -15.9703 -14.3132 -32.5554 -10.4344 38.3034 -4.0600
# 6 -10.8830 -2.4936 -5.9296 -8.8610 -4.0600 50.0322
#
#
#
# Elastic Compliance Matrix: (Units=1/GPa)
#
#
# Indices 1 2 3 4 5 6 
#
# 1 0.017273 -0.001306 -0.002856 -0.001343 0.004288 0.003464
# 2 -0.001306 0.005443 -0.002108 0.000361 -0.000227 -0.000217
# 3 -0.002856 -0.002108 0.015094 0.001226 0.011418 0.002206
# 4 -0.001343 0.000361 0.001226 0.024452 0.007790 0.004834
# 5 0.004288 -0.000227 0.011418 0.007790 0.040371 0.006930
# 6 0.003464 -0.000217 0.002206 0.004834 0.006930 0.022410
#
#
# Mechanical properties :
#
#
# Convention : Reuss Voigt Hill
#
# Bulk Modulus (GPa) = 39.57292 65.27552 52.42422
# Shear Modulus (GPa) = 34.24507 45.50327 39.87417
#
# Velocity S-wave (km/s) = 3.68524 4.24804 3.97661
# Velocity P-wave (km/s) = 5.81395 7.06741 6.47110
#
# Compressibility (1/GPa) = 0.02526980
#
# Stress axis : x y z
#
# Youngs Moduli (GPa) = 57.89221 183.72341 66.25335
#
# Poissons Ratio (x) = 0.23990 0.18924
# Poissons Ratio (y) = 0.07560 0.13966
# Poissons Ratio (z) = 0.16536 0.38728
#
# Static dielectric constant tensor:
#      x y z
#    x 2.110630 0.088640 0.096750 
#    y 0.088640 2.061140 0.022190 
#    z 0.096750 0.022190 1.959110 
# 
# From -- ./inp_files/186011.got.cif
#   From: 2010.05.17/outbox.cif.g08.bks.cpg/sg2_94_cif.got.tgz:186011.got - 2010.06.03 11:33:40.
