data_PCOD9103773
_publ_section_title
;
Structure prediction by ZEFSAII (Michael W. Deem and Ramdas Pophale) SiO2 
 PCOD9103773
Probable space group: P -1
;
_chemical_formula_sum "Si O2"
_cell_formula_units_Z 16
_cell_length_a 11.720947
_cell_length_b 17.927687
_cell_length_c 11.024285
_cell_angle_alpha 33.417287
_cell_angle_beta 52.531243
_cell_angle_gamma 39.506603
_cell_volume 807.396271
_symmetry_space_group_name_H-M "P -1"
_symmetry_group_IT_number 2
_symmetry_cell_setting 'triclinic'
loop_
_space_group_symop_operation_xyz
x,y,z
-x,-y,-z
loop_
_atom_site_type_symbol
_atom_site_label
_atom_site_fract_x
_atom_site_fract_y
_atom_site_fract_z
Si Si1 0.824848 0.721968 0.670321
Si Si2 0.075372 0.960652 0.139870
Si Si3 0.461637 0.328073 0.003014
Si Si4 0.678813 0.972394 0.657342
Si Si5 0.675417 0.973805 0.205353
Si Si6 0.188663 0.627268 0.633060
Si Si7 0.269137 0.774565 0.835929
Si Si8 0.958948 0.184775 0.269964
O O1 0.711643 0.648435 0.856417
O O2 0.741465 0.863779 0.638856
O O3 0.038734 0.603274 0.719001
O O4 0.785029 0.813854 0.442369
O O5 0.176908 0.763230 0.369469
O O6 0.204019 0.017562 0.982236
O O7 0.906170 0.070970 0.188334
O O8 0.000000 0.000000 0.000000
O O9 0.591030 0.137560 0.125511
O O10 0.577600 0.345704 0.001788
O O11 0.381751 0.454293 0.769576
O O12 0.491809 0.012294 0.760301
O O13 0.842125 0.863419 0.794429
O O14 0.656868 0.142088 0.405000
O O15 0.126833 0.719622 0.678517
O O16 0.182689 0.713787 0.884228
O O17 0.000000 0.000000 0.500000
#
# Coordination Sequence:
#
# PCOD9103773 Si02
#       8
#     2   2   2   2   2   2   2   2
#     4  10  16  33  52  76 106 139 172 211 258 314
#     4  12  20  34  52  78 108 144 173 204 263 324
#     4  11  20  30  53  84 108 133 171 223 269 297
#     4   9  15  31  55  75  93 134 183 216 238 293
#     4  11  19  32  54  77 110 139 173 208 257 322
#     4  11  21  33  51  83 110 133 172 223 262 305
#     4  11  18  35  57  75 101 141 179 215 255 304
#     4   9  18  34  57  73 101 137 183 222 246 301
#
# _framework density 19.816787999999999
#
# number of rings (size 3 to 8) (size 9 to 14) (size 15 to 20)
#    0.000    1.500    8.750    1.125    0.000    1.000 
#    0.000    0.625    0.000    0.000    0.000    1.750 
#    0.000    0.000    0.000    0.000    0.000    0.000 
#
# Total GULP energy -89246.441317 kJ/mol
# GULP energy per Si atom -5577.902582 kJ/mol
# Density = 1.977168 g / cm^3
# Si number density = 19.816788 Si / 1000 Ang^3
#
#
#
# Elastic Constant Matrix: (Units=GPa)
#
#
# Indices 1 2 3 4 5 6 
#
# 1 139.2141 20.4114 32.8099 1.8700 13.4952 -36.7974
# 2 20.4114 26.6097 13.0626 4.4526 -3.0487 -16.0860
# 3 32.8099 13.0626 88.3395 3.5315 11.6144 -22.4213
# 4 1.8700 4.4526 3.5315 17.4631 -15.3040 -4.1188
# 5 13.4952 -3.0487 11.6144 -15.3040 30.6890 0.7003
# 6 -36.7974 -16.0860 -22.4213 -4.1188 0.7003 33.2022
#
#
#
# Elastic Compliance Matrix: (Units=1/GPa)
#
#
# Indices 1 2 3 4 5 6 
#
# 1 0.011220 -0.002052 0.000222 -0.005149 -0.008044 0.011122
# 2 -0.002052 0.054873 -0.002156 -0.003991 0.004672 0.022261
# 3 0.000222 -0.002156 0.015811 -0.011192 -0.012077 0.008745
# 4 -0.005149 -0.003991 -0.011192 0.117251 0.064620 -0.002016
# 5 -0.008044 0.004672 -0.012077 0.064620 0.073572 -0.008342
# 6 0.011122 0.022261 0.008745 -0.002016 -0.008342 0.059062
#
#
# Mechanical properties :
#
#
# Convention : Reuss Voigt Hill
#
# Bulk Modulus (GPa) = 13.52595 42.97012 28.24803
# Shear Modulus (GPa) = 13.72094 28.79614 21.25854
#
# Velocity S-wave (km/s) = 2.63418 3.81611 3.27885
# Velocity P-wave (km/s) = 4.01151 6.41465 5.34976
#
# Compressibility (1/GPa) = 0.07393196
#
# Stress axis : x y z
#
# Youngs Moduli (GPa) = 89.12321 18.22378 63.24694
#
# Poissons Ratio (x) = 0.03740 -0.01407
# Poissons Ratio (y) = 0.18292 0.13639
# Poissons Ratio (z) = -0.01982 0.03930
#
# Static dielectric constant tensor:
#      x y z
#    x 1.760380 -0.032620 0.003150 
#    y -0.032620 1.709820 -0.020360 
#    z 0.003150 -0.020360 1.722830 
# 
# From -- ./inp_files/257038.got.cif
#   From: 2010.05.17/outbox.cif.g08.bks.cpg/sg2_129_cif.got.tgz:257038.got - 2010.06.03 11:33:40.
