data_PCOD9103286
_publ_section_title
;
Structure prediction by ZEFSAII (Michael W. Deem and Ramdas Pophale) SiO2 
 PCOD9103286
Probable space group: P -1
;
_chemical_formula_sum "Si O2"
_cell_formula_units_Z 14
_cell_length_a 11.726118
_cell_length_b 5.340797
_cell_length_c 17.190406
_cell_angle_alpha 100.721242
_cell_angle_beta 148.429929
_cell_angle_gamma 81.901094
_cell_volume 553.470209
_symmetry_space_group_name_H-M "P -1"
_symmetry_group_IT_number 2
_symmetry_cell_setting 'triclinic'
loop_
_space_group_symop_operation_xyz
x,y,z
-x,-y,-z
loop_
_atom_site_type_symbol
_atom_site_label
_atom_site_fract_x
_atom_site_fract_y
_atom_site_fract_z
Si Si1 0.427571 0.377054 0.630129
Si Si2 0.711032 0.677293 0.612937
Si Si3 0.804365 0.427360 0.120123
Si Si4 0.853184 0.250179 0.424578
Si Si5 0.446118 0.774220 0.896888
Si Si6 0.823622 0.710082 0.841839
Si Si7 0.294891 0.838194 0.095784
O O1 0.321494 0.217184 0.487465
O O2 0.285235 0.627763 0.577819
O O3 0.664946 0.466930 0.742928
O O4 0.485448 0.246672 0.738481
O O5 0.500000 0.500000 0.500000
O O6 0.757142 0.840041 0.727507
O O7 0.938105 0.532426 0.730406
O O8 0.717724 0.409330 0.156598
O O9 0.669855 0.634327 0.008772
O O10 0.723250 0.179780 0.008424
O O11 0.677487 0.180194 0.251568
O O12 0.000000 0.500000 0.500000
O O13 0.000000 0.000000 0.500000
O O14 0.500000 0.000000 0.000000
O O15 0.764195 0.892989 0.887718
O O16 0.078940 0.666560 0.984188
#
# Coordination Sequence:
#
# PCOD9103286 Si02
#       7
#     2   2   2   2   2   2   2
#     4  11  22  38  67  91 135 178 227 291 358 424
#     4   9  20  41  62  94 133 182 231 298 360 436
#     4  10  22  43  67  94 144 177 244 290 370 427
#     4  12  30  49  75 109 150 194 247 306 371 437
#     4  11  26  43  71 103 140 194 243 306 361 446
#     4   9  21  38  62  92 129 173 229 293 349 432
#     4  10  20  38  65  95 129 174 231 287 359 423
#
# _framework density 25.29495
#
# number of rings (size 3 to 8) (size 9 to 14) (size 15 to 20)
#    0.000    1.714    1.429    1.286   10.000    0.571 
#    0.000    0.000    0.000    0.000    0.000    0.000 
#    0.000    0.000    0.000    0.000    0.000    0.000 
#
# Total GULP energy -78153.948516 kJ/mol
# GULP energy per Si atom -5582.424894 kJ/mol
# Density = 2.523738 g / cm^3
# Si number density = 25.294950 Si / 1000 Ang^3
#
#
#
# Elastic Constant Matrix: (Units=GPa)
#
#
# Indices 1 2 3 4 5 6 
#
# 1 94.7035 18.2069 48.6612 -13.8560 -13.8404 -9.5567
# 2 18.2069 74.0380 34.8947 -12.7771 7.9040 -11.4749
# 3 48.6612 34.8947 173.2966 -18.6734 -9.3166 -7.0442
# 4 -13.8560 -12.7771 -18.6734 40.6252 -4.8715 1.0361
# 5 -13.8404 7.9040 -9.3166 -4.8715 63.3793 5.6488
# 6 -9.5567 -11.4749 -7.0442 1.0361 5.6488 29.4499
#
#
#
# Elastic Compliance Matrix: (Units=1/GPa)
#
#
# Indices 1 2 3 4 5 6 
#
# 1 0.013406 -0.001277 -0.002929 0.003080 0.002667 0.002532
# 2 -0.001277 0.016853 -0.002617 0.003142 -0.003059 0.006003
# 3 -0.002929 -0.002617 0.007332 0.001672 0.000933 -0.000454
# 4 0.003080 0.003142 0.001672 0.027699 0.002552 0.001160
# 5 0.002667 -0.003059 0.000933 0.002552 0.017390 -0.003528
# 6 0.002532 0.006003 -0.000454 0.001160 -0.003528 0.037644
#
#
# Mechanical properties :
#
#
# Convention : Reuss Voigt Hill
#
# Bulk Modulus (GPa) = 41.76270 60.61820 51.19045
# Shear Modulus (GPa) = 35.22373 42.70922 38.96647
#
# Velocity S-wave (km/s) = 3.73570 4.11353 3.92916
# Velocity P-wave (km/s) = 5.92903 6.82481 6.39263
#
# Compressibility (1/GPa) = 0.02394481
#
# Stress axis : x y z
#
# Youngs Moduli (GPa) = 74.59533 59.33647 136.39503
#
# Poissons Ratio (x) = 0.07577 0.39950
# Poissons Ratio (y) = 0.09526 0.35692
# Poissons Ratio (z) = 0.21849 0.15527
#
# Static dielectric constant tensor:
#      x y z
#    x 2.183590 -0.002370 -0.077070 
#    y -0.002370 2.500930 0.093650 
#    z -0.077070 0.093650 2.023060 
# 
# From -- ./inp_files/27104.got.cif
#   From: 2010.05.17/outbox.cif.g08.bks.cpg/sg2_14_cif.got.tgz:27104.got - 2010.06.03 11:33:40.
