data_PCOD9103704
_publ_section_title
;
Structure prediction by ZEFSAII (Michael W. Deem and Ramdas Pophale) SiO2 
 PCOD9103704
Probable space group: P -1
;
_chemical_formula_sum "Si O2"
_cell_formula_units_Z 16
_cell_length_a 7.745685
_cell_length_b 6.365841
_cell_length_c 27.178221
_cell_angle_alpha 123.304587
_cell_angle_beta 138.876220
_cell_angle_gamma 76.656468
_cell_volume 694.670204
_symmetry_space_group_name_H-M "P -1"
_symmetry_group_IT_number 2
_symmetry_cell_setting 'triclinic'
loop_
_space_group_symop_operation_xyz
x,y,z
-x,-y,-z
loop_
_atom_site_type_symbol
_atom_site_label
_atom_site_fract_x
_atom_site_fract_y
_atom_site_fract_z
Si Si1 0.974147 0.192468 0.975512
Si Si2 0.777593 0.136596 0.450693
Si Si3 0.655544 0.921801 0.201307
Si Si4 0.998258 0.433345 0.882771
Si Si5 0.611688 0.424644 0.709069
Si Si6 0.444846 0.669429 0.930558
Si Si7 0.867959 0.322221 0.380606
Si Si8 0.060555 0.870458 0.810902
O O1 0.335680 0.911515 0.126389
O O2 0.017155 0.456612 0.052087
O O3 0.229977 0.221169 0.997893
O O4 0.000000 0.000000 0.000000
O O5 0.822647 0.215573 0.413024
O O6 0.845498 0.425270 0.528133
O O7 0.491081 0.892551 0.363208
O O8 0.000000 0.000000 0.500000
O O9 0.652630 0.621012 0.154585
O O10 0.809067 0.065304 0.301040
O O11 0.821184 0.092398 0.213322
O O12 0.770635 0.477986 0.802454
O O13 0.297206 0.593331 0.942306
O O14 0.961863 0.122209 0.832818
O O15 0.360224 0.542792 0.667783
O O16 0.821141 0.594888 0.735010
O O17 0.307196 0.860698 0.898480
#
# Coordination Sequence:
#
# PCOD9103704 Si02
#       8
#     2   2   2   2   2   2   2   2
#     4  12  24  44  66  96 136 182 232 276 327 391
#     4   9  20  38  66 101 129 166 216 268 339 405
#     4  11  24  42  62  94 133 174 223 277 327 391
#     4  10  24  43  66  96 139 183 225 275 330 391
#     4  10  20  38  67  98 129 172 222 269 330 399
#     4  10  24  43  62  94 135 181 234 276 326 389
#     4  10  21  39  68  98 132 168 218 275 329 402
#     4  10  22  43  63  93 136 180 221 275 333 387
#
# _framework density 23.032512000000001
#
# number of rings (size 3 to 8) (size 9 to 14) (size 15 to 20)
#    0.000    1.750    1.250    1.875    3.500    3.500 
#    6.750    0.625    0.000   19.500    0.000    0.000 
#    0.000    0.000    0.000    0.000    0.000    0.000 
#
# Total GULP energy -89487.722026 kJ/mol
# GULP energy per Si atom -5592.982627 kJ/mol
# Density = 2.298009 g / cm^3
# Si number density = 23.032512 Si / 1000 Ang^3
#
#
#
# Elastic Constant Matrix: (Units=GPa)
#
#
# Indices 1 2 3 4 5 6 
#
# 1 112.0483 17.6857 58.4995 16.6423 -2.9734 8.1596
# 2 17.6857 119.9542 28.9955 6.0092 2.5011 3.9770
# 3 58.4995 28.9955 121.3058 24.1524 -7.3939 17.9039
# 4 16.6423 6.0092 24.1524 54.2379 14.7434 8.1051
# 5 -2.9734 2.5011 -7.3939 14.7434 24.6902 2.3769
# 6 8.1596 3.9770 17.9039 8.1051 2.3769 29.7352
#
#
#
# Elastic Compliance Matrix: (Units=1/GPa)
#
#
# Indices 1 2 3 4 5 6 
#
# 1 0.012032 -0.000417 -0.005417 -0.001483 0.000720 0.000363
# 2 -0.000417 0.008937 -0.002223 0.000642 -0.002028 0.000244
# 3 -0.005417 -0.002223 0.013746 -0.005400 0.007454 -0.005617
# 4 -0.001483 0.000642 -0.005400 0.026266 -0.017333 -0.002202
# 5 0.000720 -0.002028 0.007454 -0.017333 0.053761 -0.003987
# 6 0.000363 0.000244 -0.005617 -0.002202 -0.003987 0.037799
#
#
# Mechanical properties :
#
#
# Convention : Reuss Voigt Hill
#
# Bulk Modulus (GPa) = 53.76046 62.62997 58.19521
# Shear Modulus (GPa) = 28.59526 38.27451 33.43488
#
# Velocity S-wave (km/s) = 3.52734 4.08089 3.81417
# Velocity P-wave (km/s) = 6.32308 7.03249 6.68720
#
# Compressibility (1/GPa) = 0.01860103
#
# Stress axis : x y z
#
# Youngs Moduli (GPa) = 83.11401 111.89048 72.75084
#
# Poissons Ratio (x) = 0.04669 0.39408
# Poissons Ratio (y) = 0.03468 0.16170
# Poissons Ratio (z) = 0.45021 0.24869
#
# Static dielectric constant tensor:
#      x y z
#    x 1.836590 -0.017910 0.006310 
#    y -0.017910 1.940350 0.030330 
#    z 0.006310 0.030330 1.976160 
# 
# From -- ./inp_files/622251.got.cif
#   From: 2010.05.17/outbox.cif.g08.bks.cpg/sg2_312_cif.got.tgz:622251.got - 2010.06.03 11:33:40.
