data_PCOD9103107
_publ_section_title
;
Structure prediction by ZEFSAII (Michael W. Deem and Ramdas Pophale) SiO2 
 PCOD9103107
Probable space group: P -1
;
_chemical_formula_sum "Si O2"
_cell_formula_units_Z 14
_cell_length_a 12.380021
_cell_length_b 14.554125
_cell_length_c 16.644852
_cell_angle_alpha 150.763498
_cell_angle_beta 156.449980
_cell_angle_gamma 30.020189
_cell_volume 550.859925
_symmetry_space_group_name_H-M "P -1"
_symmetry_group_IT_number 2
_symmetry_cell_setting 'triclinic'
loop_
_space_group_symop_operation_xyz
x,y,z
-x,-y,-z
loop_
_atom_site_type_symbol
_atom_site_label
_atom_site_fract_x
_atom_site_fract_y
_atom_site_fract_z
Si Si1 0.125322 0.297466 0.263151
Si Si2 0.517427 0.556695 0.676054
Si Si3 0.905296 0.702118 0.170571
Si Si4 0.727076 0.454721 0.242510
Si Si5 0.631901 0.068621 0.959186
Si Si6 0.550353 0.133606 0.566573
Si Si7 0.879706 0.017250 0.258529
O O1 0.316446 0.430748 0.468144
O O2 0.294402 0.173194 0.359347
O O3 0.814067 0.418659 0.180115
O O4 0.167904 0.128843 0.097672
O O5 0.296667 0.769370 0.662101
O O6 0.778546 0.450745 0.712578
O O7 0.700844 0.589437 0.904362
O O8 0.716225 0.845702 0.220384
O O9 0.948256 0.842889 0.236399
O O10 0.466531 0.652003 0.242996
O O11 0.000000 0.500000 0.500000
O O12 0.711990 0.255626 0.122804
O O13 0.675201 0.012417 0.040052
O O14 0.500000 0.000000 0.500000
O O15 0.830887 0.012258 0.615534
#
# Coordination Sequence:
#
# PCOD9103107 Si02
#       7
#     2   2   2   2   2   2   2
#     4  11  22  41  61  92 126 159 198 258 320 348
#     4  10  20  38  65  85 126 161 205 248 296 362
#     4  10  21  39  65  90 121 165 216 237 295 371
#     4  10  21  39  64  87 117 165 206 242 305 368
#     4  11  23  39  63  91 127 159 197 261 309 354
#     4  11  21  38  65  90 118 161 213 248 295 375
#     4  11  21  40  64  94 118 163 217 243 290 372
#
# _framework density 25.414809000000002
#
# number of rings (size 3 to 8) (size 9 to 14) (size 15 to 20)
#    0.000    1.429    1.429    8.143    2.000    0.571 
#    0.000    7.143    0.000    0.000    0.000    0.000 
#    0.000    0.000    0.000    0.000    0.000    0.000 
#
# Total GULP energy -78282.890358 kJ/mol
# GULP energy per Si atom -5591.635026 kJ/mol
# Density = 2.535696 g / cm^3
# Si number density = 25.414809 Si / 1000 Ang^3
#
#
#
# Elastic Constant Matrix: (Units=GPa)
#
#
# Indices 1 2 3 4 5 6 
#
# 1 94.6281 37.2648 40.1875 16.7043 21.1966 -33.0768
# 2 37.2648 162.0258 44.6196 1.7512 11.7352 -38.6049
# 3 40.1875 44.6196 64.9077 18.9205 20.1120 3.9780
# 4 16.7043 1.7512 18.9205 46.1157 -4.1613 17.0241
# 5 21.1966 11.7352 20.1120 -4.1613 51.0135 9.2110
# 6 -33.0768 -38.6049 3.9780 17.0241 9.2110 52.4805
#
#
#
# Elastic Compliance Matrix: (Units=1/GPa)
#
#
# Indices 1 2 3 4 5 6 
#
# 1 0.041534 0.009068 -0.020374 -0.026266 -0.021896 0.046756
# 2 0.009068 0.012181 -0.011373 -0.006528 -0.005996 0.018708
# 3 -0.020374 -0.011373 0.036240 0.002291 0.001488 -0.024958
# 4 -0.026266 -0.006528 0.002291 0.047703 0.022808 -0.041008
# 5 -0.021896 -0.005996 0.001488 0.022808 0.037177 -0.032248
# 6 0.046756 0.018708 -0.024958 -0.041008 -0.032248 0.083139
#
#
# Mechanical properties :
#
#
# Convention : Reuss Voigt Hill
#
# Bulk Modulus (GPa) = 22.42326 62.85616 42.63971
# Shear Modulus (GPa) = 15.71354 43.22126 29.46740
#
# Velocity S-wave (km/s) = 2.48923 4.12835 3.40878
# Velocity P-wave (km/s) = 4.13567 6.89276 5.68392
#
# Compressibility (1/GPa) = 0.04459655
#
# Stress axis : x y z
#
# Youngs Moduli (GPa) = 24.07688 82.09823 27.59372
#
# Poissons Ratio (x) = -0.74448 0.56218
# Poissons Ratio (y) = -0.21833 0.31383
# Poissons Ratio (z) = 0.49053 0.93374
#
# Static dielectric constant tensor:
#      x y z
#    x 2.050010 -0.140390 -0.053710 
#    y -0.140390 2.112830 -0.036570 
#    z -0.053710 -0.036570 2.094190 
# 
# From -- ./inp_files/188045.got.cif
#   From: 2010.05.17/outbox.cif.g08.bks.cpg/sg2_95_cif.got.tgz:188045.got - 2010.06.03 11:33:40.
