data_PCOD9103024
_publ_section_title
;
Structure prediction by ZEFSAII (Michael W. Deem and Ramdas Pophale) SiO2 
 PCOD9103024
Probable space group: P -1
;
_chemical_formula_sum "Si O2"
_cell_formula_units_Z 15
_cell_length_a 6.855761
_cell_length_b 13.618615
_cell_length_c 14.501118
_cell_angle_alpha 44.787217
_cell_angle_beta 40.246487
_cell_angle_gamma 51.033590
_cell_volume 604.825095
_symmetry_space_group_name_H-M "P -1"
_symmetry_group_IT_number 2
_symmetry_cell_setting 'triclinic'
loop_
_space_group_symop_operation_xyz
x,y,z
-x,-y,-z
loop_
_atom_site_type_symbol
_atom_site_label
_atom_site_fract_x
_atom_site_fract_y
_atom_site_fract_z
Si Si1 0.500000 0.500000 0.000000
Si Si2 0.827244 0.862288 0.884796
Si Si3 0.585664 0.135773 0.426768
Si Si4 0.409108 0.938779 0.331688
Si Si5 0.832927 0.661918 0.277664
Si Si6 0.697288 0.576265 0.675119
Si Si7 0.909604 0.100322 0.052683
Si Si8 0.772498 0.568104 0.166289
O O1 0.373139 0.438860 0.180949
O O2 0.141461 0.512647 0.072393
O O3 0.843997 0.927619 0.936511
O O4 0.177913 0.808448 0.762802
O O5 0.717667 0.980625 0.769190
O O6 0.689360 0.720844 0.040845
O O7 0.744194 0.103747 0.491111
O O8 0.290874 0.261150 0.459396
O O9 0.500000 0.000000 0.500000
O O10 0.611795 0.790890 0.320989
O O11 0.601988 0.053239 0.226846
O O12 0.683601 0.601327 0.283637
O O13 0.992998 0.540808 0.368855
O O14 0.100835 0.738493 0.082362
O O15 0.425042 0.535030 0.739697
O O16 0.000000 0.000000 0.000000
#
# Coordination Sequence:
#
# PCOD9103024 Si02
#       8
#     1   2   2   2   2   2   2   2
#     4  10  20  38  64  96 130 160 206 272 320 374
#     4  11  22  40  65  97 129 171 216 265 325 387
#     4  12  26  45  63  93 131 183 219 260 324 393
#     4  11  23  42  64  93 137 172 218 261 320 395
#     4   9  22  40  66 100 123 166 215 276 326 371
#     4  11  23  42  67  96 131 166 218 266 332 383
#     4   9  19  38  65  97 127 166 210 266 327 372
#     4  10  21  40  66 101 127 162 212 277 329 376
#
# _framework density 24.800557000000001
#
# number of rings (size 3 to 8) (size 9 to 14) (size 15 to 20)
#    0.000    1.600    2.667    1.600    0.000    8.533 
#    7.200    0.667    0.000    0.000    0.000    0.000 
#    0.000    0.000    0.000    0.000    0.000    0.000 
#
# Total GULP energy -83533.490821 kJ/mol
# GULP energy per Si atom -5568.899388 kJ/mol
# Density = 2.474411 g / cm^3
# Si number density = 24.800557 Si / 1000 Ang^3
#
#
#
# Elastic Constant Matrix: (Units=GPa)
#
#
# Indices 1 2 3 4 5 6 
#
# 1 122.3811 61.4169 40.4257 -27.4872 28.1711 3.2394
# 2 61.4169 108.6648 29.6069 -47.9004 18.9570 -12.3887
# 3 40.4257 29.6069 60.1169 -11.0344 22.4557 12.2818
# 4 -27.4872 -47.9004 -11.0344 42.2567 -1.8101 6.1203
# 5 28.1711 18.9570 22.4557 -1.8101 40.1770 -7.3057
# 6 3.2394 -12.3887 12.2818 6.1203 -7.3057 37.4699
#
#
#
# Elastic Compliance Matrix: (Units=1/GPa)
#
#
# Indices 1 2 3 4 5 6 
#
# 1 0.013916 -0.005159 -0.003483 0.002525 -0.005867 -0.003323
# 2 -0.005159 0.024236 -0.004294 0.022039 -0.003407 0.005603
# 3 -0.003483 -0.004294 0.029833 0.002070 -0.014676 -0.014097
# 4 0.002525 0.022039 0.002070 0.050938 -0.011801 -0.004231
# 5 -0.005867 -0.003407 -0.014676 -0.011801 0.040843 0.014082
# 6 -0.003323 0.005603 -0.014097 -0.004231 0.014082 0.036885
#
#
# Mechanical properties :
#
#
# Convention : Reuss Voigt Hill
#
# Bulk Modulus (GPa) = 23.74503 61.56241 42.65372
# Shear Modulus (GPa) = 21.13607 34.62826 27.88216
#
# Velocity S-wave (km/s) = 2.92248 3.74072 3.35663
# Velocity P-wave (km/s) = 4.58073 6.59805 5.67967
#
# Compressibility (1/GPa) = 0.04211407
#
# Stress axis : x y z
#
# Youngs Moduli (GPa) = 71.85716 41.26060 33.51950
#
# Poissons Ratio (x) = 0.21285 0.11676
# Poissons Ratio (y) = 0.37068 0.14393
# Poissons Ratio (z) = 0.25031 0.17717
#
# Static dielectric constant tensor:
#      x y z
#    x 1.932910 -0.034140 -0.030470 
#    y -0.034140 2.086200 0.060030 
#    z -0.030470 0.060030 2.008900 
# 
# From -- ./inp_files/484185.got.cif
#   From: 2010.05.17/outbox.cif.g08.bks.cpg/sg2_243_cif.got.tgz:484185.got - 2010.06.03 11:33:40.
