data_PCOD9103945
_publ_section_title
;
Structure prediction by ZEFSAII (Michael W. Deem and Ramdas Pophale) SiO2 
 PCOD9103945
Probable space group: P -1
;
_chemical_formula_sum "Si O2"
_cell_formula_units_Z 16
_cell_length_a 12.946114
_cell_length_b 9.228756
_cell_length_c 11.215298
_cell_angle_alpha 138.683276
_cell_angle_beta 133.823356
_cell_angle_gamma 45.569816
_cell_volume 590.962217
_symmetry_space_group_name_H-M "P -1"
_symmetry_group_IT_number 2
_symmetry_cell_setting 'triclinic'
loop_
_space_group_symop_operation_xyz
x,y,z
-x,-y,-z
loop_
_atom_site_type_symbol
_atom_site_label
_atom_site_fract_x
_atom_site_fract_y
_atom_site_fract_z
Si Si1 0.493907 0.215043 0.916399
Si Si2 0.288587 0.773753 0.082695
Si Si3 0.964532 0.700110 0.494075
Si Si4 0.065350 0.603687 0.924862
Si Si5 0.207838 0.310851 0.081882
Si Si6 0.502332 0.341585 0.271785
Si Si7 0.651754 0.093649 0.543461
Si Si8 0.156690 0.899909 0.640359
O O1 0.666776 0.152360 0.963339
O O2 0.419024 0.067828 0.685868
O O3 0.388029 0.492532 0.985243
O O4 0.494979 0.219519 0.063243
O O5 0.353132 0.902752 0.313910
O O6 0.125251 0.780132 0.008515
O O7 0.900301 0.611643 0.272173
O O8 0.000000 0.500000 0.500000
O O9 0.122653 0.727156 0.600427
O O10 0.836036 0.954837 0.581152
O O11 0.147038 0.531552 0.074755
O O12 0.889115 0.661463 0.858393
O O13 0.177228 0.113969 0.857811
O O14 0.384302 0.274440 0.217601
O O15 0.434695 0.626221 0.380848
O O16 0.683239 0.236936 0.384842
O O17 0.000000 0.000000 0.500000
#
# Coordination Sequence:
#
# PCOD9103945 Si02
#       8
#     2   2   2   2   2   2   2   2
#     4  10  21  39  74 111 161 206 268 334 404 473
#     4  10  20  38  70 113 158 209 265 332 401 481
#     4  12  28  49  79 119 167 214 278 339 410 492
#     4  11  22  46  79 111 161 214 266 340 404 472
#     4  11  23  50  82 111 165 212 277 333 409 490
#     4  11  26  50  81 122 157 213 281 335 406 494
#     4  11  22  46  78 114 161 214 267 335 407 481
#     4  12  28  51  82 118 163 219 266 341 418 490
#
# _framework density 27.074489
#
# number of rings (size 3 to 8) (size 9 to 14) (size 15 to 20)
#    0.000    1.000    5.000    1.500    3.500    2.000 
#    4.500    2.500    0.000    0.000    0.000    0.000 
#    0.000    0.000    0.000    0.000    0.000    0.000 
#
# Total GULP energy -89554.524896 kJ/mol
# GULP energy per Si atom -5597.157806 kJ/mol
# Density = 2.701287 g / cm^3
# Si number density = 27.074489 Si / 1000 Ang^3
#
#
#
# Elastic Constant Matrix: (Units=GPa)
#
#
# Indices 1 2 3 4 5 6 
#
# 1 259.9620 53.1607 49.4349 -11.5627 -5.2557 -5.5534
# 2 53.1607 107.3072 31.4537 10.8633 -7.0853 -22.7925
# 3 49.4349 31.4537 181.6753 5.3757 -22.5828 -7.6268
# 4 -11.5627 10.8633 5.3757 28.5616 -13.1593 -5.7268
# 5 -5.2557 -7.0853 -22.5828 -13.1593 41.9473 1.5488
# 6 -5.5534 -22.7925 -7.6268 -5.7268 1.5488 42.3028
#
#
#
# Elastic Compliance Matrix: (Units=1/GPa)
#
#
# Indices 1 2 3 4 5 6 
#
# 1 0.004656 -0.002423 -0.000870 0.003219 0.000732 -0.000442
# 2 -0.002423 0.012491 -0.001193 -0.004612 -0.000489 0.005591
# 3 -0.000870 -0.001193 0.006351 0.000467 0.003243 0.000332
# 4 0.003219 -0.004612 0.000467 0.045108 0.013893 0.003620
# 5 0.000732 -0.000489 0.003243 0.013893 0.029908 0.001203
# 6 -0.000442 0.005591 0.000332 0.003620 0.001203 0.027099
#
#
# Mechanical properties :
#
#
# Convention : Reuss Voigt Hill
#
# Bulk Modulus (GPa) = 68.84399 90.78257 79.81328
# Shear Modulus (GPa) = 35.86071 50.22202 43.04137
#
# Velocity S-wave (km/s) = 3.64334 4.31159 3.99148
# Velocity P-wave (km/s) = 6.57126 7.64133 7.12641
#
# Compressibility (1/GPa) = 0.01452560
#
# Stress axis : x y z
#
# Youngs Moduli (GPa) = 214.76504 80.05654 157.45793
#
# Poissons Ratio (x) = 0.19399 0.13704
# Poissons Ratio (y) = 0.52040 0.18783
# Poissons Ratio (z) = 0.18692 0.09550
#
# Static dielectric constant tensor:
#      x y z
#    x 2.179590 0.006960 0.032280 
#    y 0.006960 2.209170 -0.001400 
#    z 0.032280 -0.001400 2.045180 
# 
# From -- ./inp_files/418454.got.cif
#   From: 2010.05.17/outbox.cif.g08.bks.cpg/sg2_210_cif.got.tgz:418454.got - 2010.06.03 11:33:40.
