data_PCOD9103468
_publ_section_title
;
Structure prediction by ZEFSAII (Michael W. Deem and Ramdas Pophale) SiO2 
 PCOD9103468
Probable space group: P -1
;
_chemical_formula_sum "Si O2"
_cell_formula_units_Z 14
_cell_length_a 9.769651
_cell_length_b 18.197119
_cell_length_c 8.965135
_cell_angle_alpha 67.540482
_cell_angle_beta 30.457247
_cell_angle_gamma 68.908089
_cell_volume 745.029510
_symmetry_space_group_name_H-M "P -1"
_symmetry_group_IT_number 2
_symmetry_cell_setting 'triclinic'
loop_
_space_group_symop_operation_xyz
x,y,z
-x,-y,-z
loop_
_atom_site_type_symbol
_atom_site_label
_atom_site_fract_x
_atom_site_fract_y
_atom_site_fract_z
Si Si1 0.232890 0.604595 0.147270
Si Si2 0.081207 0.955176 0.808214
Si Si3 0.768420 0.576735 0.817445
Si Si4 0.658196 0.197079 0.418590
Si Si5 0.487776 0.045424 0.821530
Si Si6 0.265945 0.441829 0.798668
Si Si7 0.886343 0.699943 0.155985
O O1 0.245939 0.518697 0.118802
O O2 0.060029 0.595794 0.467198
O O3 0.069215 0.667083 0.147470
O O4 0.537917 0.618609 0.895769
O O5 0.217430 0.865708 0.773051
O O6 0.306871 0.994719 0.464215
O O7 0.812637 0.949042 0.966900
O O8 0.000000 0.000000 0.000000
O O9 0.712023 0.594820 0.028206
O O10 0.590318 0.135258 0.661694
O O11 0.376194 0.242601 0.603530
O O12 0.895416 0.255189 0.182508
O O13 0.500000 0.000000 0.000000
O O14 0.500000 0.500000 0.500000
O O15 0.233281 0.373676 0.760802
O O16 0.000000 0.500000 0.000000
#
# Coordination Sequence:
#
# PCOD9103468 Si02
#       7
#     2   2   2   2   2   2   2
#     4  10  21  35  62  77 112 154 194 251 308 346
#     4  10  20  38  66  93 121 154 204 252 293 362
#     4  10  21  38  54  86 109 143 208 258 288 351
#     4  10  22  37  63  91 124 156 206 241 315 368
#     4  10  20  38  67  94 123 159 204 245 297 376
#     4  12  24  38  60  89 113 158 214 256 297 354
#     4  12  22  39  61  86 122 165 200 256 311 362
#
# _framework density 18.791202999999999
#
# number of rings (size 3 to 8) (size 9 to 14) (size 15 to 20)
#    0.857    0.571    2.857    3.429    4.000    0.000 
#    0.000    0.000   12.571    0.000    0.000    0.000 
#    0.000    0.000    0.000    0.000    0.000    0.000 
#
# Total GULP energy -78039.504656 kJ/mol
# GULP energy per Si atom -5574.250333 kJ/mol
# Density = 1.874843 g / cm^3
# Si number density = 18.791203 Si / 1000 Ang^3
#
#
#
# Elastic Constant Matrix: (Units=GPa)
#
#
# Indices 1 2 3 4 5 6 
#
# 1 79.6391 42.1554 31.5906 12.9482 -4.5933 -16.3505
# 2 42.1554 83.0554 32.0372 11.0023 -8.1160 -18.3841
# 3 31.5906 32.0372 97.6549 18.7280 -24.6231 -17.7758
# 4 12.9482 11.0023 18.7280 30.4533 -2.1612 -0.7752
# 5 -4.5933 -8.1160 -24.6231 -2.1612 33.3160 2.4327
# 6 -16.3505 -18.3841 -17.7758 -0.7752 2.4327 13.6591
#
#
#
# Elastic Compliance Matrix: (Units=1/GPa)
#
#
# Indices 1 2 3 4 5 6 
#
# 1 0.019849 -0.005867 -0.001093 -0.005347 -0.000891 0.014295
# 2 -0.005867 0.020078 0.000422 -0.004325 0.002666 0.019829
# 3 -0.001093 0.000422 0.019426 -0.010223 0.012053 0.021813
# 4 -0.005347 -0.004325 -0.010223 0.042039 -0.004995 -0.022250
# 5 -0.000891 0.002666 0.012053 -0.004995 0.038316 0.011099
# 6 0.014295 0.019829 0.021813 -0.022250 0.011099 0.142158
#
#
# Mechanical properties :
#
#
# Convention : Reuss Voigt Hill
#
# Bulk Modulus (GPa) = 21.60991 52.43509 37.02250
# Shear Modulus (GPa) = 16.10992 25.79010 20.95001
#
# Velocity S-wave (km/s) = 2.93116 3.70869 3.34261
# Velocity P-wave (km/s) = 4.79381 6.80469 5.88576
#
# Compressibility (1/GPa) = 0.04627506
#
# Stress axis : x y z
#
# Youngs Moduli (GPa) = 50.38055 49.80637 51.47857
#
# Poissons Ratio (x) = 0.29223 0.05629
# Poissons Ratio (y) = 0.29560 -0.02173
# Poissons Ratio (z) = 0.05508 -0.02102
#
# Static dielectric constant tensor:
#      x y z
#    x 1.663190 0.000780 0.011510 
#    y 0.000780 1.674860 -0.011830 
#    z 0.011510 -0.011830 1.667040 
# 
# From -- ./inp_files/214968.got.cif
#   From: 2010.05.17/outbox.cif.g08.bks.cpg/sg2_108_cif.got.tgz:214968.got - 2010.06.03 11:33:40.
