data_PCOD9103633
_publ_section_title
;
Structure prediction by ZEFSAII (Michael W. Deem and Ramdas Pophale) SiO2 
 PCOD9103633
Probable space group: P -1
;
_chemical_formula_sum "Si O2"
_cell_formula_units_Z 16
_cell_length_a 12.408444
_cell_length_b 16.475723
_cell_length_c 7.360328
_cell_angle_alpha 115.880894
_cell_angle_beta 96.262752
_cell_angle_gamma 137.344295
_cell_volume 650.101339
_symmetry_space_group_name_H-M "P -1"
_symmetry_group_IT_number 2
_symmetry_cell_setting 'triclinic'
loop_
_space_group_symop_operation_xyz
x,y,z
-x,-y,-z
loop_
_atom_site_type_symbol
_atom_site_label
_atom_site_fract_x
_atom_site_fract_y
_atom_site_fract_z
Si Si1 0.531620 0.275155 0.795201
Si Si2 0.880338 0.471620 0.794818
Si Si3 0.955622 0.173494 0.192949
Si Si4 0.144692 0.171547 0.956726
Si Si5 0.360193 0.845845 0.172111
Si Si6 0.038072 0.905807 0.493721
Si Si7 0.526583 0.147772 0.163990
Si Si8 0.591086 0.401250 0.290078
O O1 0.677956 0.387685 0.749118
O O2 0.619719 0.243999 0.854584
O O3 0.595300 0.398746 0.069044
O O4 0.264152 0.070529 0.571082
O O5 0.753152 0.309764 0.480451
O O6 0.000000 0.500000 0.000000
O O7 0.097587 0.678595 0.955219
O O8 0.949951 0.154386 0.393784
O O9 0.167770 0.390331 0.400628
O O10 0.006755 0.119718 0.038080
O O11 0.709992 0.028842 0.950268
O O12 0.151677 0.236512 0.835493
O O13 0.388525 0.320479 0.220415
O O14 0.035982 0.999574 0.692838
O O15 0.500000 0.000000 0.500000
O O16 0.467151 0.917698 0.063524
O O17 0.533882 0.257958 0.201668
#
# Coordination Sequence:
#
# PCOD9103633 Si02
#       8
#     2   2   2   2   2   2   2   2
#     4   9  19  41  59  91 132 161 216 264 330 374
#     4  10  22  41  68  89 127 172 214 271 340 393
#     4  12  22  40  70  91 133 175 223 260 331 391
#     4  10  21  40  61  98 132 171 221 264 321 385
#     4  10  21  40  67  92 124 166 213 271 326 399
#     4  10  20  38  67  91 132 174 214 270 318 392
#     4  11  23  45  64  96 134 172 215 277 336 383
#     4  10  23  41  61  96 133 169 218 273 310 405
#
# _framework density 24.611550000000001
#
# number of rings (size 3 to 8) (size 9 to 14) (size 15 to 20)
#    0.000    1.750    3.750    1.875    1.750    0.500 
#    9.000    2.500    0.000    0.000    0.000    0.000 
#    0.000    0.000    0.000    0.000    0.000    0.000 
#
# Total GULP energy -89326.742838 kJ/mol
# GULP energy per Si atom -5582.921427 kJ/mol
# Density = 2.455553 g / cm^3
# Si number density = 24.611550 Si / 1000 Ang^3
#
#
#
# Elastic Constant Matrix: (Units=GPa)
#
#
# Indices 1 2 3 4 5 6 
#
# 1 79.4243 51.0494 31.9293 8.5517 16.4895 31.2298
# 2 51.0494 125.6793 55.4886 10.8817 -0.4924 35.8053
# 3 31.9293 55.4886 139.3867 8.8760 21.4265 19.9545
# 4 8.5517 10.8817 8.8760 40.2597 1.5575 2.1988
# 5 16.4895 -0.4924 21.4265 1.5575 29.6243 -9.0168
# 6 31.2298 35.8053 19.9545 2.1988 -9.0168 48.2500
#
#
#
# Elastic Compliance Matrix: (Units=1/GPa)
#
#
# Indices 1 2 3 4 5 6 
#
# 1 0.028799 -0.007540 0.002887 -0.002784 -0.023743 -0.018549
# 2 -0.007540 0.013710 -0.004438 -0.001286 0.007069 -0.002079
# 3 0.002887 -0.004438 0.010745 -0.001087 -0.010920 -0.005010
# 4 -0.002784 -0.001286 -0.001087 0.025825 0.001669 0.002341
# 5 -0.023743 0.007069 -0.010920 0.001669 0.062910 0.026318
# 6 -0.018549 -0.002079 -0.005010 0.002341 0.026318 0.041157
#
#
# Mechanical properties :
#
#
# Convention : Reuss Voigt Hill
#
# Bulk Modulus (GPa) = 28.51270 69.04721 48.77996
# Shear Modulus (GPa) = 23.47225 37.36167 30.41696
#
# Velocity S-wave (km/s) = 3.09157 3.90045 3.51932
# Velocity P-wave (km/s) = 4.93497 6.95704 6.03135
#
# Compressibility (1/GPa) = 0.03507209
#
# Stress axis : x y z
#
# Youngs Moduli (GPa) = 34.72380 72.93990 93.06916
#
# Poissons Ratio (x) = 0.54995 -0.26870
# Poissons Ratio (y) = 0.26181 0.41303
# Poissons Ratio (z) = -0.10025 0.32370
#
# Static dielectric constant tensor:
#      x y z
#    x 1.971440 -0.048980 0.035610 
#    y -0.048980 2.096880 0.014090 
#    z 0.035610 0.014090 1.989980 
# 
# From -- ./inp_files/283242.got.cif
#   From: 2010.05.17/outbox.cif.g08.bks.cpg/sg2_142_cif.got.tgz:283242.got - 2010.06.03 11:33:40.
