data_PCOD9103141
_publ_section_title
;
Structure prediction by ZEFSAII (Michael W. Deem and Ramdas Pophale) SiO2 
 PCOD9103141
Probable space group: P -1
;
_chemical_formula_sum "Si O2"
_cell_formula_units_Z 13
_cell_length_a 12.017150
_cell_length_b 6.820880
_cell_length_c 9.571575
_cell_angle_alpha 98.277475
_cell_angle_beta 50.801238
_cell_angle_gamma 84.616801
_cell_volume 583.934749
_symmetry_space_group_name_H-M "P -1"
_symmetry_group_IT_number 2
_symmetry_cell_setting 'triclinic'
loop_
_space_group_symop_operation_xyz
x,y,z
-x,-y,-z
loop_
_atom_site_type_symbol
_atom_site_label
_atom_site_fract_x
_atom_site_fract_y
_atom_site_fract_z
Si Si1 0.256699 0.595327 0.251194
Si Si2 0.418424 0.920599 0.730988
Si Si3 0.263660 0.159628 0.618799
Si Si4 0.165629 0.785879 0.051211
Si Si5 0.000000 0.500000 0.000000
Si Si6 0.935689 0.079364 0.408210
Si Si7 0.464412 0.200694 0.956391
O O1 0.174254 0.660940 0.176027
O O2 0.147861 0.686192 0.474025
O O3 0.393299 0.705221 0.159700
O O4 0.331151 0.358798 0.154080
O O5 0.586137 0.800264 0.559279
O O6 0.326720 0.990761 0.670681
O O7 0.422100 0.128498 0.831780
O O8 0.328669 0.794431 0.880257
O O9 0.178743 0.051223 0.563225
O O10 0.152293 0.353772 0.793061
O O11 0.087356 0.677181 0.989000
O O12 0.069265 0.015419 0.185473
O O13 0.000000 0.000000 0.500000
O O14 0.500000 0.000000 0.000000
#
# Coordination Sequence:
#
# PCOD9103141 Si02
#       7
#     2   2   2   2   1   2   2
#     4  10  20  38  65  89 128 170 206 265 324 372
#     4  11  22  39  63  93 128 169 218 271 323 381
#     4  10  22  40  63  89 132 168 213 280 317 382
#     4  10  21  39  65  89 128 170 213 270 322 390
#     4  10  22  40  58  88 124 170 214 260 328 380
#     4   9  19  38  63  89 125 178 207 262 326 380
#     4  11  21  37  63  95 126 163 216 267 316 383
#
# _framework density 22.262763
#
# number of rings (size 3 to 8) (size 9 to 14) (size 15 to 20)
#    0.000    1.846    3.077    0.923    0.000    3.077 
#    0.000    3.846    0.000    0.000    0.000    0.000 
#    0.000    0.000    0.000    0.000    0.000    0.000 
#
# Total GULP energy -72382.643977 kJ/mol
# GULP energy per Si atom -5567.895691 kJ/mol
# Density = 2.221209 g / cm^3
# Si number density = 22.262763 Si / 1000 Ang^3
#
#
#
# Elastic Constant Matrix: (Units=GPa)
#
#
# Indices 1 2 3 4 5 6 
#
# 1 100.0617 11.7661 41.3575 8.0232 0.4559 1.0419
# 2 11.7661 52.5526 46.6723 31.3114 -10.5007 -7.2661
# 3 41.3575 46.6723 139.9248 48.7008 -32.2732 -8.1865
# 4 8.0232 31.3114 48.7008 43.3444 -9.5657 -8.5941
# 5 0.4559 -10.5007 -32.2732 -9.5657 38.4236 4.4328
# 6 1.0419 -7.2661 -8.1865 -8.5941 4.4328 17.6641
#
#
#
# Elastic Compliance Matrix: (Units=1/GPa)
#
#
# Indices 1 2 3 4 5 6 
#
# 1 0.012108 -0.000823 -0.005482 0.003448 -0.004010 -0.000910
# 2 -0.000823 0.035419 -0.004308 -0.019870 0.000807 0.002752
# 3 -0.005482 -0.004308 0.017013 -0.013252 0.010174 -0.002565
# 4 0.003448 -0.019870 -0.013252 0.053093 -0.004829 0.012525
# 5 -0.004010 0.000807 0.010174 -0.004829 0.034291 -0.005671
# 6 -0.000910 0.002752 -0.002565 0.012525 -0.005671 0.064126
#
#
# Mechanical properties :
#
#
# Convention : Reuss Voigt Hill
#
# Bulk Modulus (GPa) = 23.08802 54.68122 38.88462
# Shear Modulus (GPa) = 19.86367 32.73597 26.29982
#
# Velocity S-wave (km/s) = 2.99028 3.83879 3.44079
# Velocity P-wave (km/s) = 4.72393 6.65308 5.76970
#
# Compressibility (1/GPa) = 0.04331250
#
# Stress axis : x y z
#
# Youngs Moduli (GPa) = 82.59093 28.23322 58.77906
#
# Poissons Ratio (x) = 0.02325 0.32224
# Poissons Ratio (y) = 0.06801 0.25322
# Poissons Ratio (z) = 0.45279 0.12163
#
# Static dielectric constant tensor:
#      x y z
#    x 1.844600 -0.036680 0.009980 
#    y -0.036680 1.789960 0.002340 
#    z 0.009980 0.002340 1.885620 
# 
# From -- ./inp_files/229826.got.cif
#   From: 2010.05.17/outbox.cif.g08.bks.cpg/sg2_115_cif.got.tgz:229826.got - 2010.06.03 11:33:40.
