data_PCOD9103012
_publ_section_title
;
Structure prediction by ZEFSAII (Michael W. Deem and Ramdas Pophale) SiO2 
 PCOD9103012
Probable space group: P -1
;
_chemical_formula_sum "Si O2"
_cell_formula_units_Z 16
_cell_length_a 8.714637
_cell_length_b 9.574766
_cell_length_c 13.934590
_cell_angle_alpha 130.495923
_cell_angle_beta 91.171858
_cell_angle_gamma 108.374598
_cell_volume 797.222209
_symmetry_space_group_name_H-M "P -1"
_symmetry_group_IT_number 2
_symmetry_cell_setting 'triclinic'
loop_
_space_group_symop_operation_xyz
x,y,z
-x,-y,-z
loop_
_atom_site_type_symbol
_atom_site_label
_atom_site_fract_x
_atom_site_fract_y
_atom_site_fract_z
Si Si1 0.459977 0.947536 0.819141
Si Si2 0.506766 0.301367 0.131547
Si Si3 0.813228 0.714169 0.327147
Si Si4 0.125707 0.737844 0.605544
Si Si5 0.045778 0.103064 0.791785
Si Si6 0.336868 0.431838 0.040476
Si Si7 0.273411 0.813433 0.222799
Si Si8 0.204261 0.886645 0.465351
O O1 0.539046 0.820753 0.824501
O O2 0.266248 0.808903 0.723565
O O3 0.558833 0.035515 0.761897
O O4 0.485369 0.137039 0.974117
O O5 0.696035 0.477061 0.227281
O O6 0.406770 0.424336 0.143886
O O7 0.846495 0.771947 0.242281
O O8 0.998309 0.781704 0.405053
O O9 0.739605 0.870524 0.432111
O O10 0.224546 0.809489 0.536221
O O11 0.000000 0.500000 0.500000
O O12 0.019760 0.872977 0.676594
O O13 0.877623 0.138665 0.800385
O O14 0.180496 0.211738 0.925111
O O15 0.257305 0.591162 0.098918
O O16 0.500000 0.500000 0.000000
O O17 0.276675 0.831489 0.346111
#
# Coordination Sequence:
#
# PCOD9103012 Si02
#       8
#     2   2   2   2   2   2   2   2
#     4  11  24  41  62  93 128 163 209 264 315 374
#     4  11  22  39  66  90 122 167 216 257 313 368
#     4   9  17  37  63  89 120 161 207 252 305 368
#     4  11  22  43  68  90 127 171 210 250 315 383
#     4  10  20  38  64  96 125 157 210 263 308 371
#     4  12  20  39  67  94 120 169 215 259 309 374
#     4  11  23  40  63  96 130 162 205 264 318 364
#     4   9  21  37  62  93 124 162 208 252 303 375
#
# _framework density 20.069686000000001
#
# number of rings (size 3 to 8) (size 9 to 14) (size 15 to 20)
#    0.000    1.500    3.750    1.875    1.750    1.500 
#    2.250    1.875    0.000    0.000    0.000    0.000 
#    0.000    0.000    0.000    0.000    0.000    0.000 
#
# Total GULP energy -89198.534597 kJ/mol
# GULP energy per Si atom -5574.908412 kJ/mol
# Density = 2.002401 g / cm^3
# Si number density = 20.069686 Si / 1000 Ang^3
#
#
#
# Elastic Constant Matrix: (Units=GPa)
#
#
# Indices 1 2 3 4 5 6 
#
# 1 50.0854 21.3341 37.9837 10.4894 -5.2147 -9.3623
# 2 21.3341 101.8097 40.8411 11.6116 3.3035 -11.2227
# 3 37.9837 40.8411 108.8324 15.1115 10.1869 8.4147
# 4 10.4894 11.6116 15.1115 38.2046 -1.9700 5.8302
# 5 -5.2147 3.3035 10.1869 -1.9700 27.4994 -1.7928
# 6 -9.3623 -11.2227 8.4147 5.8302 -1.7928 22.1868
#
#
#
# Elastic Compliance Matrix: (Units=1/GPa)
#
#
# Indices 1 2 3 4 5 6 
#
# 1 0.041152 0.002058 -0.017593 -0.008534 0.015324 0.028559
# 2 0.002058 0.013533 -0.006278 -0.003828 0.001548 0.011226
# 3 -0.017593 -0.006278 0.020070 0.001187 -0.011198 -0.019428
# 4 -0.008534 -0.003828 0.001187 0.031373 -0.000280 -0.014255
# 5 0.015324 0.001548 -0.011198 -0.000280 0.044200 0.015141
# 6 0.028559 0.011226 -0.019428 -0.014255 0.015141 0.075140
#
#
# Mechanical properties :
#
#
# Convention : Reuss Voigt Hill
#
# Bulk Modulus (GPa) = 32.12309 51.22725 41.67517
# Shear Modulus (GPa) = 17.89104 28.28273 23.08689
#
# Velocity S-wave (km/s) = 2.98895 3.75804 3.39534
# Velocity P-wave (km/s) = 5.28699 6.66413 6.01510
#
# Compressibility (1/GPa) = 0.03113026
#
# Stress axis : x y z
#
# Youngs Moduli (GPa) = 24.29997 73.89133 49.82597
#
# Poissons Ratio (x) = -0.15207 0.87656
# Poissons Ratio (y) = -0.05001 0.31282
# Poissons Ratio (z) = 0.42750 0.46390
#
# Static dielectric constant tensor:
#      x y z
#    x 1.744040 -0.034250 0.023410 
#    y -0.034250 1.702610 -0.010790 
#    z 0.023410 -0.010790 1.823520 
# 
# From -- ./inp_files/493905.got.cif
#   From: 2010.05.17/outbox.cif.g08.bks.cpg/sg2_247_cif.got.tgz:493905.got - 2010.06.03 11:33:40.
