data_PCOD9103595
_publ_section_title
;
Structure prediction by ZEFSAII (Michael W. Deem and Ramdas Pophale) SiO2 
 PCOD9103595
Probable space group: P -1
;
_chemical_formula_sum "Si O2"
_cell_formula_units_Z 15
_cell_length_a 10.131230
_cell_length_b 12.621790
_cell_length_c 8.949917
_cell_angle_alpha 139.244593
_cell_angle_beta 70.886563
_cell_angle_gamma 120.114084
_cell_volume 643.487130
_symmetry_space_group_name_H-M "P -1"
_symmetry_group_IT_number 2
_symmetry_cell_setting 'triclinic'
loop_
_space_group_symop_operation_xyz
x,y,z
-x,-y,-z
loop_
_atom_site_type_symbol
_atom_site_label
_atom_site_fract_x
_atom_site_fract_y
_atom_site_fract_z
Si Si1 0.000000 0.500000 0.000000
Si Si2 0.618747 0.651913 0.922181
Si Si3 0.597816 0.777049 0.756189
Si Si4 0.645437 0.340820 0.754155
Si Si5 0.147443 0.244384 0.571547
Si Si6 0.557511 0.064333 0.238666
Si Si7 0.237857 0.803080 0.199816
Si Si8 0.843884 0.912281 0.302928
O O1 0.919732 0.316136 0.946321
O O2 0.072217 0.383746 0.740451
O O3 0.494315 0.674157 0.102748
O O4 0.772940 0.826648 0.082184
O O5 0.558475 0.644084 0.769078
O O6 0.657600 0.491424 0.793642
O O7 0.716666 0.735576 0.567606
O O8 0.475415 0.799675 0.712977
O O9 0.656252 0.973132 0.023951
O O10 0.614116 0.165056 0.481044
O O11 0.778163 0.356495 0.842731
O O12 0.201200 0.242047 0.720180
O O13 0.020689 0.044001 0.376031
O O14 0.394495 0.894431 0.150561
O O15 0.232002 0.962599 0.467168
#
# Coordination Sequence:
#
# PCOD9103595 Si02
#       8
#     1   2   2   2   2   2   2   2
#     4  10  24  38  66  90 124 158 212 248 306 358
#     4  11  22  37  59  94 125 167 200 260 302 367
#     4  11  23  40  61  93 129 158 203 255 324 355
#     4  11  22  38  62  89 127 162 215 244 303 369
#     4  10  21  41  62  92 119 165 208 258 299 373
#     4  11  22  40  63  95 124 165 200 256 310 374
#     4  11  19  39  65  93 115 163 209 260 285 373
#     4  10  20  38  67  84 120 165 216 245 299 368
#
# _framework density 23.310490000000001
#
# number of rings (size 3 to 8) (size 9 to 14) (size 15 to 20)
#    0.000    1.333    4.000    2.000    0.000    2.133 
#    4.800    0.000    0.000    3.200    0.000    0.000 
#    0.000    0.000    0.000    0.000    0.000    0.000 
#
# Total GULP energy -83511.837951 kJ/mol
# GULP energy per Si atom -5567.455863 kJ/mol
# Density = 2.325743 g / cm^3
# Si number density = 23.310490 Si / 1000 Ang^3
#
#
#
# Elastic Constant Matrix: (Units=GPa)
#
#
# Indices 1 2 3 4 5 6 
#
# 1 56.8680 33.8471 34.4125 -6.6921 -10.3043 -16.8905
# 2 33.8471 90.6705 37.3836 4.2870 2.1492 -25.3134
# 3 34.4125 37.3836 120.1736 1.0887 -16.5868 5.9692
# 4 -6.6921 4.2870 1.0887 31.0932 -5.7752 0.9608
# 5 -10.3043 2.1492 -16.5868 -5.7752 40.0653 7.2136
# 6 -16.8905 -25.3134 5.9692 0.9608 7.2136 37.7885
#
#
#
# Elastic Compliance Matrix: (Units=1/GPa)
#
#
# Indices 1 2 3 4 5 6 
#
# 1 0.029783 -0.006597 -0.006291 0.008203 0.005022 0.008720
# 2 -0.006597 0.020306 -0.006236 -0.006024 -0.008656 0.013444
# 3 -0.006291 -0.006236 0.013426 0.000507 0.006204 -0.010307
# 4 0.008203 -0.006024 0.000507 0.036397 0.008426 -0.002983
# 5 0.005022 -0.008656 0.006204 0.008426 0.032469 -0.010946
# 6 0.008720 0.013444 -0.010307 -0.002983 -0.010946 0.043160
#
#
# Mechanical properties :
#
#
# Convention : Reuss Voigt Hill
#
# Bulk Modulus (GPa) = 39.57510 53.22205 46.39858
# Shear Modulus (GPa) = 22.50127 32.59399 27.54763
#
# Velocity S-wave (km/s) = 3.11027 3.74338 3.44142
# Velocity P-wave (km/s) = 5.46925 6.44711 5.97821
#
# Compressibility (1/GPa) = 0.02526841
#
# Stress axis : x y z
#
# Youngs Moduli (GPa) = 33.57672 49.24667 74.48168
#
# Poissons Ratio (x) = 0.32486 0.46854
# Poissons Ratio (y) = 0.22149 0.46445
# Poissons Ratio (z) = 0.21122 0.30709
#
# Static dielectric constant tensor:
#      x y z
#    x 1.010850 -0.267700 -0.190610 
#    y -0.267700 1.894120 -0.017070 
#    z -0.190610 -0.017070 1.821960 
# 
# From -- ./inp_files/260875.got.cif
#   From: 2010.05.17/outbox.cif.g08.bks.cpg/sg2_131_cif.got.tgz:260875.got - 2010.06.03 11:33:40.
