data_PCOD9103087
_publ_section_title
;
Structure prediction by ZEFSAII (Michael W. Deem and Ramdas Pophale) SiO2 
 PCOD9103087
Probable space group: P -1
;
_chemical_formula_sum "Si O2"
_cell_formula_units_Z 16
_cell_length_a 8.781116
_cell_length_b 14.053618
_cell_length_c 9.255638
_cell_angle_alpha 71.689411
_cell_angle_beta 100.918938
_cell_angle_gamma 136.744818
_cell_volume 741.701689
_symmetry_space_group_name_H-M "P -1"
_symmetry_group_IT_number 2
_symmetry_cell_setting 'triclinic'
loop_
_space_group_symop_operation_xyz
x,y,z
-x,-y,-z
loop_
_atom_site_type_symbol
_atom_site_label
_atom_site_fract_x
_atom_site_fract_y
_atom_site_fract_z
Si Si1 0.739852 0.385542 0.536731
Si Si2 0.956424 0.850090 0.225026
Si Si3 0.853791 0.531514 0.958251
Si Si4 0.110850 0.136031 0.131571
Si Si5 0.775587 0.142628 0.127856
Si Si6 0.525603 0.414610 0.712087
Si Si7 0.553810 0.410548 0.235480
Si Si8 0.690854 0.145876 0.773274
O O1 0.689430 0.458041 0.593919
O O2 0.616602 0.349188 0.381632
O O3 0.671618 0.250513 0.666362
O O4 0.000000 0.500000 0.500000
O O5 0.716867 0.734746 0.310563
O O6 0.100875 0.816598 0.275940
O O7 0.892660 0.840741 0.050222
O O8 0.098597 0.012441 0.216506
O O9 0.752130 0.514818 0.103849
O O10 0.642159 0.418378 0.870628
O O11 0.000000 0.500000 0.000000
O O12 0.026991 0.695718 0.855174
O O13 0.327507 0.283773 0.170671
O O14 0.885284 0.083746 0.170723
O O15 0.536361 0.021457 0.216409
O O16 0.729638 0.159567 0.947327
O O17 0.486592 0.509268 0.714567
#
# Coordination Sequence:
#
# PCOD9103087 Si02
#       8
#     2   2   2   2   2   2   2   2
#     4  12  26  46  67  99 143 184 224 277 353 418
#     4  10  21  38  69  98 133 175 233 276 339 393
#     4  12  24  38  70 104 134 171 229 290 335 390
#     4  10  20  38  65 101 134 174 221 290 334 397
#     4  10  20  39  63  96 133 170 229 282 331 390
#     4  12  23  43  69  99 130 185 235 275 337 403
#     4  12  24  43  68 103 142 176 230 282 341 410
#     4  10  22  40  65  95 136 182 220 279 342 404
#
# _framework density 21.572016000000001
#
# number of rings (size 3 to 8) (size 9 to 14) (size 15 to 20)
#    0.000    1.000    2.500    6.000    1.750    2.000 
#    0.000    3.125    0.000    0.000    0.000    0.000 
#    0.000    0.000    0.000    0.000    0.000    0.000 
#
# Total GULP energy -89414.481363 kJ/mol
# GULP energy per Si atom -5588.405085 kJ/mol
# Density = 2.152292 g / cm^3
# Si number density = 21.572016 Si / 1000 Ang^3
#
#
#
# Elastic Constant Matrix: (Units=GPa)
#
#
# Indices 1 2 3 4 5 6 
#
# 1 126.4392 31.2385 36.8733 -8.9702 -5.9644 18.1366
# 2 31.2385 85.1477 14.3372 -16.4009 -9.3657 9.5361
# 3 36.8733 14.3372 50.6952 -3.2752 4.0228 5.4193
# 4 -8.9702 -16.4009 -3.2752 13.7787 3.1983 -1.7718
# 5 -5.9644 -9.3657 4.0228 3.1983 39.4451 -4.1949
# 6 18.1366 9.5361 5.4193 -1.7718 -4.1949 35.7942
#
#
#
# Elastic Compliance Matrix: (Units=1/GPa)
#
#
# Indices 1 2 3 4 5 6 
#
# 1 0.011265 -0.001832 -0.007205 0.002626 0.001382 -0.003837
# 2 -0.001832 0.016586 -0.002207 0.017236 0.002272 -0.002037
# 3 -0.007205 -0.002207 0.025938 -0.000188 -0.004265 -0.000197
# 4 0.002626 0.017236 -0.000188 0.095342 -0.003389 -0.001572
# 5 0.001382 0.002272 -0.004265 -0.003389 0.027059 0.002343
# 6 -0.003837 -0.002037 -0.000197 -0.001572 0.002343 0.030651
#
#
# Mechanical properties :
#
#
# Convention : Reuss Voigt Hill
#
# Bulk Modulus (GPa) = 31.94890 47.46444 39.70667
# Shear Modulus (GPa) = 20.85401 29.79248 25.32324
#
# Velocity S-wave (km/s) = 3.11258 3.72031 3.42993
# Velocity P-wave (km/s) = 5.26878 6.36434 5.84230
#
# Compressibility (1/GPa) = 0.03129998
#
# Stress axis : x y z
#
# Youngs Moduli (GPa) = 88.77350 60.29172 38.55347
#
# Poissons Ratio (x) = 0.11045 0.27778
# Poissons Ratio (y) = 0.16263 0.08510
# Poissons Ratio (z) = 0.63962 0.13308
#
# Static dielectric constant tensor:
#      x y z
#    x 1.780950 -0.012450 -0.009550 
#    y -0.012450 1.786650 -0.012060 
#    z -0.009550 -0.012060 1.800340 
# 
# From -- ./inp_files/206467.got.cif
#   From: 2010.05.17/outbox.cif.g08.bks.cpg/sg2_104_cif.got.tgz:206467.got - 2010.06.03 11:33:40.
