data_PCOD9103614
_publ_section_title
;
Structure prediction by ZEFSAII (Michael W. Deem and Ramdas Pophale) SiO2 
 PCOD9103614
Probable space group: P -1
;
_chemical_formula_sum "Si O2"
_cell_formula_units_Z 13
_cell_length_a 8.763221
_cell_length_b 11.222903
_cell_length_c 11.840480
_cell_angle_alpha 144.736292
_cell_angle_beta 116.171033
_cell_angle_gamma 51.768172
_cell_volume 522.784776
_symmetry_space_group_name_H-M "P -1"
_symmetry_group_IT_number 2
_symmetry_cell_setting 'triclinic'
loop_
_space_group_symop_operation_xyz
x,y,z
-x,-y,-z
loop_
_atom_site_type_symbol
_atom_site_label
_atom_site_fract_x
_atom_site_fract_y
_atom_site_fract_z
Si Si1 0.297423 0.700557 0.647216
Si Si2 0.724394 0.689132 0.547042
Si Si3 0.947036 0.391510 0.792963
Si Si4 0.257543 0.873783 0.016477
Si Si5 0.264734 0.871739 0.534480
Si Si6 0.887322 0.425833 0.169852
Si Si7 0.500000 0.500000 0.000000
O O1 0.500000 0.500000 0.500000
O O2 0.197000 0.550351 0.539059
O O3 0.320959 0.805672 0.854251
O O4 0.200353 0.884824 0.655524
O O5 0.489763 0.799971 0.547082
O O6 0.803936 0.613178 0.389092
O O7 0.770234 0.875538 0.763154
O O8 0.773045 0.329393 0.689485
O O9 0.934448 0.564416 0.822253
O O10 0.131115 0.124305 0.627889
O O11 0.000000 0.500000 0.000000
O O12 0.085234 0.819776 0.960152
O O13 0.428585 0.682248 0.007688
O O14 0.708901 0.502773 0.082915
#
# Coordination Sequence:
#
# PCOD9103614 Si02
#       7
#     2   2   2   2   2   2   1
#     4   9  20  38  58  92 127 154 202 251 302 366
#     4  10  20  38  67  90 120 155 201 263 302 351
#     4  11  25  41  59  86 127 167 200 244 307 370
#     4   9  19  34  57  92 117 153 195 248 304 347
#     4  10  24  39  59  90 122 162 202 246 304 365
#     4   9  21  37  58  93 116 153 206 256 297 356
#     4   8  18  32  56  86 116 138 200 250 284 340
#
# _framework density 24.866828999999999
#
# number of rings (size 3 to 8) (size 9 to 14) (size 15 to 20)
#    0.923    1.538    0.000    0.923    2.154   11.077 
#    0.000    3.077    0.000    5.538    0.000    0.000 
#    0.000    0.000    0.000    0.000    0.000    0.000 
#
# Total GULP energy -72402.924149 kJ/mol
# GULP energy per Si atom -5569.455704 kJ/mol
# Density = 2.481023 g / cm^3
# Si number density = 24.866829 Si / 1000 Ang^3
#
#
#
# Elastic Constant Matrix: (Units=GPa)
#
#
# Indices 1 2 3 4 5 6 
#
# 1 101.3080 15.6040 59.9025 6.5804 28.1804 -5.9397
# 2 15.6040 83.5046 26.5565 -3.8699 1.9188 15.1139
# 3 59.9025 26.5565 163.6056 -4.0326 32.1744 24.7989
# 4 6.5804 -3.8699 -4.0326 35.1072 5.2133 4.7158
# 5 28.1804 1.9188 32.1744 5.2133 45.0385 -6.3504
# 6 -5.9397 15.1139 24.7989 4.7158 -6.3504 46.8408
#
#
#
# Elastic Compliance Matrix: (Units=1/GPa)
#
#
# Indices 1 2 3 4 5 6 
#
# 1 0.015021 -0.002162 -0.005120 -0.003653 -0.004511 0.005069
# 2 -0.002162 0.013518 -0.000761 0.002337 0.000428 -0.004410
# 3 -0.005120 -0.000761 0.010378 0.003849 -0.005617 -0.007047
# 4 -0.003653 0.002337 0.003849 0.031605 -0.005229 -0.007146
# 5 -0.004511 0.000428 -0.005617 -0.005229 0.030604 0.006939
# 6 0.005069 -0.004410 -0.007047 -0.007146 0.006939 0.028806
#
#
# Mechanical properties :
#
#
# Convention : Reuss Voigt Hill
#
# Bulk Modulus (GPa) = 43.79857 61.39377 52.59617
# Shear Modulus (GPa) = 32.54643 41.82099 37.18371
#
# Velocity S-wave (km/s) = 3.62170 4.10542 3.87112
# Velocity P-wave (km/s) = 5.92794 6.87134 6.41700
#
# Compressibility (1/GPa) = 0.02283180
#
# Stress axis : x y z
#
# Youngs Moduli (GPa) = 66.57565 73.97546 96.35703
#
# Poissons Ratio (x) = 0.15991 0.49335
# Poissons Ratio (y) = 0.14391 0.07331
# Poissons Ratio (z) = 0.34087 0.05628
#
# Static dielectric constant tensor:
#      x y z
#    x 2.042750 -0.040600 0.015160 
#    y -0.040600 2.019400 -0.021300 
#    z 0.015160 -0.021300 1.950980 
# 
# From -- ./inp_files/386329.got.cif
#   From: 2010.05.17/outbox.cif.g08.bks.cpg/sg2_194_cif.got.tgz:386329.got - 2010.06.03 11:33:40.
