data_PCOD9103133
_publ_section_title
;
Structure prediction by ZEFSAII (Michael W. Deem and Ramdas Pophale) SiO2 
 PCOD9103133
Probable space group: P -1
;
_chemical_formula_sum "Si O2"
_cell_formula_units_Z 15
_cell_length_a 20.125885
_cell_length_b 7.059015
_cell_length_c 6.911200
_cell_angle_alpha 87.026632
_cell_angle_beta 56.929684
_cell_angle_gamma 125.162266
_cell_volume 568.551602
_symmetry_space_group_name_H-M "P -1"
_symmetry_group_IT_number 2
_symmetry_cell_setting 'triclinic'
loop_
_space_group_symop_operation_xyz
x,y,z
-x,-y,-z
loop_
_atom_site_type_symbol
_atom_site_label
_atom_site_fract_x
_atom_site_fract_y
_atom_site_fract_z
Si Si1 0.500000 0.500000 0.000000
Si Si2 0.101578 0.558753 0.742848
Si Si3 0.978620 0.170621 0.614316
Si Si4 0.698607 0.065000 0.835903
Si Si5 0.362610 0.667632 0.331701
Si Si6 0.485642 0.748981 0.767110
Si Si7 0.733861 0.655620 0.127472
Si Si8 0.820524 0.392146 0.970966
O O1 0.571069 0.727655 0.677457
O O2 0.590417 0.753446 0.992097
O O3 0.189355 0.822476 0.453960
O O4 0.044719 0.303885 0.707145
O O5 0.172252 0.611566 0.812616
O O6 0.000000 0.500000 0.000000
O O7 0.054324 0.427006 0.331118
O O8 0.000000 0.000000 0.500000
O O9 0.844252 0.975292 0.881074
O O10 0.682465 0.246722 0.749456
O O11 0.723609 0.118913 0.019770
O O12 0.282779 0.410392 0.613637
O O13 0.451043 0.939125 0.317657
O O14 0.422548 0.619152 0.091847
O O15 0.390485 0.551194 0.768135
O O16 0.782131 0.538976 0.981022
#
# Coordination Sequence:
#
# PCOD9103133 Si02
#       8
#     1   2   2   2   2   2   2   2
#     4  10  24  42  62  90 134 164 204 270 326 392
#     4  11  24  41  65  93 132 176 215 264 334 394
#     4   9  23  39  61  97 127 164 216 274 317 373
#     4  10  21  43  64  91 129 174 213 262 328 388
#     4  10  20  38  65  89 121 163 214 259 315 380
#     4  10  22  39  60  92 122 161 207 265 322 376
#     4  11  20  36  66  92 117 164 218 262 308 383
#     4  10  21  40  63  89 128 167 213 268 320 385
#
# _framework density 26.382828
#
# number of rings (size 3 to 8) (size 9 to 14) (size 15 to 20)
#    0.000    1.867    2.667    0.400    0.000    8.533 
#    0.000    1.333    0.000    0.000    0.000    0.000 
#    0.000    0.000    0.000    0.000    0.000    0.000 
#
# Total GULP energy -83588.819317 kJ/mol
# GULP energy per Si atom -5572.587954 kJ/mol
# Density = 2.632278 g / cm^3
# Si number density = 26.382828 Si / 1000 Ang^3
#
#
#
# Elastic Constant Matrix: (Units=GPa)
#
#
# Indices 1 2 3 4 5 6 
#
# 1 94.2785 32.5275 11.4400 7.1654 16.5733 5.4814
# 2 32.5275 172.3299 42.3262 18.2484 23.5870 29.8172
# 3 11.4400 42.3262 102.3758 7.2552 19.0553 1.3914
# 4 7.1654 18.2484 7.2552 34.8129 4.6660 6.2858
# 5 16.5733 23.5870 19.0553 4.6660 39.0305 13.1120
# 6 5.4814 29.8172 1.3914 6.2858 13.1120 37.3155
#
#
#
# Elastic Compliance Matrix: (Units=1/GPa)
#
#
# Indices 1 2 3 4 5 6 
#
# 1 0.012005 -0.001861 0.000331 -0.001233 -0.004490 0.001497
# 2 -0.001861 0.008116 -0.002798 -0.002208 -0.000632 -0.005513
# 3 0.000331 -0.002798 0.011921 -0.001049 -0.005430 0.003828
# 4 -0.001233 -0.002208 -0.001049 0.030958 -0.000279 -0.003133
# 5 -0.004490 -0.000632 -0.005430 -0.000279 0.034150 -0.010586
# 6 0.001497 -0.005513 0.003828 -0.003133 -0.010586 0.035089
#
#
# Mechanical properties :
#
#
# Convention : Reuss Voigt Hill
#
# Bulk Modulus (GPa) = 42.76469 60.17461 51.46965
# Shear Modulus (GPa) = 33.62725 41.07783 37.35254
#
# Velocity S-wave (km/s) = 3.57401 3.95015 3.76678
# Velocity P-wave (km/s) = 5.76853 6.60778 6.20236
#
# Compressibility (1/GPa) = 0.02338378
#
# Stress axis : x y z
#
# Youngs Moduli (GPa) = 83.30038 123.21996 83.88649
#
# Poissons Ratio (x) = 0.22931 -0.02774
# Poissons Ratio (y) = 0.15502 0.23474
# Poissons Ratio (z) = -0.02754 0.34481
#
# Static dielectric constant tensor:
#      x y z
#    x 3.537700 -0.544680 -0.022170 
#    y -0.544680 2.264260 -0.028130 
#    z -0.022170 -0.028130 2.109910 
# 
# From -- ./inp_files/119233.got.cif
#   From: 2010.05.17/outbox.cif.g08.bks.cpg/sg2_60_cif.got.tgz:119233.got - 2010.06.03 11:33:40.
