data_PCOD9103854
_publ_section_title
;
Structure prediction by ZEFSAII (Michael W. Deem and Ramdas Pophale) SiO2 
 PCOD9103854
Probable space group: P -1
;
_chemical_formula_sum "Si O2"
_cell_formula_units_Z 14
_cell_length_a 18.885996
_cell_length_b 5.671986
_cell_length_c 9.514460
_cell_angle_alpha 117.715280
_cell_angle_beta 135.030280
_cell_angle_gamma 57.739039
_cell_volume 602.550722
_symmetry_space_group_name_H-M "P -1"
_symmetry_group_IT_number 2
_symmetry_cell_setting 'triclinic'
loop_
_space_group_symop_operation_xyz
x,y,z
-x,-y,-z
loop_
_atom_site_type_symbol
_atom_site_label
_atom_site_fract_x
_atom_site_fract_y
_atom_site_fract_z
Si Si1 0.421696 0.818754 0.982581
Si Si2 0.808756 0.081575 0.270436
Si Si3 0.264454 0.646847 0.269397
Si Si4 0.787630 0.544999 0.590136
Si Si5 0.600363 0.049073 0.341608
Si Si6 0.874547 0.410845 0.203990
Si Si7 0.068883 0.157765 0.219051
O O1 0.314911 0.849026 0.923802
O O2 0.392389 0.898954 0.800485
O O3 0.500000 0.500000 0.000000
O O4 0.485807 0.013228 0.188933
O O5 0.809824 0.251560 0.460702
O O6 0.862749 0.227908 0.271166
O O7 0.850446 0.747838 0.267090
O O8 0.254387 0.411065 0.297155
O O9 0.373357 0.712883 0.461986
O O10 0.182514 0.918304 0.308421
O O11 0.212159 0.626020 0.041737
O O12 0.689896 0.754476 0.423620
O O13 0.898984 0.603463 0.751756
O O14 0.994834 0.287173 0.281757
O O15 0.000000 0.000000 0.000000
#
# Coordination Sequence:
#
# PCOD9103854 Si02
#       7
#     2   2   2   2   2   2   2
#     4  11  21  39  70  96 128 174 225 275 330 403
#     4  12  26  44  64 105 136 175 213 288 344 385
#     4  10  22  43  70  95 126 187 226 269 315 416
#     4  11  22  40  73  95 130 173 240 266 321 404
#     4  10  20  38  69 100 123 166 239 274 313 389
#     4  11  28  44  65  97 150 170 217 281 349 377
#     4   9  23  42  67  95 130 184 228 265 322 404
#
# _framework density 23.234559999999998
#
# number of rings (size 3 to 8) (size 9 to 14) (size 15 to 20)
#    0.000    1.429    2.857    0.857   12.000    2.286 
#    0.000    1.429    0.000    0.000    0.000    0.000 
#    0.000    0.000    0.000    0.000    0.000    0.000 
#
# Total GULP energy -78090.401265 kJ/mol
# GULP energy per Si atom -5577.885805 kJ/mol
# Density = 2.318168 g / cm^3
# Si number density = 23.234560 Si / 1000 Ang^3
#
#
#
# Elastic Constant Matrix: (Units=GPa)
#
#
# Indices 1 2 3 4 5 6 
#
# 1 66.1375 21.8534 7.1802 18.5710 20.3529 19.3017
# 2 21.8534 76.6044 9.3237 7.8772 0.7783 2.7407
# 3 7.1802 9.3237 116.9914 16.5499 10.6475 23.3491
# 4 18.5710 7.8772 16.5499 26.6110 8.5371 9.8155
# 5 20.3529 0.7783 10.6475 8.5371 39.7612 0.6311
# 6 19.3017 2.7407 23.3491 9.8155 0.6311 29.8144
#
#
#
# Elastic Compliance Matrix: (Units=1/GPa)
#
#
# Indices 1 2 3 4 5 6 
#
# 1 0.029668 -0.007218 0.005275 -0.010387 -0.013926 -0.018960
# 2 -0.007218 0.015281 -0.001984 -0.001521 0.004170 0.005234
# 3 0.005275 -0.001984 0.011611 -0.004949 -0.004540 -0.010601
# 4 -0.010387 -0.001521 -0.004949 0.052103 -0.004415 -0.006320
# 5 -0.013926 0.004170 -0.004540 -0.004415 0.034156 0.012918
# 6 -0.018960 0.005234 -0.010601 -0.006320 0.012918 0.055443
#
#
# Mechanical properties :
#
#
# Convention : Reuss Voigt Hill
#
# Bulk Modulus (GPa) = 20.53062 37.38311 28.95687
# Shear Modulus (GPa) = 22.48706 33.99572 28.24139
#
# Velocity S-wave (km/s) = 3.11437 3.82927 3.49017
# Velocity P-wave (km/s) = 4.66774 5.97289 5.36019
#
# Compressibility (1/GPa) = 0.04870773
#
# Stress axis : x y z
#
# Youngs Moduli (GPa) = 33.70648 65.43921 86.12626
#
# Poissons Ratio (x) = 0.47232 -0.45434
# Poissons Ratio (y) = 0.24328 0.17086
# Poissons Ratio (z) = -0.17781 0.12982
#
# Static dielectric constant tensor:
#      x y z
#    x 1.321970 -0.098160 -0.276140 
#    y -0.098160 2.010810 -0.085270 
#    z -0.276140 -0.085270 1.730670 
# 
# From -- ./inp_files/36144.got.cif
#   From: 2010.05.17/outbox.cif.g08.bks.cpg/sg2_19_cif.got.tgz:36144.got - 2010.06.03 11:33:40.
