data_PCOD9103487
_publ_section_title
;
Structure prediction by ZEFSAII (Michael W. Deem and Ramdas Pophale) SiO2 
 PCOD9103487
Probable space group: P -1
;
_chemical_formula_sum "Si O2"
_cell_formula_units_Z 14
_cell_length_a 11.999892
_cell_length_b 8.654545
_cell_length_c 9.637139
_cell_angle_alpha 81.688197
_cell_angle_beta 75.628163
_cell_angle_gamma 47.344943
_cell_volume 712.645294
_symmetry_space_group_name_H-M "P -1"
_symmetry_group_IT_number 2
_symmetry_cell_setting 'triclinic'
loop_
_space_group_symop_operation_xyz
x,y,z
-x,-y,-z
loop_
_atom_site_type_symbol
_atom_site_label
_atom_site_fract_x
_atom_site_fract_y
_atom_site_fract_z
Si Si1 0.643095 0.110298 0.808072
Si Si2 0.540030 0.902452 0.350088
Si Si3 0.046511 0.797433 0.091036
Si Si4 0.282346 0.007867 0.897757
Si Si5 0.667744 0.396637 0.138919
Si Si6 0.121880 0.846123 0.362717
Si Si7 0.657102 0.457905 0.435669
O O1 0.601964 0.028011 0.709533
O O2 0.496567 0.363730 0.836301
O O3 0.792257 0.077530 0.729410
O O4 0.675500 0.994953 0.956633
O O5 0.632543 0.659411 0.379866
O O6 0.500000 0.000000 0.500000
O O7 0.631690 0.951356 0.233794
O O8 0.062455 0.811104 0.248989
O O9 0.213929 0.614716 0.993818
O O10 0.901610 0.819626 0.097695
O O11 0.000000 0.000000 0.000000
O O12 0.339254 0.775947 0.888147
O O13 0.730688 0.325820 0.287191
O O14 0.250125 0.637490 0.438637
O O15 0.000000 0.000000 0.500000
O O16 0.500000 0.500000 0.500000
#
# Coordination Sequence:
#
# PCOD9103487 Si02
#       7
#     2   2   2   2   2   2   2
#     4  11  23  40  65  97 119 170 214 258 311 370
#     4  11  25  40  64  91 131 167 207 263 317 370
#     4  10  21  37  61  96 122 163 199 260 315 367
#     4  11  22  40  63  94 131 159 209 257 322 373
#     4  10  20  38  66  94 124 159 218 257 304 374
#     4  12  23  38  67  95 128 158 219 262 308 370
#     4  11  22  41  64  93 123 165 218 257 310 376
#
# _framework density 19.645118
#
# number of rings (size 3 to 8) (size 9 to 14) (size 15 to 20)
#    0.000    1.143    5.714    3.429    2.000    0.000 
#    0.000    3.571    3.143    0.000    0.000    0.000 
#    0.000    0.000    0.000    0.000    0.000    0.000 
#
# Total GULP energy -78123.271005 kJ/mol
# GULP energy per Si atom -5580.233643 kJ/mol
# Density = 1.960040 g / cm^3
# Si number density = 19.645118 Si / 1000 Ang^3
#
#
#
# Elastic Constant Matrix: (Units=GPa)
#
#
# Indices 1 2 3 4 5 6 
#
# 1 78.9631 26.2001 40.7794 -9.1028 6.3524 -2.5363
# 2 26.2001 28.3683 27.6938 0.1850 -0.0524 -7.9909
# 3 40.7794 27.6938 161.3799 -13.2773 14.5839 -8.3732
# 4 -9.1028 0.1850 -13.2773 37.2187 -5.8429 1.6284
# 5 6.3524 -0.0524 14.5839 -5.8429 55.7423 -2.2163
# 6 -2.5363 -7.9909 -8.3732 1.6284 -2.2163 22.9790
#
#
#
# Elastic Compliance Matrix: (Units=1/GPa)
#
#
# Indices 1 2 3 4 5 6 
#
# 1 0.020127 -0.018464 -0.001684 0.004390 -0.001620 -0.005280
# 2 -0.018464 0.063724 -0.006239 -0.007285 0.003777 0.018729
# 3 -0.001684 -0.006239 0.008039 0.002213 -0.001675 0.000256
# 4 0.004390 -0.007285 0.002213 0.029195 0.001850 -0.003133
# 5 -0.001620 0.003777 -0.001675 0.001850 0.018848 0.002211
# 6 -0.005280 0.018729 0.000256 -0.003133 0.002211 0.049976
#
#
# Mechanical properties :
#
#
# Convention : Reuss Voigt Hill
#
# Bulk Modulus (GPa) = 25.56400 50.89532 38.22966
# Shear Modulus (GPa) = 19.55256 34.79053 27.17155
#
# Velocity S-wave (km/s) = 3.15824 4.21283 3.72307
# Velocity P-wave (km/s) = 5.13230 7.04468 6.16312
#
# Compressibility (1/GPa) = 0.03911751
#
# Stress axis : x y z
#
# Youngs Moduli (GPa) = 49.68479 15.69276 124.38844
#
# Poissons Ratio (x) = 0.28975 0.20944
# Poissons Ratio (y) = 0.91737 0.77601
# Poissons Ratio (z) = 0.08366 0.09790
#
# Static dielectric constant tensor:
#      x y z
#    x 2.452370 0.662730 0.682860 
#    y 0.662730 2.412560 0.660350 
#    z 0.682860 0.660350 2.308060 
# 
# From -- ./inp_files/153857.got.cif
#   From: 2010.05.17/outbox.cif.g08.bks.cpg/sg2_77_cif.got.tgz:153857.got - 2010.06.03 11:33:40.
