data_PCOD9103256
_publ_section_title
;
Structure prediction by ZEFSAII (Michael W. Deem and Ramdas Pophale) SiO2 
 PCOD9103256
Probable space group: P -1
;
_chemical_formula_sum "Si O2"
_cell_formula_units_Z 16
_cell_length_a 17.786809
_cell_length_b 8.953103
_cell_length_c 10.567377
_cell_angle_alpha 64.992461
_cell_angle_beta 152.759818
_cell_angle_gamma 114.707783
_cell_volume 694.443631
_symmetry_space_group_name_H-M "P -1"
_symmetry_group_IT_number 2
_symmetry_cell_setting 'triclinic'
loop_
_space_group_symop_operation_xyz
x,y,z
-x,-y,-z
loop_
_atom_site_type_symbol
_atom_site_label
_atom_site_fract_x
_atom_site_fract_y
_atom_site_fract_z
Si Si1 0.787959 0.438281 0.779862
Si Si2 0.573422 0.206050 0.927830
Si Si3 0.446215 0.300297 0.978829
Si Si4 0.592971 0.141615 0.501326
Si Si5 0.150817 0.050812 0.611425
Si Si6 0.326855 0.473283 0.174406
Si Si7 0.925494 0.768162 0.805949
Si Si8 0.262584 0.134089 0.290050
O O1 0.632672 0.304822 0.583452
O O2 0.808984 0.475175 0.946071
O O3 0.775987 0.612936 0.630809
O O4 0.926093 0.339962 0.959254
O O5 0.652333 0.393793 0.951347
O O6 0.421912 0.157016 0.618346
O O7 0.510530 0.217043 0.974802
O O8 0.715338 0.084019 0.154020
O O9 0.519679 0.209225 0.240504
O O10 0.500000 0.500000 0.000000
O O11 0.253158 0.229867 0.729728
O O12 0.500000 0.000000 0.500000
O O13 0.744844 0.044994 0.716483
O O14 0.080952 0.088094 0.355746
O O15 0.000000 0.000000 0.500000
O O16 0.500000 0.500000 0.500000
O O17 0.285022 0.277839 0.166394
O O18 0.893807 0.835309 0.872031
#
# Coordination Sequence:
#
# PCOD9103256 Si02
#       8
#     2   2   2   2   2   2   2   2
#     4  10  22  40  62  96 129 167 215 273 327 391
#     4  11  21  43  65  96 132 174 232 266 328 411
#     4  12  27  43  69 101 136 179 219 280 344 392
#     4  12  25  38  63  94 134 162 219 276 324 385
#     4  12  24  41  70  98 133 175 226 273 333 402
#     4   9  19  34  64  89 123 166 218 265 316 386
#     4  10  21  40  65  89 127 174 218 262 331 395
#     4  10  20  38  65  94 126 174 220 267 328 390
#
# _framework density 23.040025
#
# number of rings (size 3 to 8) (size 9 to 14) (size 15 to 20)
#    0.000    1.250    2.500    4.125    7.000    0.500 
#    0.000    0.625    0.000    0.000    0.000    0.000 
#    0.000    0.000    0.000    0.000    0.000    0.000 
#
# Total GULP energy -89221.376377 kJ/mol
# GULP energy per Si atom -5576.336024 kJ/mol
# Density = 2.298759 g / cm^3
# Si number density = 23.040025 Si / 1000 Ang^3
#
#
#
# Elastic Constant Matrix: (Units=GPa)
#
#
# Indices 1 2 3 4 5 6 
#
# 1 118.4511 60.6301 24.8418 -9.7026 27.3186 22.4220
# 2 60.6301 135.4456 29.3360 0.5516 -5.5059 18.7396
# 3 24.8418 29.3360 45.8746 -17.8831 16.0800 4.1591
# 4 -9.7026 0.5516 -17.8831 31.8864 1.7033 -2.4425
# 5 27.3186 -5.5059 16.0800 1.7033 39.3017 -9.4590
# 6 22.4220 18.7396 4.1591 -2.4425 -9.4590 52.1883
#
#
#
# Elastic Compliance Matrix: (Units=1/GPa)
#
#
# Indices 1 2 3 4 5 6 
#
# 1 0.019170 -0.010148 0.008558 0.011267 -0.020786 -0.008514
# 2 -0.010148 0.015727 -0.015694 -0.012876 0.016816 0.002408
# 3 0.008558 -0.015694 0.052215 0.033397 -0.032531 -0.006536
# 4 0.011267 -0.012876 0.033397 0.054783 -0.026924 -0.005195
# 5 -0.020786 0.016816 -0.032531 -0.026924 0.060375 0.015168
# 6 -0.008514 0.002408 -0.006536 -0.005195 0.015168 0.024982
#
#
# Mechanical properties :
#
#
# Convention : Reuss Voigt Hill
#
# Bulk Modulus (GPa) = 19.03137 58.82078 38.92608
# Shear Modulus (GPa) = 17.89973 37.00616 27.45295
#
# Velocity S-wave (km/s) = 2.79031 4.01205 3.45560
# Velocity P-wave (km/s) = 4.31963 6.85910 5.73178
#
# Compressibility (1/GPa) = 0.05254482
#
# Stress axis : x y z
#
# Youngs Moduli (GPa) = 52.16476 63.58330 19.15172
#
# Poissons Ratio (x) = 0.64521 -0.16390
# Poissons Ratio (y) = 0.52934 0.30057
# Poissons Ratio (z) = -0.44643 0.99788
#
# Static dielectric constant tensor:
#      x y z
#    x 1.995350 0.000240 -0.045830 
#    y 0.000240 1.938270 0.162870 
#    z -0.045830 0.162870 2.211990 
# 
# From -- ./inp_files/461131.got.cif
#   From: 2010.05.17/outbox.cif.g08.bks.cpg/sg2_231_cif.got.tgz:461131.got - 2010.06.03 11:33:40.
