data_PCOD9103511
_publ_section_title
;
Structure prediction by ZEFSAII (Michael W. Deem and Ramdas Pophale) SiO2 
 PCOD9103511
Probable space group: P -1
;
_chemical_formula_sum "Si O2"
_cell_formula_units_Z 14
_cell_length_a 8.850249
_cell_length_b 8.127263
_cell_length_c 9.966160
_cell_angle_alpha 121.939605
_cell_angle_beta 112.629238
_cell_angle_gamma 61.197104
_cell_volume 524.868082
_symmetry_space_group_name_H-M "P -1"
_symmetry_group_IT_number 2
_symmetry_cell_setting 'triclinic'
loop_
_space_group_symop_operation_xyz
x,y,z
-x,-y,-z
loop_
_atom_site_type_symbol
_atom_site_label
_atom_site_fract_x
_atom_site_fract_y
_atom_site_fract_z
Si Si1 0.519093 0.385874 0.166877
Si Si2 0.277239 0.807124 0.575772
Si Si3 0.574070 0.179882 0.635777
Si Si4 0.871881 0.795827 0.649432
Si Si5 0.166881 0.348086 0.132451
Si Si6 0.154491 0.924205 0.913056
Si Si7 0.925173 0.722369 0.342597
O O1 0.620357 0.284777 0.295060
O O2 0.521459 0.611407 0.226697
O O3 0.320586 0.402338 0.135527
O O4 0.649290 0.216059 0.037978
O O5 0.408240 0.729067 0.463520
O O6 0.108395 0.754536 0.451247
O O7 0.210753 0.058506 0.657898
O O8 0.500000 0.000000 0.500000
O O9 0.763097 0.040593 0.696193
O O10 0.798631 0.721109 0.725417
O O11 0.864816 0.685476 0.457176
O O12 0.068298 0.790756 0.736605
O O13 0.982709 0.536883 0.174739
O O14 0.159327 0.145792 0.967825
O O15 0.000000 0.000000 0.000000
#
# Coordination Sequence:
#
# PCOD9103511 Si02
#       7
#     2   2   2   2   2   2   2
#     4  12  23  41  66  91 133 167 208 273 317 368
#     4  10  21  37  63  94 130 158 207 257 320 369
#     4  11  24  38  63 102 131 162 210 265 325 373
#     4  10  22  42  65  93 135 168 210 255 314 384
#     4  11  23  40  67  98 125 170 215 262 313 372
#     4  10  24  44  63  90 127 175 216 254 317 387
#     4  10  20  38  66  95 127 165 210 258 311 377
#
# _framework density 26.673369999999998
#
# number of rings (size 3 to 8) (size 9 to 14) (size 15 to 20)
#    0.000    1.429    2.857    2.143    2.000    4.571 
#    0.000    7.143    0.000    0.000    0.000    0.000 
#    0.000    0.000    0.000    0.000    0.000    0.000 
#
# Total GULP energy -78186.202170 kJ/mol
# GULP energy per Si atom -5584.728726 kJ/mol
# Density = 2.661266 g / cm^3
# Si number density = 26.673370 Si / 1000 Ang^3
#
#
#
# Elastic Constant Matrix: (Units=GPa)
#
#
# Indices 1 2 3 4 5 6 
#
# 1 101.3866 15.0863 35.7032 11.7019 -4.2064 -5.1881
# 2 15.0863 140.0860 37.2497 28.3799 -1.0624 -7.4296
# 3 35.7032 37.2497 83.0750 27.5135 -13.0789 -0.0917
# 4 11.7019 28.3799 27.5135 62.3355 -2.5242 -7.8780
# 5 -4.2064 -1.0624 -13.0789 -2.5242 40.8139 11.7616
# 6 -5.1881 -7.4296 -0.0917 -7.8780 11.7616 31.8409
#
#
#
# Elastic Compliance Matrix: (Units=1/GPa)
#
#
# Indices 1 2 3 4 5 6 
#
# 1 0.011796 0.000239 -0.005490 0.000367 -0.001238 0.002510
# 2 0.000239 0.008582 -0.003462 -0.002227 -0.001596 0.002070
# 3 -0.005490 -0.003462 0.019070 -0.006255 0.006702 -0.005671
# 4 0.000367 -0.002227 -0.006255 0.020338 -0.002327 0.005414
# 5 -0.001238 -0.001596 0.006702 -0.002327 0.029838 -0.012152
# 6 0.002510 0.002070 -0.005671 0.005414 -0.012152 0.038110
#
#
# Mechanical properties :
#
#
# Convention : Reuss Voigt Hill
#
# Bulk Modulus (GPa) = 45.41197 55.62512 50.51855
# Shear Modulus (GPa) = 32.78641 42.76529 37.77585
#
# Velocity S-wave (km/s) = 3.50977 4.00846 3.76738
# Velocity P-wave (km/s) = 5.78678 6.50562 6.15670
#
# Compressibility (1/GPa) = 0.02202062
#
# Stress axis : x y z
#
# Youngs Moduli (GPa) = 84.77576 116.52016 52.43835
#
# Poissons Ratio (x) = -0.02784 0.28791
# Poissons Ratio (y) = -0.02026 0.18155
# Poissons Ratio (z) = 0.46546 0.40342
#
# Static dielectric constant tensor:
#      x y z
#    x 2.159260 0.005150 -0.105740 
#    y 0.005150 2.140690 -0.016710 
#    z -0.105740 -0.016710 2.355840 
# 
# From -- ./inp_files/179977.got.cif
#   From: 2010.05.17/outbox.cif.g08.bks.cpg/sg2_90_cif.got.tgz:179977.got - 2010.06.03 11:33:40.
