data_PCOD9103765
_publ_section_title
;
Structure prediction by ZEFSAII (Michael W. Deem and Ramdas Pophale) SiO2 
 PCOD9103765
Probable space group: P -1
;
_chemical_formula_sum "Si O2"
_cell_formula_units_Z 16
_cell_length_a 15.444935
_cell_length_b 8.203277
_cell_length_c 13.596088
_cell_angle_alpha 38.707055
_cell_angle_beta 135.660456
_cell_angle_gamma 135.584817
_cell_volume 703.171450
_symmetry_space_group_name_H-M "P -1"
_symmetry_group_IT_number 2
_symmetry_cell_setting 'triclinic'
loop_
_space_group_symop_operation_xyz
x,y,z
-x,-y,-z
loop_
_atom_site_type_symbol
_atom_site_label
_atom_site_fract_x
_atom_site_fract_y
_atom_site_fract_z
Si Si1 0.815179 0.810333 0.339535
Si Si2 0.407462 0.339918 0.086226
Si Si3 0.114079 0.077942 0.446181
Si Si4 0.442765 0.669736 0.594386
Si Si5 0.267394 0.874738 0.048845
Si Si6 0.947806 0.357295 0.870633
Si Si7 0.816828 0.793431 0.910453
Si Si8 0.336245 0.330444 0.346441
O O1 0.839537 0.982718 0.380511
O O2 0.712747 0.504654 0.433669
O O3 0.743038 0.932084 0.140865
O O4 0.966584 0.851976 0.408314
O O5 0.492228 0.419392 0.216086
O O6 0.271587 0.376628 0.990553
O O7 0.500000 0.500000 0.000000
O O8 0.351565 0.030577 0.139832
O O9 0.083701 0.364959 0.300409
O O10 0.238145 0.154730 0.435561
O O11 0.508238 0.622036 0.566926
O O12 0.500000 0.000000 0.500000
O O13 0.118355 0.754619 0.026091
O O14 0.322242 0.631326 0.186437
O O15 0.890509 0.106124 0.863286
O O16 0.098298 0.380449 0.980133
O O17 0.730355 0.825890 0.733943
#
# Coordination Sequence:
#
# PCOD9103765 Si02
#       8
#     2   2   2   2   2   2   2   2
#     4  11  23  40  64  93 131 160 203 261 314 358
#     4  10  20  41  60  92 120 160 210 260 308 360
#     4  10  23  41  63  92 129 164 207 255 312 369
#     4  11  26  44  66  89 127 169 207 253 317 377
#     4  10  20  38  68  91 124 157 208 263 305 363
#     4   9  18  36  63  89 119 165 203 253 305 374
#     4   9  18  32  61  91 119 157 207 252 303 363
#     4  10  22  41  65  92 118 168 210 252 307 377
#
# _framework density 22.754052000000001
#
# number of rings (size 3 to 8) (size 9 to 14) (size 15 to 20)
#    0.000    2.000    1.250    1.500    7.000    3.000 
#    2.250    1.875    0.000    0.000    0.000    0.000 
#    0.000    0.000    0.000    0.000    0.000    0.000 
#
# Total GULP energy -89081.462530 kJ/mol
# GULP energy per Si atom -5567.591408 kJ/mol
# Density = 2.270226 g / cm^3
# Si number density = 22.754052 Si / 1000 Ang^3
#
#
#
# Elastic Constant Matrix: (Units=GPa)
#
#
# Indices 1 2 3 4 5 6 
#
# 1 160.3516 34.2829 33.8089 -22.1000 -6.6716 25.7116
# 2 34.2829 87.6423 3.0361 -4.4076 5.8218 22.7185
# 3 33.8089 3.0361 33.8576 -2.4569 -3.1746 9.1261
# 4 -22.1000 -4.4076 -2.4569 26.4983 -2.4468 -6.1755
# 5 -6.6716 5.8218 -3.1746 -2.4468 31.9050 -6.1128
# 6 25.7116 22.7185 9.1261 -6.1755 -6.1128 38.7437
#
#
#
# Elastic Compliance Matrix: (Units=1/GPa)
#
#
# Indices 1 2 3 4 5 6 
#
# 1 0.009949 -0.003024 -0.008601 0.006862 0.002037 -0.001388
# 2 -0.003024 0.014933 0.003403 -0.002190 -0.004847 -0.008665
# 3 -0.008601 0.003403 0.039171 -0.004432 -0.000055 -0.006230
# 4 0.006862 -0.002190 -0.004432 0.044589 0.005927 0.005817
# 5 0.002037 -0.004847 -0.000055 0.005927 0.034618 0.007910
# 6 -0.001388 -0.008665 -0.006230 0.005817 0.007910 0.035455
#
#
# Mechanical properties :
#
#
# Convention : Reuss Voigt Hill
#
# Bulk Modulus (GPa) = 21.00422 47.12303 34.06363
# Shear Modulus (GPa) = 23.69337 33.47761 28.58549
#
# Velocity S-wave (km/s) = 3.23039 3.83989 3.54825
# Velocity P-wave (km/s) = 4.81299 6.35723 5.63823
#
# Compressibility (1/GPa) = 0.04760948
#
# Stress axis : x y z
#
# Youngs Moduli (GPa) = 100.50894 66.96584 25.52905
#
# Poissons Ratio (x) = 0.20252 0.21957
# Poissons Ratio (y) = 0.30396 -0.08688
# Poissons Ratio (z) = 0.86445 -0.22788
#
# Static dielectric constant tensor:
#      x y z
#    x 2.056600 0.246970 0.001420 
#    y 0.246970 2.214830 0.115490 
#    z 0.001420 0.115490 1.933330 
# 
# From -- ./inp_files/528114.got.cif
#   From: 2010.05.17/outbox.cif.g08.bks.cpg/sg2_265_cif.got.tgz:528114.got - 2010.06.03 11:33:40.
