data_PCOD9103671
_publ_section_title
;
Structure prediction by ZEFSAII (Michael W. Deem and Ramdas Pophale) SiO2 
 PCOD9103671
Probable space group: P -1
;
_chemical_formula_sum "Si O2"
_cell_formula_units_Z 16
_cell_length_a 11.383299
_cell_length_b 15.571255
_cell_length_c 15.252334
_cell_angle_alpha 38.160116
_cell_angle_beta 31.513382
_cell_angle_gamma 61.146507
_cell_volume 710.404735
_symmetry_space_group_name_H-M "P -1"
_symmetry_group_IT_number 2
_symmetry_cell_setting 'triclinic'
loop_
_space_group_symop_operation_xyz
x,y,z
-x,-y,-z
loop_
_atom_site_type_symbol
_atom_site_label
_atom_site_fract_x
_atom_site_fract_y
_atom_site_fract_z
Si Si1 0.836771 0.645024 0.418119
Si Si2 0.341346 0.587777 0.541514
Si Si3 0.561306 0.117191 0.101472
Si Si4 0.561741 0.803271 0.397250
Si Si5 0.766463 0.245826 0.175295
Si Si6 0.771581 0.645073 0.659803
Si Si7 0.267347 0.063307 0.504990
Si Si8 0.656951 0.302161 0.722802
O O1 0.806858 0.782167 0.278231
O O2 0.711819 0.616425 0.617401
O O3 0.676525 0.468197 0.610263
O O4 0.152550 0.714189 0.179610
O O5 0.500000 0.500000 0.500000
O O6 0.375702 0.659781 0.558685
O O7 0.446001 0.730076 0.285154
O O8 0.020786 0.439237 0.847066
O O9 0.327110 0.066320 0.361898
O O10 0.626525 0.976638 0.176034
O O11 0.502125 0.156103 0.012088
O O12 0.406738 0.778087 0.607944
O O13 0.561718 0.171473 0.282758
O O14 0.874688 0.126910 0.215951
O O15 0.857006 0.832984 0.478169
O O16 0.032467 0.644564 0.515573
O O17 0.500000 0.500000 0.000000
#
# Coordination Sequence:
#
# PCOD9103671 Si02
#       8
#     2   2   2   2   2   2   2   2
#     4  11  20  37  61  93 123 160 202 254 311 361
#     4  12  25  42  63  86 124 173 209 245 293 372
#     4  10  22  39  61  93 127 152 201 263 311 362
#     4  11  23  40  63  88 123 167 206 248 302 362
#     4  10  22  41  62  94 125 156 210 253 301 365
#     4  11  20  34  61  95 125 156 197 256 320 361
#     4  10  20  38  67  95 122 156 196 266 316 351
#     4  11  24  40  59  90 127 162 205 252 309 367
#
# _framework density 22.522373000000002
#
# number of rings (size 3 to 8) (size 9 to 14) (size 15 to 20)
#    0.000    1.250    2.500    5.250    0.000    2.500 
#    0.000    0.000    0.000    3.000    0.000    0.000 
#    0.000    0.000    0.000    0.000    0.000    0.000 
#
# Total GULP energy -89499.517750 kJ/mol
# GULP energy per Si atom -5593.719859 kJ/mol
# Density = 2.247111 g / cm^3
# Si number density = 22.522373 Si / 1000 Ang^3
#
#
#
# Elastic Constant Matrix: (Units=GPa)
#
#
# Indices 1 2 3 4 5 6 
#
# 1 89.5830 17.7071 15.5879 2.1539 28.4341 -6.4617
# 2 17.7071 102.1231 0.7472 -2.6136 13.8476 -13.5687
# 3 15.5879 0.7472 35.1091 -1.5626 20.2231 5.9927
# 4 2.1539 -2.6136 -1.5626 19.5650 5.1144 6.3108
# 5 28.4341 13.8476 20.2231 5.1144 33.4139 -3.4135
# 6 -6.4617 -13.5687 5.9927 6.3108 -3.4135 28.2657
#
#
#
# Elastic Compliance Matrix: (Units=1/GPa)
#
#
# Indices 1 2 3 4 5 6 
#
# 1 0.015483 -0.000681 0.000773 0.001431 -0.013467 0.001103
# 2 -0.000681 0.011187 0.002950 0.002240 -0.005839 0.003384
# 3 0.000773 0.002950 0.056474 0.022249 -0.041546 -0.020365
# 4 0.001431 0.002240 0.022249 0.067410 -0.028153 -0.021765
# 5 -0.013467 -0.005839 -0.041546 -0.028153 0.075130 0.018285
# 6 0.001103 0.003384 -0.020365 -0.021765 0.018285 0.048640
#
#
# Mechanical properties :
#
#
# Convention : Reuss Voigt Hill
#
# Bulk Modulus (GPa) = 11.20727 32.76662 21.98694
# Shear Modulus (GPa) = 16.77950 29.10045 22.93997
#
# Velocity S-wave (km/s) = 2.73246 3.59843 3.19492
# Velocity P-wave (km/s) = 3.86548 5.64314 4.83668
#
# Compressibility (1/GPa) = 0.08922782
#
# Stress axis : x y z
#
# Youngs Moduli (GPa) = 64.58851 89.38680 17.70737
#
# Poissons Ratio (x) = 0.06086 -0.01369
# Poissons Ratio (y) = 0.04398 -0.05223
# Poissons Ratio (z) = -0.04994 -0.26367
#
# Static dielectric constant tensor:
#      x y z
#    x 1.830240 -0.020610 0.019370 
#    y -0.020610 1.831150 -0.005510 
#    z 0.019370 -0.005510 1.831920 
# 
# From -- ./inp_files/206339.got.cif
#   From: 2010.05.17/outbox.cif.g08.bks.cpg/sg2_104_cif.got.tgz:206339.got - 2010.06.03 11:33:40.
