data_PCOD9103431
_publ_section_title
;
Structure prediction by ZEFSAII (Michael W. Deem and Ramdas Pophale) SiO2 
 PCOD9103431
Probable space group: P -1
;
_chemical_formula_sum "Si O2"
_cell_formula_units_Z 12
_cell_length_a 10.438916
_cell_length_b 9.579095
_cell_length_c 9.345387
_cell_angle_alpha 61.207795
_cell_angle_beta 65.625316
_cell_angle_gamma 32.752050
_cell_volume 443.006745
_symmetry_space_group_name_H-M "P -1"
_symmetry_group_IT_number 2
_symmetry_cell_setting 'triclinic'
loop_
_space_group_symop_operation_xyz
x,y,z
-x,-y,-z
loop_
_atom_site_type_symbol
_atom_site_label
_atom_site_fract_x
_atom_site_fract_y
_atom_site_fract_z
Si Si1 0.263308 0.760642 0.798226
Si Si2 0.301419 0.161133 0.227069
Si Si3 0.987700 0.840188 0.506233
Si Si4 0.571180 0.729059 0.114554
Si Si5 0.159592 0.035357 0.961729
Si Si6 0.842968 0.504393 0.639864
O O1 0.384910 0.498081 0.800775
O O2 0.229967 0.929606 0.615611
O O3 0.337916 0.771875 0.907489
O O4 0.006028 0.926190 0.884447
O O5 0.085276 0.236321 0.317925
O O6 0.350961 0.220553 0.316610
O O7 0.519471 0.850988 0.231211
O O8 0.255107 0.330419 0.037942
O O9 0.190452 0.594007 0.423468
O O10 0.000000 0.000000 0.500000
O O11 0.322888 0.981157 0.020659
O O12 0.994886 0.280876 0.806276
O O13 0.000000 0.500000 0.500000
#
# Coordination Sequence:
#
# PCOD9103431 Si02
#       6
#     2   2   2   2   2   2
#     4  10  21  39  64  92 126 158 210 259 292 375
#     4  10  22  41  58  93 133 152 209 255 297 374
#     4  10  21  41  66  91 120 169 207 250 314 358
#     4  11  22  39  64  92 127 162 203 255 308 363
#     4  10  20  38  66  91 122 166 206 248 316 357
#     4   9  19  40  63  88 125 158 206 254 296 371
#
# _framework density 27.087623000000001
#
# number of rings (size 3 to 8) (size 9 to 14) (size 15 to 20)
#    0.000    2.000    1.667    1.500    0.000    1.333 
#   15.000    7.500    0.000    0.000    0.000    0.000 
#    0.000    0.000    0.000    0.000    0.000    0.000 
#
# Total GULP energy -67043.513856 kJ/mol
# GULP energy per Si atom -5586.959488 kJ/mol
# Density = 2.702597 g / cm^3
# Si number density = 27.087623 Si / 1000 Ang^3
#
#
#
# Elastic Constant Matrix: (Units=GPa)
#
#
# Indices 1 2 3 4 5 6 
#
# 1 85.7230 29.5059 22.1523 9.3858 -9.5445 24.8213
# 2 29.5059 154.6948 51.8312 47.7631 22.2214 57.5782
# 3 22.1523 51.8312 117.2268 5.2266 -6.9805 3.9990
# 4 9.3858 47.7631 5.2266 59.8390 16.2963 20.5729
# 5 -9.5445 22.2214 -6.9805 16.2963 32.0326 5.9196
# 6 24.8213 57.5782 3.9990 20.5729 5.9196 45.9876
#
#
#
# Elastic Compliance Matrix: (Units=1/GPa)
#
#
# Indices 1 2 3 4 5 6 
#
# 1 0.015583 0.001175 -0.002730 -0.001339 0.005722 -0.009781
# 2 0.001175 0.020107 -0.008636 -0.005798 -0.008584 -0.021359
# 3 -0.002730 -0.008636 0.012795 0.001318 0.005470 0.009880
# 4 -0.001339 -0.005798 0.001318 0.024316 -0.008096 -0.001968
# 5 0.005722 -0.008584 0.005470 -0.008096 0.043220 0.005242
# 6 -0.009781 -0.021359 0.009880 -0.001968 0.005242 0.053113
#
#
# Mechanical properties :
#
#
# Convention : Reuss Voigt Hill
#
# Bulk Modulus (GPa) = 35.58546 62.73592 49.16069
# Shear Modulus (GPa) = 25.14028 44.51553 34.82791
#
# Velocity S-wave (km/s) = 3.04979 4.05827 3.58963
# Velocity P-wave (km/s) = 5.05642 6.72087 5.94716
#
# Compressibility (1/GPa) = 0.02810136
#
# Stress axis : x y z
#
# Youngs Moduli (GPa) = 64.17448 49.73348 78.15729
#
# Poissons Ratio (x) = -0.05842 0.21336
# Poissons Ratio (y) = -0.07538 0.67498
# Poissons Ratio (z) = 0.17519 0.42951
#
# Static dielectric constant tensor:
#      x y z
#    x 2.128350 0.008830 0.026210 
#    y 0.008830 2.213880 0.039370 
#    z 0.026210 0.039370 2.115320 
# 
# From -- ./inp_files/48635.got.cif
#   From: 2010.05.17/outbox.cif.g08.bks.cpg/sg2_25_cif.got.tgz:48635.got - 2010.06.03 11:33:40.
