data_PCOD9103210
_publ_section_title
;
Structure prediction by ZEFSAII (Michael W. Deem and Ramdas Pophale) SiO2 
 PCOD9103210
Probable space group: P -1
;
_chemical_formula_sum "Si O2"
_cell_formula_units_Z 16
_cell_length_a 10.957970
_cell_length_b 7.894127
_cell_length_c 20.416852
_cell_angle_alpha 97.714711
_cell_angle_beta 48.113650
_cell_angle_gamma 134.119350
_cell_volume 741.715547
_symmetry_space_group_name_H-M "P -1"
_symmetry_group_IT_number 2
_symmetry_cell_setting 'triclinic'
loop_
_space_group_symop_operation_xyz
x,y,z
-x,-y,-z
loop_
_atom_site_type_symbol
_atom_site_label
_atom_site_fract_x
_atom_site_fract_y
_atom_site_fract_z
Si Si1 0.325346 0.316668 0.420895
Si Si2 0.184228 0.019752 0.031087
Si Si3 0.711619 0.333159 0.923708
Si Si4 0.307070 0.547310 0.561418
Si Si5 0.857535 0.574265 0.247819
Si Si6 0.947505 0.182552 0.073868
Si Si7 0.411593 0.719081 0.333665
Si Si8 0.786896 0.213314 0.476220
O O1 0.329964 0.409839 0.495815
O O2 0.519303 0.314711 0.341444
O O3 0.474617 0.592397 0.338709
O O4 0.000000 0.000000 0.500000
O O5 0.022259 0.815151 0.143578
O O6 0.108898 0.845590 0.984298
O O7 0.065612 0.099951 0.052846
O O8 0.524831 0.298507 0.942479
O O9 0.997768 0.488066 0.800987
O O10 0.809156 0.490189 0.966190
O O11 0.500000 0.000000 0.000000
O O12 0.131812 0.342553 0.678079
O O13 0.154488 0.577207 0.582431
O O14 0.604366 0.901970 0.493854
O O15 0.648935 0.960273 0.207069
O O16 0.381853 0.837636 0.406459
O O17 0.095507 0.421282 0.401632
#
# Coordination Sequence:
#
# PCOD9103210 Si02
#       8
#     2   2   2   2   2   2   2   2
#     4  11  23  41  60  95 134 171 215 264 326 401
#     4  10  24  45  66  99 128 170 233 269 333 387
#     4  10  24  43  66  97 133 167 221 275 327 390
#     4  10  21  38  63  92 131 169 211 273 322 396
#     4  11  22  42  61  93 133 171 214 269 331 389
#     4  11  22  44  72  94 132 174 218 283 326 391
#     4  10  20  38  65  92 129 171 214 271 327 390
#     4   9  20  38  62  99 126 165 223 262 330 398
#
# _framework density 21.571612999999999
#
# number of rings (size 3 to 8) (size 9 to 14) (size 15 to 20)
#    0.000    1.750    1.250    2.250    1.750    4.000 
#    4.500    3.750    0.000    0.000    0.000    0.000 
#    0.000    0.000    0.000    0.000    0.000    0.000 
#
# Total GULP energy -89183.631379 kJ/mol
# GULP energy per Si atom -5573.976961 kJ/mol
# Density = 2.152252 g / cm^3
# Si number density = 21.571613 Si / 1000 Ang^3
#
#
#
# Elastic Constant Matrix: (Units=GPa)
#
#
# Indices 1 2 3 4 5 6 
#
# 1 98.4858 15.6330 54.8955 10.0729 -5.4737 8.7523
# 2 15.6330 116.4367 41.8424 6.0573 3.3352 21.5649
# 3 54.8955 41.8424 101.4566 9.7663 -3.6604 14.0313
# 4 10.0729 6.0573 9.7663 20.0017 4.5729 1.8676
# 5 -5.4737 3.3352 -3.6604 4.5729 53.0779 -0.8929
# 6 8.7523 21.5649 14.0313 1.8676 -0.8929 29.7895
#
#
#
# Elastic Compliance Matrix: (Units=1/GPa)
#
#
# Indices 1 2 3 4 5 6 
#
# 1 0.015048 0.001288 -0.008048 -0.004208 0.001257 -0.001261
# 2 0.001288 0.011262 -0.004378 -0.001119 -0.000888 -0.006426
# 3 -0.008048 -0.004378 0.016595 -0.002709 0.000788 -0.002089
# 4 -0.004208 -0.001119 -0.002709 0.055014 -0.005295 -0.000285
# 5 0.001257 -0.000888 0.000788 -0.005295 0.019550 0.000821
# 6 -0.001261 -0.006426 -0.002089 -0.000285 0.000821 0.039618
#
#
# Mechanical properties :
#
#
# Convention : Reuss Voigt Hill
#
# Bulk Modulus (GPa) = 48.47378 60.12454 54.29916
# Shear Modulus (GPa) = 26.84736 34.17436 30.51086
#
# Velocity S-wave (km/s) = 3.53167 3.98455 3.76493
# Velocity P-wave (km/s) = 6.25701 7.00724 6.64273
#
# Compressibility (1/GPa) = 0.02062971
#
# Stress axis : x y z
#
# Youngs Moduli (GPa) = 66.45515 88.79203 60.26005
#
# Poissons Ratio (x) = -0.11440 0.48500
# Poissons Ratio (y) = -0.08562 0.26379
# Poissons Ratio (z) = 0.53486 0.38869
#
# Static dielectric constant tensor:
#      x y z
#    x 1.881620 -0.019050 -0.018990 
#    y -0.019050 1.810880 0.021390 
#    z -0.018990 0.021390 1.797290 
# 
# From -- ./inp_files/593622.got.cif
#   From: 2010.05.17/outbox.cif.g08.bks.cpg/sg2_297_cif.got.tgz:593622.got - 2010.06.03 11:33:40.
