data_PCOD9103081
_publ_section_title
;
Structure prediction by ZEFSAII (Michael W. Deem and Ramdas Pophale) SiO2 
 PCOD9103081
Probable space group: P -1
;
_chemical_formula_sum "Si O2"
_cell_formula_units_Z 12
_cell_length_a 8.278225
_cell_length_b 11.511814
_cell_length_c 7.711348
_cell_angle_alpha 106.221099
_cell_angle_beta 76.819020
_cell_angle_gamma 140.752120
_cell_volume 446.344463
_symmetry_space_group_name_H-M "P -1"
_symmetry_group_IT_number 2
_symmetry_cell_setting 'triclinic'
loop_
_space_group_symop_operation_xyz
x,y,z
-x,-y,-z
loop_
_atom_site_type_symbol
_atom_site_label
_atom_site_fract_x
_atom_site_fract_y
_atom_site_fract_z
Si Si1 0.261281 0.637874 0.099118
Si Si2 0.614177 0.919311 0.824241
Si Si3 0.301150 0.693661 0.481950
Si Si4 0.056287 0.263653 0.035809
Si Si5 0.644424 0.646770 0.316667
Si Si6 0.819468 0.779637 0.674035
O O1 0.474097 0.783203 0.967318
O O2 0.307485 0.743386 0.303422
O O3 0.212960 0.473615 0.111022
O O4 0.000000 0.500000 0.000000
O O5 0.791141 0.125651 0.937208
O O6 0.419558 0.829864 0.674452
O O7 0.805358 0.915113 0.726485
O O8 0.481657 0.674102 0.422189
O O9 0.000000 0.500000 0.500000
O O10 0.238743 0.287408 0.874531
O O11 0.006997 0.173216 0.194281
O O12 0.858384 0.751071 0.459104
O O13 0.457568 0.428716 0.291819
#
# Coordination Sequence:
#
# PCOD9103081 Si02
#       6
#     2   2   2   2   2   2
#     4  12  25  44  69  92 136 181 216 270 330 391
#     4  11  25  42  68 105 128 171 226 269 333 396
#     4  11  23  44  68  94 135 181 221 265 329 398
#     4  12  24  42  70 102 134 167 222 280 329 388
#     4  10  21  38  70  98 130 176 215 270 336 388
#     4  10  20  38  65 100 135 166 215 269 331 392
#
# _framework density 26.885065999999998
#
# number of rings (size 3 to 8) (size 9 to 14) (size 15 to 20)
#    0.000    1.000    5.000    2.000    0.000    4.667 
#    0.000    0.833    0.000    0.000    0.000    0.000 
#    0.000    0.000    0.000    0.000    0.000    0.000 
#
# Total GULP energy -67126.926112 kJ/mol
# GULP energy per Si atom -5593.910509 kJ/mol
# Density = 2.682387 g / cm^3
# Si number density = 26.885066 Si / 1000 Ang^3
#
#
#
# Elastic Constant Matrix: (Units=GPa)
#
#
# Indices 1 2 3 4 5 6 
#
# 1 73.3752 5.1015 41.7504 2.9494 21.3456 2.2155
# 2 5.1015 104.7505 44.1850 23.8022 13.1185 8.0866
# 3 41.7504 44.1850 211.8199 12.5755 53.9268 12.9619
# 4 2.9494 23.8022 12.5755 37.1503 5.3371 4.7236
# 5 21.3456 13.1185 53.9268 5.3371 52.5065 8.3587
# 6 2.2155 8.0866 12.9619 4.7236 8.3587 30.7895
#
#
#
# Elastic Compliance Matrix: (Units=1/GPa)
#
#
# Indices 1 2 3 4 5 6 
#
# 1 0.016155 0.000755 -0.002199 -0.000475 -0.004590 0.000884
# 2 0.000755 0.012099 -0.002124 -0.006903 -0.000254 -0.001210
# 3 -0.002199 -0.002124 0.007106 0.000050 -0.005764 -0.000718
# 4 -0.000475 -0.006903 0.000050 0.031851 -0.000923 -0.002810
# 5 -0.004590 -0.000254 -0.005764 -0.000923 0.027715 -0.004559
# 6 0.000884 -0.001210 -0.000718 -0.002810 -0.004559 0.034704
#
#
# Mechanical properties :
#
#
# Convention : Reuss Voigt Hill
#
# Bulk Modulus (GPa) = 35.42998 63.55770 49.49384
# Shear Modulus (GPa) = 34.20582 44.01651 39.11116
#
# Velocity S-wave (km/s) = 3.57080 4.05064 3.81826
# Velocity P-wave (km/s) = 5.49616 6.75046 6.15534
#
# Compressibility (1/GPa) = 0.02822469
#
# Stress axis : x y z
#
# Youngs Moduli (GPa) = 61.90010 82.64837 140.72490
#
# Poissons Ratio (x) = -0.06243 0.30947
# Poissons Ratio (y) = -0.04676 0.29894
# Poissons Ratio (z) = 0.13612 0.17557
#
# Static dielectric constant tensor:
#      x y z
#    x 2.249660 0.002030 0.032770 
#    y 0.002030 2.028170 0.020680 
#    z 0.032770 0.020680 2.176270 
# 
# From -- ./inp_files/181513.got.cif
#   From: 2010.05.17/outbox.cif.g08.bks.cpg/sg2_91_cif.got.tgz:181513.got - 2010.06.03 11:33:40.
