data_PCOD9103666
_publ_section_title
;
Structure prediction by ZEFSAII (Michael W. Deem and Ramdas Pophale) SiO2 
 PCOD9103666
Probable space group: P -1
;
_chemical_formula_sum "Si O2"
_cell_formula_units_Z 16
_cell_length_a 9.612988
_cell_length_b 18.163589
_cell_length_c 7.329693
_cell_angle_alpha 121.670073
_cell_angle_beta 100.943550
_cell_angle_gamma 37.219002
_cell_volume 590.532234
_symmetry_space_group_name_H-M "P -1"
_symmetry_group_IT_number 2
_symmetry_cell_setting 'triclinic'
loop_
_space_group_symop_operation_xyz
x,y,z
-x,-y,-z
loop_
_atom_site_type_symbol
_atom_site_label
_atom_site_fract_x
_atom_site_fract_y
_atom_site_fract_z
Si Si1 0.099608 0.530593 0.387238
Si Si2 0.136651 0.016606 0.382947
Si Si3 0.252419 0.677061 0.087539
Si Si4 0.675534 0.230644 0.111941
Si Si5 0.793315 0.331008 0.405974
Si Si6 0.131448 0.282840 0.058026
Si Si7 0.344998 0.235423 0.658788
Si Si8 0.663142 0.940158 0.773973
O O1 0.141440 0.607160 0.409782
O O2 0.011233 0.591330 0.652901
O O3 0.872269 0.606179 0.308864
O O4 0.383851 0.346436 0.213064
O O5 0.142307 0.937336 0.132630
O O6 0.374976 0.865554 0.377382
O O7 0.248763 0.046254 0.358160
O O8 0.893566 0.177098 0.637977
O O9 0.314864 0.700163 0.952608
O O10 0.500000 0.500000 0.000000
O O11 0.056865 0.698889 0.023261
O O12 0.749495 0.251077 0.332863
O O13 0.500000 0.500000 0.500000
O O14 0.082150 0.176331 0.192747
O O15 0.220788 0.278069 0.880749
O O16 0.399600 0.116146 0.001775
O O17 0.393826 0.123514 0.409469
#
# Coordination Sequence:
#
# PCOD9103666 Si02
#       8
#     2   2   2   2   2   2   2   2
#     4  10  22  39  66  97 133 177 227 282 335 399
#     4  11  23  41  65  96 139 171 220 288 347 407
#     4  12  24  39  68  96 131 181 232 275 337 413
#     4  11  24  41  60  99 140 176 217 286 348 403
#     4   9  20  36  61  94 131 169 224 268 328 407
#     4  11  20  39  67 102 123 171 238 282 322 402
#     4  10  20  41  68  98 130 175 230 277 339 406
#     4  10  20  38  67  94 130 176 225 280 338 397
#
# _framework density 27.094201000000002
#
# number of rings (size 3 to 8) (size 9 to 14) (size 15 to 20)
#    0.000    1.500    3.750    1.875    3.500    4.000 
#    0.000    2.500    0.000    0.000    0.000    0.000 
#    0.000    0.000    0.000    0.000    0.000    0.000 
#
# Total GULP energy -89207.092177 kJ/mol
# GULP energy per Si atom -5575.443261 kJ/mol
# Density = 2.703253 g / cm^3
# Si number density = 27.094201 Si / 1000 Ang^3
#
#
#
# Elastic Constant Matrix: (Units=GPa)
#
#
# Indices 1 2 3 4 5 6 
#
# 1 61.5181 40.5134 48.5945 6.0307 -0.3491 -10.4123
# 2 40.5134 158.0082 79.7940 16.8726 -7.6295 -19.3938
# 3 48.5945 79.7940 231.1483 21.8237 -8.1779 -0.9804
# 4 6.0307 16.8726 21.8237 55.9254 -1.6785 0.3565
# 5 -0.3491 -7.6295 -8.1779 -1.6785 55.4879 2.3104
# 6 -10.4123 -19.3938 -0.9804 0.3565 2.3104 36.7606
#
#
#
# Elastic Compliance Matrix: (Units=1/GPa)
#
#
# Indices 1 2 3 4 5 6 
#
# 1 0.021965 -0.003387 -0.003461 -0.000055 -0.001023 0.004407
# 2 -0.003387 0.008949 -0.002198 -0.001480 0.000688 0.003675
# 3 -0.003461 -0.002198 0.005943 -0.001252 0.000598 -0.002007
# 4 -0.000055 -0.001480 -0.001252 0.018835 0.000224 -0.001027
# 5 -0.001023 0.000688 0.000598 0.000224 0.018249 -0.001060
# 6 0.004407 0.003675 -0.002007 -0.001027 -0.001060 0.030413
#
#
# Mechanical properties :
#
#
# Convention : Reuss Voigt Hill
#
# Bulk Modulus (GPa) = 53.28478 87.60872 70.44675
# Shear Modulus (GPa) = 38.84962 48.41965 43.63464
#
# Velocity S-wave (km/s) = 3.79076 4.23198 4.01743
# Velocity P-wave (km/s) = 6.23450 7.50231 6.89759
#
# Compressibility (1/GPa) = 0.01876709
#
# Stress axis : x y z
#
# Youngs Moduli (GPa) = 45.52673 111.74166 168.25511
#
# Poissons Ratio (x) = 0.37843 0.58232
# Poissons Ratio (y) = 0.15418 0.36978
# Poissons Ratio (z) = 0.15757 0.24558
#
# Static dielectric constant tensor:
#      x y z
#    x 2.228650 0.053480 0.058880 
#    y 0.053480 2.449540 -0.214560 
#    z 0.058880 -0.214560 2.374140 
# 
# From -- ./inp_files/284962.got.cif
#   From: 2010.05.17/outbox.cif.g08.bks.cpg/sg2_143_cif.got.tgz:284962.got - 2010.06.03 11:33:40.
