data_PCOD9103011
_publ_section_title
;
Structure prediction by ZEFSAII (Michael W. Deem and Ramdas Pophale) SiO2 
 PCOD9103011
Probable space group: P -1
;
_chemical_formula_sum "Si O2"
_cell_formula_units_Z 16
_cell_length_a 11.162818
_cell_length_b 17.986768
_cell_length_c 10.775863
_cell_angle_alpha 147.307269
_cell_angle_beta 147.772822
_cell_angle_gamma 42.173999
_cell_volume 620.001832
_symmetry_space_group_name_H-M "P -1"
_symmetry_group_IT_number 2
_symmetry_cell_setting 'triclinic'
loop_
_space_group_symop_operation_xyz
x,y,z
-x,-y,-z
loop_
_atom_site_type_symbol
_atom_site_label
_atom_site_fract_x
_atom_site_fract_y
_atom_site_fract_z
Si Si1 0.171969 0.342800 0.038216
Si Si2 0.268030 0.670724 0.239252
Si Si3 0.395972 0.558779 0.654600
Si Si4 0.015084 0.128276 0.421446
Si Si5 0.022412 0.371324 0.432915
Si Si6 0.233506 0.839446 0.210618
Si Si7 0.580579 0.119379 0.153700
Si Si8 0.361359 0.233489 0.709404
O O1 0.291305 0.485550 0.340069
O O2 0.363356 0.222986 0.076186
O O3 0.044711 0.276444 0.720179
O O4 0.983278 0.370961 0.020198
O O5 0.453601 0.561798 0.309586
O O6 0.322528 0.724197 0.227240
O O7 0.265873 0.806768 0.511931
O O8 0.184013 0.609057 0.624870
O O9 0.543479 0.689015 0.977842
O O10 0.154119 0.147020 0.443240
O O11 0.753743 0.097731 0.158619
O O12 0.153831 0.990674 0.407230
O O13 0.252208 0.349982 0.681769
O O14 0.000000 0.500000 0.500000
O O15 0.983708 0.228006 0.128244
O O16 0.428694 0.847189 0.290681
O O17 0.500000 0.000000 0.000000
#
# Coordination Sequence:
#
# PCOD9103011 Si02
#       8
#     2   2   2   2   2   2   2   2
#     4  10  21  39  64  92 124 161 206 264 319 368
#     4  10  20  38  64  96 125 155 208 269 314 364
#     4  10  21  39  64  92 122 161 210 263 317 368
#     4  11  25  42  61  93 132 168 209 256 314 383
#     4  11  23  40  64  92 124 166 216 266 311 364
#     4  11  23  39  64  91 125 170 210 256 314 376
#     4  10  21  37  62  93 124 165 211 257 311 371
#     4  11  25  42  61  91 130 170 212 257 311 378
#
# _framework density 25.806374999999999
#
# number of rings (size 3 to 8) (size 9 to 14) (size 15 to 20)
#    0.000    1.500    0.000    4.875    0.000   11.000 
#    0.000    8.750    0.000    0.000    0.000    0.000 
#    0.000    0.000    0.000    0.000    0.000    0.000 
#
# Total GULP energy -89375.041877 kJ/mol
# GULP energy per Si atom -5585.940117 kJ/mol
# Density = 2.574764 g / cm^3
# Si number density = 25.806375 Si / 1000 Ang^3
#
#
#
# Elastic Constant Matrix: (Units=GPa)
#
#
# Indices 1 2 3 4 5 6 
#
# 1 66.6550 35.2795 26.4055 2.0397 20.6970 -9.2674
# 2 35.2795 142.3155 18.7416 -8.2467 7.0879 -4.6682
# 3 26.4055 18.7416 92.0449 7.2793 14.1857 -4.8737
# 4 2.0397 -8.2467 7.2793 21.9912 -1.8516 -0.9540
# 5 20.6970 7.0879 14.1857 -1.8516 39.1108 -6.8611
# 6 -9.2674 -4.6682 -4.8737 -0.9540 -6.8611 39.5568
#
#
#
# Elastic Compliance Matrix: (Units=1/GPa)
#
#
# Indices 1 2 3 4 5 6 
#
# 1 0.022261 -0.004689 -0.003597 -0.003310 -0.009341 0.002519
# 2 -0.004689 0.008476 -0.000924 0.004052 0.001498 0.000145
# 3 -0.003597 -0.000924 0.012875 -0.004509 -0.002806 0.000039
# 4 -0.003310 0.004052 -0.004509 0.049284 0.005203 0.001238
# 5 -0.009341 0.001498 -0.002806 0.005203 0.032089 0.003334
# 6 0.002519 0.000145 0.000039 0.001238 0.003334 0.026500
#
#
# Mechanical properties :
#
#
# Convention : Reuss Voigt Hill
#
# Bulk Modulus (GPa) = 39.69419 51.31873 45.50646
# Shear Modulus (GPa) = 28.04235 34.83768 31.44002
#
# Velocity S-wave (km/s) = 3.30001 3.67817 3.49421
# Velocity P-wave (km/s) = 5.47129 6.16180 5.82678
#
# Compressibility (1/GPa) = 0.02519260
#
# Stress axis : x y z
#
# Youngs Moduli (GPa) = 44.92149 117.98542 77.66761
#
# Poissons Ratio (x) = 0.55320 0.27935
# Poissons Ratio (y) = 0.21062 0.07178
# Poissons Ratio (z) = 0.16157 0.10904
#
# Static dielectric constant tensor:
#      x y z
#    x 2.153830 -0.015890 -0.011770 
#    y -0.015890 1.949400 0.022000 
#    z -0.011770 0.022000 2.123670 
# 
# From -- ./inp_files/69933.got.cif
#   From: 2010.05.17/outbox.cif.g08.bks.cpg/sg2_35_cif.got.tgz:69933.got - 2010.06.03 11:33:40.
