data_PCOD9103346
_publ_section_title
;
Structure prediction by ZEFSAII (Michael W. Deem and Ramdas Pophale) SiO2 
 PCOD9103346
Probable space group: P -1
;
_chemical_formula_sum "Si O2"
_cell_formula_units_Z 14
_cell_length_a 4.943864
_cell_length_b 12.270734
_cell_length_c 14.621032
_cell_angle_alpha 138.516381
_cell_angle_beta 105.786611
_cell_angle_gamma 79.204608
_cell_volume 565.191709
_symmetry_space_group_name_H-M "P -1"
_symmetry_group_IT_number 2
_symmetry_cell_setting 'triclinic'
loop_
_space_group_symop_operation_xyz
x,y,z
-x,-y,-z
loop_
_atom_site_type_symbol
_atom_site_label
_atom_site_fract_x
_atom_site_fract_y
_atom_site_fract_z
Si Si1 0.364481 0.125732 0.636126
Si Si2 0.155591 0.814157 0.496793
Si Si3 0.390725 0.255004 0.244563
Si Si4 0.749896 0.377504 0.931503
Si Si5 0.991943 0.338234 0.115361
Si Si6 0.514962 0.530612 0.301357
Si Si7 0.022424 0.700291 0.615727
O O1 0.612106 0.245845 0.767491
O O2 0.098740 0.206808 0.613086
O O3 0.500000 0.000000 0.500000
O O4 0.235074 0.007551 0.629153
O O5 0.428001 0.715977 0.426285
O O6 0.050716 0.743400 0.539346
O O7 0.161452 0.211763 0.116710
O O8 0.451824 0.445959 0.341166
O O9 0.711561 0.206010 0.251466
O O10 0.247507 0.235765 0.316453
O O11 0.212563 0.552068 0.770133
O O12 0.825898 0.287338 0.977637
O O13 0.000000 0.500000 0.000000
O O14 0.249633 0.452132 0.173204
O O15 0.500000 0.500000 0.000000
O O16 0.000000 0.500000 0.500000
#
# Coordination Sequence:
#
# PCOD9103346 Si02
#       7
#     2   2   2   2   2   2   2
#     4  11  30  50  70 104 151 198 238 301 376 431
#     4  11  27  43  68  99 157 194 238 295 377 434
#     4  10  21  35  59 102 142 171 238 294 357 404
#     4  12  28  46  77 105 136 191 258 301 354 430
#     4  10  21  39  65 100 138 172 234 300 352 411
#     4  10  20  38  66 100 140 181 221 299 347 419
#     4  12  22  36  63 103 141 188 235 294 359 430
#
# _framework density 24.770354999999999
#
# number of rings (size 3 to 8) (size 9 to 14) (size 15 to 20)
#    0.857    0.286    2.857    2.143   12.000    1.143 
#    0.000    0.000    0.000    1.714    0.000    0.000 
#    0.000    0.000    0.000    0.000    0.000    0.000 
#
# Total GULP energy -78091.697168 kJ/mol
# GULP energy per Si atom -5577.978369 kJ/mol
# Density = 2.471398 g / cm^3
# Si number density = 24.770355 Si / 1000 Ang^3
#
#
#
# Elastic Constant Matrix: (Units=GPa)
#
#
# Indices 1 2 3 4 5 6 
#
# 1 144.8542 11.5198 46.2362 -3.7769 29.1471 13.1441
# 2 11.5198 101.8134 39.3248 -16.2401 -0.4727 30.9699
# 3 46.2362 39.3248 152.1085 -16.6884 21.7646 5.9181
# 4 -3.7769 -16.2401 -16.6884 33.8747 -2.4840 2.7164
# 5 29.1471 -0.4727 21.7646 -2.4840 32.3629 -5.5524
# 6 13.1441 30.9699 5.9181 2.7164 -5.5524 34.5279
#
#
#
# Elastic Compliance Matrix: (Units=1/GPa)
#
#
# Indices 1 2 3 4 5 6 
#
# 1 0.009635 0.001584 -0.001798 0.000826 -0.008447 -0.006204
# 2 0.001584 0.017081 -0.003223 0.007990 -0.001173 -0.016188
# 3 -0.001798 -0.003223 0.008696 0.002150 -0.003890 0.001290
# 4 0.000826 0.007990 0.002150 0.035280 -0.001222 -0.010821
# 5 -0.008447 -0.001173 -0.003890 -0.001222 0.043064 0.011956
# 6 -0.006204 -0.016188 0.001290 -0.010821 0.011956 0.048397
#
#
# Mechanical properties :
#
#
# Convention : Reuss Voigt Hill
#
# Bulk Modulus (GPa) = 35.04029 65.88199 50.46114
# Shear Modulus (GPa) = 28.00494 40.26612 34.13553
#
# Velocity S-wave (km/s) = 3.36606 4.03622 3.71628
# Velocity P-wave (km/s) = 5.41146 6.95531 6.23138
#
# Compressibility (1/GPa) = 0.02853858
#
# Stress axis : x y z
#
# Youngs Moduli (GPa) = 103.78319 58.54545 114.99228
#
# Poissons Ratio (x) = -0.09272 0.20672
# Poissons Ratio (y) = -0.16437 0.37062
# Poissons Ratio (z) = 0.18657 0.18869
#
# Static dielectric constant tensor:
#      x y z
#    x 2.006030 -0.008500 0.057170 
#    y -0.008500 2.059260 -0.044000 
#    z 0.057170 -0.044000 2.046660 
# 
# From -- ./inp_files/482252.got.cif
#   From: 2010.05.17/outbox.cif.g08.bks.cpg/sg2_242_cif.got.tgz:482252.got - 2010.06.03 11:33:40.
