data_PCOD9103445
_publ_section_title
;
Structure prediction by ZEFSAII (Michael W. Deem and Ramdas Pophale) SiO2 
 PCOD9103445
Probable space group: P -1
;
_chemical_formula_sum "Si O2"
_cell_formula_units_Z 14
_cell_length_a 14.494595
_cell_length_b 7.560689
_cell_length_c 6.993073
_cell_angle_alpha 97.616192
_cell_angle_beta 134.135012
_cell_angle_gamma 73.588109
_cell_volume 525.310459
_symmetry_space_group_name_H-M "P -1"
_symmetry_group_IT_number 2
_symmetry_cell_setting 'triclinic'
loop_
_space_group_symop_operation_xyz
x,y,z
-x,-y,-z
loop_
_atom_site_type_symbol
_atom_site_label
_atom_site_fract_x
_atom_site_fract_y
_atom_site_fract_z
Si Si1 0.019275 0.725250 0.879570
Si Si2 0.111740 0.047124 0.935373
Si Si3 0.643471 0.304056 0.251091
Si Si4 0.429556 0.356529 0.270331
Si Si5 0.261326 0.059998 0.517925
Si Si6 0.423346 0.300252 0.666512
Si Si7 0.131421 0.389376 0.793287
O O1 0.865149 0.765007 0.602628
O O2 0.099474 0.514173 0.960352
O O3 0.006152 0.824364 0.081480
O O4 0.081351 0.849638 0.841981
O O5 0.132018 0.180245 0.815978
O O6 0.235301 0.003895 0.255609
O O7 0.536929 0.273841 0.252452
O O8 0.670791 0.495011 0.384601
O O9 0.747363 0.106796 0.382264
O O10 0.566851 0.322818 0.942617
O O11 0.500000 0.500000 0.500000
O O12 0.414169 0.247294 0.425638
O O13 0.281461 0.404146 0.970300
O O14 0.386556 0.141559 0.712519
O O15 0.000000 0.500000 0.500000
#
# Coordination Sequence:
#
# PCOD9103445 Si02
#       7
#     2   2   2   2   2   2   2
#     4   9  22  40  65  92 123 168 216 268 321 390
#     4   9  21  40  64  95 118 170 220 265 327 378
#     4  10  23  39  63  95 129 166 219 264 320 393
#     4  10  23  42  63  96 129 169 214 262 325 381
#     4  10  20  38  66  92 121 162 218 266 323 386
#     4  10  21  41  63  91 129 171 212 266 324 383
#     4  12  25  43  65  94 135 173 216 269 325 396
#
# _framework density 26.650905999999999
#
# number of rings (size 3 to 8) (size 9 to 14) (size 15 to 20)
#    0.857    1.143    1.429    0.857    6.000    2.286 
#    5.143    0.000    0.000    0.000    0.000    0.000 
#    0.000    0.000    0.000    0.000    0.000    0.000 
#
# Total GULP energy -78076.534301 kJ/mol
# GULP energy per Si atom -5576.895307 kJ/mol
# Density = 2.659025 g / cm^3
# Si number density = 26.650906 Si / 1000 Ang^3
#
#
#
# Elastic Constant Matrix: (Units=GPa)
#
#
# Indices 1 2 3 4 5 6 
#
# 1 53.1280 24.3032 24.5748 7.9886 2.1366 14.7533
# 2 24.3032 97.2749 24.0612 -7.8998 1.4829 28.4117
# 3 24.5748 24.0612 128.0251 15.1600 -10.3260 10.8875
# 4 7.9886 -7.8998 15.1600 37.8680 5.5393 4.0607
# 5 2.1366 1.4829 -10.3260 5.5393 33.5777 7.3310
# 6 14.7533 28.4117 10.8875 4.0607 7.3310 50.7894
#
#
#
# Elastic Compliance Matrix: (Units=1/GPa)
#
#
# Indices 1 2 3 4 5 6 
#
# 1 0.023912 -0.004623 -0.002996 -0.004342 -0.000812 -0.003253
# 2 -0.004623 0.014297 -0.001918 0.005493 -0.000386 -0.006627
# 3 -0.002996 -0.001918 0.009590 -0.004152 0.003987 -0.000356
# 4 -0.004342 0.005493 -0.004152 0.031262 -0.005838 -0.002578
# 5 -0.000812 -0.000386 0.003987 -0.005838 0.033068 -0.004709
# 6 -0.003253 -0.006627 -0.000356 -0.002578 -0.004709 0.025304
#
#
# Mechanical properties :
#
#
# Convention : Reuss Voigt Hill
#
# Bulk Modulus (GPa) = 34.81160 47.14515 40.97838
# Shear Modulus (GPa) = 30.10578 38.14628 34.12603
#
# Velocity S-wave (km/s) = 3.36465 3.78740 3.58227
# Velocity P-wave (km/s) = 5.30895 6.07076 5.70259
#
# Compressibility (1/GPa) = 0.02872605
#
# Stress axis : x y z
#
# Youngs Moduli (GPa) = 41.82001 69.94399 104.27528
#
# Poissons Ratio (x) = 0.32337 0.31238
# Poissons Ratio (y) = 0.19334 0.19995
# Poissons Ratio (z) = 0.12528 0.13412
#
# Static dielectric constant tensor:
#      x y z
#    x 2.223530 -0.058320 -0.090020 
#    y -0.058320 2.103180 0.004820 
#    z -0.090020 0.004820 2.195410 
# 
# From -- ./inp_files/326223.got.cif
#   From: 2010.05.17/outbox.cif.g08.bks.cpg/sg2_164_cif.got.tgz:326223.got - 2010.06.03 11:33:40.
