data_PCOD9103964
_publ_section_title
;
Structure prediction by ZEFSAII (Michael W. Deem and Ramdas Pophale) SiO2 
 PCOD9103964
Probable space group: P -1
;
_chemical_formula_sum "Si O2"
_cell_formula_units_Z 16
_cell_length_a 9.980674
_cell_length_b 5.949205
_cell_length_c 15.647857
_cell_angle_alpha 57.884818
_cell_angle_beta 57.376246
_cell_angle_gamma 70.426103
_cell_volume 661.264260
_symmetry_space_group_name_H-M "P -1"
_symmetry_group_IT_number 2
_symmetry_cell_setting 'triclinic'
loop_
_space_group_symop_operation_xyz
x,y,z
-x,-y,-z
loop_
_atom_site_type_symbol
_atom_site_label
_atom_site_fract_x
_atom_site_fract_y
_atom_site_fract_z
Si Si1 0.616309 0.589700 0.604089
Si Si2 0.371625 0.831037 0.516492
Si Si3 0.446698 0.911102 0.176257
Si Si4 0.876995 0.038441 0.283074
Si Si5 0.096755 0.567329 0.561491
Si Si6 0.854349 0.723627 0.744174
Si Si7 0.994886 0.819426 0.951342
Si Si8 0.302498 0.821935 0.060669
O O1 0.527815 0.660408 0.529668
O O2 0.522544 0.359467 0.726459
O O3 0.805815 0.487296 0.550292
O O4 0.604730 0.881583 0.591896
O O5 0.283094 0.899520 0.622981
O O6 0.238218 0.695147 0.537619
O O7 0.399110 0.819481 0.116178
O O8 0.294480 0.065559 0.239878
O O9 0.583130 0.114717 0.070685
O O10 0.008487 0.203211 0.251850
O O11 0.865197 0.096823 0.175768
O O12 0.928418 0.729999 0.339254
O O13 0.936984 0.722705 0.621872
O O14 0.789052 0.446043 0.853275
O O15 0.829379 0.933471 0.943144
O O16 0.000000 0.500000 0.000000
O O17 0.000000 0.000000 0.000000
#
# Coordination Sequence:
#
# PCOD9103964 Si02
#       8
#     2   2   2   2   2   2   2   2
#     4  10  22  41  62 103 129 179 228 290 353 428
#     4   9  21  40  67  94 142 168 224 294 358 422
#     4  11  25  42  67  91 142 183 238 280 355 431
#     4  10  21  40  66  96 131 177 222 293 354 416
#     4  10  20  38  70  93 128 177 223 286 362 408
#     4  11  20  43  67  91 134 185 229 286 355 420
#     4  12  26  42  72 107 139 181 244 297 357 423
#     4  11  25  46  65  97 137 189 228 293 350 426
#
# _framework density 24.196075
#
# number of rings (size 3 to 8) (size 9 to 14) (size 15 to 20)
#    0.000    1.500    2.500    1.500    3.500    1.500 
#    0.000    8.750    0.000    0.000    0.000    0.000 
#    0.000    0.000    0.000    0.000    0.000    0.000 
#
# Total GULP energy -89256.686412 kJ/mol
# GULP energy per Si atom -5578.542901 kJ/mol
# Density = 2.414100 g / cm^3
# Si number density = 24.196075 Si / 1000 Ang^3
#
#
#
# Elastic Constant Matrix: (Units=GPa)
#
#
# Indices 1 2 3 4 5 6 
#
# 1 57.1915 34.8109 34.8276 -15.9769 -15.4857 18.3040
# 2 34.8109 106.1629 57.8198 -9.6618 -3.3047 -0.7956
# 3 34.8276 57.8198 97.4182 -21.2804 -16.8568 4.4975
# 4 -15.9769 -9.6618 -21.2804 51.9187 5.2846 -7.1771
# 5 -15.4857 -3.3047 -16.8568 5.2846 35.8603 2.3213
# 6 18.3040 -0.7956 4.4975 -7.1771 2.3213 48.1791
#
#
#
# Elastic Compliance Matrix: (Units=1/GPa)
#
#
# Indices 1 2 3 4 5 6 
#
# 1 0.032969 -0.008392 -0.003193 0.004341 0.012120 -0.012303
# 2 -0.008392 0.016414 -0.008371 -0.001751 -0.006065 0.004272
# 3 -0.003193 -0.008371 0.018350 0.004348 0.005853 -0.000273
# 4 0.004341 -0.001751 0.004348 0.022177 0.000411 0.001200
# 5 0.012120 -0.006065 0.005853 0.000411 0.035699 -0.006910
# 6 -0.012303 0.004272 -0.000273 0.001200 -0.006910 0.026038
#
#
# Mechanical properties :
#
#
# Convention : Reuss Voigt Hill
#
# Bulk Modulus (GPa) = 35.94257 57.29879 46.62068
# Shear Modulus (GPa) = 24.89645 36.07922 30.48784
#
# Velocity S-wave (km/s) = 3.21120 3.86569 3.55354
# Velocity P-wave (km/s) = 5.35126 6.60736 6.01220
#
# Compressibility (1/GPa) = 0.02782216
#
# Stress axis : x y z
#
# Youngs Moduli (GPa) = 30.33147 60.92260 54.49606
#
# Poissons Ratio (x) = 0.51124 0.17398
# Poissons Ratio (y) = 0.25453 0.45620
# Poissons Ratio (z) = 0.09684 0.51000
#
# Static dielectric constant tensor:
#      x y z
#    x 1.962280 0.024510 0.014730 
#    y 0.024510 2.033580 0.051770 
#    z 0.014730 0.051770 2.013740 
# 
# From -- ./inp_files/564348.got.cif
#   From: 2010.05.17/outbox.cif.g08.bks.cpg/sg2_283_cif.got.tgz:564348.got - 2010.06.03 11:33:40.
