data_PCOD9103370
_publ_section_title
;
Structure prediction by ZEFSAII (Michael W. Deem and Ramdas Pophale) SiO2 
 PCOD9103370
Probable space group: P -1
;
_chemical_formula_sum "Si O2"
_cell_formula_units_Z 16
_cell_length_a 14.802626
_cell_length_b 7.929349
_cell_length_c 13.960701
_cell_angle_alpha 39.879071
_cell_angle_beta 43.698761
_cell_angle_gamma 47.262608
_cell_volume 696.920520
_symmetry_space_group_name_H-M "P -1"
_symmetry_group_IT_number 2
_symmetry_cell_setting 'triclinic'
loop_
_space_group_symop_operation_xyz
x,y,z
-x,-y,-z
loop_
_atom_site_type_symbol
_atom_site_label
_atom_site_fract_x
_atom_site_fract_y
_atom_site_fract_z
Si Si1 0.550948 0.167460 0.553114
Si Si2 0.597675 0.865685 0.128926
Si Si3 0.590015 0.293354 0.781590
Si Si4 0.225630 0.351187 0.434382
Si Si5 0.299471 0.569719 0.535553
Si Si6 0.011945 0.245027 0.314849
Si Si7 0.058909 0.631701 0.258489
Si Si8 0.905545 0.812042 0.933652
O O1 0.495530 0.050457 0.742151
O O2 0.414341 0.289071 0.542254
O O3 0.629769 0.377721 0.443824
O O4 0.677413 0.952375 0.504248
O O5 0.552874 0.638357 0.197408
O O6 0.752229 0.803166 0.069876
O O7 0.575541 0.104910 0.962978
O O8 0.670144 0.486569 0.682666
O O9 0.688500 0.202981 0.651554
O O10 0.166175 0.456866 0.329576
O O11 0.091638 0.380280 0.588159
O O12 0.144792 0.583749 0.660008
O O13 0.081525 0.460900 0.216362
O O14 0.079301 0.110456 0.223277
O O15 0.000000 0.000000 0.500000
O O16 0.063650 0.947917 0.128844
O O17 0.000000 0.500000 0.000000
#
# Coordination Sequence:
#
# PCOD9103370 Si02
#       8
#     2   2   2   2   2   2   2   2
#     4  10  22  37  65  87 133 172 207 272 335 393
#     4  10  22  42  59  94 128 175 218 259 329 412
#     4  10  20  38  66  82 133 159 212 273 315 389
#     4  11  21  42  65 100 126 169 220 288 335 373
#     4  10  20  40  59  96 124 164 224 268 325 393
#     4  12  23  42  75 101 130 180 227 280 334 391
#     4  11  24  42  70 102 134 166 238 284 318 413
#     4  12  26  46  68  96 142 182 215 277 350 394
#
# _framework density 22.958141999999999
#
# number of rings (size 3 to 8) (size 9 to 14) (size 15 to 20)
#    0.000    1.250    2.500    4.500    0.000    5.500 
#    4.500    0.000    0.000    0.000    0.000    0.000 
#    0.000    0.000    0.000    0.000    0.000    0.000 
#
# Total GULP energy -89135.392186 kJ/mol
# GULP energy per Si atom -5570.962012 kJ/mol
# Density = 2.290589 g / cm^3
# Si number density = 22.958142 Si / 1000 Ang^3
#
#
#
# Elastic Constant Matrix: (Units=GPa)
#
#
# Indices 1 2 3 4 5 6 
#
# 1 101.4326 16.1751 9.1560 -8.9766 -12.6301 10.0840
# 2 16.1751 53.9512 -14.5347 -10.9044 -4.4742 2.9392
# 3 9.1560 -14.5347 61.2028 -7.9714 4.8860 11.4191
# 4 -8.9766 -10.9044 -7.9714 24.1283 8.3567 -4.6908
# 5 -12.6301 -4.4742 4.8860 8.3567 40.4277 -10.8009
# 6 10.0840 2.9392 11.4191 -4.6908 -10.8009 31.3423
#
#
#
# Elastic Compliance Matrix: (Units=1/GPa)
#
#
# Indices 1 2 3 4 5 6 
#
# 1 0.011194 -0.003620 -0.002477 0.000436 0.002966 -0.001272
# 2 -0.003620 0.024648 0.009028 0.013181 -0.003169 -0.003555
# 3 -0.002477 0.009028 0.022617 0.011388 -0.007293 -0.009099
# 4 0.000436 0.013181 0.011388 0.055066 -0.011497 -0.001246
# 5 0.002966 -0.003169 -0.007293 -0.011497 0.031548 0.011151
# 6 -0.001272 -0.003555 -0.009099 -0.001246 0.011151 0.039620
#
#
# Mechanical properties :
#
#
# Convention : Reuss Voigt Hill
#
# Bulk Modulus (GPa) = 15.54707 26.46438 21.00572
# Shear Modulus (GPa) = 24.96617 32.89901 28.93259
#
# Velocity S-wave (km/s) = 3.30125 3.78961 3.55383
# Velocity P-wave (km/s) = 4.61710 5.54079 5.09990
#
# Compressibility (1/GPa) = 0.06432082
#
# Stress axis : x y z
#
# Youngs Moduli (GPa) = 89.33378 40.57145 44.21509
#
# Poissons Ratio (x) = 0.14687 0.10952
# Poissons Ratio (y) = 0.32339 -0.39918
# Poissons Ratio (z) = 0.22128 -0.36628
#
# Static dielectric constant tensor:
#      x y z
#    x 1.926520 0.050700 0.031980 
#    y 0.050700 2.084330 -0.080720 
#    z 0.031980 -0.080720 1.932820 
# 
# From -- ./inp_files/528048.got.cif
#   From: 2010.05.17/outbox.cif.g08.bks.cpg/sg2_265_cif.got.tgz:528048.got - 2010.06.03 11:33:40.
