data_PCOD9103034
_publ_section_title
;
Structure prediction by ZEFSAII (Michael W. Deem and Ramdas Pophale) SiO2 
 PCOD9103034
Probable space group: P -1
;
_chemical_formula_sum "Si O2"
_cell_formula_units_Z 15
_cell_length_a 9.871118
_cell_length_b 4.957894
_cell_length_c 21.440725
_cell_angle_alpha 76.647987
_cell_angle_beta 146.301664
_cell_angle_gamma 103.623414
_cell_volume 564.606528
_symmetry_space_group_name_H-M "P -1"
_symmetry_group_IT_number 2
_symmetry_cell_setting 'triclinic'
loop_
_space_group_symop_operation_xyz
x,y,z
-x,-y,-z
loop_
_atom_site_type_symbol
_atom_site_label
_atom_site_fract_x
_atom_site_fract_y
_atom_site_fract_z
Si Si1 0.500000 0.500000 0.000000
Si Si2 0.727941 0.748030 0.944429
Si Si3 0.047052 0.613928 0.396522
Si Si4 0.216884 0.660629 0.327547
Si Si5 0.799102 0.464907 0.856227
Si Si6 0.727603 0.087049 0.293222
Si Si7 0.377819 0.245122 0.616926
Si Si8 0.962615 0.177392 0.178048
O O1 0.615100 0.611744 0.970882
O O2 0.306822 0.747572 0.913291
O O3 0.738092 0.553801 0.897305
O O4 0.535682 0.965806 0.837791
O O5 0.020933 0.785040 0.066810
O O6 0.995504 0.852217 0.215777
O O7 0.233054 0.658952 0.407843
O O8 0.175406 0.444337 0.507743
O O9 0.825005 0.400976 0.299321
O O10 0.454827 0.800566 0.376546
O O11 0.141843 0.359226 0.285212
O O12 0.555914 0.401531 0.726972
O O13 0.949297 0.713928 0.861936
O O14 0.931036 0.890443 0.358055
O O15 0.708723 0.028884 0.363142
#
# Coordination Sequence:
#
# PCOD9103034 Si02
#       8
#     1   2   2   2   2   2   2   2
#     4  10  20  38  64  96 134 174 220 274 340 404
#     4  10  20  40  68  99 134 177 224 280 339 401
#     4  12  26  45  69 103 140 181 226 283 343 402
#     4  11  23  43  68  97 136 177 228 279 336 398
#     4   9  21  42  68  98 135 177 230 280 334 401
#     4  12  26  45  70 100 140 180 227 279 343 408
#     4  11  25  45  70 100 136 182 231 282 336 405
#     4  10  22  40  64  98 134 177 223 277 334 399
#
# _framework density 26.567171999999999
#
# number of rings (size 3 to 8) (size 9 to 14) (size 15 to 20)
#    0.000    1.333    0.000    5.200    0.000    5.333 
#    0.000   20.667    0.000    0.000    0.000    0.000 
#    0.000    0.000    0.000    0.000    0.000    0.000 
#
# Total GULP energy -83846.956317 kJ/mol
# GULP energy per Si atom -5589.797088 kJ/mol
# Density = 2.650670 g / cm^3
# Si number density = 26.567172 Si / 1000 Ang^3
#
#
#
# Elastic Constant Matrix: (Units=GPa)
#
#
# Indices 1 2 3 4 5 6 
#
# 1 180.8704 45.7183 29.1409 -3.1877 9.7551 30.5875
# 2 45.7183 66.0209 1.8211 -10.0348 -12.1409 2.7101
# 3 29.1409 1.8211 99.2231 -19.9146 7.7707 -9.3213
# 4 -3.1877 -10.0348 -19.9146 41.6353 -0.4044 0.3707
# 5 9.7551 -12.1409 7.7707 -0.4044 29.1553 -11.8488
# 6 30.5875 2.7101 -9.3213 0.3707 -11.8488 42.1947
#
#
#
# Elastic Compliance Matrix: (Units=1/GPa)
#
#
# Indices 1 2 3 4 5 6 
#
# 1 0.011136 -0.009753 -0.003958 -0.003400 -0.011457 -0.011508
# 2 -0.009753 0.025684 0.003496 0.007188 0.017630 0.011081
# 3 -0.003958 0.003496 0.012935 0.006691 0.001848 0.005962
# 4 -0.003400 0.007188 0.006691 0.028695 0.004581 0.004515
# 5 -0.011457 0.017630 0.001848 0.004581 0.054307 0.022791
# 6 -0.011508 0.011081 0.005962 0.004515 0.022791 0.039007
#
#
# Mechanical properties :
#
#
# Convention : Reuss Voigt Hill
#
# Bulk Modulus (GPa) = 34.10101 55.49723 44.79912
# Shear Modulus (GPa) = 24.75625 40.55935 32.65780
#
# Velocity S-wave (km/s) = 3.05591 3.91150 3.50988
# Velocity P-wave (km/s) = 5.03141 6.42920 5.77277
#
# Compressibility (1/GPa) = 0.02932464
#
# Stress axis : x y z
#
# Youngs Moduli (GPa) = 89.79962 38.93459 77.31079
#
# Poissons Ratio (x) = 0.37975 0.30598
# Poissons Ratio (y) = 0.87585 -0.27028
# Poissons Ratio (z) = 0.35540 -0.13612
#
# Static dielectric constant tensor:
#      x y z
#    x 1.996010 0.027860 0.014640 
#    y 0.027860 2.066100 0.010370 
#    z 0.014640 0.010370 2.128730 
# 
# From -- ./inp_files/210553.got.cif
#   From: 2010.05.17/outbox.cif.g08.bks.cpg/sg2_106_cif.got.tgz:210553.got - 2010.06.03 11:33:40.
