data_PCOD9103096
_publ_section_title
;
Structure prediction by ZEFSAII (Michael W. Deem and Ramdas Pophale) SiO2 
 PCOD9103096
Probable space group: P -1
;
_chemical_formula_sum "Si O2"
_cell_formula_units_Z 16
_cell_length_a 9.273293
_cell_length_b 5.258462
_cell_length_c 21.555736
_cell_angle_alpha 106.247649
_cell_angle_beta 46.060074
_cell_angle_gamma 99.093710
_cell_volume 725.663122
_symmetry_space_group_name_H-M "P -1"
_symmetry_group_IT_number 2
_symmetry_cell_setting 'triclinic'
loop_
_space_group_symop_operation_xyz
x,y,z
-x,-y,-z
loop_
_atom_site_type_symbol
_atom_site_label
_atom_site_fract_x
_atom_site_fract_y
_atom_site_fract_z
Si Si1 0.651081 0.237568 0.182013
Si Si2 0.184138 0.477335 0.629664
Si Si3 0.991933 0.003757 0.874797
Si Si4 0.543704 0.870206 0.545288
Si Si5 0.782640 0.465039 0.033376
Si Si6 0.691006 0.718617 0.289533
Si Si7 0.201954 0.326713 0.188885
Si Si8 0.447497 0.850450 0.143534
O O1 0.652703 0.396178 0.127797
O O2 0.629293 0.444585 0.258646
O O3 0.872076 0.098551 0.115482
O O4 0.492767 0.012369 0.204446
O O5 0.366525 0.671250 0.594651
O O6 0.245936 0.292378 0.540064
O O7 0.196850 0.320484 0.680558
O O8 0.970360 0.633230 0.704413
O O9 0.153914 0.145090 0.792805
O O10 0.909317 0.757607 0.846109
O O11 0.819078 0.218666 0.959923
O O12 0.500000 0.000000 0.500000
O O13 0.505090 0.092642 0.623821
O O14 0.666800 0.714525 0.052618
O O15 0.000000 0.500000 0.000000
O O16 0.307206 0.603000 0.170915
O O17 0.348943 0.073707 0.143560
#
# Coordination Sequence:
#
# PCOD9103096 Si02
#       8
#     2   2   2   2   2   2   2   2
#     4  12  23  44  69  99 134 188 239 282 341 413
#     4  10  20  38  65 103 138 178 217 290 341 413
#     4  12  25  40  74  99 133 184 241 287 340 406
#     4   9  19  34  63 106 137 166 227 284 341 395
#     4  12  25  45  69  99 134 185 242 296 337 400
#     4  11  19  38  67 105 131 173 236 288 331 403
#     4  12  26  46  68 101 145 182 226 284 361 412
#     4  12  28  47  65 100 141 190 226 285 359 416
#
# _framework density 22.048798999999999
#
# number of rings (size 3 to 8) (size 9 to 14) (size 15 to 20)
#    0.000    0.750    6.250    1.125    1.750    1.000 
#    0.000    0.000    0.000    1.500    0.000    0.000 
#    0.000    0.000    0.000    0.000    0.000    0.000 
#
# Total GULP energy -89386.590607 kJ/mol
# GULP energy per Si atom -5586.661913 kJ/mol
# Density = 2.199861 g / cm^3
# Si number density = 22.048799 Si / 1000 Ang^3
#
#
#
# Elastic Constant Matrix: (Units=GPa)
#
#
# Indices 1 2 3 4 5 6 
#
# 1 64.4388 31.1887 -3.8040 0.0396 1.0579 18.3209
# 2 31.1887 113.4112 27.5492 13.9794 6.2720 19.0968
# 3 -3.8040 27.5492 88.3906 28.2788 9.1526 9.2321
# 4 0.0396 13.9794 28.2788 48.4850 1.9715 9.3423
# 5 1.0579 6.2720 9.1526 1.9715 14.7402 2.0002
# 6 18.3209 19.0968 9.2321 9.3423 2.0002 44.8937
#
#
#
# Elastic Compliance Matrix: (Units=1/GPa)
#
#
# Indices 1 2 3 4 5 6 
#
# 1 0.020156 -0.005218 0.002865 0.001141 -0.000232 -0.006822
# 2 -0.005218 0.011563 -0.003050 -0.001106 -0.002255 -0.001831
# 3 0.002865 -0.003050 0.015781 -0.007798 -0.007506 -0.001160
# 4 0.001141 -0.001106 -0.007798 0.026157 0.002267 -0.003936
# 5 -0.000232 -0.002255 -0.007506 0.002267 0.073331 -0.001141
# 6 -0.006822 -0.001831 -0.001160 -0.003936 -0.001141 0.026946
#
#
# Mechanical properties :
#
#
# Convention : Reuss Voigt Hill
#
# Bulk Modulus (GPa) = 27.25180 41.78983 34.52081
# Shear Modulus (GPa) = 25.38460 35.71090 30.54775
#
# Velocity S-wave (km/s) = 3.39675 4.02883 3.72622
# Velocity P-wave (km/s) = 5.26977 6.37467 5.84837
#
# Compressibility (1/GPa) = 0.03669483
#
# Stress axis : x y z
#
# Youngs Moduli (GPa) = 49.61272 86.48480 63.36912
#
# Poissons Ratio (x) = 0.45129 -0.18158
# Poissons Ratio (y) = 0.25888 0.19325
# Poissons Ratio (z) = -0.14216 0.26375
#
# Static dielectric constant tensor:
#      x y z
#    x 1.825740 -0.032390 -0.017680 
#    y -0.032390 1.929740 0.006110 
#    z -0.017680 0.006110 1.882680 
# 
# From -- ./inp_files/585222.got.cif
#   From: 2010.05.17/outbox.cif.g08.bks.cpg/sg2_293_cif.got.tgz:585222.got - 2010.06.03 11:33:40.
