data_PCOD9103404
_publ_section_title
;
Structure prediction by ZEFSAII (Michael W. Deem and Ramdas Pophale) SiO2 
 PCOD9103404
Probable space group: P -1
;
_chemical_formula_sum "Si O2"
_cell_formula_units_Z 14
_cell_length_a 8.187906
_cell_length_b 8.744588
_cell_length_c 13.817855
_cell_angle_alpha 126.075000
_cell_angle_beta 124.194736
_cell_angle_gamma 65.912170
_cell_volume 656.986571
_symmetry_space_group_name_H-M "P -1"
_symmetry_group_IT_number 2
_symmetry_cell_setting 'triclinic'
loop_
_space_group_symop_operation_xyz
x,y,z
-x,-y,-z
loop_
_atom_site_type_symbol
_atom_site_label
_atom_site_fract_x
_atom_site_fract_y
_atom_site_fract_z
Si Si1 0.721489 0.102410 0.527987
Si Si2 0.916325 0.383204 0.341344
Si Si3 0.569206 0.208028 0.098437
Si Si4 0.183671 0.850183 0.036753
Si Si5 0.884884 0.732705 0.320390
Si Si6 0.292748 0.078594 0.334331
Si Si7 0.694921 0.549283 0.023623
O O1 0.494719 0.173345 0.452609
O O2 0.885288 0.238523 0.606557
O O3 0.782685 0.908454 0.414796
O O4 0.730487 0.045965 0.623137
O O5 0.719597 0.276880 0.254067
O O6 0.863609 0.539531 0.298983
O O7 0.000000 0.500000 0.500000
O O8 0.097493 0.227361 0.315311
O O9 0.701014 0.193682 0.040185
O O10 0.384609 0.367617 0.074480
O O11 0.500000 0.000000 0.000000
O O12 0.306911 0.949478 0.195670
O O13 0.154413 0.644573 0.996441
O O14 0.000000 0.000000 0.000000
O O15 0.785633 0.711775 0.175454
O O16 0.500000 0.500000 0.000000
#
# Coordination Sequence:
#
# PCOD9103404 Si02
#       7
#     2   2   2   2   2   2   2
#     4  10  24  38  67  92 129 164 211 268 328 394
#     4  12  24  41  68  93 133 169 220 272 327 392
#     4  11  25  42  67  98 130 177 222 267 326 388
#     4  11  21  40  67  90 130 171 209 271 330 380
#     4  11  21  42  66  96 120 171 218 261 323 392
#     4  11  23  42  61  93 131 168 208 273 334 379
#     4  10  20  38  66  89 124 169 216 258 317 396
#
# _framework density 21.309414
#
# number of rings (size 3 to 8) (size 9 to 14) (size 15 to 20)
#    0.000    1.143    5.714    1.714    2.000    1.714 
#    0.000    5.714    0.000    0.000    0.000    0.000 
#    0.000    0.000    0.000    0.000    0.000    0.000 
#
# Total GULP energy -78149.990473 kJ/mol
# GULP energy per Si atom -5582.142177 kJ/mol
# Density = 2.126091 g / cm^3
# Si number density = 21.309414 Si / 1000 Ang^3
#
#
#
# Elastic Constant Matrix: (Units=GPa)
#
#
# Indices 1 2 3 4 5 6 
#
# 1 28.6114 8.2907 15.7635 -2.6370 20.2138 0.9560
# 2 8.2907 94.4356 11.5975 -0.1109 25.5940 -11.3299
# 3 15.7635 11.5975 137.6415 -0.8044 17.3481 3.0360
# 4 -2.6370 -0.1109 -0.8044 27.5355 0.0281 10.8048
# 5 20.2138 25.5940 17.3481 0.0281 35.9237 7.7416
# 6 0.9560 -11.3299 3.0360 10.8048 7.7416 16.2614
#
#
#
# Elastic Compliance Matrix: (Units=1/GPa)
#
#
# Indices 1 2 3 4 5 6 
#
# 1 0.070502 0.014238 -0.003031 -0.008538 -0.056756 0.039034
# 2 0.014238 0.023302 -0.000393 -0.014612 -0.033249 0.041009
# 3 -0.003031 -0.000393 0.007871 0.000347 -0.001592 -0.001038
# 4 -0.008538 -0.014612 0.000347 0.060332 0.028681 -0.063485
# 5 -0.056756 -0.033249 -0.001592 0.028681 0.103100 -0.087672
# 6 0.039034 0.041009 -0.001038 -0.063485 -0.087672 0.171887
#
#
# Mechanical properties :
#
#
# Convention : Reuss Voigt Hill
#
# Bulk Modulus (GPa) = 8.11024 36.88800 22.49912
# Shear Modulus (GPa) = 10.95367 30.94657 20.95012
#
# Velocity S-wave (km/s) = 2.26968 3.81497 3.13891
# Velocity P-wave (km/s) = 3.26846 6.06247 4.87013
#
# Compressibility (1/GPa) = 0.12330098
#
# Stress axis : x y z
#
# Youngs Moduli (GPa) = 14.18396 42.91555 127.04692
#
# Poissons Ratio (x) = -0.61103 0.38514
# Poissons Ratio (y) = -0.20195 0.04997
# Poissons Ratio (z) = 0.04300 0.01688
#
# Static dielectric constant tensor:
#      x y z
#    x 1.773320 -0.028530 0.051000 
#    y -0.028530 1.867780 -0.094380 
#    z 0.051000 -0.094380 1.979530 
# 
# From -- ./inp_files/175578.got.cif
#   From: 2010.05.17/outbox.cif.g08.bks.cpg/sg2_88_cif.got.tgz:175578.got - 2010.06.03 11:33:40.
