data_PCOD9103010
_publ_section_title
;
Structure prediction by ZEFSAII (Michael W. Deem and Ramdas Pophale) SiO2 
 PCOD9103010
Probable space group: P -1
;
_chemical_formula_sum "Si O2"
_cell_formula_units_Z 16
_cell_length_a 17.088478
_cell_length_b 10.767868
_cell_length_c 5.473039
_cell_angle_alpha 114.900445
_cell_angle_beta 69.624069
_cell_angle_gamma 136.422039
_cell_volume 628.181910
_symmetry_space_group_name_H-M "P -1"
_symmetry_group_IT_number 2
_symmetry_cell_setting 'triclinic'
loop_
_space_group_symop_operation_xyz
x,y,z
-x,-y,-z
loop_
_atom_site_type_symbol
_atom_site_label
_atom_site_fract_x
_atom_site_fract_y
_atom_site_fract_z
Si Si1 0.188972 0.415802 0.700986
Si Si2 0.863664 0.332358 0.033264
Si Si3 0.584081 0.033088 0.635978
Si Si4 0.407254 0.343945 0.220887
Si Si5 0.100462 0.725599 0.554995
Si Si6 0.061684 0.206942 0.177342
Si Si7 0.417618 0.699835 0.915445
Si Si8 0.621753 0.769538 0.331247
O O1 0.141441 0.291339 0.403505
O O2 0.317068 0.521351 0.720690
O O3 0.186803 0.575861 0.779058
O O4 0.119693 0.319847 0.951726
O O5 0.827396 0.234628 0.728988
O O6 0.843783 0.215521 0.190346
O O7 0.000000 0.500000 0.000000
O O8 0.508098 0.883667 0.809641
O O9 0.634819 0.945392 0.418182
O O10 0.500000 0.000000 0.500000
O O11 0.642917 0.242729 0.821405
O O12 0.502010 0.325515 0.072504
O O13 0.490550 0.567769 0.332459
O O14 0.336071 0.228468 0.444855
O O15 0.335918 0.262096 0.981186
O O16 0.000000 0.500000 0.500000
O O17 0.036207 0.794885 0.642352
O O18 0.000000 0.000000 0.000000
#
# Coordination Sequence:
#
# PCOD9103010 Si02
#       8
#     2   2   2   2   2   2   2   2
#     4  12  23  38  61  92 119 157 201 241 302 353
#     4  10  16  32  59  86 108 148 200 233 275 364
#     4  10  19  37  57  88 117 154 194 244 298 334
#     4   9  17  32  51  81 102 150 190 228 279 341
#     4  10  16  34  60  83 108 150 198 229 285 356
#     4  12  24  39  62  89 118 154 200 247 295 356
#     4  10  23  35  59  86 122 152 194 249 292 349
#     4   9  17  30  56  76 104 144 199 229 270 351
#
# _framework density 25.470327999999999
#
# number of rings (size 3 to 8) (size 9 to 14) (size 15 to 20)
#    0.000    1.750    6.250    0.375    1.750    0.000 
#    0.000    0.000    5.500    0.000    0.000    0.000 
#    0.000    0.000    0.000    0.000    0.000    0.000 
#
# Total GULP energy -89308.032749 kJ/mol
# GULP energy per Si atom -5581.752047 kJ/mol
# Density = 2.541236 g / cm^3
# Si number density = 25.470328 Si / 1000 Ang^3
#
#
#
# Elastic Constant Matrix: (Units=GPa)
#
#
# Indices 1 2 3 4 5 6 
#
# 1 65.1860 33.5463 34.5624 5.2623 -2.9100 -11.8436
# 2 33.5463 57.9606 31.2305 16.6003 -1.6619 -7.7384
# 3 34.5624 31.2305 182.4105 5.2367 26.6629 -2.0450
# 4 5.2623 16.6003 5.2367 46.8922 -13.0289 -0.6286
# 5 -2.9100 -1.6619 26.6629 -13.0289 50.3780 -0.9396
# 6 -11.8436 -7.7384 -2.0450 -0.6286 -0.9396 23.6011
#
#
#
# Elastic Compliance Matrix: (Units=1/GPa)
#
#
# Indices 1 2 3 4 5 6 
#
# 1 0.024751 -0.012306 -0.003104 0.003040 0.003608 0.008341
# 2 -0.012306 0.028311 -0.002117 -0.008600 -0.000831 0.002662
# 3 -0.003104 -0.002117 0.007059 -0.000896 -0.004251 -0.001833
# 4 0.003040 -0.008600 -0.000896 0.026099 0.007109 -0.000394
# 5 0.003608 -0.000831 -0.004251 0.007109 0.024163 0.002321
# 6 0.008341 0.002662 -0.001833 -0.000394 0.002321 0.047352
#
#
# Mechanical properties :
#
#
# Convention : Reuss Voigt Hill
#
# Bulk Modulus (GPa) = 39.89395 56.02617 47.96006
# Shear Modulus (GPa) = 24.85762 37.92212 31.38987
#
# Velocity S-wave (km/s) = 3.12740 3.86278 3.51438
# Velocity P-wave (km/s) = 5.36076 6.47604 5.94462
#
# Compressibility (1/GPa) = 0.02506646
#
# Stress axis : x y z
#
# Youngs Moduli (GPa) = 40.40288 35.32174 141.65634
#
# Poissons Ratio (x) = 0.43468 0.43969
# Poissons Ratio (y) = 0.49721 0.29992
# Poissons Ratio (z) = 0.12541 0.07478
#
# Static dielectric constant tensor:
#      x y z
#    x 2.041990 0.016760 -0.024560 
#    y 0.016760 1.889470 0.015800 
#    z -0.024560 0.015800 2.220420 
# 
# From -- ./inp_files/118839.got.cif
#   From: 2010.05.17/outbox.cif.g08.bks.cpg/sg2_60_cif.got.tgz:118839.got - 2010.06.03 11:33:40.
