data_PCOD9103203
_publ_section_title
;
Structure prediction by ZEFSAII (Michael W. Deem and Ramdas Pophale) SiO2 
 PCOD9103203
Probable space group: P -1
;
_chemical_formula_sum "Si O2"
_cell_formula_units_Z 16
_cell_length_a 11.776586
_cell_length_b 11.471936
_cell_length_c 8.296526
_cell_angle_alpha 45.815494
_cell_angle_beta 67.475218
_cell_angle_gamma 79.361198
_cell_volume 736.688876
_symmetry_space_group_name_H-M "P -1"
_symmetry_group_IT_number 2
_symmetry_cell_setting 'triclinic'
loop_
_space_group_symop_operation_xyz
x,y,z
-x,-y,-z
loop_
_atom_site_type_symbol
_atom_site_label
_atom_site_fract_x
_atom_site_fract_y
_atom_site_fract_z
Si Si1 0.099551 0.044582 0.763955
Si Si2 0.766481 0.187333 0.293446
Si Si3 0.151201 0.352299 0.633811
Si Si4 0.491044 0.843006 0.386183
Si Si5 0.097524 0.795264 0.464082
Si Si6 0.357374 0.826837 0.120403
Si Si7 0.590320 0.519838 0.582828
Si Si8 0.065401 0.542677 0.198959
O O1 0.175855 0.202787 0.652003
O O2 0.011144 0.096918 0.620265
O O3 0.186767 0.919544 0.771825
O O4 0.000000 0.000000 0.000000
O O5 0.621210 0.147432 0.439166
O O6 0.836297 0.155396 0.452261
O O7 0.820119 0.375482 0.045433
O O8 0.270374 0.415030 0.611114
O O9 0.120649 0.486779 0.390569
O O10 0.029551 0.326076 0.835671
O O11 0.424819 0.830194 0.256658
O O12 0.546082 0.672551 0.555031
O O13 0.588837 0.006552 0.159947
O O14 0.209991 0.812613 0.254339
O O15 0.023609 0.611349 0.676613
O O16 0.395883 0.660012 0.179908
O O17 0.500000 0.500000 0.500000
#
# Coordination Sequence:
#
# PCOD9103203 Si02
#       8
#     2   2   2   2   2   2   2   2
#     4  11  23  38  61  91 130 174 206 262 330 394
#     4  11  22  41  61  95 133 161 218 269 326 384
#     4  10  21  39  62  93 122 165 224 256 323 401
#     4   9  21  37  58  93 122 166 211 264 319 373
#     4  10  21  38  64  96 124 165 216 272 321 382
#     4   9  18  37  63  87 126 160 212 267 314 379
#     4  10  20  39  65  92 121 167 224 266 314 380
#     4  10  20  38  65  92 127 165 203 275 333 383
#
# _framework density 21.718803000000001
#
# number of rings (size 3 to 8) (size 9 to 14) (size 15 to 20)
#    0.000    2.000    2.500    0.750    1.750    0.000 
#    4.500    1.250    0.000    0.000    0.000    0.000 
#    0.000    0.000    0.000    0.000    0.000    0.000 
#
# Total GULP energy -89220.199283 kJ/mol
# GULP energy per Si atom -5576.262455 kJ/mol
# Density = 2.166937 g / cm^3
# Si number density = 21.718803 Si / 1000 Ang^3
#
#
#
# Elastic Constant Matrix: (Units=GPa)
#
#
# Indices 1 2 3 4 5 6 
#
# 1 71.1261 18.0693 15.2793 -5.7332 -24.9920 6.0284
# 2 18.0693 113.6074 50.9000 -7.3093 -20.1344 -20.7282
# 3 15.2793 50.9000 105.3809 -5.0681 -33.1865 -8.8071
# 4 -5.7332 -7.3093 -5.0681 24.9255 4.8640 -0.1597
# 5 -24.9920 -20.1344 -33.1865 4.8640 27.8048 4.0369
# 6 6.0284 -20.7282 -8.8071 -0.1597 4.0369 26.0253
#
#
#
# Elastic Compliance Matrix: (Units=1/GPa)
#
#
# Indices 1 2 3 4 5 6 
#
# 1 0.024589 -0.003642 0.006264 0.000234 0.028481 -0.010893
# 2 -0.003642 0.013564 -0.005764 0.002466 -0.002224 0.010056
# 3 0.006264 -0.005764 0.018746 -0.001253 0.024560 -0.003516
# 4 0.000234 0.002466 -0.001253 0.042080 -0.007278 0.002873
# 5 0.028481 -0.002224 0.024560 -0.007278 0.092644 -0.014472
# 6 -0.010893 0.010056 -0.003516 0.002873 -0.014472 0.050029
#
#
# Mechanical properties :
#
#
# Convention : Reuss Voigt Hill
#
# Bulk Modulus (GPa) = 19.75762 50.95683 35.35723
# Shear Modulus (GPa) = 18.88163 29.47548 24.17855
#
# Velocity S-wave (km/s) = 2.95170 3.68794 3.34017
# Velocity P-wave (km/s) = 4.55340 6.45349 5.58485
#
# Compressibility (1/GPa) = 0.05061339
#
# Stress axis : x y z
#
# Youngs Moduli (GPa) = 40.66866 73.72703 53.34526
#
# Poissons Ratio (x) = 0.26854 -0.33417
# Poissons Ratio (y) = 0.14813 0.30751
# Poissons Ratio (z) = -0.25476 0.42500
#
# Static dielectric constant tensor:
#      x y z
#    x 1.814830 0.035300 0.019540 
#    y 0.035300 1.883210 -0.031170 
#    z 0.019540 -0.031170 1.831170 
# 
# From -- ./inp_files/180298.got.cif
#   From: 2010.05.17/outbox.cif.g08.bks.cpg/sg2_91_cif.got.tgz:180298.got - 2010.06.03 11:33:40.
