data_PCOD9103882
_publ_section_title
;
Structure prediction by ZEFSAII (Michael W. Deem and Ramdas Pophale) SiO2 
 PCOD9103882
Probable space group: P -1
;
_chemical_formula_sum "Si O2"
_cell_formula_units_Z 16
_cell_length_a 8.804401
_cell_length_b 9.619997
_cell_length_c 11.351182
_cell_angle_alpha 70.967700
_cell_angle_beta 120.092071
_cell_angle_gamma 111.127114
_cell_volume 763.238806
_symmetry_space_group_name_H-M "P -1"
_symmetry_group_IT_number 2
_symmetry_cell_setting 'triclinic'
loop_
_space_group_symop_operation_xyz
x,y,z
-x,-y,-z
loop_
_atom_site_type_symbol
_atom_site_label
_atom_site_fract_x
_atom_site_fract_y
_atom_site_fract_z
Si Si1 0.724444 0.809096 0.747658
Si Si2 0.668673 0.250907 0.288625
Si Si3 0.609725 0.234066 0.758268
Si Si4 0.075310 0.897031 0.966581
Si Si5 0.682527 0.546535 0.633043
Si Si6 0.339207 0.997301 0.844474
Si Si7 0.979859 0.528244 0.346881
Si Si8 0.219631 0.836770 0.383412
O O1 0.543668 0.766525 0.766931
O O2 0.698991 0.708272 0.650095
O O3 0.897159 0.775998 0.890216
O O4 0.768130 0.987657 0.684428
O O5 0.689725 0.144051 0.217046
O O6 0.786283 0.422146 0.265882
O O7 0.737798 0.192457 0.455668
O O8 0.651410 0.410864 0.753312
O O9 0.631592 0.205050 0.635507
O O10 0.416149 0.145338 0.755088
O O11 0.768245 0.167718 0.895629
O O12 0.164912 0.985179 0.860333
O O13 0.000000 0.000000 0.000000
O O14 0.500000 0.500000 0.500000
O O15 0.862959 0.534100 0.638587
O O16 0.500000 0.000000 0.000000
O O17 0.000000 0.500000 0.500000
O O18 0.037722 0.711346 0.308033
#
# Coordination Sequence:
#
# PCOD9103882 Si02
#       8
#     2   2   2   2   2   2   2   2
#     4  12  22  38  64  99 124 171 224 263 316 394
#     4  11  21  39  68  95 136 171 214 274 330 387
#     4  10  21  43  65  91 136 177 208 270 331 378
#     4  11  22  42  67  93 127 169 227 269 316 392
#     4  11  24  40  63  96 137 168 217 271 327 387
#     4  10  21  39  65  93 128 171 220 266 325 383
#     4   9  20  40  59  89 133 175 206 265 332 383
#     4  10  20  38  69  92 125 175 214 259 338 377
#
# _framework density 20.963296
#
# number of rings (size 3 to 8) (size 9 to 14) (size 15 to 20)
#    0.000    1.500    2.500    4.125    1.750    0.500 
#    6.750    4.375    0.000    6.750    0.000    0.000 
#    0.000    0.000    0.000    0.000    0.000    0.000 
#
# Total GULP energy -89277.689867 kJ/mol
# GULP energy per Si atom -5579.855617 kJ/mol
# Density = 2.091558 g / cm^3
# Si number density = 20.963296 Si / 1000 Ang^3
#
#
#
# Elastic Constant Matrix: (Units=GPa)
#
#
# Indices 1 2 3 4 5 6 
#
# 1 140.1340 67.9649 31.2844 8.7877 -7.2405 20.9661
# 2 67.9649 153.4436 29.0938 9.1457 -10.1608 17.6961
# 3 31.2844 29.0938 61.0959 22.1498 -5.5548 1.1502
# 4 8.7877 9.1457 22.1498 30.8279 -0.1123 3.2631
# 5 -7.2405 -10.1608 -5.5548 -0.1123 37.1319 0.3920
# 6 20.9661 17.6961 1.1502 3.2631 0.3920 31.2720
#
#
#
# Elastic Compliance Matrix: (Units=1/GPa)
#
#
# Indices 1 2 3 4 5 6 
#
# 1 0.010340 -0.003258 -0.004157 0.001549 0.000561 -0.005104
# 2 -0.003258 0.008825 -0.002498 0.000405 0.001436 -0.002778
# 3 -0.004157 -0.002498 0.026088 -0.017341 0.002303 0.005022
# 4 0.001549 0.000405 -0.017341 0.044889 -0.001990 -0.005288
# 5 0.000561 0.001436 0.002303 -0.001990 0.027787 -0.001415
# 6 -0.005104 -0.002778 0.005022 -0.005288 -0.001415 0.037356
#
#
# Mechanical properties :
#
#
# Convention : Reuss Voigt Hill
#
# Bulk Modulus (GPa) = 39.33004 67.92884 53.62944
# Shear Modulus (GPa) = 27.23503 34.93508 31.08506
#
# Velocity S-wave (km/s) = 3.60832 4.08669 3.85493
# Velocity P-wave (km/s) = 6.01349 7.39879 6.74182
#
# Compressibility (1/GPa) = 0.02542586
#
# Stress axis : x y z
#
# Youngs Moduli (GPa) = 96.71298 113.31242 38.33215
#
# Poissons Ratio (x) = 0.36918 0.15936
# Poissons Ratio (y) = 0.31510 0.09576
# Poissons Ratio (z) = 0.40207 0.28306
#
# Static dielectric constant tensor:
#      x y z
#    x 1.716590 0.033410 0.010910 
#    y 0.033410 1.795050 0.004090 
#    z 0.010910 0.004090 1.842870 
# 
# From -- ./inp_files/378815.got.cif
#   From: 2010.05.17/outbox.cif.g08.bks.cpg/sg2_190_cif.got.tgz:378815.got - 2010.06.03 11:33:40.
