data_PCOD9103655
_publ_section_title
;
Structure prediction by ZEFSAII (Michael W. Deem and Ramdas Pophale) SiO2 
 PCOD9103655
Probable space group: P -1
;
_chemical_formula_sum "Si O2"
_cell_formula_units_Z 16
_cell_length_a 5.533226
_cell_length_b 17.045241
_cell_length_c 8.244931
_cell_angle_alpha 113.263843
_cell_angle_beta 117.429470
_cell_angle_gamma 66.398584
_cell_volume 610.911250
_symmetry_space_group_name_H-M "P -1"
_symmetry_group_IT_number 2
_symmetry_cell_setting 'triclinic'
loop_
_space_group_symop_operation_xyz
x,y,z
-x,-y,-z
loop_
_atom_site_type_symbol
_atom_site_label
_atom_site_fract_x
_atom_site_fract_y
_atom_site_fract_z
Si Si1 0.314939 0.885689 0.900671
Si Si2 0.242280 0.459047 0.834973
Si Si3 0.225240 0.709217 0.694951
Si Si4 0.306624 0.452957 0.200008
Si Si5 0.203483 0.145132 0.182569
Si Si6 0.551565 0.913460 0.334629
Si Si7 0.355193 0.651861 0.335108
Si Si8 0.093346 0.822282 0.233860
O O1 0.392218 0.779115 0.869692
O O2 0.977119 0.905932 0.807175
O O3 0.470778 0.896216 0.791358
O O4 0.411386 0.927551 0.122691
O O5 0.332217 0.380866 0.671905
O O6 0.967819 0.535744 0.762602
O O7 0.500000 0.500000 0.000000
O O8 0.205477 0.422273 0.972362
O O9 0.395097 0.612337 0.722548
O O10 0.909086 0.756036 0.696748
O O11 0.273915 0.707664 0.517290
O O12 0.323175 0.554382 0.288350
O O13 0.069034 0.151341 0.965265
O O14 0.384024 0.851626 0.327795
O O15 0.878759 0.868871 0.348881
O O16 0.500000 0.000000 0.500000
O O17 0.174462 0.716323 0.196680
#
# Coordination Sequence:
#
# PCOD9103655 Si02
#       8
#     2   2   2   2   2   2   2   2
#     4   8  18  33  57  84 111 147 191 239 289 341
#     4   9  21  36  53  78 111 150 206 257 302 325
#     4  10  21  35  55  83 118 164 205 241 285 352
#     4  10  21  37  56  79 114 162 207 249 289 344
#     4   8  17  35  55  79 109 152 192 236 285 340
#     4  10  20  38  67  94 114 146 195 249 299 360
#     4  11  23  35  54  85 120 160 196 247 297 345
#     4  10  21  37  61  90 122 147 192 246 301 352
#
# _framework density 26.190384999999999
#
# number of rings (size 3 to 8) (size 9 to 14) (size 15 to 20)
#    0.750    1.750    0.000    1.500    1.750    8.500 
#    0.000    0.000    0.000    1.500    0.000    0.000 
#    0.000    0.000    0.000    0.000    0.000    0.000 
#
# Total GULP energy -89174.526665 kJ/mol
# GULP energy per Si atom -5573.407917 kJ/mol
# Density = 2.613077 g / cm^3
# Si number density = 26.190385 Si / 1000 Ang^3
#
#
#
# Elastic Constant Matrix: (Units=GPa)
#
#
# Indices 1 2 3 4 5 6 
#
# 1 168.0406 54.9025 46.8337 20.2852 -54.7439 -6.6414
# 2 54.9025 82.8355 20.3773 27.7535 -7.2372 -10.4191
# 3 46.8337 20.3773 128.5090 32.2164 -35.3830 -14.4621
# 4 20.2852 27.7535 32.2164 32.1524 -6.0261 -0.3751
# 5 -54.7439 -7.2372 -35.3830 -6.0261 44.0421 20.2875
# 6 -6.6414 -10.4191 -14.4621 -0.3751 20.2875 31.5858
#
#
#
# Elastic Compliance Matrix: (Units=1/GPa)
#
#
# Indices 1 2 3 4 5 6 
#
# 1 0.020733 -0.015876 0.000348 0.006562 0.034986 -0.023111
# 2 -0.015876 0.030693 0.001907 -0.023349 -0.028054 0.025401
# 3 0.000348 0.001907 0.013391 -0.013524 0.009345 0.000671
# 4 0.006562 -0.023349 -0.013524 0.062426 0.010536 -0.018541
# 5 0.034986 -0.028054 0.009345 0.010536 0.098529 -0.060778
# 6 -0.023111 0.025401 0.000671 -0.018541 -0.060778 0.074304
#
#
# Mechanical properties :
#
#
# Convention : Reuss Voigt Hill
#
# Bulk Modulus (GPa) = 26.61328 69.29023 47.95175
# Shear Modulus (GPa) = 14.71270 38.70751 26.71010
#
# Velocity S-wave (km/s) = 2.37272 3.84855 3.19696
# Velocity P-wave (km/s) = 4.20594 6.80164 5.65474
#
# Compressibility (1/GPa) = 0.03757523
#
# Stress axis : x y z
#
# Youngs Moduli (GPa) = 48.23247 32.58125 74.67548
#
# Poissons Ratio (x) = 0.51726 -0.02602
# Poissons Ratio (y) = 0.76574 -0.14240
# Poissons Ratio (z) = -0.01680 -0.06213
#
# Static dielectric constant tensor:
#      x y z
#    x 2.439200 0.060920 -0.103320 
#    y 0.060920 2.060130 -0.031160 
#    z -0.103320 -0.031160 2.108090 
# 
# From -- ./inp_files/137948.got.cif
#   From: 2010.05.17/outbox.cif.g08.bks.cpg/sg2_69_cif.got.tgz:137948.got - 2010.06.03 11:33:40.
