data_PCOD9103886
_publ_section_title
;
Structure prediction by ZEFSAII (Michael W. Deem and Ramdas Pophale) SiO2 
 PCOD9103886
Probable space group: P -1
;
_chemical_formula_sum "Si O2"
_cell_formula_units_Z 14
_cell_length_a 17.055907
_cell_length_b 8.767911
_cell_length_c 5.202506
_cell_angle_alpha 64.382011
_cell_angle_beta 109.128626
_cell_angle_gamma 116.778321
_cell_volume 617.699371
_symmetry_space_group_name_H-M "P -1"
_symmetry_group_IT_number 2
_symmetry_cell_setting 'triclinic'
loop_
_space_group_symop_operation_xyz
x,y,z
-x,-y,-z
loop_
_atom_site_type_symbol
_atom_site_label
_atom_site_fract_x
_atom_site_fract_y
_atom_site_fract_z
Si Si1 0.680006 0.695213 0.563025
Si Si2 0.187796 0.390197 0.532909
Si Si3 0.376441 0.490774 0.860993
Si Si4 0.546852 0.110572 0.220538
Si Si5 0.738757 0.117325 0.284440
Si Si6 0.846557 0.271956 0.792712
Si Si7 0.057116 0.000761 0.811390
O O1 0.765926 0.635473 0.665209
O O2 0.611541 0.580225 0.355169
O O3 0.716553 0.904339 0.379273
O O4 0.637007 0.655302 0.823824
O O5 0.276786 0.497514 0.713754
O O6 0.127167 0.510997 0.355232
O O7 0.139674 0.192262 0.745323
O O8 0.446069 0.682461 0.883565
O O9 0.500000 0.000000 0.500000
O O10 0.648301 0.129155 0.282915
O O11 0.500000 0.000000 0.000000
O O12 0.811426 0.193163 0.531174
O O13 0.770513 0.212855 0.975534
O O14 0.913185 0.173000 0.022162
O O15 0.000000 0.000000 0.500000
O O16 0.000000 0.000000 0.000000
#
# Coordination Sequence:
#
# PCOD9103886 Si02
#       7
#     2   2   2   2   2   2   2
#     4  10  20  38  69  93 127 166 241 280 310 386
#     4  10  24  42  73  94 135 179 233 274 329 407
#     4  10  21  41  64  95 126 178 229 264 334 404
#     4  12  25  42  63 100 144 172 217 294 349 386
#     4  12  22  43  69 105 125 183 239 270 329 418
#     4  12  24  43  75  97 131 188 238 265 333 418
#     4  12  28  45  66 105 146 170 218 296 352 386
#
# _framework density 22.664746999999998
#
# number of rings (size 3 to 8) (size 9 to 14) (size 15 to 20)
#    0.857    0.000    2.857    5.143    2.000    1.143 
#    0.000    4.286    0.000    0.000    0.000    0.000 
#    0.000    0.000    0.000    0.000    0.000    0.000 
#
# Total GULP energy -78213.033142 kJ/mol
# GULP energy per Si atom -5586.645224 kJ/mol
# Density = 2.261316 g / cm^3
# Si number density = 22.664747 Si / 1000 Ang^3
#
#
#
# Elastic Constant Matrix: (Units=GPa)
#
#
# Indices 1 2 3 4 5 6 
#
# 1 75.8758 -10.8537 6.2015 -0.8263 0.1044 -10.5890
# 2 -10.8537 70.6015 7.4791 6.7701 7.3285 -6.6754
# 3 6.2015 7.4791 83.5374 11.9993 -14.3845 -6.2970
# 4 -0.8263 6.7701 11.9993 43.5457 -6.2583 3.1414
# 5 0.1044 7.3285 -14.3845 -6.2583 47.5562 -6.3854
# 6 -10.5890 -6.6754 -6.2970 3.1414 -6.3854 26.3727
#
#
#
# Elastic Compliance Matrix: (Units=1/GPa)
#
#
# Indices 1 2 3 4 5 6 
#
# 1 0.014568 0.002967 -0.000782 -0.000424 0.000089 0.006486
# 2 0.002967 0.015721 -0.001339 -0.002718 -0.002581 0.004550
# 3 -0.000782 -0.001339 0.013691 -0.003231 0.004472 0.004084
# 4 -0.000424 -0.002718 -0.003231 0.024875 0.002170 -0.004067
# 5 0.000089 -0.002581 0.004472 0.002170 0.023865 0.005970
# 6 0.006486 0.004550 0.004084 -0.004067 0.005970 0.044579
#
#
# Mechanical properties :
#
#
# Convention : Reuss Voigt Hill
#
# Bulk Modulus (GPa) = 21.89505 26.18536 24.04021
# Shear Modulus (GPa) = 33.15005 38.64075 35.89540
#
# Velocity S-wave (km/s) = 3.82858 4.13350 3.98396
# Velocity P-wave (km/s) = 5.40605 5.86170 5.63848
#
# Compressibility (1/GPa) = 0.04567242
#
# Stress axis : x y z
#
# Youngs Moduli (GPa) = 68.64275 63.61049 73.04269
#
# Poissons Ratio (x) = -0.18874 0.05711
# Poissons Ratio (y) = -0.20367 0.09779
# Poissons Ratio (z) = 0.05367 0.08516
#
# Static dielectric constant tensor:
#      x y z
#    x 1.899650 -0.015750 0.048860 
#    y -0.015750 1.878010 0.009210 
#    z 0.048860 0.009210 1.815450 
# 
# From -- ./inp_files/106341.got.cif
#   From: 2010.05.17/outbox.cif.g08.bks.cpg/sg2_54_cif.got.tgz:106341.got - 2010.06.03 11:33:40.
