data_PCOD9103908
_publ_section_title
;
Structure prediction by ZEFSAII (Michael W. Deem and Ramdas Pophale) SiO2 
 PCOD9103908
Probable space group: P -1
;
_chemical_formula_sum "Si O2"
_cell_formula_units_Z 16
_cell_length_a 11.632090
_cell_length_b 20.640858
_cell_length_c 17.393081
_cell_angle_alpha 160.663691
_cell_angle_beta 31.277386
_cell_angle_gamma 137.990134
_cell_volume 667.243446
_symmetry_space_group_name_H-M "P -1"
_symmetry_group_IT_number 2
_symmetry_cell_setting 'triclinic'
loop_
_space_group_symop_operation_xyz
x,y,z
-x,-y,-z
loop_
_atom_site_type_symbol
_atom_site_label
_atom_site_fract_x
_atom_site_fract_y
_atom_site_fract_z
Si Si1 0.056656 0.779756 0.148083
Si Si2 0.073238 0.335757 0.600026
Si Si3 0.459370 0.424866 0.854714
Si Si4 0.748636 0.882561 0.584880
Si Si5 0.857439 0.812819 0.039522
Si Si6 0.362768 0.005741 0.475267
Si Si7 0.043416 0.607504 0.518535
Si Si8 0.215763 0.023771 0.022226
O O1 0.950435 0.760591 0.270751
O O2 0.839928 0.971467 0.445361
O O3 0.261111 0.876172 0.141643
O O4 0.117580 0.557063 0.821506
O O5 0.192627 0.211402 0.469119
O O6 0.159915 0.182262 0.305314
O O7 0.785530 0.411152 0.854955
O O8 0.425375 0.207794 0.644464
O O9 0.696263 0.383562 0.624862
O O10 0.500000 0.500000 0.000000
O O11 0.493096 0.884099 0.707413
O O12 0.762240 0.960345 0.332483
O O13 0.622180 0.831641 0.145845
O O14 0.962153 0.573311 0.740616
O O15 0.046328 0.889761 0.976256
O O16 0.000000 0.500000 0.500000
O O17 0.857659 0.828905 0.845575
#
# Coordination Sequence:
#
# PCOD9103908 Si02
#       8
#     2   2   2   2   2   2   2   2
#     4  10  24  43  66  95 130 179 234 274 335 395
#     4  11  23  42  73  96 126 178 234 277 329 402
#     4  11  19  42  68  97 134 169 229 278 329 405
#     4  11  26  43  66  96 138 180 223 279 338 406
#     4  11  23  39  68  99 134 174 224 272 349 399
#     4  10  20  38  69  97 125 173 227 282 320 405
#     4  12  27  40  63 102 140 179 216 280 349 402
#     4  12  26  45  65 102 143 174 225 283 342 409
#
# _framework density 23.979254999999998
#
# number of rings (size 3 to 8) (size 9 to 14) (size 15 to 20)
#    0.000    1.000    3.750    2.250    5.250    5.000 
#    0.000    0.000    0.000    0.000    0.000    0.000 
#    0.000    0.000    0.000    0.000    0.000    0.000 
#
# Total GULP energy -89539.112832 kJ/mol
# GULP energy per Si atom -5596.194552 kJ/mol
# Density = 2.392468 g / cm^3
# Si number density = 23.979255 Si / 1000 Ang^3
#
#
#
# Elastic Constant Matrix: (Units=GPa)
#
#
# Indices 1 2 3 4 5 6 
#
# 1 67.7760 25.4849 1.9644 -10.8249 -15.4618 -8.0868
# 2 25.4849 113.3953 13.2225 -7.8121 -18.9661 -2.7019
# 3 1.9644 13.2225 50.0023 4.2383 -5.9219 -2.5828
# 4 -10.8249 -7.8121 4.2383 37.4375 2.2133 5.8812
# 5 -15.4618 -18.9661 -5.9219 2.2133 41.0270 4.8470
# 6 -8.0868 -2.7019 -2.5828 5.8812 4.8470 37.5320
#
#
#
# Elastic Compliance Matrix: (Units=1/GPa)
#
#
# Indices 1 2 3 4 5 6 
#
# 1 0.017872 -0.002919 0.000458 0.003832 0.004958 0.002431
# 2 -0.002919 0.010405 -0.002403 0.001513 0.003366 -0.000717
# 3 0.000458 -0.002403 0.021216 -0.003148 0.002104 0.001607
# 4 0.003832 0.001513 -0.003148 0.029071 0.000583 -0.003913
# 5 0.004958 0.003366 0.002104 0.000583 0.028342 -0.002296
# 6 0.002431 -0.000717 0.001607 -0.003913 -0.002296 0.028137
#
#
# Mechanical properties :
#
#
# Convention : Reuss Voigt Hill
#
# Bulk Modulus (GPa) = 25.14858 34.72413 29.93635
# Shear Modulus (GPa) = 31.64026 35.89942 33.76984
#
# Velocity S-wave (km/s) = 3.63641 3.87344 3.75680
# Velocity P-wave (km/s) = 5.30488 5.87512 5.59727
#
# Compressibility (1/GPa) = 0.03976368
#
# Stress axis : x y z
#
# Youngs Moduli (GPa) = 55.95369 96.10644 47.13508
#
# Poissons Ratio (x) = 0.28052 -0.02158
# Poissons Ratio (y) = 0.16332 0.11329
# Poissons Ratio (z) = -0.02561 0.23099
#
# Static dielectric constant tensor:
#      x y z
#    x 2.005710 0.005410 0.035910 
#    y 0.005410 1.881350 -0.020180 
#    z 0.035910 -0.020180 2.047130 
# 
# From -- ./inp_files/398073.got.cif
#   From: 2010.05.17/outbox.cif.g08.bks.cpg/sg2_200_cif.got.tgz:398073.got - 2010.06.03 11:33:40.
