data_PCOD9103317
_publ_section_title
;
Structure prediction by ZEFSAII (Michael W. Deem and Ramdas Pophale) SiO2 
 PCOD9103317
Probable space group: P -1
;
_chemical_formula_sum "Si O2"
_cell_formula_units_Z 16
_cell_length_a 22.002287
_cell_length_b 5.874308
_cell_length_c 12.565052
_cell_angle_alpha 129.976429
_cell_angle_beta 33.422151
_cell_angle_gamma 121.625043
_cell_volume 685.200159
_symmetry_space_group_name_H-M "P -1"
_symmetry_group_IT_number 2
_symmetry_cell_setting 'triclinic'
loop_
_space_group_symop_operation_xyz
x,y,z
-x,-y,-z
loop_
_atom_site_type_symbol
_atom_site_label
_atom_site_fract_x
_atom_site_fract_y
_atom_site_fract_z
Si Si1 0.589554 0.500290 0.774042
Si Si2 0.248659 0.884378 0.038388
Si Si3 0.925912 0.784125 0.726714
Si Si4 0.729059 0.742765 0.160770
Si Si5 0.102242 0.129874 0.700916
Si Si6 0.424127 0.284257 0.802352
Si Si7 0.177863 0.757985 0.679952
Si Si8 0.309064 0.899286 0.200505
O O1 0.544393 0.309544 0.683589
O O2 0.714250 0.381769 0.581651
O O3 0.608850 0.838448 0.814787
O O4 0.500000 0.500000 0.000000
O O5 0.271715 0.919587 0.139097
O O6 0.131151 0.042390 0.235129
O O7 0.249814 0.551910 0.890397
O O8 0.355537 0.020132 0.869642
O O9 0.000000 0.500000 0.500000
O O10 0.818035 0.688889 0.920067
O O11 0.993445 0.007119 0.767840
O O12 0.607781 0.725523 0.278771
O O13 0.767709 0.032880 0.249019
O O14 0.118609 0.479260 0.744239
O O15 0.111374 0.985480 0.764209
O O16 0.203151 0.956124 0.443500
O O17 0.367297 0.580598 0.024973
#
# Coordination Sequence:
#
# PCOD9103317 Si02
#       8
#     2   2   2   2   2   2   2   2
#     4  11  21  39  71  99 133 175 225 279 343 400
#     4  10  21  40  65  96 134 171 220 279 337 396
#     4  11  25  41  73 101 131 175 228 278 343 403
#     4  10  25  44  65  94 138 180 224 279 332 403
#     4  11  26  44  68 100 136 178 227 278 340 401
#     4  10  20  38  65  97 131 174 223 276 336 400
#     4  11  28  47  67  99 140 183 225 283 332 401
#     4  10  21  38  66  98 139 167 220 286 343 397
#
# _framework density 23.350842
#
# number of rings (size 3 to 8) (size 9 to 14) (size 15 to 20)
#    0.000    1.500    1.250    3.375   10.500    3.500 
#    0.000    0.625    0.000    0.000    0.000    0.000 
#    0.000    0.000    0.000    0.000    0.000    0.000 
#
# Total GULP energy -89259.293578 kJ/mol
# GULP energy per Si atom -5578.705849 kJ/mol
# Density = 2.329769 g / cm^3
# Si number density = 23.350842 Si / 1000 Ang^3
#
#
#
# Elastic Constant Matrix: (Units=GPa)
#
#
# Indices 1 2 3 4 5 6 
#
# 1 127.1197 42.9652 4.1089 8.9680 -25.3769 5.3702
# 2 42.9652 129.3883 14.7548 16.6933 -15.4446 17.2007
# 3 4.1089 14.7548 44.7521 -1.4614 -0.3019 0.3631
# 4 8.9680 16.6933 -1.4614 32.0706 9.6790 0.0342
# 5 -25.3769 -15.4446 -0.3019 9.6790 20.5275 0.2206
# 6 5.3702 17.2007 0.3631 0.0342 0.2206 42.7845
#
#
#
# Elastic Compliance Matrix: (Units=1/GPa)
#
#
# Indices 1 2 3 4 5 6 
#
# 1 0.012734 -0.000253 -0.001249 -0.009534 0.020046 -0.001582
# 2 -0.000253 0.011857 -0.004095 -0.010351 0.013480 -0.004762
# 3 -0.001249 -0.004095 0.023935 0.005671 -0.006965 0.001631
# 4 -0.009534 -0.010351 0.005671 0.052919 -0.044502 0.005497
# 5 0.020046 0.013480 -0.006965 -0.044502 0.104609 -0.008380
# 6 -0.001582 -0.004762 0.001631 0.005497 -0.008380 0.025511
#
#
# Mechanical properties :
#
#
# Convention : Reuss Voigt Hill
#
# Bulk Modulus (GPa) = 26.78612 47.21311 36.99962
# Shear Modulus (GPa) = 19.59236 35.03860 27.31548
#
# Velocity S-wave (km/s) = 2.89977 3.87787 3.42392
# Velocity P-wave (km/s) = 4.76525 6.34928 5.61342
#
# Compressibility (1/GPa) = 0.03733276
#
# Stress axis : x y z
#
# Youngs Moduli (GPa) = 78.53263 84.33777 41.77986
#
# Poissons Ratio (x) = 0.02132 0.05219
# Poissons Ratio (y) = 0.01985 0.17107
# Poissons Ratio (z) = 0.09809 0.34533
#
# Static dielectric constant tensor:
#      x y z
#    x 2.058170 -0.073760 -0.051220 
#    y -0.073760 1.942460 0.013710 
#    z -0.051220 0.013710 1.901150 
# 
# From -- ./inp_files/109698.got.cif
#   From: 2010.05.17/outbox.cif.g08.bks.cpg/sg2_55_cif.got.tgz:109698.got - 2010.06.03 11:33:40.
