data_PCOD9103910
_publ_section_title
;
Structure prediction by ZEFSAII (Michael W. Deem and Ramdas Pophale) SiO2 
 PCOD9103910
Probable space group: P -1
;
_chemical_formula_sum "Si O2"
_cell_formula_units_Z 14
_cell_length_a 7.513470
_cell_length_b 15.527220
_cell_length_c 9.633255
_cell_angle_alpha 36.138588
_cell_angle_beta 73.012860
_cell_angle_gamma 82.249044
_cell_volume 623.599667
_symmetry_space_group_name_H-M "P -1"
_symmetry_group_IT_number 2
_symmetry_cell_setting 'triclinic'
loop_
_space_group_symop_operation_xyz
x,y,z
-x,-y,-z
loop_
_atom_site_type_symbol
_atom_site_label
_atom_site_fract_x
_atom_site_fract_y
_atom_site_fract_z
Si Si1 0.877520 0.026114 0.132318
Si Si2 0.838991 0.808891 0.915696
Si Si3 0.989565 0.522629 0.135045
Si Si4 0.722168 0.603612 0.431779
Si Si5 0.156566 0.682731 0.341612
Si Si6 0.417833 0.552170 0.089664
Si Si7 0.361885 0.117944 0.389623
O O1 0.010822 0.094307 0.141943
O O2 0.739478 0.896401 0.416349
O O3 0.762881 0.151395 0.939439
O O4 0.000000 0.000000 0.000000
O O5 0.776621 0.905319 0.681329
O O6 0.684599 0.721655 0.173017
O O7 0.908267 0.667904 0.010436
O O8 0.876008 0.369601 0.424922
O O9 0.197250 0.551185 0.117147
O O10 0.000000 0.500000 0.000000
O O11 0.736037 0.441006 0.583019
O O12 0.939540 0.659415 0.361240
O O13 0.574624 0.568109 0.635149
O O14 0.524652 0.717061 0.877182
O O15 0.500000 0.500000 0.000000
O O16 0.500000 0.000000 0.500000
#
# Coordination Sequence:
#
# PCOD9103910 Si02
#       7
#     2   2   2   2   2   2   2
#     4  11  24  40  68  93 131 181 224 261 318 410
#     4  10  22  42  70  93 124 174 230 268 316 402
#     4  10  20  38  69  98 125 165 226 272 320 394
#     4   8  16  35  63  86 120 158 206 264 324 374
#     4   8  16  34  59  90 116 159 211 262 307 374
#     4  11  23  37  63  97 138 166 209 277 339 384
#     4  12  26  44  64  95 138 177 215 279 345 388
#
# _framework density 22.450301
#
# number of rings (size 3 to 8) (size 9 to 14) (size 15 to 20)
#    0.000    2.000    0.000    5.571    8.000    0.571 
#    0.000    2.143    0.000    0.000    0.000    0.000 
#    0.000    0.000    0.000    0.000    0.000    0.000 
#
# Total GULP energy -78113.674051 kJ/mol
# GULP energy per Si atom -5579.548146 kJ/mol
# Density = 2.239920 g / cm^3
# Si number density = 22.450301 Si / 1000 Ang^3
#
#
#
# Elastic Constant Matrix: (Units=GPa)
#
#
# Indices 1 2 3 4 5 6 
#
# 1 53.3141 3.7705 28.0428 3.2196 12.2357 3.0485
# 2 3.7705 72.1852 30.2553 26.3282 6.5141 6.0589
# 3 28.0428 30.2553 149.3911 42.1245 2.0641 -3.3754
# 4 3.2196 26.3282 42.1245 44.5499 1.2475 -0.8314
# 5 12.2357 6.5141 2.0641 1.2475 34.1041 -2.2229
# 6 3.0485 6.0589 -3.3754 -0.8314 -2.2229 26.4248
#
#
#
# Elastic Compliance Matrix: (Units=1/GPa)
#
#
# Indices 1 2 3 4 5 6 
#
# 1 0.023637 0.001133 -0.005480 0.002968 -0.008756 -0.004330
# 2 0.001133 0.018744 -0.001268 -0.009949 -0.003887 -0.005230
# 3 -0.005480 -0.001268 0.010474 -0.008776 0.002036 0.002156
# 4 0.002968 -0.009949 -0.008776 0.036442 0.000162 0.001978
# 5 -0.008756 -0.003887 0.002036 0.000162 0.033401 0.004976
# 6 -0.004330 -0.005230 0.002156 0.001978 0.004976 0.040298
#
#
# Mechanical properties :
#
#
# Convention : Reuss Voigt Hill
#
# Bulk Modulus (GPa) = 24.02370 44.33637 34.18004
# Shear Modulus (GPa) = 26.58128 35.20389 30.89259
#
# Velocity S-wave (km/s) = 3.44467 3.96420 3.71353
# Velocity P-wave (km/s) = 5.15219 6.38316 5.80042
#
# Compressibility (1/GPa) = 0.04162557
#
# Stress axis : x y z
#
# Youngs Moduli (GPa) = 42.30635 53.35029 95.47049
#
# Poissons Ratio (x) = -0.06046 0.52322
# Poissons Ratio (y) = -0.04795 0.12105
# Poissons Ratio (z) = 0.23186 0.06764
#
# Static dielectric constant tensor:
#      x y z
#    x 1.899200 0.001170 -0.028030 
#    y 0.001170 1.780400 0.017600 
#    z -0.028030 0.017600 1.856980 
# 
# From -- ./inp_files/205052.got.cif
#   From: 2010.05.17/outbox.cif.g08.bks.cpg/sg2_103_cif.got.tgz:205052.got - 2010.06.03 11:33:40.
