data_PCOD9103587
_publ_section_title
;
Structure prediction by ZEFSAII (Michael W. Deem and Ramdas Pophale) SiO2 
 PCOD9103587
Probable space group: P -1
;
_chemical_formula_sum "Si O2"
_cell_formula_units_Z 12
_cell_length_a 13.836393
_cell_length_b 7.470649
_cell_length_c 5.334433
_cell_angle_alpha 93.120774
_cell_angle_beta 112.677075
_cell_angle_gamma 88.797323
_cell_volume 508.021277
_symmetry_space_group_name_H-M "P -1"
_symmetry_group_IT_number 2
_symmetry_cell_setting 'triclinic'
loop_
_space_group_symop_operation_xyz
x,y,z
-x,-y,-z
loop_
_atom_site_type_symbol
_atom_site_label
_atom_site_fract_x
_atom_site_fract_y
_atom_site_fract_z
Si Si1 0.955508 0.707270 0.966889
Si Si2 0.428525 0.000000 0.678525
Si Si3 0.710346 0.684496 0.630238
Si Si4 0.955508 0.292730 0.444126
Si Si5 0.571700 0.499999 0.821701
Si Si6 0.289654 0.684499 0.709543
O O1 0.986493 0.789415 0.267626
O O2 0.832001 0.717320 0.802287
O O3 0.000000 0.500000 0.000000
O O4 0.013506 0.789415 0.794639
O O5 0.352591 0.830623 0.625966
O O6 0.500000 0.000000 0.500000
O O7 0.352592 0.169379 0.579215
O O8 0.500000 0.000000 0.000000
O O9 0.500000 0.500000 0.500000
O O10 0.650672 0.659222 0.835253
O O11 0.705775 0.499999 0.455776
O O12 0.832002 0.282679 0.361716
O O13 0.000000 0.500000 0.500000
O O14 0.500000 0.500000 0.000000
O O15 0.650672 0.340776 0.966093
#
# Coordination Sequence:
#
# PCOD9103587 Si02
#       6
#     2   2   2   2   2   2
#     4  10  20  38  67 105 138 173 231 293 341 429
#     4  12  32  50  66 108 148 184 250 304 342 430
#     4  12  26  46  78 101 145 196 236 290 373 419
#     4  10  20  38  67 105 138 173 231 293 341 429
#     4  12  24  38  66 100 124 180 246 280 340 416
#     4  12  26  46  78 101 145 196 236 290 373 419
#
# _framework density 23.621058999999999
#
# number of rings (size 3 to 8) (size 9 to 14) (size 15 to 20)
#    0.000    0.667    5.000    4.000    4.667    0.000 
#    0.000    1.667    0.000    0.000    0.000    0.000 
#    0.000    0.000    0.000    0.000    0.000    0.000 
#
# Total GULP energy -67092.211089 kJ/mol
# GULP energy per Si atom -5591.017591 kJ/mol
# Density = 2.356730 g / cm^3
# Si number density = 23.621059 Si / 1000 Ang^3
#
#
#
# Elastic Constant Matrix: (Units=GPa)
#
#
# Indices 1 2 3 4 5 6 
#
# 1 210.9755 70.9466 126.6367 -28.7776 36.0054 18.1481
# 2 70.9466 138.1134 61.8627 -26.7287 7.5636 11.8719
# 3 126.6367 61.8627 185.3027 -42.0946 -15.1214 23.2166
# 4 -28.7776 -26.7287 -42.0946 27.1792 7.9044 -1.8834
# 5 36.0054 7.5636 -15.1214 7.9044 45.0297 -1.4705
# 6 18.1481 11.8719 23.2166 -1.8834 -1.4705 24.1203
#
#
#
# Elastic Compliance Matrix: (Units=1/GPa)
#
#
# Indices 1 2 3 4 5 6 
#
# 1 0.013773 -0.001451 -0.009277 0.002890 -0.014436 -0.001373
# 2 -0.001451 0.010126 -0.000260 0.008446 -0.002212 -0.003117
# 3 -0.009277 -0.000260 0.016128 0.011321 0.010665 -0.006881
# 4 0.002890 0.008446 0.011321 0.068409 -0.012349 -0.012640
# 5 -0.014436 -0.002212 0.010665 -0.012349 0.039974 0.003158
# 6 -0.001373 -0.003117 -0.006881 -0.012640 0.003158 0.049855
#
#
# Mechanical properties :
#
#
# Convention : Reuss Voigt Hill
#
# Bulk Modulus (GPa) = 55.40373 117.03151 86.21762
# Shear Modulus (GPa) = 22.09867 37.59555 29.84711
#
# Velocity S-wave (km/s) = 3.06199 3.99383 3.55854
# Velocity P-wave (km/s) = 6.00060 8.42143 7.31190
#
# Compressibility (1/GPa) = 0.01804933
#
# Stress axis : x y z
#
# Youngs Moduli (GPa) = 72.60817 98.75486 62.00520
#
# Poissons Ratio (x) = 0.14334 0.57523
# Poissons Ratio (y) = 0.10539 0.01611
# Poissons Ratio (z) = 0.67360 0.02566
#
# Static dielectric constant tensor:
#      x y z
#    x 1.914310 -0.021350 -0.027360 
#    y -0.021350 1.936590 0.041600 
#    z -0.027360 0.041600 1.954170 
# 
# From -- ./inp_files/59784.got.cif
#   From: 2010.05.17/outbox.cif.g08.bks.cpg/sg2_30_cif.got.tgz:59784.got - 2010.06.03 11:33:40.
