data_PCOD9103223
_publ_section_title
;
Structure prediction by ZEFSAII (Michael W. Deem and Ramdas Pophale) SiO2 
 PCOD9103223
Probable space group: P -1
;
_chemical_formula_sum "Si O2"
_cell_formula_units_Z 16
_cell_length_a 13.076244
_cell_length_b 11.006102
_cell_length_c 10.319790
_cell_angle_alpha 35.771419
_cell_angle_beta 56.992798
_cell_angle_gamma 70.217050
_cell_volume 711.639868
_symmetry_space_group_name_H-M "P -1"
_symmetry_group_IT_number 2
_symmetry_cell_setting 'triclinic'
loop_
_space_group_symop_operation_xyz
x,y,z
-x,-y,-z
loop_
_atom_site_type_symbol
_atom_site_label
_atom_site_fract_x
_atom_site_fract_y
_atom_site_fract_z
Si Si1 0.134084 0.637367 0.745922
Si Si2 0.755143 0.896653 0.233758
Si Si3 0.321166 0.429956 0.919221
Si Si4 0.591507 0.442016 0.748490
Si Si5 0.302825 0.684224 0.963378
Si Si6 0.074176 0.312118 0.533505
Si Si7 0.892090 0.952718 0.504721
Si Si8 0.184235 0.766242 0.309294
O O1 0.243004 0.509726 0.791342
O O2 0.142175 0.734852 0.513165
O O3 0.153592 0.829420 0.667707
O O4 0.000000 0.500000 0.000000
O O5 0.640967 0.695491 0.490395
O O6 0.871405 0.797838 0.288033
O O7 0.726745 0.085099 0.183778
O O8 0.779663 0.003495 0.982873
O O9 0.454325 0.382549 0.836153
O O10 0.341226 0.612746 0.858598
O O11 0.225327 0.224418 0.216087
O O12 0.594429 0.356645 0.967671
O O13 0.696398 0.338194 0.698849
O O14 0.178769 0.506428 0.239016
O O15 0.061711 0.129229 0.588795
O O16 0.934623 0.353644 0.589757
O O17 0.000000 0.000000 0.500000
#
# Coordination Sequence:
#
# PCOD9103223 Si02
#       8
#     2   2   2   2   2   2   2   2
#     4  12  24  41  66  95 120 159 211 264 314 371
#     4  10  22  39  62  92 126 169 209 249 319 376
#     4  11  23  41  66  93 128 164 208 262 310 368
#     4  10  24  41  61  92 130 172 206 249 311 375
#     4   9  20  40  64  96 124 155 214 265 309 364
#     4  10  20  38  65  93 123 160 206 267 316 363
#     4  11  21  41  67  95 120 157 210 266 321 357
#     4  11  24  40  60  91 133 164 208 258 306 383
#
# _framework density 22.483284000000001
#
# number of rings (size 3 to 8) (size 9 to 14) (size 15 to 20)
#    0.000    1.500    2.500    2.250    0.000   10.500 
#    0.000    1.250    0.000    0.000    0.000    0.000 
#    0.000    0.000    0.000    0.000    0.000    0.000 
#
# Total GULP energy -89371.896004 kJ/mol
# GULP energy per Si atom -5585.743500 kJ/mol
# Density = 2.243211 g / cm^3
# Si number density = 22.483284 Si / 1000 Ang^3
#
#
#
# Elastic Constant Matrix: (Units=GPa)
#
#
# Indices 1 2 3 4 5 6 
#
# 1 133.7795 28.9664 44.4675 12.2861 -7.3926 -38.9954
# 2 28.9664 64.6157 24.3192 11.5581 2.5099 -17.3469
# 3 44.4675 24.3192 88.3497 -4.0277 9.6857 -14.5768
# 4 12.2861 11.5581 -4.0277 28.4455 0.3871 5.9882
# 5 -7.3926 2.5099 9.6857 0.3871 28.7446 1.4766
# 6 -38.9954 -17.3469 -14.5768 5.9882 1.4766 38.9427
#
#
#
# Elastic Compliance Matrix: (Units=1/GPa)
#
#
# Indices 1 2 3 4 5 6 
#
# 1 0.014944 0.001523 -0.006612 -0.011173 0.005335 0.014683
# 2 0.001523 0.022246 -0.005601 -0.012872 -0.000072 0.011319
# 3 -0.006612 -0.005601 0.016664 0.008407 -0.006739 -0.003916
# 4 -0.011173 -0.012872 0.008407 0.050975 -0.004167 -0.021455
# 5 0.005335 -0.000072 -0.006739 -0.004167 0.038393 0.001973
# 6 0.014683 0.011319 -0.003916 -0.021455 0.001973 0.047183
#
#
# Mechanical properties :
#
#
# Convention : Reuss Voigt Hill
#
# Bulk Modulus (GPa) = 30.79499 53.58348 42.18924
# Shear Modulus (GPa) = 22.46080 31.82604 27.14342
#
# Velocity S-wave (km/s) = 3.16412 3.76645 3.47835
# Velocity P-wave (km/s) = 5.20341 6.54211 5.91078
#
# Compressibility (1/GPa) = 0.03247281
#
# Stress axis : x y z
#
# Youngs Moduli (GPa) = 66.91569 44.95277 60.00802
#
# Poissons Ratio (x) = -0.06845 0.39679
# Poissons Ratio (y) = -0.10189 0.33611
# Poissons Ratio (z) = 0.44247 0.25179
#
# Static dielectric constant tensor:
#      x y z
#    x 1.910070 0.016890 0.055010 
#    y 0.016890 1.966360 -0.028770 
#    z 0.055010 -0.028770 1.841130 
# 
# From -- ./inp_files/427214.got.cif
#   From: 2010.05.17/outbox.cif.g08.bks.cpg/sg2_214_cif.got.tgz:427214.got - 2010.06.03 11:33:40.
