data_PCOD9103386
_publ_section_title
;
Structure prediction by ZEFSAII (Michael W. Deem and Ramdas Pophale) SiO2 
 PCOD9103386
Probable space group: P -1
;
_chemical_formula_sum "Si O2"
_cell_formula_units_Z 16
_cell_length_a 10.691559
_cell_length_b 12.360130
_cell_length_c 7.053449
_cell_angle_alpha 51.011961
_cell_angle_beta 94.506766
_cell_angle_gamma 86.473030
_cell_volume 714.822258
_symmetry_space_group_name_H-M "P -1"
_symmetry_group_IT_number 2
_symmetry_cell_setting 'triclinic'
loop_
_space_group_symop_operation_xyz
x,y,z
-x,-y,-z
loop_
_atom_site_type_symbol
_atom_site_label
_atom_site_fract_x
_atom_site_fract_y
_atom_site_fract_z
Si Si1 0.154687 0.144407 0.706218
Si Si2 0.580826 0.615344 0.462191
Si Si3 0.579668 0.831004 0.496305
Si Si4 0.099338 0.329788 0.861961
Si Si5 0.183596 0.564803 0.428393
Si Si6 0.517615 0.862692 0.887449
Si Si7 0.015942 0.831355 0.666015
Si Si8 0.233272 0.828434 0.977507
O O1 0.279863 0.168331 0.575166
O O2 0.148157 0.219850 0.823484
O O3 0.023469 0.198273 0.519882
O O4 0.168505 0.975107 0.898184
O O5 0.500000 0.500000 0.500000
O O6 0.533758 0.690341 0.568022
O O7 0.722621 0.534867 0.587926
O O8 0.576919 0.745737 0.171382
O O9 0.577546 0.837477 0.715123
O O10 0.488221 0.970607 0.256814
O O11 0.174837 0.463771 0.719755
O O12 0.956290 0.395413 0.715126
O O13 0.085307 0.240928 0.144699
O O14 0.239321 0.710523 0.270843
O O15 0.369568 0.844979 0.893674
O O16 0.149687 0.786814 0.835336
O O17 0.000000 0.000000 0.500000
#
# Coordination Sequence:
#
# PCOD9103386 Si02
#       8
#     2   2   2   2   2   2   2   2
#     4  10  20  38  66  88 115 162 202 252 306 353
#     4  12  23  41  64  88 127 166 204 251 309 368
#     4  10  23  41  64  93 121 159 213 255 303 364
#     4  10  21  40  63  84 123 159 198 252 305 354
#     4  10  21  39  58  88 122 158 198 248 300 370
#     4  10  22  42  65  88 123 164 205 261 303 354
#     4   9  20  36  59  91 117 148 199 249 298 355
#     4   9  19  40  58  87 128 152 201 259 296 359
#
# _framework density 22.383187
#
# number of rings (size 3 to 8) (size 9 to 14) (size 15 to 20)
#    0.000    2.000    2.500    0.375    1.750    5.000 
#    2.250    6.875    0.000    0.000    0.000    0.000 
#    0.000    0.000    0.000    0.000    0.000    0.000 
#
# Total GULP energy -89223.911936 kJ/mol
# GULP energy per Si atom -5576.494496 kJ/mol
# Density = 2.233224 g / cm^3
# Si number density = 22.383187 Si / 1000 Ang^3
#
#
#
# Elastic Constant Matrix: (Units=GPa)
#
#
# Indices 1 2 3 4 5 6 
#
# 1 51.6855 31.3677 0.3901 -8.3858 1.1979 -14.8822
# 2 31.3677 101.6830 23.1731 -14.6833 0.5423 -7.0831
# 3 0.3901 23.1731 69.7809 -20.3482 -10.7647 -5.3020
# 4 -8.3858 -14.6833 -20.3482 27.2250 8.2069 -4.0055
# 5 1.1979 0.5423 -10.7647 8.2069 31.0350 -8.7511
# 6 -14.8822 -7.0831 -5.3020 -4.0055 -8.7511 32.0313
#
#
#
# Elastic Compliance Matrix: (Units=1/GPa)
#
#
# Indices 1 2 3 4 5 6 
#
# 1 0.031066 -0.008488 0.007969 0.012431 0.003009 0.016252
# 2 -0.008488 0.013604 -0.004499 0.001814 -0.002557 -0.002152
# 3 0.007969 -0.004499 0.022228 0.016312 0.006006 0.010068
# 4 0.012431 0.001814 0.016312 0.057673 -0.006033 0.014441
# 5 0.003009 -0.002557 0.006006 -0.006033 0.039147 0.011767
# 6 0.016252 -0.002152 0.010068 0.014441 0.011767 0.044982
#
#
# Mechanical properties :
#
#
# Convention : Reuss Voigt Hill
#
# Bulk Modulus (GPa) = 17.58667 37.00126 27.29397
# Shear Modulus (GPa) = 21.03570 29.27283 25.15426
#
# Velocity S-wave (km/s) = 3.06894 3.62028 3.35595
# Velocity P-wave (km/s) = 4.52018 5.83455 5.21891
#
# Compressibility (1/GPa) = 0.05686123
#
# Stress axis : x y z
#
# Youngs Moduli (GPa) = 32.18958 73.50752 44.98764
#
# Poissons Ratio (x) = 0.62396 -0.35851
# Poissons Ratio (y) = 0.27324 0.20241
# Poissons Ratio (z) = -0.25652 0.33073
#
# Static dielectric constant tensor:
#      x y z
#    x 1.891710 0.025790 0.007020 
#    y 0.025790 1.821300 -0.032070 
#    z 0.007020 -0.032070 1.877780 
# 
# From -- ./inp_files/68514.got.cif
#   From: 2010.05.17/outbox.cif.g08.bks.cpg/sg2_35_cif.got.tgz:68514.got - 2010.06.03 11:33:40.
