data_PCOD9103778
_publ_section_title
;
Structure prediction by ZEFSAII (Michael W. Deem and Ramdas Pophale) SiO2 
 PCOD9103778
Probable space group: P -1
;
_chemical_formula_sum "Si O2"
_cell_formula_units_Z 10
_cell_length_a 10.947876
_cell_length_b 8.793917
_cell_length_c 5.543323
_cell_angle_alpha 68.602735
_cell_angle_beta 68.552123
_cell_angle_gamma 47.271191
_cell_volume 359.523922
_symmetry_space_group_name_H-M "P -1"
_symmetry_group_IT_number 2
_symmetry_cell_setting 'triclinic'
loop_
_space_group_symop_operation_xyz
x,y,z
-x,-y,-z
loop_
_atom_site_type_symbol
_atom_site_label
_atom_site_fract_x
_atom_site_fract_y
_atom_site_fract_z
Si Si1 0.247606 0.408692 0.309489
Si Si2 0.099931 0.314665 0.843518
Si Si3 0.591405 0.549245 0.213182
Si Si4 0.305288 0.015104 0.267572
Si Si5 0.101270 0.912869 0.726043
O O1 0.233844 0.337563 0.620963
O O2 0.299779 0.206104 0.241230
O O3 0.051197 0.609693 0.279275
O O4 0.377739 0.447230 0.107643
O O5 0.193513 0.102776 0.052243
O O6 0.000000 0.500000 0.000000
O O7 0.500000 0.500000 0.500000
O O8 0.783944 0.339406 0.237045
O O9 0.481364 0.794702 0.209343
O O10 0.224807 0.972442 0.568041
O O11 0.000000 0.000000 0.500000
O O12 0.000000 0.000000 0.000000
#
# Coordination Sequence:
#
# PCOD9103778 Si02
#       5
#     2   2   2   2   2
#     4  10  20  38  68  92 129 174 228 273 336 405
#     4   9  20  35  63  96 128 167 224 278 333 397
#     4  10  23  44  62  98 136 175 222 282 344 402
#     4  10  22  41  64  98 131 173 223 281 336 399
#     4  11  26  46  72  97 137 183 228 277 339 409
#
# _framework density 27.814558000000002
#
# number of rings (size 3 to 8) (size 9 to 14) (size 15 to 20)
#    0.000    2.000    0.000    1.800   11.200    0.800 
#    3.600    3.000    0.000    0.000    0.000    0.000 
#    0.000    0.000    0.000    0.000    0.000    0.000 
#
# Total GULP energy -55740.953522 kJ/mol
# GULP energy per Si atom -5574.095352 kJ/mol
# Density = 2.775125 g / cm^3
# Si number density = 27.814558 Si / 1000 Ang^3
#
#
#
# Elastic Constant Matrix: (Units=GPa)
#
#
# Indices 1 2 3 4 5 6 
#
# 1 47.5205 32.8268 62.6210 0.9742 -15.2882 -1.8618
# 2 32.8268 265.5496 68.1486 -3.6084 14.6325 -17.9032
# 3 62.6210 68.1486 291.3843 34.3073 -37.7264 -24.0538
# 4 0.9742 -3.6084 34.3073 62.5501 -6.2388 -6.2373
# 5 -15.2882 14.6325 -37.7264 -6.2388 59.7464 -3.0838
# 6 -1.8618 -17.9032 -24.0538 -6.2373 -3.0838 23.0114
#
#
#
# Elastic Compliance Matrix: (Units=1/GPa)
#
#
# Indices 1 2 3 4 5 6 
#
# 1 0.033070 -0.003002 -0.006489 0.002888 0.005145 -0.004971
# 2 -0.003002 0.004578 -0.000548 0.000674 -0.002028 0.002657
# 3 -0.006489 -0.000548 0.005936 -0.002479 0.002215 0.004878
# 4 0.002888 0.000674 -0.002479 0.017754 0.001023 0.003116
# 5 0.005145 -0.002028 0.002215 0.001023 0.020270 0.004148
# 6 -0.004971 0.002657 0.004878 0.003116 0.004148 0.051621
#
#
# Mechanical properties :
#
#
# Convention : Reuss Voigt Hill
#
# Bulk Modulus (GPa) = 42.54448 103.51635 73.03042
# Shear Modulus (GPa) = 31.02858 58.45211 44.74035
#
# Velocity S-wave (km/s) = 3.34361 4.58918 4.01499
# Velocity P-wave (km/s) = 5.49866 8.08568 6.91424
#
# Compressibility (1/GPa) = 0.02350481
#
# Stress axis : x y z
#
# Youngs Moduli (GPa) = 30.23902 218.45837 168.46378
#
# Poissons Ratio (x) = 0.65583 1.09319
# Poissons Ratio (y) = 0.09078 0.09232
# Poissons Ratio (z) = 0.19623 0.11972
#
# Static dielectric constant tensor:
#      x y z
#    x 2.592050 0.051460 0.058180 
#    y 0.051460 2.069370 -0.033940 
#    z 0.058180 -0.033940 2.271770 
# 
# From -- ./inp_files/15835.got.cif
#   From: 2010.05.17/outbox.cif.g08.bks.cpg/sg2_8_cif.got.tgz:15835.got - 2010.06.03 11:33:40.
