data_PCOD9103170
_publ_section_title
;
Structure prediction by ZEFSAII (Michael W. Deem and Ramdas Pophale) SiO2 
 PCOD9103170
Probable space group: P -1
;
_chemical_formula_sum "Si O2"
_cell_formula_units_Z 14
_cell_length_a 14.141386
_cell_length_b 9.504919
_cell_length_c 15.179695
_cell_angle_alpha 118.464128
_cell_angle_beta 20.025443
_cell_angle_gamma 121.362433
_cell_volume 596.071528
_symmetry_space_group_name_H-M "P -1"
_symmetry_group_IT_number 2
_symmetry_cell_setting 'triclinic'
loop_
_space_group_symop_operation_xyz
x,y,z
-x,-y,-z
loop_
_atom_site_type_symbol
_atom_site_label
_atom_site_fract_x
_atom_site_fract_y
_atom_site_fract_z
Si Si1 0.255198 0.107830 0.556519
Si Si2 0.305185 0.201747 0.247304
Si Si3 0.885126 0.172625 0.745286
Si Si4 0.275898 0.611263 0.746957
Si Si5 0.395628 0.750289 0.338370
Si Si6 0.763047 0.652944 0.835578
Si Si7 0.513999 0.812277 0.447266
O O1 0.543824 0.235263 0.308411
O O2 0.232390 0.163785 0.695080
O O3 0.003740 0.131453 0.722205
O O4 0.314459 0.927381 0.451064
O O5 0.213748 0.244312 0.244195
O O6 0.137241 0.264412 0.489800
O O7 0.237602 0.002191 0.249502
O O8 0.638033 0.266237 0.991181
O O9 0.500000 0.500000 0.500000
O O10 0.253821 0.701026 0.699015
O O11 0.000000 0.500000 0.000000
O O12 0.516667 0.738170 0.326643
O O13 0.079956 0.628268 0.567362
O O14 0.635960 0.736766 0.053410
O O15 0.500000 0.500000 0.000000
O O16 0.500000 0.000000 0.500000
#
# Coordination Sequence:
#
# PCOD9103170 Si02
#       7
#     2   2   2   2   2   2   2
#     4   9  21  43  70 101 135 177 225 273 344 412
#     4  10  22  38  61  91 125 165 222 268 330 384
#     4  10  20  38  65  91 123 166 213 277 319 391
#     4  10  23  43  66  98 148 174 222 289 341 399
#     4  11  23  45  72  94 129 183 230 279 333 411
#     4  12  26  45  65  94 135 173 229 290 339 389
#     4   8  20  46  69 106 133 184 232 275 332 437
#
# _framework density 23.487113000000001
#
# number of rings (size 3 to 8) (size 9 to 14) (size 15 to 20)
#    0.857    1.143    1.429    1.286    4.000    3.429 
#    7.714    2.857    0.000    0.000    0.000    0.000 
#    0.000    0.000    0.000    0.000    0.000    0.000 
#
# Total GULP energy -78072.849277 kJ/mol
# GULP energy per Si atom -5576.632091 kJ/mol
# Density = 2.343365 g / cm^3
# Si number density = 23.487113 Si / 1000 Ang^3
#
#
#
# Elastic Constant Matrix: (Units=GPa)
#
#
# Indices 1 2 3 4 5 6 
#
# 1 135.5147 -4.3311 62.2754 26.9150 13.2537 -1.3768
# 2 -4.3311 50.5810 10.5705 -19.9337 7.0255 -8.9289
# 3 62.2754 10.5705 117.0580 13.2587 5.7843 -13.8203
# 4 26.9150 -19.9337 13.2587 25.6853 2.1566 2.0368
# 5 13.2537 7.0255 5.7843 2.1566 36.6656 -7.6477
# 6 -1.3768 -8.9289 -13.8203 2.0368 -7.6477 20.7337
#
#
#
# Elastic Compliance Matrix: (Units=1/GPa)
#
#
# Indices 1 2 3 4 5 6 
#
# 1 0.012322 -0.002684 -0.005292 -0.011682 -0.003233 -0.003910
# 2 -0.002684 0.035115 -0.004307 0.032209 -0.005541 0.006865
# 3 -0.005292 -0.004307 0.013193 -0.005475 0.002671 0.008110
# 4 -0.011682 0.032209 -0.005475 0.079532 -0.005875 -0.000534
# 5 -0.003233 -0.005541 0.002671 -0.005875 0.031826 0.011495
# 6 -0.003910 0.006865 0.008110 -0.000534 0.011495 0.060626
#
#
# Mechanical properties :
#
#
# Convention : Reuss Voigt Hill
#
# Bulk Modulus (GPa) = 27.72765 48.90924 38.31845
# Shear Modulus (GPa) = 18.57352 32.25950 25.41651
#
# Velocity S-wave (km/s) = 2.81516 3.71009 3.29317
# Velocity P-wave (km/s) = 4.73265 6.26276 5.55068
#
# Compressibility (1/GPa) = 0.03606508
#
# Stress axis : x y z
#
# Youngs Moduli (GPa) = 81.15622 28.47752 75.80014
#
# Poissons Ratio (x) = 0.07643 0.40111
# Poissons Ratio (y) = 0.21781 0.32647
# Poissons Ratio (z) = 0.42945 0.12265
#
# Static dielectric constant tensor:
#      x y z
#    x 1.868550 0.032230 0.001740 
#    y 0.032230 1.937010 -0.038180 
#    z 0.001740 -0.038180 1.882540 
# 
# From -- ./inp_files/531853.got.cif
#   From: 2010.05.17/outbox.cif.g08.bks.cpg/sg2_266_cif.got.tgz:531853.got - 2010.06.03 11:33:40.
