data_PCOD9103269
_publ_section_title
;
Structure prediction by ZEFSAII (Michael W. Deem and Ramdas Pophale) SiO2 
 PCOD9103269
Probable space group: P -1
;
_chemical_formula_sum "Si O2"
_cell_formula_units_Z 12
_cell_length_a 8.932560
_cell_length_b 5.360846
_cell_length_c 22.265689
_cell_angle_alpha 54.523597
_cell_angle_beta 144.912201
_cell_angle_gamma 123.980030
_cell_volume 491.010917
_symmetry_space_group_name_H-M "P -1"
_symmetry_group_IT_number 2
_symmetry_cell_setting 'triclinic'
loop_
_space_group_symop_operation_xyz
x,y,z
-x,-y,-z
loop_
_atom_site_type_symbol
_atom_site_label
_atom_site_fract_x
_atom_site_fract_y
_atom_site_fract_z
Si Si1 0.426913 0.315892 0.887555
Si Si2 0.823817 0.899667 0.049687
Si Si3 0.397972 0.326691 0.429110
Si Si4 0.382383 0.031783 0.163587
Si Si5 0.887524 0.639060 0.502158
Si Si6 0.118177 0.107888 0.708179
O O1 0.480530 0.622544 0.821970
O O2 0.214071 0.081433 0.811564
O O3 0.308016 0.351424 0.909386
O O4 0.705948 0.192917 0.997735
O O5 0.136197 0.915668 0.142076
O O6 0.726355 0.900250 0.948696
O O7 0.500000 0.500000 0.500000
O O8 0.568327 0.563826 0.405550
O O9 0.500000 0.000000 0.500000
O O10 0.087246 0.201886 0.335853
O O11 0.620923 0.852800 0.253392
O O12 0.000000 0.500000 0.500000
O O13 0.982370 0.410829 0.614721
O O14 0.000000 0.000000 0.500000
#
# Coordination Sequence:
#
# PCOD9103269 Si02
#       6
#     2   2   2   2   2   2
#     4  10  20  38  65  94 139 174 230 273 338 412
#     4   9  20  39  62  97 132 187 216 273 346 401
#     4  10  22  43  70  90 131 179 222 281 356 413
#     4  10  20  38  65  95 139 174 228 278 331 416
#     4  11  24  45  70  96 133 178 230 291 353 415
#     4  10  24  41  62 100 129 181 230 286 340 413
#
# _framework density 24.439373
#
# number of rings (size 3 to 8) (size 9 to 14) (size 15 to 20)
#    0.000    2.000    0.000    3.000    7.000    0.000 
#    6.000    0.000    0.000    0.000    0.000    0.000 
#    0.000    0.000    0.000    0.000    0.000    0.000 
#
# Total GULP energy -66915.543556 kJ/mol
# GULP energy per Si atom -5576.295296 kJ/mol
# Density = 2.438375 g / cm^3
# Si number density = 24.439373 Si / 1000 Ang^3
#
#
#
# Elastic Constant Matrix: (Units=GPa)
#
#
# Indices 1 2 3 4 5 6 
#
# 1 182.2223 51.0988 54.4576 30.7100 21.2768 17.7252
# 2 51.0988 129.7161 35.2163 20.3233 14.8614 -8.3043
# 3 54.4576 35.2163 104.4282 15.5905 20.9911 -1.7874
# 4 30.7100 20.3233 15.5905 37.6262 -3.0185 5.5151
# 5 21.2768 14.8614 20.9911 -3.0185 45.3045 9.7167
# 6 17.7252 -8.3043 -1.7874 5.5151 9.7167 41.8887
#
#
#
# Elastic Compliance Matrix: (Units=1/GPa)
#
#
# Indices 1 2 3 4 5 6 
#
# 1 0.007941 -0.001767 -0.002666 -0.004120 -0.001563 -0.002919
# 2 -0.001767 0.009990 -0.001119 -0.004317 -0.003066 0.003960
# 3 -0.002666 -0.001119 0.012984 -0.003487 -0.005305 0.003150
# 4 -0.004120 -0.004317 -0.003487 0.035269 0.008581 -0.005895
# 5 -0.001563 -0.003066 -0.005305 0.008581 0.028541 -0.007923
# 6 -0.002919 0.003960 0.003150 -0.005895 -0.007923 0.028641
#
#
# Mechanical properties :
#
#
# Convention : Reuss Voigt Hill
#
# Bulk Modulus (GPa) = 50.47550 77.54576 64.01063
# Shear Modulus (GPa) = 35.44243 43.33682 39.38962
#
# Velocity S-wave (km/s) = 3.81230 4.21555 4.01899
# Velocity P-wave (km/s) = 6.33059 7.44938 6.91266
#
# Compressibility (1/GPa) = 0.01981159
#
# Stress axis : x y z
#
# Youngs Moduli (GPa) = 125.93421 100.10055 77.01521
#
# Poissons Ratio (x) = 0.17684 0.20532
# Poissons Ratio (y) = 0.22248 0.08619
# Poissons Ratio (z) = 0.33573 0.11203
#
# Static dielectric constant tensor:
#      x y z
#    x 1.912990 0.029410 0.009270 
#    y 0.029410 1.992790 0.009930 
#    z 0.009270 0.009930 2.046300 
# 
# From -- ./inp_files/605842.got.cif
#   From: 2010.05.17/outbox.cif.g08.bks.cpg/sg2_303_cif.got.tgz:605842.got - 2010.06.03 11:33:40.
