data_PCOD9103977
_publ_section_title
;
Structure prediction by ZEFSAII (Michael W. Deem and Ramdas Pophale) SiO2 
 PCOD9103977
Probable space group: P -1
;
_chemical_formula_sum "Si O2"
_cell_formula_units_Z 15
_cell_length_a 8.731998
_cell_length_b 8.783489
_cell_length_c 11.851957
_cell_angle_alpha 86.488642
_cell_angle_beta 136.221974
_cell_angle_gamma 93.823804
_cell_volume 627.403448
_symmetry_space_group_name_H-M "P -1"
_symmetry_group_IT_number 2
_symmetry_cell_setting 'triclinic'
loop_
_space_group_symop_operation_xyz
x,y,z
-x,-y,-z
loop_
_atom_site_type_symbol
_atom_site_label
_atom_site_fract_x
_atom_site_fract_y
_atom_site_fract_z
Si Si1 0.507350 0.616638 0.353767
Si Si2 0.884086 0.597587 0.836390
Si Si3 0.709198 0.446171 0.268546
Si Si4 0.000000 0.000000 0.500000
Si Si5 0.322950 0.284799 0.924558
Si Si6 0.181504 0.125514 0.053691
Si Si7 0.522029 0.880645 0.188553
Si Si8 0.955584 0.753375 0.651650
O O1 0.305409 0.521509 0.305004
O O2 0.640556 0.497593 0.353312
O O3 0.415866 0.740377 0.210747
O O4 0.693860 0.710065 0.518257
O O5 0.789907 0.745184 0.842543
O O6 0.033342 0.672456 0.812513
O O7 0.000000 0.500000 0.000000
O O8 0.767337 0.596084 0.218712
O O9 0.907194 0.330674 0.370164
O O10 0.492801 0.370982 0.096344
O O11 0.773462 0.903091 0.362067
O O12 0.005571 0.928091 0.639506
O O13 0.464242 0.168948 0.931216
O O14 0.135536 0.208059 0.906758
O O15 0.400324 0.033185 0.147406
O O16 0.000000 0.000000 0.000000
#
# Coordination Sequence:
#
# PCOD9103977 Si02
#       8
#     2   2   2   1   2   2   2   2
#     4  10  22  45  65  97 131 171 228 277 334 398
#     4  12  26  44  69  99 138 175 224 280 335 400
#     4  10  20  38  70  98 125 165 229 287 325 387
#     4  10  24  44  66  94 136 180 228 266 336 408
#     4  10  21  38  64  99 131 172 226 283 334 384
#     4  12  25  39  62  99 138 173 216 276 345 402
#     4  10  23  42  67  92 137 180 226 276 330 404
#     4  11  24  41  71  96 133 183 216 278 342 396
#
# _framework density 23.908062000000001
#
# number of rings (size 3 to 8) (size 9 to 14) (size 15 to 20)
#    0.000    1.333    1.333    3.600    7.467    0.000 
#    0.000    2.667    2.933    0.000    0.000    0.000 
#    0.000    0.000    0.000    0.000    0.000    0.000 
#
# Total GULP energy -83589.962431 kJ/mol
# GULP energy per Si atom -5572.664162 kJ/mol
# Density = 2.385365 g / cm^3
# Si number density = 23.908062 Si / 1000 Ang^3
#
#
#
# Elastic Constant Matrix: (Units=GPa)
#
#
# Indices 1 2 3 4 5 6 
#
# 1 68.1686 46.1536 -4.2136 -7.3176 -13.0214 22.6212
# 2 46.1536 84.9773 6.8970 7.9673 -6.7783 33.9646
# 3 -4.2136 6.8970 46.0803 2.4399 6.8946 15.9937
# 4 -7.3176 7.9673 2.4399 26.1563 7.2691 -10.0908
# 5 -13.0214 -6.7783 6.8946 7.2691 26.5608 -0.3589
# 6 22.6212 33.9646 15.9937 -10.0908 -0.3589 76.0831
#
#
#
# Elastic Compliance Matrix: (Units=1/GPa)
#
#
# Indices 1 2 3 4 5 6 
#
# 1 0.028043 -0.015768 0.003725 0.010401 0.005902 -0.000674
# 2 -0.015768 0.025743 -0.002023 -0.016395 0.003736 -0.008535
# 3 0.003725 -0.002023 0.025139 -0.001538 -0.004872 -0.005716
# 4 0.010401 -0.016395 -0.001538 0.054539 -0.013454 0.011720
# 5 0.005902 0.003736 -0.004872 -0.013454 0.046389 -0.003964
# 6 -0.000674 -0.008535 -0.005716 0.011720 -0.003964 0.019891
#
#
# Mechanical properties :
#
#
# Convention : Reuss Voigt Hill
#
# Bulk Modulus (GPa) = 19.68840 32.98890 26.33865
# Shear Modulus (GPa) = 20.42410 35.78599 28.10504
#
# Velocity S-wave (km/s) = 2.92597 3.87307 3.43234
# Velocity P-wave (km/s) = 4.43486 5.81628 5.17190
#
# Compressibility (1/GPa) = 0.05079133
#
# Stress axis : x y z
#
# Youngs Moduli (GPa) = 35.65929 38.84577 39.77902
#
# Poissons Ratio (x) = 0.61253 -0.14817
# Poissons Ratio (y) = 0.56228 0.08049
# Poissons Ratio (z) = -0.13282 0.07860
#
# Static dielectric constant tensor:
#      x y z
#    x 1.897430 -0.015250 -0.013790 
#    y -0.015250 1.937790 -0.051030 
#    z -0.013790 -0.051030 2.046490 
# 
# From -- ./inp_files/154357.got.cif
#   From: 2010.05.17/outbox.cif.g08.bks.cpg/sg2_78_cif.got.tgz:154357.got - 2010.06.03 11:33:40.
