data_PCOD9103673
_publ_section_title
;
Structure prediction by ZEFSAII (Michael W. Deem and Ramdas Pophale) SiO2 
 PCOD9103673
Probable space group: P -1
;
_chemical_formula_sum "Si O2"
_cell_formula_units_Z 12
_cell_length_a 5.111377
_cell_length_b 13.480475
_cell_length_c 10.432610
_cell_angle_alpha 136.992072
_cell_angle_beta 91.405944
_cell_angle_gamma 83.573435
_cell_volume 485.498662
_symmetry_space_group_name_H-M "P -1"
_symmetry_group_IT_number 2
_symmetry_cell_setting 'triclinic'
loop_
_space_group_symop_operation_xyz
x,y,z
-x,-y,-z
loop_
_atom_site_type_symbol
_atom_site_label
_atom_site_fract_x
_atom_site_fract_y
_atom_site_fract_z
Si Si1 0.351128 0.849447 0.952721
Si Si2 0.859186 0.145819 0.567783
Si Si3 0.144005 0.381128 0.659234
Si Si4 0.164995 0.053232 0.839046
Si Si5 0.199905 0.691447 0.039595
Si Si6 0.362556 0.625628 0.522292
O O1 0.297052 0.769722 0.746231
O O2 0.623156 0.913144 0.024246
O O3 0.367835 0.724521 0.947933
O O4 0.109421 0.964810 0.111474
O O5 0.697076 0.245482 0.767859
O O6 0.069093 0.244928 0.609832
O O7 0.730813 0.076532 0.378617
O O8 0.000000 0.000000 0.500000
O O9 0.417601 0.353878 0.561075
O O10 0.902039 0.413443 0.584932
O O11 0.157962 0.524023 0.881407
O O12 0.072708 0.201534 0.895090
O O13 0.500000 0.500000 0.500000
#
# Coordination Sequence:
#
# PCOD9103673 Si02
#       6
#     2   2   2   2   2   2
#     4  10  20  38  67  95 124 177 208 269 330 387
#     4  10  23  48  67  96 137 180 217 280 322 394
#     4  12  25  42  68 107 127 176 225 266 335 397
#     4   9  20  39  64  94 126 173 218 253 341 378
#     4   9  21  40  68  95 131 166 224 266 337 379
#     4  12  23  43  69 100 140 168 216 281 332 392
#
# _framework density 24.716857000000001
#
# number of rings (size 3 to 8) (size 9 to 14) (size 15 to 20)
#    1.000    0.667    1.667    3.000    0.000    2.000 
#    6.000    6.667    0.000    0.000    0.000    0.000 
#    0.000    0.000    0.000    0.000    0.000    0.000 
#
# Total GULP energy -67123.328358 kJ/mol
# GULP energy per Si atom -5593.610696 kJ/mol
# Density = 2.466060 g / cm^3
# Si number density = 24.716857 Si / 1000 Ang^3
#
#
#
# Elastic Constant Matrix: (Units=GPa)
#
#
# Indices 1 2 3 4 5 6 
#
# 1 49.9445 -14.5132 7.4376 6.7709 -3.3258 -14.9647
# 2 -14.5132 91.5364 19.1197 23.1249 -12.7301 4.2807
# 3 7.4376 19.1197 163.8787 -1.0718 -16.6550 -3.5624
# 4 6.7709 23.1249 -1.0718 40.2995 7.0758 1.3188
# 5 -3.3258 -12.7301 -16.6550 7.0758 28.2709 -6.2890
# 6 -14.9647 4.2807 -3.5624 1.3188 -6.2890 33.8019
#
#
#
# Elastic Compliance Matrix: (Units=1/GPa)
#
#
# Indices 1 2 3 4 5 6 
#
# 1 0.030378 0.009728 -0.000815 -0.013724 0.014319 0.015331
# 2 0.009728 0.017985 -0.001178 -0.014478 0.013271 0.004939
# 3 -0.000815 -0.001178 0.006654 0.000347 0.003456 0.001119
# 4 -0.013724 -0.014478 0.000347 0.039230 -0.019846 -0.009429
# 5 0.014319 0.013271 0.003456 -0.019846 0.053541 0.015759
# 6 0.015331 0.004939 0.001119 -0.009429 0.015759 0.039164
#
#
# Mechanical properties :
#
#
# Convention : Reuss Voigt Hill
#
# Bulk Modulus (GPa) = 14.18695 36.60531 25.39613
# Shear Modulus (GPa) = 25.64383 40.02884 32.83633
#
# Velocity S-wave (km/s) = 3.22452 4.02866 3.64881
# Velocity P-wave (km/s) = 4.42896 6.04005 5.29612
#
# Compressibility (1/GPa) = 0.07048734
#
# Stress axis : x y z
#
# Youngs Moduli (GPa) = 32.91869 55.60039 150.27714
#
# Poissons Ratio (x) = -0.54089 0.12246
# Poissons Ratio (y) = -0.32024 0.17710
# Poissons Ratio (z) = 0.02683 0.06552
#
# Static dielectric constant tensor:
#      x y z
#    x 1.867090 0.014040 -0.011370 
#    y 0.014040 2.074280 -0.001340 
#    z -0.011370 -0.001340 1.928030 
# 
# From -- ./inp_files/36369.got.cif
#   From: 2010.05.17/outbox.cif.g08.bks.cpg/sg2_19_cif.got.tgz:36369.got - 2010.06.03 11:33:40.
