data_PCOD9103008
_publ_section_title
;
Structure prediction by ZEFSAII (Michael W. Deem and Ramdas Pophale) SiO2 
 PCOD9103008
Probable space group: P -1
;
_chemical_formula_sum "Si O2"
_cell_formula_units_Z 16
_cell_length_a 8.227516
_cell_length_b 13.764895
_cell_length_c 8.540526
_cell_angle_alpha 41.279430
_cell_angle_beta 96.830396
_cell_angle_gamma 82.870708
_cell_volume 598.986156
_symmetry_space_group_name_H-M "P -1"
_symmetry_group_IT_number 2
_symmetry_cell_setting 'triclinic'
loop_
_space_group_symop_operation_xyz
x,y,z
-x,-y,-z
loop_
_atom_site_type_symbol
_atom_site_label
_atom_site_fract_x
_atom_site_fract_y
_atom_site_fract_z
Si Si1 0.261467 0.880650 0.119903
Si Si2 0.905484 0.003921 0.736904
Si Si3 0.325213 0.335024 0.134946
Si Si4 0.843653 0.395418 0.464199
Si Si5 0.357275 0.505484 0.212920
Si Si6 0.494075 0.219858 0.010404
Si Si7 0.798057 0.647903 0.393257
Si Si8 0.000733 0.240137 0.238649
O O1 0.244464 0.962591 0.188813
O O2 0.273997 0.708264 0.388804
O O3 0.387225 0.884857 0.984423
O O4 0.078341 0.939307 0.938248
O O5 0.919014 0.156542 0.462019
O O6 0.925604 0.879961 0.750796
O O7 0.421882 0.408954 0.179676
O O8 0.168629 0.286312 0.249065
O O9 0.227255 0.477483 0.832233
O O10 0.464528 0.197789 0.218021
O O11 0.855973 0.474744 0.536218
O O12 0.047506 0.307102 0.568579
O O13 0.445275 0.624261 0.155310
O O14 0.346398 0.366013 0.489901
O O15 0.159470 0.614729 0.016770
O O16 0.302330 0.252994 0.881204
#
# Coordination Sequence:
#
# PCOD9103008 Si02
#       8
#     2   2   2   2   2   2   2   2
#     4  11  22  43  66  91 121 170 221 263 308 363
#     4  10  24  41  71  86 118 172 229 262 300 354
#     4  11  25  38  66  99 133 164 202 256 334 383
#     4  10  20  38  64  96 123 163 207 266 310 377
#     4  12  21  40  63  97 133 164 203 255 327 388
#     4  11  24  40  59  96 139 167 198 259 322 389
#     4  10  21  34  61  96 129 164 197 251 329 375
#     4  11  22  45  65  94 124 165 219 266 301 375
#
# _framework density 26.711803
#
# number of rings (size 3 to 8) (size 9 to 14) (size 15 to 20)
#    0.000    1.250    3.750    1.875    7.000    0.000 
#    2.250    1.250    0.000    0.000    0.000    0.000 
#    0.000    0.000    0.000    0.000    0.000    0.000 
#
# Total GULP energy -89314.113153 kJ/mol
# GULP energy per Si atom -5582.132072 kJ/mol
# Density = 2.665101 g / cm^3
# Si number density = 26.711803 Si / 1000 Ang^3
#
#
#
# Elastic Constant Matrix: (Units=GPa)
#
#
# Indices 1 2 3 4 5 6 
#
# 1 96.6425 32.0646 -0.8374 1.4663 -15.4145 -3.6119
# 2 32.0646 154.0725 27.3503 23.2114 -14.6620 -9.9978
# 3 -0.8374 27.3503 57.3980 11.0552 -16.2877 8.0269
# 4 1.4663 23.2114 11.0552 37.7311 -2.0153 -7.1901
# 5 -15.4145 -14.6620 -16.2877 -2.0153 26.1179 3.4323
# 6 -3.6119 -9.9978 8.0269 -7.1901 3.4323 37.8490
#
#
#
# Elastic Compliance Matrix: (Units=1/GPa)
#
#
# Indices 1 2 3 4 5 6 
#
# 1 0.012573 -0.002605 0.003973 0.000204 0.008593 -0.001071
# 2 -0.002605 0.008367 -0.003471 -0.003630 0.000456 0.001967
# 3 0.003973 -0.003471 0.026711 -0.006627 0.017735 -0.009070
# 4 0.000204 -0.003630 -0.006627 0.031745 -0.004508 0.006905
# 5 0.008593 0.000456 0.017735 -0.004508 0.055472 -0.008707
# 6 -0.001071 0.001967 -0.009070 0.006905 -0.008707 0.030863
#
#
# Mechanical properties :
#
#
# Convention : Reuss Voigt Hill
#
# Bulk Modulus (GPa) = 23.01662 47.25197 35.13430
# Shear Modulus (GPa) = 27.11229 36.97532 32.04380
#
# Velocity S-wave (km/s) = 3.18935 3.72456 3.46730
# Velocity P-wave (km/s) = 4.71147 6.01867 5.40474
#
# Compressibility (1/GPa) = 0.04344686
#
# Stress axis : x y z
#
# Youngs Moduli (GPa) = 79.53259 119.52383 37.43710
#
# Poissons Ratio (x) = 0.31131 -0.14875
# Poissons Ratio (y) = 0.20715 0.12995
# Poissons Ratio (z) = -0.31602 0.41488
#
# Static dielectric constant tensor:
#      x y z
#    x 2.204660 -0.167950 -0.028990 
#    y -0.167950 2.223580 -0.004840 
#    z -0.028990 -0.004840 2.163700 
# 
# From -- ./inp_files/205222.got.cif
#   From: 2010.05.17/outbox.cif.g08.bks.cpg/sg2_103_cif.got.tgz:205222.got - 2010.06.03 11:33:40.
