data_PCOD9103314
_publ_section_title
;
Structure prediction by ZEFSAII (Michael W. Deem and Ramdas Pophale) SiO2 
 PCOD9103314
Probable space group: P -1
;
_chemical_formula_sum "Si O2"
_cell_formula_units_Z 14
_cell_length_a 11.605655
_cell_length_b 9.344755
_cell_length_c 9.103874
_cell_angle_alpha 60.839974
_cell_angle_beta 54.041103
_cell_angle_gamma 73.580340
_cell_volume 697.890306
_symmetry_space_group_name_H-M "P -1"
_symmetry_group_IT_number 2
_symmetry_cell_setting 'triclinic'
loop_
_space_group_symop_operation_xyz
x,y,z
-x,-y,-z
loop_
_atom_site_type_symbol
_atom_site_label
_atom_site_fract_x
_atom_site_fract_y
_atom_site_fract_z
Si Si1 0.288848 0.077348 0.944499
Si Si2 0.438736 0.496750 0.381783
Si Si3 0.256848 0.171611 0.614879
Si Si4 0.396754 0.019529 0.330559
Si Si5 0.224174 0.799661 0.359642
Si Si6 0.064075 0.347843 0.439994
Si Si7 0.321875 0.333812 0.048289
O O1 0.205222 0.105332 0.842815
O O2 0.454762 0.064165 0.778909
O O3 0.275143 0.227667 0.993401
O O4 0.249749 0.911484 0.141163
O O5 0.500000 0.500000 0.500000
O O6 0.353897 0.330778 0.496543
O O7 0.328954 0.645188 0.364541
O O8 0.569236 0.529036 0.157111
O O9 0.354227 0.043431 0.518226
O O10 0.134497 0.226931 0.566922
O O11 0.397428 0.198586 0.163502
O O12 0.271546 0.916025 0.399098
O O13 0.062724 0.739674 0.509146
O O14 0.188921 0.397221 0.209133
O O15 0.000000 0.500000 0.500000
#
# Coordination Sequence:
#
# PCOD9103314 Si02
#       7
#     2   2   2   2   2   2   2
#     4  11  20  40  65  98 126 165 214 266 312 378
#     4  12  21  40  69  98 120 168 217 268 316 369
#     4  11  24  37  65  97 135 158 216 268 309 375
#     4  10  20  38  65  97 128 162 213 266 317 368
#     4  11  22  42  69  84 133 173 208 255 328 380
#     4  11  25  43  61  95 133 170 211 263 317 380
#     4  10  21  38  66  94 125 169 212 258 323 372
#
# _framework density 20.060458000000001
#
# number of rings (size 3 to 8) (size 9 to 14) (size 15 to 20)
#    0.000    1.143    5.714    1.286    0.000    9.143 
#    0.000    2.857    0.000    0.000    0.000    0.000 
#    0.000    0.000    0.000    0.000    0.000    0.000 
#
# Total GULP energy -78247.305061 kJ/mol
# GULP energy per Si atom -5589.093219 kJ/mol
# Density = 2.001480 g / cm^3
# Si number density = 20.060458 Si / 1000 Ang^3
#
#
#
# Elastic Constant Matrix: (Units=GPa)
#
#
# Indices 1 2 3 4 5 6 
#
# 1 79.8558 14.2272 27.4445 -1.0173 -2.9478 -10.1112
# 2 14.2272 78.7161 36.2771 12.1877 -1.1425 -4.1911
# 3 27.4445 36.2771 70.3201 3.3762 14.0312 -10.0747
# 4 -1.0173 12.1877 3.3762 35.5057 6.8880 -5.8938
# 5 -2.9478 -1.1425 14.0312 6.8880 32.5935 3.2589
# 6 -10.1112 -4.1911 -10.0747 -5.8938 3.2589 23.5223
#
#
#
# Elastic Compliance Matrix: (Units=1/GPa)
#
#
# Indices 1 2 3 4 5 6 
#
# 1 0.015249 0.000273 -0.006328 0.000852 0.003572 0.003612
# 2 0.000273 0.019195 -0.011870 -0.007746 0.007903 -0.004583
# 3 -0.006328 -0.011870 0.026968 0.005917 -0.014874 0.010259
# 4 0.000852 -0.007746 0.005917 0.034394 -0.011179 0.011687
# 5 0.003572 0.007903 -0.014874 -0.011179 0.041241 -0.011942
# 6 0.003612 -0.004583 0.010259 0.011687 -0.011942 0.052225
#
#
# Mechanical properties :
#
#
# Convention : Reuss Voigt Hill
#
# Bulk Modulus (GPa) = 39.12390 42.75441 40.93916
# Shear Modulus (GPa) = 21.40012 28.38718 24.89365
#
# Velocity S-wave (km/s) = 3.26970 3.76584 3.52651
# Velocity P-wave (km/s) = 5.81377 6.34569 6.08555
#
# Compressibility (1/GPa) = 0.02555982
#
# Stress axis : x y z
#
# Youngs Moduli (GPa) = 65.57895 52.09593 37.08142
#
# Poissons Ratio (x) = -0.01420 0.23465
# Poissons Ratio (y) = -0.01787 0.44017
# Poissons Ratio (z) = 0.41499 0.61840
#
# Static dielectric constant tensor:
#      x y z
#    x 1.721570 -0.006400 0.016610 
#    y -0.006400 1.712940 -0.002480 
#    z 0.016610 -0.002480 1.701820 
# 
# From -- ./inp_files/156737.got.cif
#   From: 2010.05.17/outbox.cif.g08.bks.cpg/sg2_79_cif.got.tgz:156737.got - 2010.06.03 11:33:40.
