data_PCOD9103623
_publ_section_title
;
Structure prediction by ZEFSAII (Michael W. Deem and Ramdas Pophale) SiO2 
 PCOD9103623
Probable space group: P -1
;
_chemical_formula_sum "Si O2"
_cell_formula_units_Z 16
_cell_length_a 24.403807
_cell_length_b 9.227566
_cell_length_c 15.602389
_cell_angle_alpha 52.953553
_cell_angle_beta 31.755968
_cell_angle_gamma 29.904763
_cell_volume 791.325903
_symmetry_space_group_name_H-M "P -1"
_symmetry_group_IT_number 2
_symmetry_cell_setting 'triclinic'
loop_
_space_group_symop_operation_xyz
x,y,z
-x,-y,-z
loop_
_atom_site_type_symbol
_atom_site_label
_atom_site_fract_x
_atom_site_fract_y
_atom_site_fract_z
Si Si1 0.031032 0.197305 0.295493
Si Si2 0.130666 0.413424 0.184949
Si Si3 0.894908 0.663767 0.172895
Si Si4 0.345925 0.069662 0.192315
Si Si5 0.771374 0.115489 0.520304
Si Si6 0.456520 0.255376 0.512036
Si Si7 0.144696 0.619801 0.939161
Si Si8 0.929277 0.243647 0.601357
O O1 0.921674 0.438361 0.272465
O O2 0.920533 0.279941 0.496704
O O3 0.118030 0.250870 0.202244
O O4 0.152531 0.837272 0.238174
O O5 0.264300 0.157289 0.175759
O O6 0.211791 0.453245 0.002555
O O7 0.935543 0.785127 0.356190
O O8 0.665338 0.033446 0.336973
O O9 0.000000 0.500000 0.000000
O O10 0.010231 0.654747 0.069775
O O11 0.181626 0.416071 0.340633
O O12 0.376720 0.830141 0.279826
O O13 0.500000 0.000000 0.000000
O O14 0.663744 0.435428 0.500656
O O15 0.875269 0.030176 0.501286
O O16 0.323525 0.406116 0.716971
O O17 0.500000 0.000000 0.500000
O O18 0.000000 0.000000 0.000000
#
# Coordination Sequence:
#
# PCOD9103623 Si02
#       8
#     2   2   2   2   2   2   2   2
#     4  10  20  38  67  91 120 166 215 266 329 382
#     4  10  20  43  65  90 132 165 216 280 324 390
#     4  11  25  43  66  95 137 175 224 272 334 401
#     4  11  23  39  61  95 130 169 216 264 330 395
#     4  11  21  42  67  90 129 172 219 265 335 394
#     4  12  25  44  69  98 134 180 224 273 339 400
#     4  11  24  43  68  98 131 175 226 280 330 388
#     4  10  20  38  68  88 120 167 213 263 328 390
#
# _framework density 20.219228999999999
#
# number of rings (size 3 to 8) (size 9 to 14) (size 15 to 20)
#    0.000    1.250    5.000    1.500    0.000    3.500 
#    0.000    0.625    0.000    0.000    0.000    0.000 
#    0.000    0.000    0.000    0.000    0.000    0.000 
#
# Total GULP energy -89095.214476 kJ/mol
# GULP energy per Si atom -5568.450905 kJ/mol
# Density = 2.017321 g / cm^3
# Si number density = 20.219229 Si / 1000 Ang^3
#
#
#
# Elastic Constant Matrix: (Units=GPa)
#
#
# Indices 1 2 3 4 5 6 
#
# 1 58.7048 25.6807 26.2721 -11.5779 9.2238 3.2480
# 2 25.6807 118.2578 47.4921 -43.0986 8.8632 -1.1141
# 3 26.2721 47.4921 121.3218 -15.6939 10.0229 -14.5941
# 4 -11.5779 -43.0986 -15.6939 32.0308 -7.3940 1.7922
# 5 9.2238 8.8632 10.0229 -7.3940 29.0517 -7.5833
# 6 3.2480 -1.1141 -14.5941 1.7922 -7.5833 30.8334
#
#
#
# Elastic Compliance Matrix: (Units=1/GPa)
#
#
# Indices 1 2 3 4 5 6 
#
# 1 0.021207 -0.001891 -0.003761 0.002265 -0.005751 -0.005628
# 2 -0.001891 0.018911 -0.004398 0.023112 0.001675 -0.002131
# 3 -0.003761 -0.004398 0.011198 -0.002202 -0.000437 0.005558
# 4 0.002265 0.023112 -0.002202 0.064203 0.008804 -0.002012
# 5 -0.005751 0.001675 -0.000437 0.008804 0.040729 0.009965
# 6 -0.005628 -0.002131 0.005558 -0.002012 0.009965 0.038147
#
#
# Mechanical properties :
#
#
# Convention : Reuss Voigt Hill
#
# Bulk Modulus (GPa) = 32.03543 55.24157 43.63850
# Shear Modulus (GPa) = 22.23206 31.63915 26.93560
#
# Velocity S-wave (km/s) = 3.31954 3.96005 3.65386
# Velocity P-wave (km/s) = 5.52910 6.94910 6.27937
#
# Compressibility (1/GPa) = 0.03121544
#
# Stress axis : x y z
#
# Youngs Moduli (GPa) = 47.15512 52.88014 89.29817
#
# Poissons Ratio (x) = 0.10001 0.33583
# Poissons Ratio (y) = 0.08918 0.39274
# Poissons Ratio (z) = 0.17734 0.23257
#
# Static dielectric constant tensor:
#      x y z
#    x 1.593550 -0.090050 -0.238830 
#    y -0.090050 1.671930 -0.110810 
#    z -0.238830 -0.110810 1.413490 
# 
# From -- ./inp_files/455466.got.cif
#   From: 2010.05.17/outbox.cif.g08.bks.cpg/sg2_228_cif.got.tgz:455466.got - 2010.06.03 11:33:40.
