data_PCOD9103876
_publ_section_title
;
Structure prediction by ZEFSAII (Michael W. Deem and Ramdas Pophale) SiO2 
 PCOD9103876
Probable space group: P -1
;
_chemical_formula_sum "Si O2"
_cell_formula_units_Z 16
_cell_length_a 12.339931
_cell_length_b 11.524199
_cell_length_c 8.234457
_cell_angle_alpha 47.592348
_cell_angle_beta 111.389177
_cell_angle_gamma 123.510175
_cell_volume 720.861655
_symmetry_space_group_name_H-M "P -1"
_symmetry_group_IT_number 2
_symmetry_cell_setting 'triclinic'
loop_
_space_group_symop_operation_xyz
x,y,z
-x,-y,-z
loop_
_atom_site_type_symbol
_atom_site_label
_atom_site_fract_x
_atom_site_fract_y
_atom_site_fract_z
Si Si1 0.559872 0.167425 0.993316
Si Si2 0.117899 0.959221 0.937174
Si Si3 0.850399 0.859587 0.527244
Si Si4 0.649842 0.808576 0.941160
Si Si5 0.686868 0.022552 0.466229
Si Si6 0.900293 0.379441 0.285574
Si Si7 0.168263 0.318309 0.989171
Si Si8 0.837011 0.361186 0.885021
O O1 0.458958 0.235585 0.939466
O O2 0.610662 0.099542 0.241245
O O3 0.686937 0.316533 0.836523
O O4 0.500000 0.000000 0.000000
O O5 0.962451 0.853039 0.978675
O O6 0.156231 0.129732 0.680268
O O7 0.146471 0.807683 0.009815
O O8 0.219723 0.034404 0.064893
O O9 0.828709 0.705860 0.788888
O O10 0.752626 0.932380 0.472164
O O11 0.000000 0.000000 0.500000
O O12 0.703276 0.675333 0.028409
O O13 0.607056 0.882964 0.690242
O O14 0.808278 0.182667 0.467753
O O15 0.055676 0.466185 0.306874
O O16 0.852726 0.511876 0.214490
O O17 0.874373 0.376523 0.080682
#
# Coordination Sequence:
#
# PCOD9103876 Si02
#       8
#     2   2   2   2   2   2   2   2
#     4  11  19  34  57  79 106 142 187 230 257 314
#     4  10  16  33  53  77 109 136 181 229 263 308
#     4   9  16  29  52  80 104 131 184 224 261 311
#     4  11  21  33  54  82 112 141 180 224 271 321
#     4  10  20  35  52  85 109 142 181 217 276 320
#     4   9  17  34  57  76 114 138 176 224 270 328
#     4   9  20  31  52  81 111 141 177 222 283 313
#     4   9  17  30  55  80  97 139 183 217 266 299
#
# _framework density 22.195661999999999
#
# number of rings (size 3 to 8) (size 9 to 14) (size 15 to 20)
#    0.000    2.250    3.750    0.750    1.750    0.000 
#    0.000    5.000    2.750    0.000    0.000   18.375 
#    0.000    0.000    0.000    0.000    0.000    0.000 
#
# Total GULP energy -89184.137798 kJ/mol
# GULP energy per Si atom -5574.008612 kJ/mol
# Density = 2.214514 g / cm^3
# Si number density = 22.195662 Si / 1000 Ang^3
#
#
#
# Elastic Constant Matrix: (Units=GPa)
#
#
# Indices 1 2 3 4 5 6 
#
# 1 152.3540 11.0363 3.4413 -6.5216 -7.3253 0.2430
# 2 11.0363 41.9181 0.1667 4.2083 -3.9003 4.9612
# 3 3.4413 0.1667 27.5033 12.1410 2.9683 5.5308
# 4 -6.5216 4.2083 12.1410 17.1469 3.8862 2.1268
# 5 -7.3253 -3.9003 2.9683 3.8862 13.6653 0.1552
# 6 0.2430 4.9612 5.5308 2.1268 0.1552 22.0648
#
#
#
# Elastic Compliance Matrix: (Units=1/GPa)
#
#
# Indices 1 2 3 4 5 6 
#
# 1 0.007146 -0.002247 -0.003582 0.005139 0.002497 0.000811
# 2 -0.002247 0.027372 0.006308 -0.013294 0.009092 -0.006494
# 3 -0.003582 0.006308 0.057875 -0.042306 -0.000526 -0.011805
# 4 0.005139 -0.013294 -0.042306 0.097402 -0.019598 0.004287
# 5 0.002497 0.009092 -0.000526 -0.019598 0.082807 -0.000633
# 6 0.000811 -0.006494 -0.011805 0.004287 -0.000633 0.049322
#
#
# Mechanical properties :
#
#
# Convention : Reuss Voigt Hill
#
# Bulk Modulus (GPa) = 10.71206 27.89600 19.30403
# Shear Modulus (GPa) = 14.20126 24.38414 19.29270
#
# Velocity S-wave (km/s) = 2.53221 3.31811 2.95144
# Velocity P-wave (km/s) = 3.65871 5.22258 4.50896
#
# Compressibility (1/GPa) = 0.09335269
#
# Stress axis : x y z
#
# Youngs Moduli (GPa) = 139.93767 36.53418 17.27855
#
# Poissons Ratio (x) = 0.08209 0.06188
# Poissons Ratio (y) = 0.31441 -0.10900
# Poissons Ratio (z) = 0.50120 -0.23047
#
# Static dielectric constant tensor:
#      x y z
#    x 1.864070 0.009580 -0.002410 
#    y 0.009580 1.835010 0.000660 
#    z -0.002410 0.000660 1.935290 
# 
# From -- ./inp_files/261661.got.cif
#   From: 2010.05.17/outbox.cif.g08.bks.cpg/sg2_131_cif.got.tgz:261661.got - 2010.06.03 11:33:40.
