data_PCOD9103831
_publ_section_title
;
Structure prediction by ZEFSAII (Michael W. Deem and Ramdas Pophale) SiO2 
 PCOD9103831
Probable space group: P -1
;
_chemical_formula_sum "Si O2"
_cell_formula_units_Z 10
_cell_length_a 12.403899
_cell_length_b 5.256236
_cell_length_c 6.998011
_cell_angle_alpha 75.711978
_cell_angle_beta 108.998314
_cell_angle_gamma 116.255095
_cell_volume 384.042894
_symmetry_space_group_name_H-M "P -1"
_symmetry_group_IT_number 2
_symmetry_cell_setting 'triclinic'
loop_
_space_group_symop_operation_xyz
x,y,z
-x,-y,-z
loop_
_atom_site_type_symbol
_atom_site_label
_atom_site_fract_x
_atom_site_fract_y
_atom_site_fract_z
Si Si1 0.210518 0.563200 0.233595
Si Si2 0.599201 0.512442 0.219114
Si Si3 0.504218 0.102599 0.761536
Si Si4 0.855946 0.538104 0.213224
Si Si5 0.125933 0.921035 0.416121
O O1 0.354980 0.703415 0.237365
O O2 0.178823 0.791206 0.296104
O O3 0.138285 0.486313 0.005830
O O4 0.175766 0.262103 0.377359
O O5 0.584121 0.726254 0.325207
O O6 0.732404 0.585880 0.189242
O O7 0.552077 0.192240 0.330246
O O8 0.500000 0.500000 0.000000
O O9 0.500000 0.000000 0.000000
O O10 0.848793 0.241053 0.356723
O O11 0.977861 0.786918 0.320354
#
# Coordination Sequence:
#
# PCOD9103831 Si02
#       5
#     2   2   2   2   2
#     4  12  24  47  73 100 143 177 236 280 342 415
#     4  10  20  38  69  95 124 189 217 263 358 392
#     4  10  20  38  68  97 129 178 226 269 345 402
#     4  11  25  48  74  94 154 174 224 297 340 398
#     4  11  29  44  68 115 126 187 237 272 347 418
#
# _framework density 26.038761000000001
#
# number of rings (size 3 to 8) (size 9 to 14) (size 15 to 20)
#    0.000    1.200    4.000    2.400    2.800    8.000 
#    0.000    6.000    0.000    0.000    0.000    0.000 
#    0.000    0.000    0.000    0.000    0.000    0.000 
#
# Total GULP energy -56139.253561 kJ/mol
# GULP energy per Si atom -5613.925356 kJ/mol
# Density = 2.597950 g / cm^3
# Si number density = 26.038761 Si / 1000 Ang^3
#
#
#
# Elastic Constant Matrix: (Units=GPa)
#
#
# Indices 1 2 3 4 5 6 
#
# 1 176.6195 53.8651 21.6700 -9.3727 20.7678 5.1480
# 2 53.8651 144.1969 -18.2502 -1.2956 -12.6122 -11.2322
# 3 21.6700 -18.2502 123.5385 -4.0077 0.1754 0.8987
# 4 -9.3727 -1.2956 -4.0077 16.3874 9.9753 -8.0633
# 5 20.7678 -12.6122 0.1754 9.9753 34.3226 1.2311
# 6 5.1480 -11.2322 0.8987 -8.0633 1.2311 55.1861
#
#
#
# Elastic Compliance Matrix: (Units=1/GPa)
#
#
# Indices 1 2 3 4 5 6 
#
# 1 0.008959 -0.004363 -0.001862 0.010479 -0.010062 0.000062
# 2 -0.004363 0.009542 0.001986 -0.005197 0.007597 0.001388
# 3 -0.001862 0.001986 0.008723 0.000437 0.001668 0.000462
# 4 0.010479 -0.005197 0.000437 0.095056 -0.036333 0.012657
# 5 -0.010062 0.007597 0.001668 -0.036333 0.048708 -0.003938
# 6 0.000062 0.001388 0.000462 0.012657 -0.003938 0.020327
#
#
# Mechanical properties :
#
#
# Convention : Reuss Voigt Hill
#
# Bulk Modulus (GPa) = 53.35120 62.10274 57.72697
# Shear Modulus (GPa) = 24.26684 46.98388 35.62536
#
# Velocity S-wave (km/s) = 3.05610 4.25241 3.70289
# Velocity P-wave (km/s) = 5.74340 6.92911 6.36393
#
# Compressibility (1/GPa) = 0.01874372
#
# Stress axis : x y z
#
# Youngs Moduli (GPa) = 111.62554 104.79924 114.63853
#
# Poissons Ratio (x) = 0.45727 0.21348
# Poissons Ratio (y) = 0.48705 -0.22762
# Poissons Ratio (z) = 0.20787 -0.20808
#
# Static dielectric constant tensor:
#      x y z
#    x 2.048760 -0.022520 0.077760 
#    y -0.022520 2.100440 0.099030 
#    z 0.077760 0.099030 2.441410 
# 
# From -- ./inp_files/24042.got.cif
#   From: 2010.05.17/outbox.cif.g08.bks.cpg/sg2_13_cif.got.tgz:24042.got - 2010.06.03 11:33:40.
