data_PCOD9103166
_publ_section_title
;
Structure prediction by ZEFSAII (Michael W. Deem and Ramdas Pophale) SiO2 
 PCOD9103166
Probable space group: P -1
;
_chemical_formula_sum "Si O2"
_cell_formula_units_Z 16
_cell_length_a 18.387649
_cell_length_b 6.088494
_cell_length_c 9.037930
_cell_angle_alpha 61.103985
_cell_angle_beta 128.543427
_cell_angle_gamma 106.147648
_cell_volume 692.464971
_symmetry_space_group_name_H-M "P -1"
_symmetry_group_IT_number 2
_symmetry_cell_setting 'triclinic'
loop_
_space_group_symop_operation_xyz
x,y,z
-x,-y,-z
loop_
_atom_site_type_symbol
_atom_site_label
_atom_site_fract_x
_atom_site_fract_y
_atom_site_fract_z
Si Si1 0.677782 0.456084 0.853060
Si Si2 0.504625 0.308993 0.422458
Si Si3 0.402261 0.610560 0.775249
Si Si4 0.099413 0.866415 0.344429
Si Si5 0.712873 0.929791 0.564854
Si Si6 0.220536 0.460310 0.763893
Si Si7 0.243404 0.919711 0.093525
Si Si8 0.944116 0.247602 0.015895
O O1 0.596656 0.595824 0.796201
O O2 0.698008 0.646273 0.683362
O O3 0.754260 0.408428 0.091444
O O4 0.666962 0.193825 0.842261
O O5 0.500000 0.500000 0.500000
O O6 0.580049 0.404672 0.372644
O O7 0.500000 0.000000 0.500000
O O8 0.308032 0.486469 0.753812
O O9 0.373943 0.909120 0.666399
O O10 0.500000 0.500000 0.000000
O O11 0.129635 0.600815 0.538592
O O12 0.193620 0.025532 0.422004
O O13 0.078310 0.823012 0.159024
O O14 0.011620 0.027632 0.239481
O O15 0.731992 0.038767 0.718502
O O16 0.211059 0.175523 0.891876
O O17 0.155405 0.741139 0.034689
O O18 0.000000 0.500000 0.000000
#
# Coordination Sequence:
#
# PCOD9103166 Si02
#       8
#     2   2   2   2   2   2   2   2
#     4  11  21  38  63  87 128 174 223 269 342 408
#     4  12  26  45  71 101 135 186 242 293 346 411
#     4  11  21  41  65  96 131 173 225 289 342 404
#     4   9  20  38  61  91 123 165 208 282 331 407
#     4   9  19  38  62  85 126 166 221 266 340 403
#     4  10  23  41  60  92 136 168 219 272 356 401
#     4  10  22  39  61  91 125 176 211 279 337 420
#     4  10  20  38  65  91 121 163 228 265 337 413
#
# _framework density 23.105861000000001
#
# number of rings (size 3 to 8) (size 9 to 14) (size 15 to 20)
#    0.000    1.750    2.500    1.500    1.750    2.500 
#    2.250    5.000    0.000    0.000    0.000    0.000 
#    0.000    0.000    0.000    0.000    0.000    0.000 
#
# Total GULP energy -89125.809889 kJ/mol
# GULP energy per Si atom -5570.363118 kJ/mol
# Density = 2.305327 g / cm^3
# Si number density = 23.105861 Si / 1000 Ang^3
#
#
#
# Elastic Constant Matrix: (Units=GPa)
#
#
# Indices 1 2 3 4 5 6 
#
# 1 78.8050 34.7735 27.2535 -9.1093 6.0251 -5.9130
# 2 34.7735 68.4905 25.9852 -1.5890 5.6336 -7.4789
# 3 27.2535 25.9852 140.5902 -31.3496 27.5806 -10.3530
# 4 -9.1093 -1.5890 -31.3496 28.9192 -9.0163 5.3574
# 5 6.0251 5.6336 27.5806 -9.0163 37.7094 -10.4382
# 6 -5.9130 -7.4789 -10.3530 5.3574 -10.4382 30.3305
#
#
#
# Elastic Compliance Matrix: (Units=1/GPa)
#
#
# Indices 1 2 3 4 5 6 
#
# 1 0.017103 -0.008213 -0.000940 0.003917 0.000222 0.000373
# 2 -0.008213 0.020186 -0.003150 -0.005442 0.000224 0.003339
# 3 -0.000940 -0.003150 0.011105 0.010056 -0.005311 -0.000774
# 4 0.003917 -0.005442 0.010056 0.048231 0.003090 -0.004601
# 5 0.000222 0.000224 -0.005311 0.003090 0.033653 0.009321
# 6 0.000373 0.003339 -0.000774 -0.004601 0.009321 0.037623
#
#
# Mechanical properties :
#
#
# Convention : Reuss Voigt Hill
#
# Bulk Modulus (GPa) = 42.04128 51.54557 46.79342
# Shear Modulus (GPa) = 24.94567 32.71672 28.83119
#
# Velocity S-wave (km/s) = 3.28933 3.76699 3.53624
# Velocity P-wave (km/s) = 5.71496 6.42473 6.08021
#
# Compressibility (1/GPa) = 0.02378615
#
# Stress axis : x y z
#
# Youngs Moduli (GPa) = 58.47075 49.54003 90.05275
#
# Poissons Ratio (x) = 0.40689 0.08464
# Poissons Ratio (y) = 0.48024 0.28369
# Poissons Ratio (z) = 0.05495 0.15606
#
# Static dielectric constant tensor:
#      x y z
#    x 1.947180 0.030180 0.070630 
#    y 0.030180 1.920020 0.018380 
#    z 0.070630 0.018380 1.959940 
# 
# From -- ./inp_files/140736.got.cif
#   From: 2010.05.17/outbox.cif.g08.bks.cpg/sg2_71_cif.got.tgz:140736.got - 2010.06.03 11:33:40.
