data_PCOD9103890
_publ_section_title
;
Structure prediction by ZEFSAII (Michael W. Deem and Ramdas Pophale) SiO2 
 PCOD9103890
Probable space group: P -1
;
_chemical_formula_sum "Si O2"
_cell_formula_units_Z 12
_cell_length_a 9.980150
_cell_length_b 7.983801
_cell_length_c 9.719716
_cell_angle_alpha 130.759977
_cell_angle_beta 88.457003
_cell_angle_gamma 112.557634
_cell_volume 513.333066
_symmetry_space_group_name_H-M "P -1"
_symmetry_group_IT_number 2
_symmetry_cell_setting 'triclinic'
loop_
_space_group_symop_operation_xyz
x,y,z
-x,-y,-z
loop_
_atom_site_type_symbol
_atom_site_label
_atom_site_fract_x
_atom_site_fract_y
_atom_site_fract_z
Si Si1 0.960795 0.163216 0.367663
Si Si2 0.831532 0.461595 0.651307
Si Si3 0.697032 0.019554 0.075161
Si Si4 0.369114 0.631883 0.918917
Si Si5 0.443755 0.489715 0.341825
Si Si6 0.086866 0.348398 0.956535
O O1 0.894131 0.261391 0.543372
O O2 0.828897 0.074935 0.207291
O O3 0.107644 0.391572 0.415927
O O4 0.985636 0.924722 0.257984
O O5 0.650662 0.362745 0.602457
O O6 0.906063 0.649583 0.877805
O O7 0.713218 0.263447 0.126790
O O8 0.530951 0.880132 0.080434
O O9 0.674784 0.805197 0.850204
O O10 0.419619 0.453345 0.738407
O O11 0.260859 0.498714 0.977096
O O12 0.500000 0.500000 0.500000
O O13 0.000000 0.500000 0.000000
#
# Coordination Sequence:
#
# PCOD9103890 Si02
#       6
#     2   2   2   2   2   2
#     4  11  24  44  64  95 130 163 225 264 304 389
#     4  11  25  42  68  95 124 175 217 256 320 381
#     4   9  19  40  67  86 129 170 201 269 307 368
#     4   9  21  38  60  97 125 162 214 256 314 381
#     4  10  20  38  69  94 122 167 217 256 313 377
#     4  12  25  42  65  92 134 170 206 269 328 367
#
# _framework density 23.376638
#
# number of rings (size 3 to 8) (size 9 to 14) (size 15 to 20)
#    1.000    0.667    1.667    2.500    2.333    4.667 
#    3.000    1.667    0.000    0.000    0.000    0.000 
#    0.000    0.000    0.000    0.000    0.000    0.000 
#
# Total GULP energy -67040.119982 kJ/mol
# GULP energy per Si atom -5586.676665 kJ/mol
# Density = 2.332343 g / cm^3
# Si number density = 23.376638 Si / 1000 Ang^3
#
#
#
# Elastic Constant Matrix: (Units=GPa)
#
#
# Indices 1 2 3 4 5 6 
#
# 1 96.3906 15.4222 31.5570 -5.8880 -35.0286 -13.4247
# 2 15.4222 50.7614 12.5626 4.9880 -23.8825 -0.6190
# 3 31.5570 12.5626 91.5473 6.0121 -28.4907 1.6229
# 4 -5.8880 4.9880 6.0121 23.3850 -4.5232 -14.5456
# 5 -35.0286 -23.8825 -28.4907 -4.5232 50.3543 4.1122
# 6 -13.4247 -0.6190 1.6229 -14.5456 4.1122 28.6584
#
#
#
# Elastic Compliance Matrix: (Units=1/GPa)
#
#
# Indices 1 2 3 4 5 6 
#
# 1 0.019827 -0.001569 -0.004967 0.019923 0.010547 0.018133
# 2 -0.001569 0.026084 0.001223 -0.007596 0.011762 -0.005784
# 3 -0.004967 0.001223 0.014966 -0.009865 0.005436 -0.008935
# 4 0.019923 -0.007596 -0.009865 0.085975 0.008135 0.052197
# 5 0.010547 0.011762 0.005436 0.008135 0.036270 0.003811
# 6 0.018133 -0.005784 -0.008935 0.052197 0.003811 0.069715
#
#
# Mechanical properties :
#
#
# Convention : Reuss Voigt Hill
#
# Bulk Modulus (GPa) = 19.90006 39.75366 29.82686
# Shear Modulus (GPa) = 17.84372 32.42338 25.13355
#
# Velocity S-wave (km/s) = 2.76581 3.72828 3.28252
# Velocity P-wave (km/s) = 4.32792 5.96457 5.21090
#
# Compressibility (1/GPa) = 0.05025111
#
# Stress axis : x y z
#
# Youngs Moduli (GPa) = 50.43719 38.33834 66.82015
#
# Poissons Ratio (x) = 0.06015 0.33187
# Poissons Ratio (y) = 0.07914 -0.08174
# Poissons Ratio (z) = 0.25050 -0.04690
#
# Static dielectric constant tensor:
#      x y z
#    x 1.917950 -0.017280 -0.041920 
#    y -0.017280 1.866850 0.040130 
#    z -0.041920 0.040130 1.893400 
# 
# From -- ./inp_files/245897.got.cif
#   From: 2010.05.17/outbox.cif.g08.bks.cpg/sg2_123_cif.got.tgz:245897.got - 2010.06.03 11:33:40.
