data_PCOD9103422
_publ_section_title
;
Structure prediction by ZEFSAII (Michael W. Deem and Ramdas Pophale) SiO2 
 PCOD9103422
Probable space group: P -1
;
_chemical_formula_sum "Si O2"
_cell_formula_units_Z 16
_cell_length_a 20.678935
_cell_length_b 9.538567
_cell_length_c 11.463678
_cell_angle_alpha 34.345045
_cell_angle_beta 40.712828
_cell_angle_gamma 53.816483
_cell_volume 828.227128
_symmetry_space_group_name_H-M "P -1"
_symmetry_group_IT_number 2
_symmetry_cell_setting 'triclinic'
loop_
_space_group_symop_operation_xyz
x,y,z
-x,-y,-z
loop_
_atom_site_type_symbol
_atom_site_label
_atom_site_fract_x
_atom_site_fract_y
_atom_site_fract_z
Si Si1 0.862648 0.470660 0.325073
Si Si2 0.231987 0.047673 0.258542
Si Si3 0.584023 0.788320 0.445702
Si Si4 0.383754 0.454774 0.664631
Si Si5 0.421864 0.646523 0.934131
Si Si6 0.230884 0.853914 0.646313
Si Si7 0.086961 0.390561 0.100905
Si Si8 0.734104 0.741208 0.485851
O O1 0.824762 0.643555 0.357993
O O2 0.968505 0.373992 0.278798
O O3 0.782004 0.232893 0.579370
O O4 0.879976 0.606396 0.082685
O O5 0.139768 0.183586 0.240607
O O6 0.229349 0.026123 0.415927
O O7 0.330333 0.214803 0.968813
O O8 0.624897 0.612633 0.413888
O O9 0.472858 0.686138 0.709982
O O10 0.654579 0.798009 0.455739
O O11 0.583021 0.071564 0.207608
O O12 0.500000 0.500000 0.500000
O O13 0.324309 0.688676 0.618649
O O14 0.500000 0.500000 0.000000
O O15 0.318666 0.478452 0.208418
O O16 0.238133 0.018300 0.638691
O O17 0.134180 0.655200 0.905953
#
# Coordination Sequence:
#
# PCOD9103422 Si02
#       8
#     2   2   2   2   2   2   2   2
#     4  10  20  38  66  91 112 152 199 241 289 352
#     4  10  20  40  60  85 120 151 196 245 288 344
#     4  10  21  39  58  80 113 156 202 238 284 341
#     4  11  25  38  61  86 117 159 201 242 292 340
#     4   9  21  35  57  80 112 148 196 238 282 338
#     4  10  24  39  55  88 123 153 193 244 293 351
#     4   9  20  40  64  90 117 149 195 244 292 345
#     4  11  22  37  59  85 119 156 191 238 295 345
#
# _framework density 19.318372
#
# number of rings (size 3 to 8) (size 9 to 14) (size 15 to 20)
#    0.000    2.000    0.000    3.375    7.000    3.000 
#    0.000    0.625    0.000    0.000    0.000    0.000 
#    0.000    0.000    0.000    0.000    0.000    0.000 
#
# Total GULP energy -89334.568065 kJ/mol
# GULP energy per Si atom -5583.410504 kJ/mol
# Density = 1.927440 g / cm^3
# Si number density = 19.318372 Si / 1000 Ang^3
#
#
#
# Elastic Constant Matrix: (Units=GPa)
#
#
# Indices 1 2 3 4 5 6 
#
# 1 80.1089 31.7268 38.8479 -6.2614 -6.0490 8.4970
# 2 31.7268 122.6428 52.4437 -5.0553 -9.2572 22.7578
# 3 38.8479 52.4437 87.3585 -2.8667 -3.0799 -2.0675
# 4 -6.2614 -5.0553 -2.8667 15.1754 -7.9305 -4.6165
# 5 -6.0490 -9.2572 -3.0799 -7.9305 24.7936 -2.2983
# 6 8.4970 22.7578 -2.0675 -4.6165 -2.2983 41.7296
#
#
#
# Elastic Compliance Matrix: (Units=1/GPa)
#
#
# Indices 1 2 3 4 5 6 
#
# 1 0.017366 -0.000173 -0.007229 0.007837 0.005538 -0.002628
# 2 -0.000173 0.013292 -0.007823 0.002953 0.004241 -0.007041
# 3 -0.007229 -0.007823 0.019409 -0.000991 -0.001990 0.006481
# 4 0.007837 0.002953 -0.000991 0.089333 0.032245 0.008403
# 5 0.005538 0.004241 -0.001990 0.032245 0.053611 0.002981
# 6 -0.002628 -0.007041 0.006481 0.008403 0.002981 0.029754
#
#
# Mechanical properties :
#
#
# Convention : Reuss Voigt Hill
#
# Bulk Modulus (GPa) = 50.97333 59.57188 55.27261
# Shear Modulus (GPa) = 19.24902 27.47919 23.36411
#
# Velocity S-wave (km/s) = 3.16002 3.77561 3.48145
# Velocity P-wave (km/s) = 6.30536 7.06476 6.69583
#
# Compressibility (1/GPa) = 0.01961810
#
# Stress axis : x y z
#
# Youngs Moduli (GPa) = 57.58248 75.23305 51.52305
#
# Poissons Ratio (x) = 0.01299 0.37245
# Poissons Ratio (y) = 0.00995 0.40306
# Poissons Ratio (z) = 0.41626 0.58855
#
# Static dielectric constant tensor:
#      x y z
#    x 1.680390 -0.008980 0.002250 
#    y -0.008980 1.662440 0.006480 
#    z 0.002250 0.006480 1.694530 
# 
# From -- ./inp_files/48259.got.cif
#   From: 2010.05.17/outbox.cif.g08.bks.cpg/sg2_25_cif.got.tgz:48259.got - 2010.06.03 11:33:40.
