data_PCOD9103851
_publ_section_title
;
Structure prediction by ZEFSAII (Michael W. Deem and Ramdas Pophale) SiO2 
 PCOD9103851
Probable space group: P -1
;
_chemical_formula_sum "Si O2"
_cell_formula_units_Z 16
_cell_length_a 13.142017
_cell_length_b 7.347863
_cell_length_c 9.768998
_cell_angle_alpha 104.704970
_cell_angle_beta 133.592991
_cell_angle_gamma 78.160830
_cell_volume 660.237209
_symmetry_space_group_name_H-M "P -1"
_symmetry_group_IT_number 2
_symmetry_cell_setting 'triclinic'
loop_
_space_group_symop_operation_xyz
x,y,z
-x,-y,-z
loop_
_atom_site_type_symbol
_atom_site_label
_atom_site_fract_x
_atom_site_fract_y
_atom_site_fract_z
Si Si1 0.332779 0.917144 0.020187
Si Si2 0.590759 0.181600 0.639578
Si Si3 0.863120 0.950567 0.777348
Si Si4 0.155584 0.463970 0.195175
Si Si5 0.019609 0.801875 0.656992
Si Si6 0.408065 0.619390 0.830859
Si Si7 0.898238 0.412808 0.546291
Si Si8 0.585039 0.664098 0.736594
O O1 0.166645 0.883829 0.853939
O O2 0.393137 0.831505 0.918526
O O3 0.398564 0.793045 0.182983
O O4 0.361683 0.131904 0.124588
O O5 0.504745 0.315028 0.481804
O O6 0.500000 0.000000 0.500000
O O7 0.745162 0.111517 0.721605
O O8 0.821139 0.747321 0.759412
O O9 0.899301 0.923542 0.645923
O O10 0.000000 0.000000 0.000000
O O11 0.152745 0.602532 0.348886
O O12 0.275417 0.467026 0.191039
O O13 0.000000 0.500000 0.000000
O O14 0.024063 0.763959 0.491181
O O15 0.996465 0.591179 0.656203
O O16 0.248703 0.550419 0.663543
O O17 0.482290 0.608205 0.751578
O O18 0.500000 0.500000 0.000000
#
# Coordination Sequence:
#
# PCOD9103851 Si02
#       8
#     2   2   2   2   2   2   2   2
#     4  10  20  42  70 101 131 180 229 280 349 403
#     4  10  20  38  68  99 136 170 226 284 342 406
#     4  11  19  37  68 101 127 181 225 277 347 407
#     4  11  24  41  65  95 138 176 233 288 338 405
#     4   9  18  37  66  91 134 173 223 276 332 410
#     4  11  26  43  67  98 143 186 222 281 353 424
#     4   9  22  40  58  96 133 181 226 267 344 411
#     4  11  24  44  68 103 136 180 235 292 340 413
#
# _framework density 24.233715
#
# number of rings (size 3 to 8) (size 9 to 14) (size 15 to 20)
#    0.000    1.750    3.750    0.375    1.750    7.500 
#    0.000    1.250    0.000    6.000    0.000    0.000 
#    0.000    0.000    0.000    0.000    0.000    0.000 
#
# Total GULP energy -89463.375862 kJ/mol
# GULP energy per Si atom -5591.460991 kJ/mol
# Density = 2.417856 g / cm^3
# Si number density = 24.233715 Si / 1000 Ang^3
#
#
#
# Elastic Constant Matrix: (Units=GPa)
#
#
# Indices 1 2 3 4 5 6 
#
# 1 156.2754 26.0474 24.1158 -0.1441 -10.0034 -28.4000
# 2 26.0474 98.8794 8.9969 4.8154 7.0895 -12.1150
# 3 24.1158 8.9969 77.7134 0.5120 10.5650 -12.9761
# 4 -0.1441 4.8154 0.5120 34.0544 -2.8723 1.3172
# 5 -10.0034 7.0895 10.5650 -2.8723 50.8985 9.1080
# 6 -28.4000 -12.1150 -12.9761 1.3172 9.1080 46.7883
#
#
#
# Elastic Compliance Matrix: (Units=1/GPa)
#
#
# Indices 1 2 3 4 5 6 
#
# 1 0.007662 -0.001551 -0.001829 0.000273 0.001501 0.003442
# 2 -0.001551 0.011086 -0.000062 -0.001868 -0.002376 0.002427
# 3 -0.001829 -0.000062 0.014630 -0.000710 -0.004099 0.003749
# 4 0.000273 -0.001868 -0.000710 0.029921 0.002479 -0.001840
# 5 0.001501 -0.002376 -0.004099 0.002479 0.022200 -0.005232
# 6 0.003442 0.002427 0.003749 -0.001840 -0.005232 0.026201
#
#
# Mechanical properties :
#
#
# Convention : Reuss Voigt Hill
#
# Bulk Modulus (GPa) = 37.74333 50.13203 43.93768
# Shear Modulus (GPa) = 39.24203 44.59544 41.91873
#
# Velocity S-wave (km/s) = 4.02844 4.29444 4.16356
# Velocity P-wave (km/s) = 6.10297 6.73212 6.42525
#
# Compressibility (1/GPa) = 0.02649475
#
# Stress axis : x y z
#
# Youngs Moduli (GPa) = 130.52203 90.20230 68.35062
#
# Poissons Ratio (x) = 0.13991 0.12502
# Poissons Ratio (y) = 0.20244 0.00421
# Poissons Ratio (z) = 0.23874 0.00555
#
# Static dielectric constant tensor:
#      x y z
#    x 1.958430 0.064700 -0.030390 
#    y 0.064700 2.063530 0.023420 
#    z -0.030390 0.023420 1.880090 
# 
# From -- ./inp_files/244774.got.cif
#   From: 2010.05.17/outbox.cif.g08.bks.cpg/sg2_123_cif.got.tgz:244774.got - 2010.06.03 11:33:40.
