data_PCOD9103430
_publ_section_title
;
Structure prediction by ZEFSAII (Michael W. Deem and Ramdas Pophale) SiO2 
 PCOD9103430
Probable space group: P -1
;
_chemical_formula_sum "Si O2"
_cell_formula_units_Z 16
_cell_length_a 13.101815
_cell_length_b 25.626372
_cell_length_c 8.841720
_cell_angle_alpha 44.497754
_cell_angle_beta 125.559438
_cell_angle_gamma 156.623866
_cell_volume 796.430497
_symmetry_space_group_name_H-M "P -1"
_symmetry_group_IT_number 2
_symmetry_cell_setting 'triclinic'
loop_
_space_group_symop_operation_xyz
x,y,z
-x,-y,-z
loop_
_atom_site_type_symbol
_atom_site_label
_atom_site_fract_x
_atom_site_fract_y
_atom_site_fract_z
Si Si1 0.792101 0.871516 0.454609
Si Si2 0.963493 0.056131 0.956061
Si Si3 0.123564 0.915980 0.484757
Si Si4 0.504669 0.581396 0.250459
Si Si5 0.040226 0.336712 0.137456
Si Si6 0.297034 0.738437 0.770586
Si Si7 0.793305 0.454045 0.738666
Si Si8 0.801332 0.464880 0.379336
O O1 0.488779 0.702597 0.596131
O O2 0.915916 0.863129 0.495910
O O3 0.000000 0.000000 0.500000
O O4 0.786372 0.933754 0.194270
O O5 0.215624 0.228222 0.899012
O O6 0.882811 0.073712 0.723704
O O7 0.000000 0.000000 0.000000
O O8 0.058572 0.797124 0.708588
O O9 0.428152 0.094909 0.414095
O O10 0.500000 0.500000 0.500000
O O11 0.324629 0.543054 0.269205
O O12 0.342716 0.488013 0.148777
O O13 0.847928 0.273552 0.229811
O O14 0.053074 0.397366 0.879748
O O15 0.099136 0.606521 0.740581
O O16 0.340883 0.693272 0.019392
O O17 0.745141 0.454174 0.527258
O O18 0.000000 0.500000 0.500000
#
# Coordination Sequence:
#
# PCOD9103430 Si02
#       8
#     2   2   2   2   2   2   2   2
#     4  11  25  42  66  96 129 173 218 270 325 391
#     4  10  20  38  66  91 122 163 215 269 317 380
#     4  11  22  41  65  94 129 165 216 275 330 382
#     4  11  21  40  65  99 131 163 220 274 331 383
#     4  11  24  41  64  96 130 171 211 276 329 393
#     4  10  21  40  68  91 125 164 226 270 318 386
#     4  10  21  39  65  94 121 175 216 266 324 390
#     4  12  25  43  66  92 132 172 218 259 331 401
#
# _framework density 20.089638999999998
#
# number of rings (size 3 to 8) (size 9 to 14) (size 15 to 20)
#    0.000    1.250    2.500    4.875    1.750    0.500 
#    2.250    0.625    0.000    0.000    0.000    0.000 
#    0.000    0.000    0.000    0.000    0.000    0.000 
#
# Total GULP energy -89260.404557 kJ/mol
# GULP energy per Si atom -5578.775285 kJ/mol
# Density = 2.004391 g / cm^3
# Si number density = 20.089639 Si / 1000 Ang^3
#
#
#
# Elastic Constant Matrix: (Units=GPa)
#
#
# Indices 1 2 3 4 5 6 
#
# 1 50.2960 13.9143 27.3005 -15.7913 18.7458 8.3964
# 2 13.9143 84.8881 32.0624 -15.6739 7.2554 6.8572
# 3 27.3005 32.0624 131.0481 -11.0582 26.6764 5.8034
# 4 -15.7913 -15.6739 -11.0582 40.1915 -1.0855 -3.8496
# 5 18.7458 7.2554 26.6764 -1.0855 26.9559 2.4758
# 6 8.3964 6.8572 5.8034 -3.8496 2.4758 23.8533
#
#
#
# Elastic Compliance Matrix: (Units=1/GPa)
#
#
# Indices 1 2 3 4 5 6 
#
# 1 0.033089 -0.000520 -0.001344 0.011182 -0.020425 -0.007246
# 2 -0.000520 0.013912 -0.002784 0.004215 -0.000234 -0.002434
# 3 -0.001344 -0.002784 0.010433 0.001005 -0.008581 -0.000212
# 4 0.011182 0.004215 0.001005 0.031009 -0.008704 0.000515
# 5 -0.020425 -0.000234 -0.008581 -0.008704 0.059343 0.001781
# 6 -0.007246 -0.002434 -0.000212 0.000515 0.001781 0.045123
#
#
# Mechanical properties :
#
#
# Convention : Reuss Voigt Hill
#
# Bulk Modulus (GPa) = 20.77389 45.86518 33.31954
# Shear Modulus (GPa) = 22.90939 31.06380 26.98660
#
# Velocity S-wave (km/s) = 3.38058 3.93652 3.66909
# Velocity P-wave (km/s) = 5.05973 6.59859 5.87972
#
# Compressibility (1/GPa) = 0.04813735
#
# Stress axis : x y z
#
# Youngs Moduli (GPa) = 30.22169 71.87993 95.85157
#
# Poissons Ratio (x) = 0.03741 0.12878
# Poissons Ratio (y) = 0.01573 0.26687
# Poissons Ratio (z) = 0.04061 0.20013
#
# Static dielectric constant tensor:
#      x y z
#    x 1.704480 0.005190 0.005810 
#    y 0.005190 1.823370 -0.011740 
#    z 0.005810 -0.011740 1.666180 
# 
# From -- ./inp_files/207028.got.cif
#   From: 2010.05.17/outbox.cif.g08.bks.cpg/sg2_104_cif.got.tgz:207028.got - 2010.06.03 11:33:40.
