data_PCOD9103564
_publ_section_title
;
Structure prediction by ZEFSAII (Michael W. Deem and Ramdas Pophale) SiO2 
 PCOD9103564
Probable space group: P -1
;
_chemical_formula_sum "Si O2"
_cell_formula_units_Z 16
_cell_length_a 8.403248
_cell_length_b 12.287557
_cell_length_c 8.496937
_cell_angle_alpha 81.036685
_cell_angle_beta 124.714729
_cell_angle_gamma 102.037133
_cell_volume 704.577545
_symmetry_space_group_name_H-M "P -1"
_symmetry_group_IT_number 2
_symmetry_cell_setting 'triclinic'
loop_
_space_group_symop_operation_xyz
x,y,z
-x,-y,-z
loop_
_atom_site_type_symbol
_atom_site_label
_atom_site_fract_x
_atom_site_fract_y
_atom_site_fract_z
Si Si1 0.552395 0.323168 0.774204
Si Si2 0.806969 0.765316 0.615087
Si Si3 0.750481 0.686830 0.107557
Si Si4 0.958156 0.980614 0.796699
Si Si5 0.900993 0.198724 0.524277
Si Si6 0.800861 0.549467 0.869941
Si Si7 0.654257 0.102235 0.942425
Si Si8 0.526702 0.872117 0.832874
O O1 0.398282 0.263661 0.578765
O O2 0.422212 0.335541 0.854813
O O3 0.645408 0.445850 0.749078
O O4 0.702719 0.231764 0.889340
O O5 0.802209 0.875011 0.690484
O O6 0.831212 0.657616 0.753783
O O7 0.971981 0.788688 0.567218
O O8 0.964829 0.712213 0.305862
O O9 0.745454 0.588285 0.002897
O O10 0.696021 0.794106 0.956209
O O11 0.916338 0.084756 0.650496
O O12 0.160753 0.941703 0.867479
O O13 0.000000 0.000000 0.000000
O O14 0.670410 0.190231 0.348863
O O15 0.000000 0.500000 0.000000
O O16 0.576228 0.005625 0.792704
O O17 0.511115 0.114027 0.003667
#
# Coordination Sequence:
#
# PCOD9103564 Si02
#       8
#     2   2   2   2   2   2   2   2
#     4  10  23  45  70  94 130 184 232 279 329 398
#     4  11  24  42  66  97 131 177 232 277 333 407
#     4  10  23  45  69 102 133 175 228 282 340 404
#     4  12  23  39  63 100 145 176 216 278 341 406
#     4  11  22  42  69 101 133 179 225 275 339 407
#     4  12  26  47  68  94 138 177 223 289 349 391
#     4  10  20  38  66  99 134 175 221 270 340 400
#     4  10  20  38  69  99 135 173 222 276 334 405
#
# _framework density 22.708644
#
# number of rings (size 3 to 8) (size 9 to 14) (size 15 to 20)
#    0.000    1.250    2.500    3.375    3.500    0.000 
#    6.750    2.500    0.000    0.000    0.000    0.000 
#    0.000    0.000    0.000    0.000    0.000    0.000 
#
# Total GULP energy -89277.866500 kJ/mol
# GULP energy per Si atom -5579.866656 kJ/mol
# Density = 2.265696 g / cm^3
# Si number density = 22.708644 Si / 1000 Ang^3
#
#
#
# Elastic Constant Matrix: (Units=GPa)
#
#
# Indices 1 2 3 4 5 6 
#
# 1 33.2953 19.1173 19.8833 8.7594 -3.2214 6.6519
# 2 19.1173 96.3409 6.7887 10.2677 -15.5544 18.7621
# 3 19.8833 6.7887 66.8964 10.2807 1.7282 18.1429
# 4 8.7594 10.2677 10.2807 41.2072 8.8647 2.2615
# 5 -3.2214 -15.5544 1.7282 8.8647 31.3805 -5.6874
# 6 6.6519 18.7621 18.1429 2.2615 -5.6874 37.7666
#
#
#
# Elastic Compliance Matrix: (Units=1/GPa)
#
#
# Indices 1 2 3 4 5 6 
#
# 1 0.042284 -0.006931 -0.011839 -0.005195 0.003481 0.002519
# 2 -0.006931 0.014098 0.002642 -0.003687 0.006101 -0.005913
# 3 -0.011839 0.002642 0.021235 -0.002456 -0.002122 -0.009601
# 4 -0.005195 -0.003687 -0.002456 0.029091 -0.010329 0.000629
# 5 0.003481 0.006101 -0.002122 -0.010329 0.038984 0.003864
# 6 0.002519 -0.005913 -0.009601 0.000629 0.003864 0.034129
#
#
# Mechanical properties :
#
#
# Convention : Reuss Voigt Hill
#
# Bulk Modulus (GPa) = 22.04514 32.01233 27.02874
# Shear Modulus (GPa) = 22.00713 32.12040 27.06377
#
# Velocity S-wave (km/s) = 3.11643 3.76501 3.45597
# Velocity P-wave (km/s) = 4.76218 5.74700 5.27761
#
# Compressibility (1/GPa) = 0.04536147
#
# Stress axis : x y z
#
# Youngs Moduli (GPa) = 23.64937 70.92966 47.09101
#
# Poissons Ratio (x) = 0.49163 0.55752
# Poissons Ratio (y) = 0.16392 -0.12441
# Poissons Ratio (z) = 0.27999 -0.18740
#
# Static dielectric constant tensor:
#      x y z
#    x 1.961370 0.054920 0.040470 
#    y 0.054920 2.116870 -0.297820 
#    z 0.040470 -0.297820 2.314530 
# 
# From -- ./inp_files/187087.got.cif
#   From: 2010.05.17/outbox.cif.g08.bks.cpg/sg2_94_cif.got.tgz:187087.got - 2010.06.03 11:33:40.
