data_PCOD9103951
_publ_section_title
;
Structure prediction by ZEFSAII (Michael W. Deem and Ramdas Pophale) SiO2 
 PCOD9103951
Probable space group: P -1
;
_chemical_formula_sum "Si O2"
_cell_formula_units_Z 15
_cell_length_a 9.046878
_cell_length_b 15.578185
_cell_length_c 19.310816
_cell_angle_alpha 160.883679
_cell_angle_beta 39.524248
_cell_angle_gamma 132.446170
_cell_volume 547.896757
_symmetry_space_group_name_H-M "P -1"
_symmetry_group_IT_number 2
_symmetry_cell_setting 'triclinic'
loop_
_space_group_symop_operation_xyz
x,y,z
-x,-y,-z
loop_
_atom_site_type_symbol
_atom_site_label
_atom_site_fract_x
_atom_site_fract_y
_atom_site_fract_z
Si Si1 0.193244 0.625472 0.058732
Si Si2 0.480990 0.762196 0.273193
Si Si3 0.694061 0.745604 0.041244
Si Si4 0.553514 0.470938 0.242087
Si Si5 0.000000 0.500000 0.500000
Si Si6 0.293162 0.154246 0.422950
Si Si7 0.140072 0.981777 0.063820
Si Si8 0.314942 0.166366 0.269972
O O1 0.273662 0.477613 0.988174
O O2 0.410407 0.508568 0.836825
O O3 0.123703 0.948385 0.334183
O O4 0.000000 0.500000 0.000000
O O5 0.512084 0.853932 0.254182
O O6 0.500000 0.000000 0.500000
O O7 0.293653 0.576928 0.213033
O O8 0.552238 0.931030 0.171269
O O9 0.943683 0.820086 0.020672
O O10 0.278664 0.553374 0.426107
O O11 0.705377 0.628734 0.353600
O O12 0.668347 0.151677 0.970619
O O13 0.075955 0.209696 0.202397
O O14 0.262550 0.275499 0.448964
O O15 0.139525 0.227581 0.312026
O O16 0.416932 0.817172 0.833332
#
# Coordination Sequence:
#
# PCOD9103951 Si02
#       8
#     2   2   2   2   1   2   2   2
#     4  10  23  40  61  89 129 166 204 259 318 364
#     4  10  22  40  61  92 120 161 214 261 301 374
#     4  10  21  38  64  88 127 159 208 260 310 362
#     4  10  20  40  63  92 126 165 206 254 311 376
#     4  10  20  38  70  90 122 166 202 256 316 362
#     4  10  20  40  63  91 121 165 210 256 305 382
#     4  10  20  41  63  91 128 166 199 264 308 376
#     4   9  22  39  61  92 131 157 203 255 319 366
#
# _framework density 27.377419
#
# number of rings (size 3 to 8) (size 9 to 14) (size 15 to 20)
#    0.000    2.133    1.333    0.800    3.733    1.067 
#    7.200    6.000    0.000    0.000    0.000    0.000 
#    0.000    0.000    0.000    0.000    0.000    0.000 
#
# Total GULP energy -83626.475557 kJ/mol
# GULP energy per Si atom -5575.098370 kJ/mol
# Density = 2.731511 g / cm^3
# Si number density = 27.377419 Si / 1000 Ang^3
#
#
#
# Elastic Constant Matrix: (Units=GPa)
#
#
# Indices 1 2 3 4 5 6 
#
# 1 103.0494 50.7915 37.8540 3.1256 10.3236 15.2163
# 2 50.7915 138.3118 48.0194 34.4441 18.8520 39.5889
# 3 37.8540 48.0194 132.8891 31.2855 28.0954 15.3475
# 4 3.1256 34.4441 31.2855 48.8181 10.6387 15.4438
# 5 10.3236 18.8520 28.0954 10.6387 55.6596 11.6874
# 6 15.2163 39.5889 15.3475 15.4438 11.6874 52.8563
#
#
#
# Elastic Compliance Matrix: (Units=1/GPa)
#
#
# Indices 1 2 3 4 5 6 
#
# 1 0.013111 -0.004711 -0.003040 0.004669 -0.000044 -0.000718
# 2 -0.004711 0.012544 -0.001009 -0.005926 -0.000493 -0.005905
# 3 -0.003040 -0.001009 0.010704 -0.005449 -0.003649 0.000922
# 4 0.004669 -0.005926 -0.005449 0.029217 -0.000925 -0.003655
# 5 -0.000044 -0.000493 -0.003649 -0.000925 0.020765 -0.002880
# 6 -0.000718 -0.005905 0.000922 -0.003655 -0.002880 0.024986
#
#
# Mechanical properties :
#
#
# Convention : Reuss Voigt Hill
#
# Bulk Modulus (GPa) = 53.08126 71.95334 62.51730
# Shear Modulus (GPa) = 37.00272 47.30584 42.15428
#
# Velocity S-wave (km/s) = 3.68037 4.16133 3.92822
# Velocity P-wave (km/s) = 6.12299 7.03050 6.59238
#
# Compressibility (1/GPa) = 0.01883904
#
# Stress axis : x y z
#
# Youngs Moduli (GPa) = 76.27031 79.72172 93.42688
#
# Poissons Ratio (x) = 0.37554 0.28398
# Poissons Ratio (y) = 0.35928 0.09431
# Poissons Ratio (z) = 0.23183 0.08047
#
# Static dielectric constant tensor:
#      x y z
#    x 2.467810 -0.127060 -0.125880 
#    y -0.127060 2.268930 0.067850 
#    z -0.125880 0.067850 2.285290 
# 
# From -- ./inp_files/591251.got.cif
#   From: 2010.05.17/outbox.cif.g08.bks.cpg/sg2_296_cif.got.tgz:591251.got - 2010.06.03 11:33:40.
