data_PCOD9103137
_publ_section_title
;
Structure prediction by ZEFSAII (Michael W. Deem and Ramdas Pophale) SiO2 
 PCOD9103137
Probable space group: P -1
;
_chemical_formula_sum "Si O2"
_cell_formula_units_Z 12
_cell_length_a 12.907415
_cell_length_b 7.140003
_cell_length_c 7.412520
_cell_angle_alpha 126.441897
_cell_angle_beta 65.548293
_cell_angle_gamma 85.226174
_cell_volume 446.899722
_symmetry_space_group_name_H-M "P -1"
_symmetry_group_IT_number 2
_symmetry_cell_setting 'triclinic'
loop_
_space_group_symop_operation_xyz
x,y,z
-x,-y,-z
loop_
_atom_site_type_symbol
_atom_site_label
_atom_site_fract_x
_atom_site_fract_y
_atom_site_fract_z
Si Si1 0.450147 0.797943 0.643240
Si Si2 0.172553 0.939969 0.978199
Si Si3 0.611866 0.075560 0.644691
Si Si4 0.204869 0.740712 0.218512
Si Si5 0.112338 0.624228 0.554528
Si Si6 0.877407 0.705890 0.305103
O O1 0.500000 0.500000 0.500000
O O2 0.303990 0.956182 0.898908
O O3 0.528604 0.954976 0.733217
O O4 0.452427 0.795709 0.422095
O O5 0.166396 0.806103 0.718547
O O6 0.186059 0.743100 0.020472
O O7 0.040391 0.199963 0.237812
O O8 0.661026 0.253635 0.824624
O O9 0.745458 0.822311 0.358383
O O10 0.107050 0.035882 0.516967
O O11 0.172265 0.565140 0.278762
O O12 0.143124 0.399375 0.549055
O O13 0.000000 0.500000 0.000000
#
# Coordination Sequence:
#
# PCOD9103137 Si02
#       6
#     2   2   2   2   2   2
#     4  11  21  40  65  85 121 167 206 248 310 357
#     4  11  22  39  65  90 123 167 201 255 305 358
#     4   9  22  38  60  92 121 155 208 252 294 371
#     4  10  23  40  59  96 128 151 208 256 302 363
#     4  11  21  40  65  90 129 160 200 252 310 362
#     4  10  20  38  65  89 124 161 199 248 308 364
#
# _framework density 26.851662000000001
#
# number of rings (size 3 to 8) (size 9 to 14) (size 15 to 20)
#    1.000    0.667    1.667    4.500    0.000    1.333 
#    0.000    7.500    0.000    0.000    0.000    0.000 
#    0.000    0.000    0.000    0.000    0.000    0.000 
#
# Total GULP energy -67225.868529 kJ/mol
# GULP energy per Si atom -5602.155711 kJ/mol
# Density = 2.679055 g / cm^3
# Si number density = 26.851662 Si / 1000 Ang^3
#
#
#
# Elastic Constant Matrix: (Units=GPa)
#
#
# Indices 1 2 3 4 5 6 
#
# 1 112.4633 40.4909 45.6535 -13.4153 -39.2930 -5.6961
# 2 40.4909 205.8822 45.5494 -26.0368 -7.7515 -4.3112
# 3 45.6535 45.5494 111.1394 -9.8297 -19.4975 3.4232
# 4 -13.4153 -26.0368 -9.8297 45.6775 -0.3607 1.9363
# 5 -39.2930 -7.7515 -19.4975 -0.3607 52.5004 -19.8518
# 6 -5.6961 -4.3112 3.4232 1.9363 -19.8518 40.5624
#
#
#
# Elastic Compliance Matrix: (Units=1/GPa)
#
#
# Indices 1 2 3 4 5 6 
#
# 1 0.016922 -0.001331 -0.003851 0.003091 0.014690 0.009602
# 2 -0.001331 0.005798 -0.001737 0.002530 -0.000731 0.000097
# 3 -0.003851 -0.001737 0.011475 0.000413 0.000586 -0.001426
# 4 0.003091 0.002530 0.000413 0.024308 0.003463 0.001202
# 5 0.014690 -0.000731 0.000586 0.003463 0.037850 0.020295
# 6 0.009602 0.000097 -0.001426 0.001202 0.020295 0.036007
#
#
# Mechanical properties :
#
#
# Convention : Reuss Voigt Hill
#
# Bulk Modulus (GPa) = 49.12313 76.98584 63.05448
# Shear Modulus (GPa) = 32.68355 47.60081 40.14218
#
# Velocity S-wave (km/s) = 3.49261 4.21495 3.87067
# Velocity P-wave (km/s) = 5.88204 7.24022 6.59618
#
# Compressibility (1/GPa) = 0.02035701
#
# Stress axis : x y z
#
# Youngs Moduli (GPa) = 59.09550 172.48338 87.14796
#
# Poissons Ratio (x) = 0.22957 0.33559
# Poissons Ratio (y) = 0.07865 0.15136
# Poissons Ratio (z) = 0.22756 0.29958
#
# Static dielectric constant tensor:
#      x y z
#    x 2.154040 0.041970 0.011450 
#    y 0.041970 2.070220 0.015580 
#    z 0.011450 0.015580 2.077420 
# 
# From -- ./inp_files/295705.got.cif
#   From: 2010.05.17/outbox.cif.g08.bks.cpg/sg2_148_cif.got.tgz:295705.got - 2010.06.03 11:33:40.
