data_PCOD9103988
_publ_section_title
;
Structure prediction by ZEFSAII (Michael W. Deem and Ramdas Pophale) SiO2 
 PCOD9103988
Probable space group: P -1
;
_chemical_formula_sum "Si O2"
_cell_formula_units_Z 16
_cell_length_a 20.756035
_cell_length_b 9.230133
_cell_length_c 9.164920
_cell_angle_alpha 65.057800
_cell_angle_beta 150.868290
_cell_angle_gamma 114.779860
_cell_volume 769.903029
_symmetry_space_group_name_H-M "P -1"
_symmetry_group_IT_number 2
_symmetry_cell_setting 'triclinic'
loop_
_space_group_symop_operation_xyz
x,y,z
-x,-y,-z
loop_
_atom_site_type_symbol
_atom_site_label
_atom_site_fract_x
_atom_site_fract_y
_atom_site_fract_z
Si Si1 0.891402 0.023510 0.899089
Si Si2 0.270089 0.418416 0.789638
Si Si3 0.600998 0.876453 0.295173
Si Si4 0.916340 0.723742 0.266220
Si Si5 0.823725 0.406530 0.049970
Si Si6 0.576586 0.357631 0.768153
Si Si7 0.519641 0.689528 0.931693
Si Si8 0.211617 0.660670 0.328260
O O1 0.877227 0.205866 0.843056
O O2 0.746962 0.958329 0.578447
O O3 0.915981 0.903549 0.131442
O O4 0.000000 0.000000 0.000000
O O5 0.165052 0.319388 0.728680
O O6 0.207545 0.504853 0.491994
O O7 0.340222 0.570484 0.956835
O O8 0.380215 0.302428 0.009795
O O9 0.533501 0.782563 0.340075
O O10 0.596105 0.762735 0.193121
O O11 0.500000 0.000000 0.000000
O O12 0.848620 0.594087 0.068663
O O13 0.063606 0.679423 0.608325
O O14 0.682566 0.327693 0.867382
O O15 0.829141 0.388991 0.895265
O O16 0.500000 0.500000 0.500000
O O17 0.369502 0.735395 0.602126
O O18 0.500000 0.500000 0.000000
#
# Coordination Sequence:
#
# PCOD9103988 Si02
#       8
#     2   2   2   2   2   2   2   2
#     4  12  29  45  67  99 145 185 223 279 347 411
#     4  10  21  40  71  99 133 170 229 288 327 409
#     4  12  23  43  68 102 134 181 225 279 341 405
#     4  10  25  45  66  99 136 183 235 266 352 417
#     4  10  24  42  73  95 135 182 229 289 334 407
#     4  11  21  39  68  99 132 174 224 279 345 394
#     4  10  20  38  71 102 134 165 228 285 337 393
#     4  11  23  44  67 101 136 174 232 286 336 396
#
# _framework density 20.781838
#
# number of rings (size 3 to 8) (size 9 to 14) (size 15 to 20)
#    0.000    1.250    3.750    2.250   12.250    2.000 
#    2.250    1.250    0.000    0.000    0.000    0.000 
#    0.000    0.000    0.000    0.000    0.000    0.000 
#
# Total GULP energy -89401.298855 kJ/mol
# GULP energy per Si atom -5587.581178 kJ/mol
# Density = 2.073454 g / cm^3
# Si number density = 20.781838 Si / 1000 Ang^3
#
#
#
# Elastic Constant Matrix: (Units=GPa)
#
#
# Indices 1 2 3 4 5 6 
#
# 1 157.0663 49.9635 43.5958 -9.2877 16.0663 3.1601
# 2 49.9635 52.6647 26.3522 -17.4654 0.9785 8.9162
# 3 43.5958 26.3522 79.1899 -12.7437 3.7435 8.5510
# 4 -9.2877 -17.4654 -12.7437 30.7529 -5.7937 1.2060
# 5 16.0663 0.9785 3.7435 -5.7937 45.7170 6.6942
# 6 3.1601 8.9162 8.5510 1.2060 6.6942 33.0297
#
#
#
# Elastic Compliance Matrix: (Units=1/GPa)
#
#
# Indices 1 2 3 4 5 6 
#
# 1 0.010873 -0.010971 -0.003407 -0.005373 -0.004563 0.003924
# 2 -0.010971 0.039051 -0.002996 0.019431 0.007325 -0.010910
# 3 -0.003407 -0.002996 0.016550 0.004450 0.000985 -0.003512
# 4 -0.005373 0.019431 0.004450 0.045690 0.008249 -0.009223
# 5 -0.004563 0.007325 0.000985 0.008249 0.025344 -0.007233
# 6 0.003924 -0.010910 -0.003512 -0.009223 -0.007233 0.035557
#
#
# Mechanical properties :
#
#
# Convention : Reuss Voigt Hill
#
# Bulk Modulus (GPa) = 31.52287 58.74933 45.13610
# Shear Modulus (GPa) = 22.89494 33.16722 28.03108
#
# Velocity S-wave (km/s) = 3.32276 3.99930 3.67662
# Velocity P-wave (km/s) = 5.47013 7.04675 6.30790
#
# Compressibility (1/GPa) = 0.03172300
#
# Stress axis : x y z
#
# Youngs Moduli (GPa) = 91.97448 25.60763 60.42441
#
# Poissons Ratio (x) = 0.28095 0.20588
# Poissons Ratio (y) = 1.00909 0.18105
# Poissons Ratio (z) = 0.31339 0.07673
#
# Static dielectric constant tensor:
#      x y z
#    x 1.771420 0.009130 0.021150 
#    y 0.009130 1.719070 0.016280 
#    z 0.021150 0.016280 1.762680 
# 
# From -- ./inp_files/343474.got.cif
#   From: 2010.05.17/outbox.cif.g08.bks.cpg/sg2_172_cif.got.tgz:343474.got - 2010.06.03 11:33:40.
