data_PCOD9103143
_publ_section_title
;
Structure prediction by ZEFSAII (Michael W. Deem and Ramdas Pophale) SiO2 
 PCOD9103143
Probable space group: P -1
;
_chemical_formula_sum "Si O2"
_cell_formula_units_Z 13
_cell_length_a 17.623383
_cell_length_b 16.181366
_cell_length_c 7.142558
_cell_angle_alpha 41.578157
_cell_angle_beta 43.860048
_cell_angle_gamma 24.582496
_cell_volume 556.155921
_symmetry_space_group_name_H-M "P -1"
_symmetry_group_IT_number 2
_symmetry_cell_setting 'triclinic'
loop_
_space_group_symop_operation_xyz
x,y,z
-x,-y,-z
loop_
_atom_site_type_symbol
_atom_site_label
_atom_site_fract_x
_atom_site_fract_y
_atom_site_fract_z
Si Si1 0.226837 0.788642 0.166047
Si Si2 0.098787 0.741303 0.132638
Si Si3 0.000000 0.000000 0.500000
Si Si4 0.953032 0.400972 0.208730
Si Si5 0.469555 0.300379 0.123522
Si Si6 0.738069 0.030216 0.767937
Si Si7 0.534551 0.823587 0.276479
O O1 0.185496 0.762057 0.089184
O O2 0.164925 0.764198 0.491981
O O3 0.417369 0.683488 0.024379
O O4 0.058429 0.045948 0.070955
O O5 0.016134 0.713636 0.466639
O O6 0.259517 0.533877 0.078444
O O7 0.166467 0.925115 0.446468
O O8 0.734373 0.598768 0.227236
O O9 0.097419 0.220439 0.105071
O O10 0.000000 0.500000 0.000000
O O11 0.467468 0.199886 0.459736
O O12 0.586723 0.149114 0.996189
O O13 0.623653 0.116135 0.636086
O O14 0.500000 0.000000 0.000000
#
# Coordination Sequence:
#
# PCOD9103143 Si02
#       7
#     2   2   1   2   2   2   2
#     4  10  20  38  65  89 134 168 216 268 328 389
#     4  10  21  39  64  92 127 177 216 264 333 385
#     4  10  22  40  66  98 134 168 212 280 322 400
#     4  11  22  42  70  95 131 177 224 271 328 398
#     4  10  24  40  63  99 129 169 223 273 324 396
#     4  11  23  45  66  98 133 173 220 274 332 387
#     4  11  24  43  69  94 132 179 220 270 333 390
#
# _framework density 23.374739000000002
#
# number of rings (size 3 to 8) (size 9 to 14) (size 15 to 20)
#    0.000    1.538    3.077    1.385    2.154    3.077 
#    0.000    3.077    0.000    0.000    0.000    0.000 
#    0.000    0.000    0.000    0.000    0.000    0.000 
#
# Total GULP energy -72498.588244 kJ/mol
# GULP energy per Si atom -5576.814480 kJ/mol
# Density = 2.332154 g / cm^3
# Si number density = 23.374739 Si / 1000 Ang^3
#
#
#
# Elastic Constant Matrix: (Units=GPa)
#
#
# Indices 1 2 3 4 5 6 
#
# 1 64.6534 26.9957 12.0853 -10.3387 -2.0043 -7.7639
# 2 26.9957 181.3305 46.8240 21.0037 6.9872 12.6013
# 3 12.0853 46.8240 91.7451 -3.6588 8.9475 -2.8722
# 4 -10.3387 21.0037 -3.6588 29.2916 -1.7798 0.4168
# 5 -2.0043 6.9872 8.9475 -1.7798 29.9433 8.7880
# 6 -7.7639 12.6013 -2.8722 0.4168 8.7880 37.9162
#
#
#
# Elastic Compliance Matrix: (Units=1/GPa)
#
#
# Indices 1 2 3 4 5 6 
#
# 1 0.019635 -0.004563 0.000170 0.010239 0.001439 0.005104
# 2 -0.004563 0.008500 -0.004147 -0.008192 -0.000394 -0.003892
# 3 0.000170 -0.004147 0.013644 0.004461 -0.003795 0.003277
# 4 0.010239 -0.008192 0.004461 0.044292 0.002710 0.004042
# 5 0.001439 -0.000394 -0.003795 0.002710 0.037391 -0.008558
# 6 0.005104 -0.003892 0.003277 0.004042 -0.008558 0.030900
#
#
# Mechanical properties :
#
#
# Convention : Reuss Voigt Hill
#
# Bulk Modulus (GPa) = 40.48670 56.61544 48.55107
# Shear Modulus (GPa) = 27.82794 36.21847 32.02321
#
# Velocity S-wave (km/s) = 3.45413 3.94060 3.70536
# Velocity P-wave (km/s) = 5.76769 6.70655 6.25476
#
# Compressibility (1/GPa) = 0.02469947
#
# Stress axis : x y z
#
# Youngs Moduli (GPa) = 50.92822 117.65378 73.29040
#
# Poissons Ratio (x) = 0.53689 -0.01248
# Poissons Ratio (y) = 0.23240 0.30393
# Poissons Ratio (z) = -0.00867 0.48789
#
# Static dielectric constant tensor:
#      x y z
#    x 1.832040 -0.018360 -0.160390 
#    y -0.018360 1.887740 -0.119930 
#    z -0.160390 -0.119930 1.369410 
# 
# From -- ./inp_files/212580.got.cif
#   From: 2010.05.17/outbox.cif.g08.bks.cpg/sg2_107_cif.got.tgz:212580.got - 2010.06.03 11:33:40.
