data_PCOD9103622
_publ_section_title
;
Structure prediction by ZEFSAII (Michael W. Deem and Ramdas Pophale) SiO2 
 PCOD9103622
Probable space group: P -1
;
_chemical_formula_sum "Si O2"
_cell_formula_units_Z 16
_cell_length_a 16.125033
_cell_length_b 9.327158
_cell_length_c 9.351282
_cell_angle_alpha 50.190375
_cell_angle_beta 79.268030
_cell_angle_gamma 112.488330
_cell_volume 793.002595
_symmetry_space_group_name_H-M "P -1"
_symmetry_group_IT_number 2
_symmetry_cell_setting 'triclinic'
loop_
_space_group_symop_operation_xyz
x,y,z
-x,-y,-z
loop_
_atom_site_type_symbol
_atom_site_label
_atom_site_fract_x
_atom_site_fract_y
_atom_site_fract_z
Si Si1 0.363154 0.812734 0.168547
Si Si2 0.192213 0.894527 0.646705
Si Si3 0.629740 0.775063 0.152119
Si Si4 0.162783 0.103691 0.026056
Si Si5 0.031247 0.857607 0.501312
Si Si6 0.055068 0.658704 0.127845
Si Si7 0.200664 0.587970 0.632364
Si Si8 0.626086 0.592680 0.583332
O O1 0.297682 0.759364 0.372736
O O2 0.328646 0.550156 0.310684
O O3 0.500000 0.000000 0.000000
O O4 0.340438 0.965828 0.986602
O O5 0.134646 0.922288 0.517752
O O6 0.225120 0.740733 0.671193
O O7 0.299613 0.155541 0.511683
O O8 0.096718 0.746333 0.895941
O O9 0.631116 0.654736 0.373493
O O10 0.508546 0.595241 0.229477
O O11 0.724067 0.820820 0.994334
O O12 0.066488 0.962525 0.264259
O O13 0.127965 0.907411 0.039486
O O14 0.187007 0.347667 0.812967
O O15 0.939859 0.556291 0.711381
O O16 0.000000 0.000000 0.500000
O O17 0.925661 0.524678 0.292023
#
# Coordination Sequence:
#
# PCOD9103622 Si02
#       8
#     2   2   2   2   2   2   2   2
#     4  10  21  40  64  91 121 164 209 259 307 367
#     4  11  22  42  61  90 131 165 199 261 327 365
#     4  10  20  38  67  91 119 157 218 257 300 362
#     4  12  22  40  64  91 122 166 215 255 305 377
#     4  11  24  39  58  93 131 161 206 258 315 376
#     4  11  22  39  63  88 122 171 208 252 311 378
#     4  11  22  39  62  90 130 162 203 264 317 367
#     4  10  21  41  64  90 125 163 206 259 310 372
#
# _framework density 20.176477999999999
#
# number of rings (size 3 to 8) (size 9 to 14) (size 15 to 20)
#    0.000    1.250    2.500    5.250    0.000    2.000 
#    2.250    6.250    0.000    0.000    0.000    0.000 
#    0.000    0.000    0.000    0.000    0.000    0.000 
#
# Total GULP energy -89207.252515 kJ/mol
# GULP energy per Si atom -5575.453282 kJ/mol
# Density = 2.013056 g / cm^3
# Si number density = 20.176478 Si / 1000 Ang^3
#
#
#
# Elastic Constant Matrix: (Units=GPa)
#
#
# Indices 1 2 3 4 5 6 
#
# 1 77.9581 30.4020 21.8328 -19.0079 -5.0502 -29.4028
# 2 30.4020 114.8736 35.8899 -20.4259 -13.9563 -22.5937
# 3 21.8328 35.8899 91.0025 -9.8157 -5.9850 -13.8800
# 4 -19.0079 -20.4259 -9.8157 33.2081 -11.7475 3.9821
# 5 -5.0502 -13.9563 -5.9850 -11.7475 37.2123 -5.7655
# 6 -29.4028 -22.5937 -13.8800 3.9821 -5.7655 32.6722
#
#
#
# Elastic Compliance Matrix: (Units=1/GPa)
#
#
# Indices 1 2 3 4 5 6 
#
# 1 0.028138 0.003901 -0.000743 0.020586 0.016002 0.028019
# 2 0.003901 0.014880 -0.002577 0.013260 0.011925 0.013193
# 3 -0.000743 -0.002577 0.013066 0.002260 0.002247 0.003221
# 4 0.020586 0.013260 0.002260 0.058358 0.030731 0.026966
# 5 0.016002 0.011925 0.002247 0.030731 0.047968 0.028321
# 6 0.028019 0.013193 0.003221 0.026966 0.028321 0.068025
#
#
# Mechanical properties :
#
#
# Convention : Reuss Voigt Hill
#
# Bulk Modulus (GPa) = 17.46870 51.12040 34.29455
# Shear Modulus (GPa) = 20.13244 33.66581 26.89913
#
# Velocity S-wave (km/s) = 3.16225 4.08924 3.65525
# Velocity P-wave (km/s) = 4.69147 6.90561 5.90328
#
# Compressibility (1/GPa) = 0.05724526
#
# Stress axis : x y z
#
# Youngs Moduli (GPa) = 35.53929 67.20603 76.53334
#
# Poissons Ratio (x) = -0.26215 0.05683
# Poissons Ratio (y) = -0.13863 0.19725
# Poissons Ratio (z) = 0.02639 0.17321
#
# Static dielectric constant tensor:
#      x y z
#    x 1.752590 -0.000730 -0.015390 
#    y -0.000730 1.702770 -0.026110 
#    z -0.015390 -0.026110 1.758030 
# 
# From -- ./inp_files/227239.got.cif
#   From: 2010.05.17/outbox.cif.g08.bks.cpg/sg2_114_cif.got.tgz:227239.got - 2010.06.03 11:33:40.
