data_PCOD9103395
_publ_section_title
;
Structure prediction by ZEFSAII (Michael W. Deem and Ramdas Pophale) SiO2 
 PCOD9103395
Probable space group: P -1
;
_chemical_formula_sum "Si O2"
_cell_formula_units_Z 14
_cell_length_a 14.675605
_cell_length_b 11.718025
_cell_length_c 9.216514
_cell_angle_alpha 68.516469
_cell_angle_beta 107.281198
_cell_angle_gamma 48.032097
_cell_volume 681.612843
_symmetry_space_group_name_H-M "P -1"
_symmetry_group_IT_number 2
_symmetry_cell_setting 'triclinic'
loop_
_space_group_symop_operation_xyz
x,y,z
-x,-y,-z
loop_
_atom_site_type_symbol
_atom_site_label
_atom_site_fract_x
_atom_site_fract_y
_atom_site_fract_z
Si Si1 0.879348 0.237349 0.241509
Si Si2 0.205364 0.769371 0.115817
Si Si3 0.555147 0.259711 0.710770
Si Si4 0.085079 0.532295 0.792766
Si Si5 0.392918 0.318031 0.890557
Si Si6 0.382999 0.020353 0.318697
Si Si7 0.315407 0.140213 0.551514
O O1 0.981698 0.258169 0.278258
O O2 0.833217 0.243388 0.055579
O O3 0.683286 0.491130 0.123323
O O4 0.000000 0.000000 0.500000
O O5 0.378107 0.506791 0.409545
O O6 0.299321 0.799203 0.135492
O O7 0.000000 0.000000 0.000000
O O8 0.678353 0.026153 0.781517
O O9 0.453971 0.305501 0.775320
O O10 0.912255 0.631087 0.643733
O O11 0.209431 0.429097 0.756265
O O12 0.238740 0.296271 0.085548
O O13 0.571765 0.044925 0.174615
O O14 0.377779 0.002923 0.494425
O O15 0.597911 0.822537 0.456127
#
# Coordination Sequence:
#
# PCOD9103395 Si02
#       7
#     2   2   2   2   2   2   2
#     4  10  22  43  67  90 127 159 214 261 300 380
#     4  11  26  43  63  96 125 169 210 253 318 372
#     4  11  25  42  64  91 135 164 202 264 314 369
#     4   9  22  39  64  94 118 161 212 256 306 365
#     4   9  22  40  60  95 119 161 212 249 310 371
#     4  10  22  40  62  94 125 162 211 257 309 375
#     4  10  20  38  66  88 125 161 210 256 308 365
#
# _framework density 20.53952
#
# number of rings (size 3 to 8) (size 9 to 14) (size 15 to 20)
#    0.857    1.143    0.000    2.143    6.000    4.000 
#    0.000    1.429    0.000    0.000    0.000    0.000 
#    0.000    0.000    0.000    0.000    0.000    0.000 
#
# Total GULP energy -78041.289197 kJ/mol
# GULP energy per Si atom -5574.377800 kJ/mol
# Density = 2.049277 g / cm^3
# Si number density = 20.539520 Si / 1000 Ang^3
#
#
#
# Elastic Constant Matrix: (Units=GPa)
#
#
# Indices 1 2 3 4 5 6 
#
# 1 84.0910 -1.4753 28.9878 -1.5008 7.2474 -17.1629
# 2 -1.4753 39.6432 -6.5151 7.2033 -4.8664 -4.7140
# 3 28.9878 -6.5151 46.2881 -4.0595 6.5963 -14.0800
# 4 -1.5008 7.2033 -4.0595 26.3121 -8.2153 -7.0543
# 5 7.2474 -4.8664 6.5963 -8.2153 30.7020 -3.4970
# 6 -17.1629 -4.7140 -14.0800 -7.0543 -3.4970 27.8293
#
#
#
# Elastic Compliance Matrix: (Units=1/GPa)
#
#
# Indices 1 2 3 4 5 6 
#
# 1 0.015957 -0.000352 -0.008020 0.000961 -0.001179 0.005819
# 2 -0.000352 0.027998 0.005365 -0.004160 0.003003 0.006563
# 3 -0.008020 0.005365 0.032283 0.006487 -0.000881 0.013829
# 4 0.000961 -0.004160 0.006487 0.048763 0.012719 0.017129
# 5 -0.001179 0.003003 -0.000881 0.012719 0.037750 0.007303
# 6 0.005819 0.006563 0.013829 0.017129 0.007303 0.052890
#
#
# Mechanical properties :
#
#
# Convention : Reuss Voigt Hill
#
# Bulk Modulus (GPa) = 14.24024 23.55743 18.89884
# Shear Modulus (GPa) = 20.40288 26.90370 23.65329
#
# Velocity S-wave (km/s) = 3.15516 3.62311 3.39720
# Velocity P-wave (km/s) = 4.49684 5.38487 4.96076
#
# Compressibility (1/GPa) = 0.07022355
#
# Stress axis : x y z
#
# Youngs Moduli (GPa) = 62.66923 35.71624 30.97649
#
# Poissons Ratio (x) = 0.01256 0.24843
# Poissons Ratio (y) = 0.02204 -0.16617
# Poissons Ratio (z) = 0.50261 -0.19160
#
# Static dielectric constant tensor:
#      x y z
#    x 1.749210 0.018760 0.011860 
#    y 0.018760 1.743520 -0.018790 
#    z 0.011860 -0.018790 1.711740 
# 
# From -- ./inp_files/305002.got.cif
#   From: 2010.05.17/outbox.cif.g08.bks.cpg/sg2_153_cif.got.tgz:305002.got - 2010.06.03 11:33:40.
