data_PCOD9103065
_publ_section_title
;
Structure prediction by ZEFSAII (Michael W. Deem and Ramdas Pophale) SiO2 
 PCOD9103065
Probable space group: P -1
;
_chemical_formula_sum "Si O2"
_cell_formula_units_Z 15
_cell_length_a 12.055968
_cell_length_b 7.999776
_cell_length_c 18.815942
_cell_angle_alpha 53.578989
_cell_angle_beta 153.102703
_cell_angle_gamma 121.679684
_cell_volume 660.559598
_symmetry_space_group_name_H-M "P -1"
_symmetry_group_IT_number 2
_symmetry_cell_setting 'triclinic'
loop_
_space_group_symop_operation_xyz
x,y,z
-x,-y,-z
loop_
_atom_site_type_symbol
_atom_site_label
_atom_site_fract_x
_atom_site_fract_y
_atom_site_fract_z
Si Si1 0.350738 0.472725 0.348927
Si Si2 0.279944 0.858519 0.116602
Si Si3 0.172600 0.694233 0.401032
Si Si4 0.607785 0.260191 0.048686
Si Si5 0.210759 0.301851 0.927975
Si Si6 0.171887 0.069222 0.644030
Si Si7 0.000000 0.500000 0.500000
Si Si8 0.952839 0.155122 0.160662
O O1 0.500000 0.500000 0.500000
O O2 0.272218 0.696634 0.216441
O O3 0.541506 0.360150 0.431388
O O4 0.113262 0.328004 0.247923
O O5 0.562295 0.863672 0.250111
O O6 0.101308 0.797313 0.964879
O O7 0.213340 0.101052 0.029842
O O8 0.046669 0.634620 0.268763
O O9 0.067855 0.561770 0.439560
O O10 0.101245 0.937950 0.307233
O O11 0.650161 0.506360 0.007340
O O12 0.680588 0.165601 0.038422
O O13 0.792224 0.136599 0.236390
O O14 0.356085 0.240299 0.953228
O O15 0.058485 0.254978 0.577890
O O16 0.000000 0.000000 0.500000
#
# Coordination Sequence:
#
# PCOD9103065 Si02
#       8
#     2   2   2   2   2   2   1   2
#     4  12  26  45  70  94 135 183 233 287 333 410
#     4  10  24  44  64  97 133 175 229 280 345 409
#     4  11  23  41  65  99 133 173 232 275 353 403
#     4  10  20  38  64  98 130 180 217 274 352 401
#     4   9  21  39  64  94 135 173 222 285 340 418
#     4  11  23  39  67 104 145 173 225 288 350 418
#     4  12  22  38  70 104 140 178 216 302 348 412
#     4  11  24  43  67  93 138 181 227 278 335 428
#
# _framework density 22.708020000000001
#
# number of rings (size 3 to 8) (size 9 to 14) (size 15 to 20)
#    0.000    1.333    2.667    2.400    3.733    1.600 
#    0.000    8.667    0.000    0.000    0.000    0.000 
#    0.000    0.000    0.000    0.000    0.000    0.000 
#
# Total GULP energy -83549.155213 kJ/mol
# GULP energy per Si atom -5569.943681 kJ/mol
# Density = 2.265634 g / cm^3
# Si number density = 22.708020 Si / 1000 Ang^3
#
#
#
# Elastic Constant Matrix: (Units=GPa)
#
#
# Indices 1 2 3 4 5 6 
#
# 1 64.7982 20.0571 38.5868 -18.5750 2.1143 -2.3845
# 2 20.0571 107.8835 38.8263 -15.3263 -3.2772 7.9600
# 3 38.5868 38.8263 105.0571 -14.5981 -13.6138 10.5705
# 4 -18.5750 -15.3263 -14.5981 33.0550 3.1134 -4.7910
# 5 2.1143 -3.2772 -13.6138 3.1134 45.0108 -16.2134
# 6 -2.3845 7.9600 10.5705 -4.7910 -16.2134 31.6075
#
#
#
# Elastic Compliance Matrix: (Units=1/GPa)
#
#
# Indices 1 2 3 4 5 6 
#
# 1 0.023484 -0.000508 -0.007792 0.010452 -0.002486 0.004815
# 2 -0.000508 0.011159 -0.003453 0.003210 -0.001061 -0.001752
# 3 -0.007792 -0.003453 0.014334 -0.000380 0.003472 -0.002789
# 4 0.010452 0.003210 -0.000380 0.038326 -0.001094 0.005355
# 5 -0.002486 -0.001061 0.003472 -0.001094 0.028131 0.013183
# 6 0.004815 -0.001752 -0.002789 0.005355 0.013183 0.040949
#
#
# Mechanical properties :
#
#
# Convention : Reuss Voigt Hill
#
# Bulk Modulus (GPa) = 39.25800 52.51992 45.88896
# Shear Modulus (GPa) = 26.54211 33.95258 30.24734
#
# Velocity S-wave (km/s) = 3.42254 3.87095 3.65363
# Velocity P-wave (km/s) = 5.73969 6.56944 6.16854
#
# Compressibility (1/GPa) = 0.02547252
#
# Stress axis : x y z
#
# Youngs Moduli (GPa) = 42.58158 89.61095 69.76216
#
# Poissons Ratio (x) = 0.04549 0.54360
# Poissons Ratio (y) = 0.02162 0.24089
# Poissons Ratio (z) = 0.33180 0.30942
#
# Static dielectric constant tensor:
#      x y z
#    x 1.924560 -0.005080 0.044150 
#    y -0.005080 1.846250 -0.000400 
#    z 0.044150 -0.000400 1.817260 
# 
# From -- ./inp_files/402699.got.cif
#   From: 2010.05.17/outbox.cif.g08.bks.cpg/sg2_202_cif.got.tgz:402699.got - 2010.06.03 11:33:40.
