data_PCOD9103285
_publ_section_title
;
Structure prediction by ZEFSAII (Michael W. Deem and Ramdas Pophale) SiO2 
 PCOD9103285
Probable space group: P -1
;
_chemical_formula_sum "Si O2"
_cell_formula_units_Z 16
_cell_length_a 10.709520
_cell_length_b 16.315031
_cell_length_c 8.530738
_cell_angle_alpha 66.399850
_cell_angle_beta 111.420821
_cell_angle_gamma 59.535059
_cell_volume 817.779665
_symmetry_space_group_name_H-M "P -1"
_symmetry_group_IT_number 2
_symmetry_cell_setting 'triclinic'
loop_
_space_group_symop_operation_xyz
x,y,z
-x,-y,-z
loop_
_atom_site_type_symbol
_atom_site_label
_atom_site_fract_x
_atom_site_fract_y
_atom_site_fract_z
Si Si1 0.772656 0.152659 0.736523
Si Si2 0.783718 0.369160 0.085467
Si Si3 0.438092 0.678654 0.805655
Si Si4 0.742652 0.355283 0.722677
Si Si5 0.559936 0.081699 0.635578
Si Si6 0.235790 0.122054 0.629975
Si Si7 0.477064 0.168082 0.170220
Si Si8 0.141393 0.210341 0.875917
O O1 0.725824 0.212950 0.492101
O O2 0.748069 0.248385 0.766101
O O3 0.615216 0.149845 0.680088
O O4 0.000000 0.000000 0.000000
O O5 0.657635 0.347041 0.105382
O O6 0.004275 0.253956 0.359662
O O7 0.641660 0.528284 0.936560
O O8 0.821848 0.340735 0.941024
O O9 0.495071 0.739987 0.876976
O O10 0.500000 0.500000 0.500000
O O11 0.892947 0.330513 0.688455
O O12 0.381237 0.123073 0.617814
O O13 0.501299 0.122836 0.395815
O O14 0.762185 0.914832 0.869873
O O15 0.220029 0.141496 0.793597
O O16 0.344033 0.973734 0.740046
O O17 0.255974 0.243983 0.947654
#
# Coordination Sequence:
#
# PCOD9103285 Si02
#       8
#     2   2   2   2   2   2   2   2
#     4  11  22  41  68  95 130 163 211 264 311 376
#     4  11  24  42  65  87 134 168 210 258 319 382
#     4  10  24  44  62  95 129 167 208 265 314 377
#     4  12  24  42  65  93 125 174 212 254 323 376
#     4  10  20  38  65  95 129 161 210 263 314 371
#     4  11  23  38  66  95 127 168 208 260 323 371
#     4  10  21  41  66  95 124 163 217 259 316 375
#     4  11  22  40  64  92 132 163 210 267 314 378
#
# _framework density 19.565173000000001
#
# number of rings (size 3 to 8) (size 9 to 14) (size 15 to 20)
#    0.000    1.250    2.500    5.250    3.500    2.500 
#    2.250    2.500    0.000    0.000    0.000    0.000 
#    0.000    0.000    0.000    0.000    0.000    0.000 
#
# Total GULP energy -89366.079582 kJ/mol
# GULP energy per Si atom -5585.379974 kJ/mol
# Density = 1.952064 g / cm^3
# Si number density = 19.565173 Si / 1000 Ang^3
#
#
#
# Elastic Constant Matrix: (Units=GPa)
#
#
# Indices 1 2 3 4 5 6 
#
# 1 84.8198 72.2280 32.5772 -8.1355 11.7447 1.1898
# 2 72.2280 155.1148 52.0409 -3.7944 12.9281 13.2609
# 3 32.5772 52.0409 70.2736 -10.3854 18.8343 12.3144
# 4 -8.1355 -3.7944 -10.3854 28.7094 0.1339 3.5169
# 5 11.7447 12.9281 18.8343 0.1339 28.4012 -1.8213
# 6 1.1898 13.2609 12.3144 3.5169 -1.8213 34.0191
#
#
#
# Elastic Compliance Matrix: (Units=1/GPa)
#
#
# Indices 1 2 3 4 5 6 
#
# 1 0.020985 -0.008912 -0.002377 0.003545 -0.002864 0.003080
# 2 -0.008912 0.012434 -0.005489 -0.002606 0.001537 -0.002197
# 3 -0.002377 -0.005489 0.026243 0.009266 -0.014544 -0.009014
# 4 0.003545 -0.002606 0.009266 0.039728 -0.007058 -0.006948
# 5 -0.002864 0.001537 -0.014544 -0.007058 0.045883 0.007952
# 6 0.003080 -0.002197 -0.009014 -0.006948 0.007952 0.034551
#
#
# Mechanical properties :
#
#
# Convention : Reuss Voigt Hill
#
# Bulk Modulus (GPa) = 38.30260 69.32227 53.81243
# Shear Modulus (GPa) = 22.51436 28.45007 25.48222
#
# Velocity S-wave (km/s) = 3.39593 3.81743 3.61283
# Velocity P-wave (km/s) = 5.91573 7.41207 6.70577
#
# Compressibility (1/GPa) = 0.02610789
#
# Stress axis : x y z
#
# Youngs Moduli (GPa) = 47.65329 80.42422 38.10509
#
# Poissons Ratio (x) = 0.71674 0.09056
# Poissons Ratio (y) = 0.42469 0.20914
# Poissons Ratio (z) = 0.11325 0.44141
#
# Static dielectric constant tensor:
#      x y z
#    x 1.683550 -0.006850 0.013040 
#    y -0.006850 1.654290 0.009470 
#    z 0.013040 0.009470 1.733690 
# 
# From -- ./inp_files/272682.got.cif
#   From: 2010.05.17/outbox.cif.g08.bks.cpg/sg2_137_cif.got.tgz:272682.got - 2010.06.03 11:33:40.
