data_PCOD9103796
_publ_section_title
;
Structure prediction by ZEFSAII (Michael W. Deem and Ramdas Pophale) SiO2 
 PCOD9103796
Probable space group: P -1
;
_chemical_formula_sum "Si O2"
_cell_formula_units_Z 15
_cell_length_a 11.315082
_cell_length_b 12.493331
_cell_length_c 11.235824
_cell_angle_alpha 48.101268
_cell_angle_beta 118.620153
_cell_angle_gamma 145.973829
_cell_volume 650.884494
_symmetry_space_group_name_H-M "P -1"
_symmetry_group_IT_number 2
_symmetry_cell_setting 'triclinic'
loop_
_space_group_symop_operation_xyz
x,y,z
-x,-y,-z
loop_
_atom_site_type_symbol
_atom_site_label
_atom_site_fract_x
_atom_site_fract_y
_atom_site_fract_z
Si Si1 0.697241 0.175528 0.555178
Si Si2 0.345467 0.564589 0.525067
Si Si3 0.882173 0.671205 0.933288
Si Si4 0.190977 0.116340 0.418406
Si Si5 0.986980 0.340988 0.369072
Si Si6 0.769824 0.649463 0.137106
Si Si7 0.565026 0.770571 0.880592
Si Si8 0.000000 0.500000 0.000000
O O1 0.649420 0.269664 0.545333
O O2 0.902696 0.357610 0.432375
O O3 0.500000 0.000000 0.500000
O O4 0.687719 0.019499 0.738115
O O5 0.577084 0.684499 0.554656
O O6 0.225162 0.477865 0.407065
O O7 0.198959 0.360005 0.704142
O O8 0.836262 0.789687 0.769263
O O9 0.931517 0.732045 0.051450
O O10 0.648826 0.395372 0.017606
O O11 0.037358 0.700434 0.912100
O O12 0.000000 0.000000 0.500000
O O13 0.156387 0.922131 0.509487
O O14 0.980093 0.431982 0.181733
O O15 0.551170 0.383112 0.183709
O O16 0.715300 0.769899 0.001310
#
# Coordination Sequence:
#
# PCOD9103796 Si02
#       8
#     2   2   2   2   2   2   2   1
#     4  12  20  39  71 104 136 176 223 277 351 401
#     4  12  24  43  70 105 137 173 231 287 338 402
#     4  10  20  38  68  94 131 179 221 266 345 398
#     4  12  24  46  71  96 137 190 229 269 337 409
#     4  12  27  44  71 101 135 184 230 281 338 409
#     4   9  16  35  63  94 126 165 210 278 333 385
#     4   9  17  33  67  96 126 173 209 271 340 388
#     4  12  24  44  62  92 138 184 220 280 338 396
#
# _framework density 23.045565
#
# number of rings (size 3 to 8) (size 9 to 14) (size 15 to 20)
#    0.800    0.267    5.333    2.800    0.000    0.533 
#    0.000    4.667    0.000    0.000    0.000    0.000 
#    0.000    0.000    0.000    0.000    0.000    0.000 
#
# Total GULP energy -83539.350998 kJ/mol
# GULP energy per Si atom -5569.290067 kJ/mol
# Density = 2.299311 g / cm^3
# Si number density = 23.045565 Si / 1000 Ang^3
#
#
#
# Elastic Constant Matrix: (Units=GPa)
#
#
# Indices 1 2 3 4 5 6 
#
# 1 57.0078 10.0681 26.0089 8.6736 7.2129 6.1572
# 2 10.0681 55.5013 16.1434 5.6973 0.4744 13.8033
# 3 26.0089 16.1434 152.4093 -5.9254 18.6138 -2.5584
# 4 8.6736 5.6973 -5.9254 13.3682 0.3726 3.5269
# 5 7.2129 0.4744 18.6138 0.3726 40.3582 -6.2213
# 6 6.1572 13.8033 -2.5584 3.5269 -6.2213 16.0870
#
#
#
# Elastic Compliance Matrix: (Units=1/GPa)
#
#
# Indices 1 2 3 4 5 6 
#
# 1 0.022918 0.000629 -0.004296 -0.014847 -0.003216 -0.007984
# 2 0.000629 0.024835 -0.003084 -0.006639 -0.002227 -0.021446
# 3 -0.004296 -0.003084 0.008263 0.007030 -0.002601 0.003058
# 4 -0.014847 -0.006639 0.007030 0.092810 -0.002742 -0.008910
# 5 -0.003216 -0.002227 -0.002601 -0.002742 0.028836 0.014480
# 6 -0.007984 -0.021446 0.003058 -0.008910 0.014480 0.091659
#
#
# Mechanical properties :
#
#
# Convention : Reuss Voigt Hill
#
# Bulk Modulus (GPa) = 23.52141 41.03990 32.28066
# Shear Modulus (GPa) = 16.83527 28.14256 22.48891
#
# Velocity S-wave (km/s) = 2.70575 3.49832 3.12724
# Velocity P-wave (km/s) = 4.47103 5.84503 5.20358
#
# Compressibility (1/GPa) = 0.04251446
#
# Stress axis : x y z
#
# Youngs Moduli (GPa) = 43.63295 40.26612 121.01569
#
# Poissons Ratio (x) = -0.02534 0.51991
# Poissons Ratio (y) = -0.02746 0.37323
# Poissons Ratio (z) = 0.18746 0.12419
#
# Static dielectric constant tensor:
#      x y z
#    x 1.918800 0.057010 -0.043270 
#    y 0.057010 1.927730 -0.030650 
#    z -0.043270 -0.030650 1.910010 
# 
# From -- ./inp_files/432488.got.cif
#   From: 2010.05.17/outbox.cif.g08.bks.cpg/sg2_217_cif.got.tgz:432488.got - 2010.06.03 11:33:40.
