data_PCOD9103772
_publ_section_title
;
Structure prediction by ZEFSAII (Michael W. Deem and Ramdas Pophale) SiO2 
 PCOD9103772
Probable space group: P -1
;
_chemical_formula_sum "Si O2"
_cell_formula_units_Z 14
_cell_length_a 15.646137
_cell_length_b 28.495786
_cell_length_c 6.775974
_cell_angle_alpha 41.767353
_cell_angle_beta 141.718089
_cell_angle_gamma 161.574159
_cell_volume 591.573023
_symmetry_space_group_name_H-M "P -1"
_symmetry_group_IT_number 2
_symmetry_cell_setting 'triclinic'
loop_
_space_group_symop_operation_xyz
x,y,z
-x,-y,-z
loop_
_atom_site_type_symbol
_atom_site_label
_atom_site_fract_x
_atom_site_fract_y
_atom_site_fract_z
Si Si1 0.738756 0.778256 0.708712
Si Si2 0.779398 0.465300 0.769635
Si Si3 0.873682 0.207840 0.212606
Si Si4 0.327204 0.096407 0.644939
Si Si5 0.386657 0.528169 0.153395
Si Si6 0.346226 0.019378 0.592398
Si Si7 0.752006 0.218216 0.335405
O O1 0.515145 0.678708 0.432973
O O2 0.732563 0.850041 0.583788
O O3 0.606320 0.660985 0.981902
O O4 0.071848 0.926978 0.776869
O O5 0.687320 0.448693 0.878592
O O6 0.971730 0.620019 0.575584
O O7 0.000000 0.500000 0.000000
O O8 0.857948 0.202619 0.437016
O O9 0.076263 0.362699 0.024912
O O10 0.929978 0.155363 0.393540
O O11 0.555423 0.081762 0.945973
O O12 0.320288 0.084819 0.431309
O O13 0.603398 0.202569 0.951336
O O14 0.500000 0.500000 0.500000
O O15 0.518345 0.096852 0.457399
#
# Coordination Sequence:
#
# PCOD9103772 Si02
#       7
#     2   2   2   2   2   2   2
#     4  11  25  45  65  96 139 170 221 282 326 397
#     4  11  24  44  70 101 130 178 228 268 336 396
#     4   9  21  40  58  99 127 169 226 264 327 395
#     4  10  24  40  64  99 127 171 221 272 333 389
#     4  11  27  45  68  99 137 178 220 272 337 397
#     4  10  20  38  68  91 130 172 219 272 329 388
#     4  10  20  39  64  95 129 168 222 274 325 392
#
# _framework density 23.665718999999999
#
# number of rings (size 3 to 8) (size 9 to 14) (size 15 to 20)
#    0.000    1.714    1.429    1.286    6.000    1.143 
#    5.143    2.857    0.000    0.000    0.000    0.000 
#    0.000    0.000    0.000    0.000    0.000    0.000 
#
# Total GULP energy -78000.597692 kJ/mol
# GULP energy per Si atom -5571.471264 kJ/mol
# Density = 2.361185 g / cm^3
# Si number density = 23.665719 Si / 1000 Ang^3
#
#
#
# Elastic Constant Matrix: (Units=GPa)
#
#
# Indices 1 2 3 4 5 6 
#
# 1 116.4576 34.6393 21.2639 8.8407 -9.2645 -27.0663
# 2 34.6393 144.0461 14.2944 -2.8729 -7.4004 -18.0550
# 3 21.2639 14.2944 33.8428 -5.7900 -10.6185 3.9439
# 4 8.8407 -2.8729 -5.7900 32.8690 5.0246 -1.9878
# 5 -9.2645 -7.4004 -10.6185 5.0246 22.7675 4.6022
# 6 -27.0663 -18.0550 3.9439 -1.9878 4.6022 51.5885
#
#
#
# Elastic Compliance Matrix: (Units=1/GPa)
#
#
# Indices 1 2 3 4 5 6 
#
# 1 0.012489 -0.001398 -0.008732 -0.004666 0.000265 0.006528
# 2 -0.001398 0.007828 -0.002497 0.000722 0.000205 0.002206
# 3 -0.008732 -0.002497 0.043577 0.006679 0.016507 -0.010002
# 4 -0.004666 0.000722 0.006679 0.033754 -0.005819 -0.000886
# 5 0.000265 0.000205 0.016507 -0.005819 0.054317 -0.006121
# 6 0.006528 0.002206 -0.010002 -0.000886 -0.006121 0.024858
#
#
# Mechanical properties :
#
#
# Convention : Reuss Voigt Hill
#
# Bulk Modulus (GPa) = 25.88033 48.30463 37.09248
# Shear Modulus (GPa) = 23.26039 36.38827 29.82433
#
# Velocity S-wave (km/s) = 3.13848 3.92547 3.55383
# Velocity P-wave (km/s) = 4.90846 6.40323 5.70501
#
# Compressibility (1/GPa) = 0.03863938
#
# Stress axis : x y z
#
# Youngs Moduli (GPa) = 80.06736 127.75112 22.94788
#
# Poissons Ratio (x) = 0.17861 0.20039
# Poissons Ratio (y) = 0.11194 0.05730
# Poissons Ratio (z) = 0.69919 0.31898
#
# Static dielectric constant tensor:
#      x y z
#    x 2.161190 0.023090 0.107140 
#    y 0.023090 1.982490 0.016510 
#    z 0.107140 0.016510 1.935090 
# 
# From -- ./inp_files/83136.got.cif
#   From: 2010.05.17/outbox.cif.g08.bks.cpg/sg2_42_cif.got.tgz:83136.got - 2010.06.03 11:33:40.
