data_PCOD9103483
_publ_section_title
;
Structure prediction by ZEFSAII (Michael W. Deem and Ramdas Pophale) SiO2 
 PCOD9103483
Probable space group: P -1
;
_chemical_formula_sum "Si O2"
_cell_formula_units_Z 16
_cell_length_a 12.215896
_cell_length_b 9.259027
_cell_length_c 12.604774
_cell_angle_alpha 132.037571
_cell_angle_beta 121.466148
_cell_angle_gamma 44.151721
_cell_volume 735.185095
_symmetry_space_group_name_H-M "P -1"
_symmetry_group_IT_number 2
_symmetry_cell_setting 'triclinic'
loop_
_space_group_symop_operation_xyz
x,y,z
-x,-y,-z
loop_
_atom_site_type_symbol
_atom_site_label
_atom_site_fract_x
_atom_site_fract_y
_atom_site_fract_z
Si Si1 0.025961 0.155434 0.506379
Si Si2 0.642255 0.284533 0.898791
Si Si3 0.143294 0.462077 0.230201
Si Si4 0.830995 0.224883 0.773876
Si Si5 0.144864 0.008544 0.954383
Si Si6 0.436550 0.125022 0.643092
Si Si7 0.456986 0.333068 0.446058
Si Si8 0.731509 0.411083 0.324329
O O1 0.001798 0.358885 0.674199
O O2 0.884073 0.301577 0.421630
O O3 0.000000 0.000000 0.500000
O O4 0.162817 0.958182 0.398659
O O5 0.684302 0.348695 0.840368
O O6 0.578754 0.126590 0.762949
O O7 0.795974 0.134781 0.976315
O O8 0.500000 0.500000 0.000000
O O9 0.144121 0.604244 0.199251
O O10 0.143844 0.239992 0.083529
O O11 0.303006 0.380971 0.333437
O O12 0.980875 0.083598 0.858630
O O13 0.266083 0.804086 0.831365
O O14 0.291248 0.398995 0.681660
O O15 0.500000 0.000000 0.500000
O O16 0.418452 0.953238 0.624408
O O17 0.500000 0.500000 0.500000
O O18 0.410384 0.433949 0.590822
#
# Coordination Sequence:
#
# PCOD9103483 Si02
#       8
#     2   2   2   2   2   2   2   2
#     4   8  17  38  63  88 122 162 212 264 308 363
#     4  12  24  42  63  92 132 169 205 259 318 377
#     4  10  20  38  66  94 123 165 213 266 317 369
#     4  10  23  40  65  90 126 172 215 252 315 384
#     4  11  21  41  63  91 131 167 207 262 316 377
#     4  10  21  39  61  85 124 169 209 261 319 363
#     4  10  21  37  61  92 125 166 214 264 319 378
#     4   9  19  36  61  87 123 166 202 260 321 366
#
# _framework density 21.763227000000001
#
# number of rings (size 3 to 8) (size 9 to 14) (size 15 to 20)
#    0.000    2.000    2.500    0.750    3.500    0.000 
#    2.250    3.125    0.000    0.000    0.000    0.000 
#    0.000    0.000    0.000    0.000    0.000    0.000 
#
# Total GULP energy -89132.549453 kJ/mol
# GULP energy per Si atom -5570.784341 kJ/mol
# Density = 2.171369 g / cm^3
# Si number density = 21.763227 Si / 1000 Ang^3
#
#
#
# Elastic Constant Matrix: (Units=GPa)
#
#
# Indices 1 2 3 4 5 6 
#
# 1 65.6369 21.6860 46.3170 7.0165 -23.4715 11.4014
# 2 21.6860 100.8886 29.2740 -0.3336 -17.7495 12.4981
# 3 46.3170 29.2740 147.4931 17.8784 -14.9631 5.9059
# 4 7.0165 -0.3336 17.8784 46.8254 -3.7359 8.5444
# 5 -23.4715 -17.7495 -14.9631 -3.7359 29.0013 -7.6669
# 6 11.4014 12.4981 5.9059 8.5444 -7.6669 26.2261
#
#
#
# Elastic Compliance Matrix: (Units=1/GPa)
#
#
# Indices 1 2 3 4 5 6 
#
# 1 0.026810 -0.000225 -0.006546 0.000813 0.016857 -0.005411
# 2 -0.000225 0.011969 -0.001839 0.002030 0.005320 -0.004298
# 3 -0.006546 -0.001839 0.009346 -0.003119 -0.001417 0.002220
# 4 0.000813 0.002030 -0.003119 0.024013 0.001249 -0.008076
# 5 0.016857 0.005320 -0.001417 0.001249 0.052215 0.005313
# 6 -0.005411 -0.004298 0.002220 -0.008076 0.005313 0.046215
#
#
# Mechanical properties :
#
#
# Convention : Reuss Voigt Hill
#
# Bulk Modulus (GPa) = 32.35729 56.50806 44.43268
# Shear Modulus (GPa) = 25.24112 34.86002 30.05057
#
# Velocity S-wave (km/s) = 3.40929 4.00657 3.71994
# Velocity P-wave (km/s) = 5.51342 6.88657 6.23789
#
# Compressibility (1/GPa) = 0.03090493
#
# Stress axis : x y z
#
# Youngs Moduli (GPa) = 37.29952 83.54930 106.99563
#
# Poissons Ratio (x) = 0.01877 0.70041
# Poissons Ratio (y) = 0.00838 0.19680
# Poissons Ratio (z) = 0.24417 0.15367
#
# Static dielectric constant tensor:
#      x y z
#    x 1.870540 0.009030 -0.000290 
#    y 0.009030 1.899580 0.030310 
#    z -0.000290 0.030310 1.792990 
# 
# From -- ./inp_files/420065.got.cif
#   From: 2010.05.17/outbox.cif.g08.bks.cpg/sg2_211_cif.got.tgz:420065.got - 2010.06.03 11:33:40.
