data_PCOD9103888
_publ_section_title
;
Structure prediction by ZEFSAII (Michael W. Deem and Ramdas Pophale) SiO2 
 PCOD9103888
Probable space group: P -1
;
_chemical_formula_sum "Si O2"
_cell_formula_units_Z 16
_cell_length_a 12.583118
_cell_length_b 7.523848
_cell_length_c 12.400642
_cell_angle_alpha 75.584572
_cell_angle_beta 128.543356
_cell_angle_gamma 133.635017
_cell_volume 629.674100
_symmetry_space_group_name_H-M "P -1"
_symmetry_group_IT_number 2
_symmetry_cell_setting 'triclinic'
loop_
_space_group_symop_operation_xyz
x,y,z
-x,-y,-z
loop_
_atom_site_type_symbol
_atom_site_label
_atom_site_fract_x
_atom_site_fract_y
_atom_site_fract_z
Si Si1 0.032824 0.997585 0.167321
Si Si2 0.719329 0.251080 0.631832
Si Si3 0.128469 0.415665 0.527143
Si Si4 0.625109 0.459449 0.951231
Si Si5 0.859934 0.204025 0.924367
Si Si6 0.522368 0.263359 0.144546
Si Si7 0.829402 0.919762 0.524628
Si Si8 0.604510 0.443681 0.699199
O O1 0.038372 0.999080 0.301123
O O2 0.259915 0.249020 0.247377
O O3 0.950410 0.103130 0.040676
O O4 0.854923 0.693979 0.073230
O O5 0.840755 0.417941 0.578118
O O6 0.814961 0.180868 0.772194
O O7 0.707638 0.409597 0.684144
O O8 0.500000 0.000000 0.500000
O O9 0.285981 0.601989 0.689800
O O10 0.174046 0.258098 0.529353
O O11 0.920368 0.183070 0.482823
O O12 0.532071 0.574740 0.888387
O O13 0.580393 0.349092 0.820169
O O14 0.546954 0.271607 0.031092
O O15 0.654725 0.019681 0.879438
O O16 0.000000 0.500000 0.000000
O O17 0.611106 0.735794 0.450658
#
# Coordination Sequence:
#
# PCOD9103888 Si02
#       8
#     2   2   2   2   2   2   2   2
#     4  11  22  40  67  99 138 168 215 283 333 403
#     4  12  26  45  69  93 134 186 229 264 326 401
#     4  11  21  41  68 100 133 177 216 277 330 407
#     4  10  22  39  64 103 134 166 217 272 357 385
#     4  11  22  42  67  94 129 185 228 256 321 404
#     4  10  20  38  69  93 135 173 216 280 322 403
#     4  11  23  39  70 105 133 168 223 274 355 382
#     4  12  24  42  65 103 139 172 215 291 330 391
#
# _framework density 25.409970000000001
#
# number of rings (size 3 to 8) (size 9 to 14) (size 15 to 20)
#    0.000    1.000    6.250    0.750    0.000    1.000 
#    2.250    1.250    2.750    0.000    0.000    0.000 
#    0.000    0.000    0.000    0.000    0.000    0.000 
#
# Total GULP energy -89583.977995 kJ/mol
# GULP energy per Si atom -5598.998625 kJ/mol
# Density = 2.535214 g / cm^3
# Si number density = 25.409970 Si / 1000 Ang^3
#
#
#
# Elastic Constant Matrix: (Units=GPa)
#
#
# Indices 1 2 3 4 5 6 
#
# 1 64.1514 5.2766 13.5938 -4.5794 -1.5751 8.0881
# 2 5.2766 163.9983 57.8181 -20.5182 8.6596 25.2841
# 3 13.5938 57.8181 177.8769 -13.7534 3.0481 3.9180
# 4 -4.5794 -20.5182 -13.7534 54.4731 13.0775 -5.0378
# 5 -1.5751 8.6596 3.0481 13.0775 39.2917 7.8898
# 6 8.0881 25.2841 3.9180 -5.0378 7.8898 27.9554
#
#
#
# Elastic Compliance Matrix: (Units=1/GPa)
#
#
# Indices 1 2 3 4 5 6 
#
# 1 0.016609 0.000811 -0.001401 0.000436 0.001598 -0.005715
# 2 0.000811 0.008287 -0.002421 0.002194 -0.000988 -0.006716
# 3 -0.001401 -0.002421 0.006561 0.001007 -0.000784 0.002078
# 4 0.000436 0.002194 0.001007 0.021943 -0.008682 0.004153
# 5 0.001598 -0.000988 -0.000784 -0.008682 0.030624 -0.009666
# 6 -0.005715 -0.006716 0.002078 0.004153 -0.009666 0.046684
#
#
# Mechanical properties :
#
#
# Convention : Reuss Voigt Hill
#
# Bulk Modulus (GPa) = 39.31519 62.15596 50.73558
# Shear Modulus (GPa) = 34.43277 46.29990 40.36634
#
# Velocity S-wave (km/s) = 3.68515 4.27326 3.99005
# Velocity P-wave (km/s) = 5.79767 6.99013 6.42164
#
# Compressibility (1/GPa) = 0.02543546
#
# Stress axis : x y z
#
# Youngs Moduli (GPa) = 60.20802 120.66620 152.40556
#
# Poissons Ratio (x) = -0.09781 0.21346
# Poissons Ratio (y) = -0.04880 0.36900
# Poissons Ratio (z) = 0.08433 0.29215
#
# Static dielectric constant tensor:
#      x y z
#    x 2.253920 -0.094470 -0.005160 
#    y -0.094470 1.999780 -0.048170 
#    z -0.005160 -0.048170 1.946870 
# 
# From -- ./inp_files/463726.got.cif
#   From: 2010.05.17/outbox.cif.g08.bks.cpg/sg2_232_cif.got.tgz:463726.got - 2010.06.03 11:33:40.
