data_PCOD9103946
_publ_section_title
;
Structure prediction by ZEFSAII (Michael W. Deem and Ramdas Pophale) SiO2 
 PCOD9103946
Probable space group: P -1
;
_chemical_formula_sum "Si O2"
_cell_formula_units_Z 15
_cell_length_a 7.806723
_cell_length_b 19.297866
_cell_length_c 6.738278
_cell_angle_alpha 71.645761
_cell_angle_beta 122.754939
_cell_angle_gamma 136.121623
_cell_volume 586.811821
_symmetry_space_group_name_H-M "P -1"
_symmetry_group_IT_number 2
_symmetry_cell_setting 'triclinic'
loop_
_space_group_symop_operation_xyz
x,y,z
-x,-y,-z
loop_
_atom_site_type_symbol
_atom_site_label
_atom_site_fract_x
_atom_site_fract_y
_atom_site_fract_z
Si Si1 0.084119 0.420710 0.185439
Si Si2 0.539593 0.716785 0.592103
Si Si3 0.126297 0.863534 0.050447
Si Si4 0.350023 0.356487 0.597549
Si Si5 0.000000 0.000000 0.500000
Si Si6 0.570303 0.157254 0.472372
Si Si7 0.342895 0.572594 0.917035
Si Si8 0.567327 0.904278 0.001216
O O1 0.118498 0.348151 0.351074
O O2 0.346341 0.528823 0.352046
O O3 0.809719 0.395813 0.102414
O O4 0.155206 0.456258 0.966632
O O5 0.630261 0.716066 0.430778
O O6 0.365500 0.747179 0.483030
O O7 0.389859 0.609236 0.692263
O O8 0.817516 0.798493 0.827122
O O9 0.189448 0.841137 0.320031
O O10 0.277046 0.979235 0.038169
O O11 0.291858 0.854158 0.003064
O O12 0.364044 0.363241 0.838411
O O13 0.716080 0.940960 0.512489
O O14 0.794564 0.918957 0.263797
O O15 0.509577 0.147275 0.211062
#
# Coordination Sequence:
#
# PCOD9103946 Si02
#       8
#     2   2   2   2   1   2   2   2
#     4   8  18  43  62  84 117 161 208 229 299 372
#     4  12  25  36  58  97 123 150 204 252 319 345
#     4  10  24  42  58  92 119 159 212 249 302 369
#     4   9  20  40  61  86 120 157 196 251 293 365
#     4  10  20  38  70  86 112 160 210 246 294 366
#     4  11  24  42  61  91 122 164 203 257 304 362
#     4   9  20  39  61  88 116 159 197 248 299 361
#     4  10  21  44  66  83 119 166 211 249 300 363
#
# _framework density 25.561858000000001
#
# number of rings (size 3 to 8) (size 9 to 14) (size 15 to 20)
#    0.800    1.333    1.333    0.800    0.000    7.467 
#    0.000    0.000    0.000    0.000    0.000    0.000 
#    0.000    0.000    0.000    0.000    0.000    0.000 
#
# Total GULP energy -83521.220991 kJ/mol
# GULP energy per Si atom -5568.081399 kJ/mol
# Density = 2.550368 g / cm^3
# Si number density = 25.561858 Si / 1000 Ang^3
#
#
#
# Elastic Constant Matrix: (Units=GPa)
#
#
# Indices 1 2 3 4 5 6 
#
# 1 45.6202 9.8712 10.4825 7.2335 4.7575 -0.1738
# 2 9.8712 42.6379 16.6551 6.0286 8.8884 -3.3797
# 3 10.4825 16.6551 57.0037 10.3284 -9.3871 -7.6974
# 4 7.2335 6.0286 10.3284 23.5181 -2.8990 2.3216
# 5 4.7575 8.8884 -9.3871 -2.8990 33.0853 7.0720
# 6 -0.1738 -3.3797 -7.6974 2.3216 7.0720 39.0002
#
#
#
# Elastic Compliance Matrix: (Units=1/GPa)
#
#
# Indices 1 2 3 4 5 6 
#
# 1 0.024672 -0.002596 -0.003362 -0.006028 -0.004414 0.000381
# 2 -0.002596 0.031033 -0.009188 -0.004887 -0.011699 0.003277
# 3 -0.003362 -0.009188 0.023753 -0.006252 0.008567 0.002696
# 4 -0.006028 -0.004887 -0.006252 0.049676 0.005982 -0.005726
# 5 -0.004414 -0.011699 0.008567 0.005982 0.038381 -0.006658
# 6 0.000381 0.003277 0.002696 -0.005726 -0.006658 0.028007
#
#
# Mechanical properties :
#
#
# Convention : Reuss Voigt Hill
#
# Bulk Modulus (GPa) = 20.33942 24.36439 22.35190
# Shear Modulus (GPa) = 20.64396 26.33761 23.49078
#
# Velocity S-wave (km/s) = 2.84493 3.21339 3.03475
# Velocity P-wave (km/s) = 4.33194 4.82908 4.58725
#
# Compressibility (1/GPa) = 0.04916562
#
# Stress axis : x y z
#
# Youngs Moduli (GPa) = 40.53213 32.22380 42.09973
#
# Poissons Ratio (x) = 0.08366 0.14152
# Poissons Ratio (y) = 0.10523 0.38683
# Poissons Ratio (z) = 0.13625 0.29608
#
# Static dielectric constant tensor:
#      x y z
#    x 1.899080 0.020740 0.026130 
#    y 0.020740 2.061950 -0.136250 
#    z 0.026130 -0.136250 2.085480 
# 
# From -- ./inp_files/52983.got.cif
#   From: 2010.05.17/outbox.cif.g08.bks.cpg/sg2_27_cif.got.tgz:52983.got - 2010.06.03 11:33:40.
