data_PCOD9103869
_publ_section_title
;
Structure prediction by ZEFSAII (Michael W. Deem and Ramdas Pophale) SiO2 
 PCOD9103869
Probable space group: P -1
;
_chemical_formula_sum "Si O2"
_cell_formula_units_Z 15
_cell_length_a 18.547171
_cell_length_b 8.480481
_cell_length_c 4.972967
_cell_angle_alpha 104.033331
_cell_angle_beta 128.936279
_cell_angle_gamma 80.788236
_cell_volume 590.235734
_symmetry_space_group_name_H-M "P -1"
_symmetry_group_IT_number 2
_symmetry_cell_setting 'triclinic'
loop_
_space_group_symop_operation_xyz
x,y,z
-x,-y,-z
loop_
_atom_site_type_symbol
_atom_site_label
_atom_site_fract_x
_atom_site_fract_y
_atom_site_fract_z
Si Si1 0.500000 0.500000 0.000000
Si Si2 0.684855 0.327098 0.536350
Si Si3 0.682536 0.108742 0.938818
Si Si4 0.834669 0.868882 0.215618
Si Si5 0.440782 0.134441 0.757461
Si Si6 0.155507 0.555951 0.376434
Si Si7 0.992429 0.652475 0.339105
Si Si8 0.257012 0.269662 0.561310
O O1 0.607812 0.464399 0.345709
O O2 0.510875 0.699800 0.154619
O O3 0.667651 0.257093 0.761197
O O4 0.789914 0.378457 0.725793
O O5 0.674608 0.173990 0.246374
O O6 0.610808 0.968317 0.636756
O O7 0.786117 0.038641 0.100209
O O8 0.940539 0.811541 0.400190
O O9 0.806404 0.839349 0.443718
O O10 0.774308 0.751314 0.830338
O O11 0.361221 0.208734 0.798103
O O12 0.500000 0.000000 0.000000
O O13 0.235381 0.453957 0.675201
O O14 0.091451 0.677820 0.444544
O O15 0.080197 0.418118 0.075994
O O16 0.000000 0.500000 0.500000
#
# Coordination Sequence:
#
# PCOD9103869 Si02
#       8
#     1   2   2   2   2   2   2   2
#     4  12  26  48  76 114 144 192 254 296 366 436
#     4  12  27  49  72 107 147 193 244 306 355 443
#     4  11  26  48  71  99 149 198 234 298 380 420
#     4  10  21  39  67  96 131 181 237 273 360 432
#     4  11  23  47  72 108 148 192 244 308 359 441
#     4  10  22  40  65 106 143 182 245 302 361 432
#     4  10  20  38  69 104 138 185 239 304 364 434
#     4  10  20  39  65  98 134 184 227 290 351 422
#
# _framework density 25.413575000000002
#
# number of rings (size 3 to 8) (size 9 to 14) (size 15 to 20)
#    0.000    1.333    4.000    1.600    1.867    1.067 
#    2.400    1.333    0.000    0.000    0.000    0.000 
#    0.000    0.000    0.000    0.000    0.000    0.000 
#
# Total GULP energy -83525.906453 kJ/mol
# GULP energy per Si atom -5568.393764 kJ/mol
# Density = 2.535573 g / cm^3
# Si number density = 25.413575 Si / 1000 Ang^3
#
#
#
# Elastic Constant Matrix: (Units=GPa)
#
#
# Indices 1 2 3 4 5 6 
#
# 1 71.3190 10.7874 12.3558 -18.2304 23.5108 -11.1455
# 2 10.7874 120.0572 48.7742 -4.7140 23.9400 -12.4040
# 3 12.3558 48.7742 61.8626 -3.5652 4.4328 -0.8356
# 4 -18.2304 -4.7140 -3.5652 55.4175 -6.2441 21.6331
# 5 23.5108 23.9400 4.4328 -6.2441 33.8993 -13.5200
# 6 -11.1455 -12.4040 -0.8356 21.6331 -13.5200 50.1679
#
#
#
# Elastic Compliance Matrix: (Units=1/GPa)
#
#
# Indices 1 2 3 4 5 6 
#
# 1 0.020859 0.003641 -0.005606 0.005494 -0.015761 -0.001176
# 2 0.003641 0.015204 -0.011900 -0.000077 -0.011164 0.001394
# 3 -0.005606 -0.011900 0.026075 0.000419 0.008281 -0.001702
# 4 0.005494 -0.000077 0.000419 0.023297 -0.003411 -0.009757
# 5 -0.015761 -0.011164 0.008281 -0.003411 0.050137 0.008858
# 6 -0.001176 0.001394 -0.001702 -0.009757 0.008858 0.026583
#
#
# Mechanical properties :
#
#
# Convention : Reuss Voigt Hill
#
# Bulk Modulus (GPa) = 29.06494 44.11929 36.59211
# Shear Modulus (GPa) = 24.83201 39.98503 32.40852
#
# Velocity S-wave (km/s) = 3.12928 3.97088 3.57493
# Velocity P-wave (km/s) = 4.95158 6.19855 5.60982
#
# Compressibility (1/GPa) = 0.03440572
#
# Stress axis : x y z
#
# Youngs Moduli (GPa) = 47.94199 65.77263 38.35151
#
# Poissons Ratio (x) = -0.23945 0.21501
# Poissons Ratio (y) = -0.17453 0.45638
# Poissons Ratio (z) = 0.26878 0.78269
#
# Static dielectric constant tensor:
#      x y z
#    x 2.060920 -0.039050 0.036440 
#    y -0.039050 2.038660 -0.015630 
#    z 0.036440 -0.015630 2.081720 
# 
# From -- ./inp_files/105503.got.cif
#   From: 2010.05.17/outbox.cif.g08.bks.cpg/sg2_53_cif.got.tgz:105503.got - 2010.06.03 11:33:40.
