data_PCOD9103514
_publ_section_title
;
Structure prediction by ZEFSAII (Michael W. Deem and Ramdas Pophale) SiO2 
 PCOD9103514
Probable space group: P -1
;
_chemical_formula_sum "Si O2"
_cell_formula_units_Z 16
_cell_length_a 11.530044
_cell_length_b 16.009689
_cell_length_c 18.677397
_cell_angle_alpha 157.321850
_cell_angle_beta 43.746942
_cell_angle_gamma 146.765481
_cell_volume 708.374712
_symmetry_space_group_name_H-M "P -1"
_symmetry_group_IT_number 2
_symmetry_cell_setting 'triclinic'
loop_
_space_group_symop_operation_xyz
x,y,z
-x,-y,-z
loop_
_atom_site_type_symbol
_atom_site_label
_atom_site_fract_x
_atom_site_fract_y
_atom_site_fract_z
Si Si1 0.052643 0.846484 0.630837
Si Si2 0.615780 0.741436 0.700809
Si Si3 0.970837 0.461520 0.250591
Si Si4 0.784915 0.362293 0.940626
Si Si5 0.368161 0.333455 0.774585
Si Si6 0.284867 0.319489 0.002678
Si Si7 0.861395 0.055650 0.558111
Si Si8 0.509442 0.120768 0.004674
O O1 0.982498 0.556372 0.402439
O O2 0.841905 0.817598 0.681736
O O3 0.263849 0.063941 0.658475
O O4 0.137575 0.993502 0.786668
O O5 0.500000 0.500000 0.500000
O O6 0.645920 0.013648 0.875750
O O7 0.473028 0.672925 0.781869
O O8 0.004512 0.685134 0.354554
O O9 0.737117 0.162501 0.107431
O O10 0.150468 0.425934 0.132451
O O11 0.755172 0.136433 0.724010
O O12 0.587745 0.242615 0.987910
O O13 0.787588 0.589695 0.077873
O O14 0.000000 0.500000 0.000000
O O15 0.315898 0.213542 0.623381
O O16 0.611808 0.586574 0.890090
O O17 0.500000 0.500000 0.000000
O O18 0.000000 0.000000 0.500000
#
# Coordination Sequence:
#
# PCOD9103514 Si02
#       8
#     2   2   2   2   2   2   2   2
#     4  10  20  38  66  95 128 162 214 278 319 377
#     4  11  22  37  62  95 127 165 212 266 326 384
#     4  11  23  42  66  99 128 170 224 268 323 390
#     4  12  25  41  64  91 137 170 210 266 335 398
#     4  10  23  40  64  95 124 174 218 263 330 379
#     4  10  21  40  67  94 129 168 223 278 318 373
#     4  11  24  40  65  94 136 170 209 268 330 392
#     4  11  26  37  63  97 129 173 217 264 330 389
#
# _framework density 22.586914
#
# number of rings (size 3 to 8) (size 9 to 14) (size 15 to 20)
#    0.000    1.250    3.750    2.250    5.250    6.500 
#    0.000    0.625    0.000    1.500    0.000    0.000 
#    0.000    0.000    0.000    0.000    0.000    0.000 
#
# Total GULP energy -89294.340719 kJ/mol
# GULP energy per Si atom -5580.896295 kJ/mol
# Density = 2.253551 g / cm^3
# Si number density = 22.586914 Si / 1000 Ang^3
#
#
#
# Elastic Constant Matrix: (Units=GPa)
#
#
# Indices 1 2 3 4 5 6 
#
# 1 91.4461 29.3586 55.7019 6.5902 41.3376 10.4489
# 2 29.3586 80.4680 46.2440 -9.9702 12.6131 10.2329
# 3 55.7019 46.2440 169.9017 -31.4960 52.5502 3.0085
# 4 6.5902 -9.9702 -31.4960 33.9829 0.3583 5.6958
# 5 41.3376 12.6131 52.5502 0.3583 55.0042 0.4304
# 6 10.4489 10.2329 3.0085 5.6958 0.4304 31.1077
#
#
#
# Elastic Compliance Matrix: (Units=1/GPa)
#
#
# Indices 1 2 3 4 5 6 
#
# 1 0.020288 -0.004182 -0.003532 -0.007728 -0.010836 -0.003532
# 2 -0.004182 0.016337 -0.003092 0.003440 0.002362 -0.004333
# 3 -0.003532 -0.003092 0.012950 0.012066 -0.009079 -0.001133
# 4 -0.007728 0.003440 0.012066 0.044488 -0.006737 -0.007755
# 5 -0.010836 0.002362 -0.009079 -0.006737 0.034465 0.004498
# 6 -0.003532 -0.004333 -0.001133 -0.007755 0.004498 0.036225
#
#
# Mechanical properties :
#
#
# Convention : Reuss Voigt Hill
#
# Bulk Modulus (GPa) = 35.76023 67.15831 51.45927
# Shear Modulus (GPa) = 25.55110 38.05304 31.80207
#
# Velocity S-wave (km/s) = 3.36703 4.10901 3.75639
# Velocity P-wave (km/s) = 5.56619 7.23255 6.45338
#
# Compressibility (1/GPa) = 0.02796403
#
# Stress axis : x y z
#
# Youngs Moduli (GPa) = 49.28907 61.21110 77.22120
#
# Poissons Ratio (x) = 0.25601 0.27272
# Poissons Ratio (y) = 0.20615 0.23873
# Poissons Ratio (z) = 0.17407 0.18924
#
# Static dielectric constant tensor:
#      x y z
#    x 1.968770 -0.080480 -0.002910 
#    y -0.080480 1.851800 0.020980 
#    z -0.002910 0.020980 1.936390 
# 
# From -- ./inp_files/596045.got.cif
#   From: 2010.05.17/outbox.cif.g08.bks.cpg/sg2_299_cif.got.tgz:596045.got - 2010.06.03 11:33:40.
