data_PCOD9103938
_publ_section_title
;
Structure prediction by ZEFSAII (Michael W. Deem and Ramdas Pophale) SiO2 
 PCOD9103938
Probable space group: P -1
;
_chemical_formula_sum "Si O2"
_cell_formula_units_Z 14
_cell_length_a 13.589244
_cell_length_b 7.256718
_cell_length_c 21.845070
_cell_angle_alpha 52.963499
_cell_angle_beta 20.460507
_cell_angle_gamma 50.793856
_cell_volume 583.101176
_symmetry_space_group_name_H-M "P -1"
_symmetry_group_IT_number 2
_symmetry_cell_setting 'triclinic'
loop_
_space_group_symop_operation_xyz
x,y,z
-x,-y,-z
loop_
_atom_site_type_symbol
_atom_site_label
_atom_site_fract_x
_atom_site_fract_y
_atom_site_fract_z
Si Si1 0.779959 0.387247 0.318420
Si Si2 0.521645 0.062795 0.269030
Si Si3 0.997086 0.154976 0.881701
Si Si4 0.368480 0.563393 0.429631
Si Si5 0.171518 0.617222 0.187945
Si Si6 0.218297 0.933119 0.204088
Si Si7 0.906443 0.206353 0.565550
O O1 0.500000 0.500000 0.500000
O O2 0.974544 0.580213 0.167554
O O3 0.636815 0.365740 0.339967
O O4 0.949546 0.144199 0.298163
O O5 0.715329 0.031179 0.223818
O O6 0.450227 0.805771 0.354018
O O7 0.209841 0.244459 0.407215
O O8 0.727708 0.101662 0.085851
O O9 0.945482 0.176590 0.835117
O O10 0.308262 0.585402 0.388146
O O11 0.065650 0.538804 0.640923
O O12 0.183062 0.706902 0.231894
O O13 0.500000 0.500000 0.000000
O O14 0.239389 0.886295 0.273049
O O15 0.500000 0.000000 0.000000
O O16 0.000000 0.000000 0.500000
#
# Coordination Sequence:
#
# PCOD9103938 Si02
#       7
#     2   2   2   2   2   2   2
#     4  11  21  45  73 107 143 194 239 302 360 437
#     4   9  20  37  70 104 136 190 243 292 361 432
#     4  10  20  38  70 104 137 188 246 293 365 428
#     4  10  22  40  72  97 142 187 241 285 370 423
#     4  12  26  42  71 105 147 193 242 302 364 431
#     4  12  29  44  72 113 147 186 253 303 362 440
#     4  10  22  42  70  99 141 193 235 298 371 425
#
# _framework density 24.009556
#
# number of rings (size 3 to 8) (size 9 to 14) (size 15 to 20)
#    0.000    1.429    1.429    4.286    8.000    1.143 
#    0.000    0.714    3.143    0.000    0.000    0.000 
#    0.000    0.000    0.000    0.000    0.000    0.000 
#
# Total GULP energy -78300.607038 kJ/mol
# GULP energy per Si atom -5592.900503 kJ/mol
# Density = 2.395491 g / cm^3
# Si number density = 24.009556 Si / 1000 Ang^3
#
#
#
# Elastic Constant Matrix: (Units=GPa)
#
#
# Indices 1 2 3 4 5 6 
#
# 1 164.2466 31.8461 43.7213 3.9298 24.9002 -38.0940
# 2 31.8461 63.5952 34.5979 3.8087 10.2332 -14.7257
# 3 43.7213 34.5979 159.5037 -26.9025 6.6386 -8.1235
# 4 3.9298 3.8087 -26.9025 38.4140 -8.4283 -6.4566
# 5 24.9002 10.2332 6.6386 -8.4283 38.6878 -8.3635
# 6 -38.0940 -14.7257 -8.1235 -6.4566 -8.3635 55.3563
#
#
#
# Elastic Compliance Matrix: (Units=1/GPa)
#
#
# Indices 1 2 3 4 5 6 
#
# 1 0.008639 -0.001322 -0.002092 -0.002468 -0.004454 0.004326
# 2 -0.001322 0.020648 -0.004783 -0.005829 -0.004515 0.002519
# 3 -0.002092 -0.004783 0.009045 0.007599 0.002695 -0.000091
# 4 -0.002468 -0.005829 0.007599 0.035011 0.010209 0.003492
# 5 -0.004454 -0.004515 0.002695 0.010209 0.032141 0.002176
# 6 0.004326 0.002519 -0.000091 0.003492 0.002176 0.022434
#
#
# Mechanical properties :
#
#
# Convention : Reuss Voigt Hill
#
# Bulk Modulus (GPa) = 45.58345 67.51957 56.55151
# Shear Modulus (GPa) = 32.97605 44.97030 38.97318
#
# Velocity S-wave (km/s) = 3.71004 4.33253 4.03331
# Velocity P-wave (km/s) = 6.11386 7.29457 6.73016
#
# Compressibility (1/GPa) = 0.02193779
#
# Stress axis : x y z
#
# Youngs Moduli (GPa) = 115.75219 48.43184 110.55530
#
# Poissons Ratio (x) = 0.06402 0.23127
# Poissons Ratio (y) = 0.15302 0.52881
# Poissons Ratio (z) = 0.24214 0.23166
#
# Static dielectric constant tensor:
#      x y z
#    x 1.906030 -0.226380 -0.284690 
#    y -0.226380 1.586050 -0.497250 
#    z -0.284690 -0.497250 1.270650 
# 
# From -- ./inp_files/611482.got.cif
#   From: 2010.05.17/outbox.cif.g08.bks.cpg/sg2_306_cif.got.tgz:611482.got - 2010.06.03 11:33:40.
