data_PCOD9103625
_publ_section_title
;
Structure prediction by ZEFSAII (Michael W. Deem and Ramdas Pophale) SiO2 
 PCOD9103625
Probable space group: P -1
;
_chemical_formula_sum "Si O2"
_cell_formula_units_Z 16
_cell_length_a 8.971532
_cell_length_b 14.525532
_cell_length_c 15.587034
_cell_angle_alpha 143.007388
_cell_angle_beta 143.394858
_cell_angle_gamma 36.540200
_cell_volume 650.023675
_symmetry_space_group_name_H-M "P -1"
_symmetry_group_IT_number 2
_symmetry_cell_setting 'triclinic'
loop_
_space_group_symop_operation_xyz
x,y,z
-x,-y,-z
loop_
_atom_site_type_symbol
_atom_site_label
_atom_site_fract_x
_atom_site_fract_y
_atom_site_fract_z
Si Si1 0.591600 0.556315 0.275646
Si Si2 0.008287 0.154303 0.775364
Si Si3 0.379658 0.992041 0.301087
Si Si4 0.386883 0.320698 0.061187
Si Si5 0.858747 0.745884 0.453356
Si Si6 0.580521 0.480246 0.396970
Si Si7 0.136995 0.062815 0.966087
Si Si8 0.520151 0.155960 0.323588
O O1 0.463753 0.423601 0.100480
O O2 0.782992 0.589859 0.322494
O O3 0.730618 0.484746 0.378727
O O4 0.325185 0.742894 0.305473
O O5 0.100522 0.100527 0.876017
O O6 0.174739 0.986409 0.671139
O O7 0.125803 0.285872 0.897886
O O8 0.676497 0.849196 0.366205
O O9 0.164343 0.913302 0.122664
O O10 0.239700 0.123210 0.413628
O O11 0.426428 0.087697 0.313549
O O12 0.357125 0.424446 0.213472
O O13 0.646207 0.134389 0.059210
O O14 0.191695 0.661664 0.543940
O O15 0.478583 0.666493 0.524965
O O16 0.286225 0.168086 0.155299
#
# Coordination Sequence:
#
# PCOD9103625 Si02
#       8
#     2   2   2   2   2   2   2   2
#     4  10  20  38  67  91 121 167 213 253 305 380
#     4  11  23  44  65  93 127 171 209 252 316 384
#     4  11  21  40  65  97 122 169 214 259 306 372
#     4   9  20  37  65  90 119 170 208 247 312 375
#     4  11  21  39  67  95 127 163 216 256 317 371
#     4  10  22  39  63  97 124 166 207 267 310 367
#     4  11  22  43  65  90 129 170 212 251 314 382
#     4  11  24  40  64  96 130 161 209 263 315 368
#
# _framework density 24.614487
#
# number of rings (size 3 to 8) (size 9 to 14) (size 15 to 20)
#    0.750    0.750    3.750    2.625    1.750    0.500 
#    0.000    8.125    0.000    0.000    0.000    0.000 
#    0.000    0.000    0.000    0.000    0.000    0.000 
#
# Total GULP energy -89516.669101 kJ/mol
# GULP energy per Si atom -5594.791819 kJ/mol
# Density = 2.455846 g / cm^3
# Si number density = 24.614487 Si / 1000 Ang^3
#
#
#
# Elastic Constant Matrix: (Units=GPa)
#
#
# Indices 1 2 3 4 5 6 
#
# 1 48.3160 -6.0659 -7.5405 -2.3356 -5.4699 14.9982
# 2 -6.0659 75.8480 20.3686 -4.5392 -5.8515 0.9934
# 3 -7.5405 20.3686 76.3698 15.7259 2.9873 -8.7346
# 4 -2.3356 -4.5392 15.7259 45.1110 2.2446 2.8306
# 5 -5.4699 -5.8515 2.9873 2.2446 22.4604 -1.8292
# 6 14.9982 0.9934 -8.7346 2.8306 -1.8292 24.1056
#
#
#
# Elastic Compliance Matrix: (Units=1/GPa)
#
#
# Indices 1 2 3 4 5 6 
#
# 1 0.027119 0.003289 -0.000996 0.002872 0.005901 -0.017259
# 2 0.003289 0.015514 -0.005280 0.003626 0.004803 -0.004661
# 3 -0.000996 -0.005280 0.016757 -0.006768 -0.002559 0.007510
# 4 0.002872 0.003626 -0.006768 0.025537 -0.000613 -0.007434
# 5 0.005901 0.004803 -0.002559 -0.000613 0.047522 -0.001119
# 6 -0.017259 -0.004661 0.007510 -0.007434 -0.001119 0.055924
#
#
# Mechanical properties :
#
#
# Convention : Reuss Voigt Hill
#
# Bulk Modulus (GPa) = 18.72089 23.78425 21.25257
# Shear Modulus (GPa) = 23.56801 31.25348 27.41075
#
# Velocity S-wave (km/s) = 3.09768 3.56718 3.34069
# Velocity P-wave (km/s) = 4.51844 5.16237 4.85110
#
# Compressibility (1/GPa) = 0.05341627
#
# Stress axis : x y z
#
# Youngs Moduli (GPa) = 36.87452 64.45810 59.67686
#
# Poissons Ratio (x) = -0.21203 0.05942
# Poissons Ratio (y) = -0.12129 0.31512
# Poissons Ratio (z) = 0.03672 0.34037
#
# Static dielectric constant tensor:
#      x y z
#    x 1.969650 -0.009170 0.016560 
#    y -0.009170 1.936170 0.027860 
#    z 0.016560 0.027860 1.979790 
# 
# From -- ./inp_files/505648.got.cif
#   From: 2010.05.17/outbox.cif.g08.bks.cpg/sg2_253_cif.got.tgz:505648.got - 2010.06.03 11:33:40.
