data_PCOD9103455
_publ_section_title
;
Structure prediction by ZEFSAII (Michael W. Deem and Ramdas Pophale) SiO2 
 PCOD9103455
Probable space group: P -1
;
_chemical_formula_sum "Si O2"
_cell_formula_units_Z 12
_cell_length_a 14.365591
_cell_length_b 9.885088
_cell_length_c 17.161375
_cell_angle_alpha 148.092723
_cell_angle_beta 154.166705
_cell_angle_gamma 49.539869
_cell_volume 486.093756
_symmetry_space_group_name_H-M "P -1"
_symmetry_group_IT_number 2
_symmetry_cell_setting 'triclinic'
loop_
_space_group_symop_operation_xyz
x,y,z
-x,-y,-z
loop_
_atom_site_type_symbol
_atom_site_label
_atom_site_fract_x
_atom_site_fract_y
_atom_site_fract_z
Si Si1 0.222406 0.867023 0.787513
Si Si2 0.490136 0.735213 0.548930
Si Si3 0.439278 0.349496 0.006210
Si Si4 0.958681 0.247392 0.225635
Si Si5 0.188430 0.051392 0.516424
Si Si6 0.475545 0.284061 0.611996
O O1 0.472542 0.849284 0.975538
O O2 0.155397 0.820363 0.806926
O O3 0.071521 0.597985 0.480942
O O4 0.096052 0.060726 0.768513
O O5 0.500000 0.500000 0.500000
O O6 0.470993 0.620704 0.391011
O O7 0.281004 0.823401 0.451658
O O8 0.746201 0.043532 0.906370
O O9 0.654465 0.638334 0.262702
O O10 0.372374 0.509801 0.100490
O O11 0.257032 0.143447 0.702594
O O12 0.192371 0.202320 0.372890
O O13 0.500000 0.000000 0.500000
#
# Coordination Sequence:
#
# PCOD9103455 Si02
#       6
#     2   2   2   2   2   2
#     4  10  16  32  64  95 106 142 215 265 284 325
#     4  12  25  39  56  89 133 164 187 241 320 369
#     4  10  18  32  63  90 113 143 211 260 281 339
#     4  10  18  36  61  88 118 148 206 254 286 347
#     4  11  17  34  60  86 115 158 198 244 300 353
#     4  11  21  37  60  94 115 154 209 253 292 348
#
# _framework density 24.686595000000001
#
# number of rings (size 3 to 8) (size 9 to 14) (size 15 to 20)
#    0.000    1.333    8.333    1.500    0.000    0.000 
#    0.000    4.167    0.000    4.000    0.000    0.000 
#    0.000    0.000    0.000    0.000    0.000    0.000 
#
# Total GULP energy -66964.441497 kJ/mol
# GULP energy per Si atom -5580.370125 kJ/mol
# Density = 2.463041 g / cm^3
# Si number density = 24.686595 Si / 1000 Ang^3
#
#
#
# Elastic Constant Matrix: (Units=GPa)
#
#
# Indices 1 2 3 4 5 6 
#
# 1 19.9616 20.6922 16.9785 28.8741 -38.0644 -13.6663
# 2 20.6922 128.3931 5.2048 -19.6584 7.1357 -12.1485
# 3 16.9785 5.2048 103.3793 5.9850 -40.4193 8.1790
# 4 28.8741 -19.6584 5.9850 19.9969 9.1956 -0.0667
# 5 -38.0644 7.1357 -40.4193 9.1956 40.1336 -5.5988
# 6 -13.6663 -12.1485 8.1790 -0.0667 -5.5988 58.6970
#
#
#
# Elastic Compliance Matrix: (Units=1/GPa)
#
#
# Indices 1 2 3 4 5 6 
#
# 1 -0.003494 0.004370 -0.006430 0.018052 -0.014759 -0.000400
# 2 0.004370 0.006872 0.000389 -0.001524 0.004050 0.002770
# 3 -0.006430 0.000389 0.013060 0.003027 0.005919 -0.002668
# 4 0.018052 -0.001524 0.003027 0.013213 0.018141 0.005211
# 5 -0.014759 0.004050 0.005919 0.018141 0.011684 -0.002288
# 6 -0.000400 0.002770 -0.002668 0.005211 -0.002288 0.017676
#
#
# Mechanical properties :
#
#
# Convention : Reuss Voigt Hill
#
# Bulk Modulus (GPa) = 76.36163 37.49832 56.92997
# Shear Modulus (GPa) = 74.94211 37.68941 56.31576
#
# Velocity S-wave (km/s) = 5.51573 3.91156 4.78140
# Velocity P-wave (km/s) = 8.45955 5.96851 7.32076
#
# Compressibility (1/GPa) = 0.01309558
#
# Stress axis : x y z
#
# Youngs Moduli (GPa) = -286.17529 145.51447 76.57166
#
# Poissons Ratio (x) = -0.63592 0.49236
# Poissons Ratio (y) = 1.25063 -0.02978
# Poissons Ratio (z) = -1.84012 -0.05660
#
# Static dielectric constant tensor:
#      x y z
#    x 2.090990 0.029880 0.045140 
#    y 0.029880 2.017600 0.067880 
#    z 0.045140 0.067880 2.073930 
# 
# From -- ./inp_files/527981.got.cif
#   From: 2010.05.17/outbox.cif.g08.bks.cpg/sg2_264_cif.got.tgz:527981.got - 2010.06.03 11:33:40.
