data_PCOD9103788
_publ_section_title
;
Structure prediction by ZEFSAII (Michael W. Deem and Ramdas Pophale) SiO2 
 PCOD9103788
Probable space group: P -1
;
_chemical_formula_sum "Si O2"
_cell_formula_units_Z 16
_cell_length_a 9.411023
_cell_length_b 7.650321
_cell_length_c 13.863768
_cell_angle_alpha 68.207756
_cell_angle_beta 47.624189
_cell_angle_gamma 71.777164
_cell_volume 681.832806
_symmetry_space_group_name_H-M "P -1"
_symmetry_group_IT_number 2
_symmetry_cell_setting 'triclinic'
loop_
_space_group_symop_operation_xyz
x,y,z
-x,-y,-z
loop_
_atom_site_type_symbol
_atom_site_label
_atom_site_fract_x
_atom_site_fract_y
_atom_site_fract_z
Si Si1 0.501910 0.509703 0.688678
Si Si2 0.601254 0.510371 0.849959
Si Si3 0.025004 0.306874 0.320892
Si Si4 0.060457 0.496956 0.861484
Si Si5 0.295449 0.931285 0.127480
Si Si6 0.003481 0.886781 0.120785
Si Si7 0.858555 0.181676 0.600253
Si Si8 0.823410 0.706883 0.412662
O O1 0.472208 0.558364 0.805501
O O2 0.294335 0.466209 0.753362
O O3 0.665231 0.331060 0.649064
O O4 0.608110 0.674574 0.553334
O O5 0.694794 0.296775 0.835428
O O6 0.760859 0.656008 0.752992
O O7 0.500000 0.500000 0.000000
O O8 0.000774 0.320336 0.214118
O O9 0.925243 0.158900 0.463544
O O10 0.907200 0.505322 0.371707
O O11 0.959674 0.327286 0.891654
O O12 0.000000 0.500000 0.000000
O O13 0.162310 0.985748 0.087675
O O14 0.212957 0.977061 0.262227
O O15 0.500000 0.000000 0.000000
O O16 0.845752 0.857699 0.284868
O O17 0.000000 0.000000 0.000000
O O18 0.037506 0.254961 0.566684
#
# Coordination Sequence:
#
# PCOD9103788 Si02
#       8
#     2   2   2   2   2   2   2   2
#     4  10  18  29  55  82 103 138 181 221 275 316
#     4  11  19  32  57  82 104 142 181 218 271 322
#     4  10  16  33  52  77 108 138 170 230 278 296
#     4  11  23  36  51  81 118 143 174 223 269 326
#     4  10  21  37  54  81 109 140 181 228 266 318
#     4  10  22  37  54  76 113 148 175 219 274 318
#     4   9  16  31  56  79 107 130 179 239 268 299
#     4   9  15  33  54  79 108 129 180 237 266 301
#
# _framework density 23.466163000000002
#
# number of rings (size 3 to 8) (size 9 to 14) (size 15 to 20)
#    0.000    2.000    6.250    1.500    3.500    4.500 
#    0.000    0.000    0.000    3.000    0.000    0.000 
#    0.000    0.000    0.000    0.000    0.000    0.000 
#
# Total GULP energy -89185.618215 kJ/mol
# GULP energy per Si atom -5574.101138 kJ/mol
# Density = 2.341275 g / cm^3
# Si number density = 23.466163 Si / 1000 Ang^3
#
#
#
# Elastic Constant Matrix: (Units=GPa)
#
#
# Indices 1 2 3 4 5 6 
#
# 1 108.5512 22.7829 64.7144 -14.7077 8.9195 16.2606
# 2 22.7829 55.9278 15.8908 -4.4172 6.5828 11.2197
# 3 64.7144 15.8908 187.0691 -11.1347 23.6188 7.2993
# 4 -14.7077 -4.4172 -11.1347 38.3154 -2.5814 12.4738
# 5 8.9195 6.5828 23.6188 -2.5814 50.4131 -9.9162
# 6 16.2606 11.2197 7.2993 12.4738 -9.9162 24.2994
#
#
#
# Elastic Compliance Matrix: (Units=1/GPa)
#
#
# Indices 1 2 3 4 5 6 
#
# 1 0.015389 -0.001138 -0.003683 0.009295 -0.003279 -0.014776
# 2 -0.001138 0.022606 0.000191 0.006912 -0.005544 -0.015544
# 3 -0.003683 0.000191 0.007084 0.000933 -0.002924 -0.001424
# 4 0.009295 0.006912 0.000933 0.041284 -0.007552 -0.033966
# 5 -0.003279 -0.005544 -0.002924 -0.007552 0.026088 0.020155
# 6 -0.014776 -0.015544 -0.001424 -0.033966 0.020155 0.084307
#
#
# Mechanical properties :
#
#
# Convention : Reuss Voigt Hill
#
# Bulk Modulus (GPa) = 27.91821 62.03604 44.97713
# Shear Modulus (GPa) = 22.94016 39.14958 31.04487
#
# Velocity S-wave (km/s) = 3.13003 4.08896 3.64120
# Velocity P-wave (km/s) = 4.99858 6.98474 6.07340
#
# Compressibility (1/GPa) = 0.03581892
#
# Stress axis : x y z
#
# Youngs Moduli (GPa) = 64.98117 44.23560 141.16514
#
# Poissons Ratio (x) = 0.05035 0.51994
# Poissons Ratio (y) = 0.07396 -0.02700
# Poissons Ratio (z) = 0.23934 -0.00846
#
# Static dielectric constant tensor:
#      x y z
#    x 1.733250 0.149440 0.076030 
#    y 0.149440 1.765580 -0.063950 
#    z 0.076030 -0.063950 1.948880 
# 
# From -- ./inp_files/378592.got.cif
#   From: 2010.05.17/outbox.cif.g08.bks.cpg/sg2_190_cif.got.tgz:378592.got - 2010.06.03 11:33:40.
