data_PCOD9103413
_publ_section_title
;
Structure prediction by ZEFSAII (Michael W. Deem and Ramdas Pophale) SiO2 
 PCOD9103413
Probable space group: P -1
;
_chemical_formula_sum "Si O2"
_cell_formula_units_Z 15
_cell_length_a 19.639870
_cell_length_b 15.129381
_cell_length_c 24.814151
_cell_angle_alpha 162.908035
_cell_angle_beta 20.226344
_cell_angle_gamma 150.514366
_cell_volume 723.458191
_symmetry_space_group_name_H-M "P -1"
_symmetry_group_IT_number 2
_symmetry_cell_setting 'triclinic'
loop_
_space_group_symop_operation_xyz
x,y,z
-x,-y,-z
loop_
_atom_site_type_symbol
_atom_site_label
_atom_site_fract_x
_atom_site_fract_y
_atom_site_fract_z
Si Si1 0.156325 0.559081 0.127538
Si Si2 0.123225 0.092734 0.379592
Si Si3 0.816870 0.808724 0.807385
Si Si4 0.411816 0.524632 0.393568
Si Si5 0.989628 0.059604 0.917243
Si Si6 0.587512 0.379651 0.678505
Si Si7 0.000000 0.000000 0.000000
Si Si8 0.135553 0.726024 0.050019
O O1 0.061712 0.627613 0.297176
O O2 0.174856 0.860195 0.256533
O O3 0.999435 0.410288 0.125220
O O4 0.380421 0.325580 0.824717
O O5 0.308326 0.237914 0.312069
O O6 0.067407 0.909621 0.263673
O O7 0.629736 0.675253 0.850524
O O8 0.000000 0.500000 0.500000
O O9 0.867482 0.016129 0.842779
O O10 0.811744 0.002792 0.979034
O O11 0.445065 0.552948 0.321497
O O12 0.244468 0.816480 0.711826
O O13 0.629992 0.460267 0.222376
O O14 0.994791 0.920589 0.892031
O O15 0.205520 0.895410 0.632007
O O16 0.000000 0.500000 0.000000
#
# Coordination Sequence:
#
# PCOD9103413 Si02
#       8
#     2   2   2   2   2   2   1   2
#     4  11  21  36  59  97 124 157 219 273 308 376
#     4  11  22  38  62  91 128 167 211 266 321 383
#     4  10  22  39  62  93 132 171 214 264 322 392
#     4  11  21  43  70  90 126 175 225 255 325 399
#     4  10  21  39  64  90 128 165 219 264 322 383
#     4  10  20  38  66  90 122 174 216 260 322 383
#     4  10  22  42  68  96 120 172 218 272 320 390
#     4  12  24  42  67  96 132 174 218 269 326 389
#
# _framework density 20.733749
#
# number of rings (size 3 to 8) (size 9 to 14) (size 15 to 20)
#    0.000    1.333    4.000    2.400    0.000    0.000 
#    4.800    0.667    0.000    4.800    0.000    0.000 
#    0.000    0.000    0.000    0.000    0.000    0.000 
#
# Total GULP energy -83511.019935 kJ/mol
# GULP energy per Si atom -5567.401329 kJ/mol
# Density = 2.068656 g / cm^3
# Si number density = 20.733749 Si / 1000 Ang^3
#
#
#
# Elastic Constant Matrix: (Units=GPa)
#
#
# Indices 1 2 3 4 5 6 
#
# 1 108.8839 37.7808 48.1327 -14.3724 5.0367 23.7439
# 2 37.7808 96.6292 20.4959 -2.4460 3.9700 29.1187
# 3 48.1327 20.4959 102.9754 -16.2212 17.5893 11.8361
# 4 -14.3724 -2.4460 -16.2212 18.9126 -6.3560 1.6753
# 5 5.0367 3.9700 17.5893 -6.3560 39.0830 6.1382
# 6 23.7439 29.1187 11.8361 1.6753 6.1382 40.8691
#
#
#
# Elastic Compliance Matrix: (Units=1/GPa)
#
#
# Indices 1 2 3 4 5 6 
#
# 1 0.014436 -0.002818 -0.004741 0.007976 0.002759 -0.005748
# 2 -0.002818 0.014055 -0.000607 0.000064 0.000520 -0.008282
# 3 -0.004741 -0.000607 0.013930 0.006824 -0.004414 -0.000464
# 4 0.007976 0.000064 0.006824 0.068697 0.008761 -0.010788
# 5 0.002759 0.000520 -0.004414 0.008761 0.029450 -0.005477
# 6 -0.005748 -0.008282 -0.000464 -0.010788 -0.005477 0.035108
#
#
# Mechanical properties :
#
#
# Convention : Reuss Voigt Hill
#
# Bulk Modulus (GPa) = 38.33012 57.92305 48.12658
# Shear Modulus (GPa) = 24.91207 33.24489 29.07848
#
# Velocity S-wave (km/s) = 3.47006 4.00862 3.74902
# Velocity P-wave (km/s) = 5.88065 7.03012 6.48092
#
# Compressibility (1/GPa) = 0.02608914
#
# Stress axis : x y z
#
# Youngs Moduli (GPa) = 69.26937 71.14664 71.78630
#
# Poissons Ratio (x) = 0.20051 0.34035
# Poissons Ratio (y) = 0.19522 0.04358
# Poissons Ratio (z) = 0.32842 0.04319
#
# Static dielectric constant tensor:
#      x y z
#    x 1.733960 -0.000270 -0.001140 
#    y -0.000270 1.831100 0.090350 
#    z -0.001140 0.090350 1.859390 
# 
# From -- ./inp_files/380468.got.cif
#   From: 2010.05.17/outbox.cif.g08.bks.cpg/sg2_191_cif.got.tgz:380468.got - 2010.06.03 11:33:40.
