data_PCOD9103760
_publ_section_title
;
Structure prediction by ZEFSAII (Michael W. Deem and Ramdas Pophale) SiO2 
 PCOD9103760
Probable space group: P -1
;
_chemical_formula_sum "Si O2"
_cell_formula_units_Z 14
_cell_length_a 18.201969
_cell_length_b 7.531938
_cell_length_c 7.600226
_cell_angle_alpha 52.971071
_cell_angle_beta 128.430786
_cell_angle_gamma 139.879457
_cell_volume 509.083119
_symmetry_space_group_name_H-M "P -1"
_symmetry_group_IT_number 2
_symmetry_cell_setting 'triclinic'
loop_
_space_group_symop_operation_xyz
x,y,z
-x,-y,-z
loop_
_atom_site_type_symbol
_atom_site_label
_atom_site_fract_x
_atom_site_fract_y
_atom_site_fract_z
Si Si1 0.035705 0.723622 0.267078
Si Si2 0.768476 0.477080 0.049410
Si Si3 0.682950 0.294122 0.651548
Si Si4 0.114006 0.096089 0.457935
Si Si5 0.424862 0.104962 0.771872
Si Si6 0.867171 0.994282 0.100931
Si Si7 0.528249 0.705406 0.677223
O O1 0.000000 0.500000 0.500000
O O2 0.905792 0.644228 0.093975
O O3 0.133483 0.014337 0.345626
O O4 0.088035 0.767322 0.123230
O O5 0.765781 0.689877 0.042907
O O6 0.711936 0.181733 0.241055
O O7 0.692177 0.376648 0.818760
O O8 0.804548 0.567736 0.587171
O O9 0.577218 0.286861 0.416729
O O10 0.649338 0.984974 0.776885
O O11 0.145542 0.966057 0.736802
O O12 0.977611 0.979808 0.305068
O O13 0.473462 0.379193 0.800517
O O14 0.445573 0.207303 0.541218
O O15 0.500000 0.000000 0.000000
#
# Coordination Sequence:
#
# PCOD9103760 Si02
#       7
#     2   2   2   2   2   2   2
#     4  11  23  39  62  99 136 174 225 277 339 421
#     4  11  21  39  68  90 132 179 218 282 347 394
#     4  11  20  42  67  98 133 180 224 288 340 411
#     4  10  20  38  68  90 131 176 222 274 340 406
#     4  11  23  44  65  96 132 180 229 286 338 407
#     4  10  20  39  64  94 124 178 221 274 340 407
#     4  10  25  41  66  96 135 176 235 280 342 408
#
# _framework density 27.500423000000001
#
# number of rings (size 3 to 8) (size 9 to 14) (size 15 to 20)
#    0.000    1.429    4.286    1.714    2.000    1.143 
#    0.000    1.429    0.000    0.000    0.000    0.000 
#    0.000    0.000    0.000    0.000    0.000    0.000 
#
# Total GULP energy -78256.664070 kJ/mol
# GULP energy per Si atom -5589.761719 kJ/mol
# Density = 2.743783 g / cm^3
# Si number density = 27.500423 Si / 1000 Ang^3
#
#
#
# Elastic Constant Matrix: (Units=GPa)
#
#
# Indices 1 2 3 4 5 6 
#
# 1 47.6408 38.0582 11.4011 -7.1831 -5.4538 0.3587
# 2 38.0582 208.9305 33.7492 -21.2835 -8.6991 -9.5855
# 3 11.4011 33.7492 131.9370 -16.2726 -29.2114 -7.8846
# 4 -7.1831 -21.2835 -16.2726 51.2476 -2.4849 -2.9072
# 5 -5.4538 -8.6991 -29.2114 -2.4849 39.7404 -9.5505
# 6 0.3587 -9.5855 -7.8846 -2.9072 -9.5505 36.0293
#
#
#
# Elastic Compliance Matrix: (Units=1/GPa)
#
#
# Indices 1 2 3 4 5 6 
#
# 1 0.024996 -0.004263 -0.000456 0.001644 0.002072 -0.000801
# 2 -0.004263 0.005971 -0.000645 0.001822 0.000806 0.001851
# 3 -0.000456 -0.000645 0.010495 0.003703 0.008893 0.004786
# 4 0.001644 0.001822 0.003703 0.022222 0.005847 0.004622
# 5 0.002072 0.000806 0.008893 0.005847 0.035410 0.011998
# 6 -0.000801 0.001851 0.004786 0.004622 0.011998 0.032856
#
#
# Mechanical properties :
#
#
# Convention : Reuss Voigt Hill
#
# Bulk Modulus (GPa) = 32.53636 61.65837 47.09736
# Shear Modulus (GPa) = 32.69641 45.75678 39.22659
#
# Velocity S-wave (km/s) = 3.45184 4.08347 3.78087
# Velocity P-wave (km/s) = 5.26725 6.68599 6.01857
#
# Compressibility (1/GPa) = 0.03073485
#
# Stress axis : x y z
#
# Youngs Moduli (GPa) = 40.00679 167.47637 95.27945
#
# Poissons Ratio (x) = 0.71387 0.04344
# Poissons Ratio (y) = 0.17053 0.06148
# Poissons Ratio (z) = 0.01824 0.10806
#
# Static dielectric constant tensor:
#      x y z
#    x 2.228150 0.005030 -0.014690 
#    y 0.005030 2.263550 -0.073160 
#    z -0.014690 -0.073160 2.265320 
# 
# From -- ./inp_files/241600.got.cif
#   From: 2010.05.17/outbox.cif.g08.bks.cpg/sg2_121_cif.got.tgz:241600.got - 2010.06.03 11:33:40.
