data_PCOD9103837
_publ_section_title
;
Structure prediction by ZEFSAII (Michael W. Deem and Ramdas Pophale) SiO2 
 PCOD9103837
Probable space group: P -1
;
_chemical_formula_sum "Si O2"
_cell_formula_units_Z 12
_cell_length_a 13.943787
_cell_length_b 7.684439
_cell_length_c 9.835870
_cell_angle_alpha 37.351358
_cell_angle_beta 109.395934
_cell_angle_gamma 126.441201
_cell_volume 492.740568
_symmetry_space_group_name_H-M "P -1"
_symmetry_group_IT_number 2
_symmetry_cell_setting 'triclinic'
loop_
_space_group_symop_operation_xyz
x,y,z
-x,-y,-z
loop_
_atom_site_type_symbol
_atom_site_label
_atom_site_fract_x
_atom_site_fract_y
_atom_site_fract_z
Si Si1 0.400485 0.982052 0.865955
Si Si2 0.609067 0.448638 0.110225
Si Si3 0.191131 0.776744 0.323144
Si Si4 0.855339 0.275067 0.099129
Si Si5 0.670747 0.525737 0.404315
Si Si6 0.056946 0.415626 0.766932
O O1 0.415875 0.869004 0.795583
O O2 0.255721 0.696877 0.023148
O O3 0.500000 0.000000 0.000000
O O4 0.406076 0.336614 0.654327
O O5 0.624364 0.411912 0.299639
O O6 0.500000 0.500000 0.000000
O O7 0.738187 0.805674 0.901993
O O8 0.298803 0.730698 0.358495
O O9 0.136452 0.600448 0.553530
O O10 0.068415 0.594335 0.286901
O O11 0.856861 0.346588 0.216058
O O12 0.806818 0.894700 0.253845
O O13 0.000000 0.500000 0.000000
O O14 0.000000 0.000000 0.000000
#
# Coordination Sequence:
#
# PCOD9103837 Si02
#       6
#     2   2   2   2   2   2
#     4  10  22  43  67 100 137 187 227 281 353 412
#     4  12  23  46  73  94 144 188 227 292 347 411
#     4  11  24  41  69 107 132 186 234 284 355 417
#     4  10  20  38  68  97 133 179 227 283 345 406
#     4  10  24  43  66 102 137 176 237 285 345 406
#     4  11  23  43  70  99 146 179 229 291 355 411
#
# _framework density 24.353587000000001
#
# number of rings (size 3 to 8) (size 9 to 14) (size 15 to 20)
#    1.000    0.333    1.667    5.000    0.000    2.667 
#    3.000    0.833    0.000    0.000    0.000    0.000 
#    0.000    0.000    0.000    0.000    0.000    0.000 
#
# Total GULP energy -66972.335017 kJ/mol
# GULP energy per Si atom -5581.027918 kJ/mol
# Density = 2.429816 g / cm^3
# Si number density = 24.353587 Si / 1000 Ang^3
#
#
#
# Elastic Constant Matrix: (Units=GPa)
#
#
# Indices 1 2 3 4 5 6 
#
# 1 158.7855 66.2748 43.0919 7.5947 28.1722 17.9255
# 2 66.2748 188.8857 35.9038 11.2078 17.8081 -1.0066
# 3 43.0919 35.9038 41.7499 -3.1695 9.6635 -2.5897
# 4 7.5947 11.2078 -3.1695 36.7054 5.3233 8.2098
# 5 28.1722 17.8081 9.6635 5.3233 53.8775 -5.7038
# 6 17.9255 -1.0066 -2.5897 8.2098 -5.7038 67.1642
#
#
#
# Elastic Compliance Matrix: (Units=1/GPa)
#
#
# Indices 1 2 3 4 5 6 
#
# 1 0.010431 -0.001584 -0.008872 -0.001182 -0.003573 -0.003308
# 2 -0.001584 0.006835 -0.004285 -0.002208 -0.000381 0.000597
# 3 -0.008872 -0.004285 0.037646 0.005874 -0.000965 0.002955
# 4 -0.001182 -0.002208 0.005874 0.029867 -0.003016 -0.003398
# 5 -0.003573 -0.000381 -0.000965 -0.003016 0.021353 0.003093
# 6 -0.003308 0.000597 0.002955 -0.003398 0.003093 0.016573
#
#
# Mechanical properties :
#
#
# Convention : Reuss Voigt Hill
#
# Bulk Modulus (GPa) = 39.32330 75.55134 57.43732
# Shear Modulus (GPa) = 31.12112 47.82614 39.47363
#
# Velocity S-wave (km/s) = 3.57863 4.43631 4.03035
# Velocity P-wave (km/s) = 5.76692 7.57174 6.73010
#
# Compressibility (1/GPa) = 0.02543022
#
# Stress axis : x y z
#
# Youngs Moduli (GPa) = 95.87240 146.31462 26.56299
#
# Poissons Ratio (x) = 0.23178 0.23566
# Poissons Ratio (y) = 0.15187 0.11382
# Poissons Ratio (z) = 0.85054 0.62695
#
# Static dielectric constant tensor:
#      x y z
#    x 2.053570 -0.005270 -0.019500 
#    y -0.005270 1.940130 -0.052850 
#    z -0.019500 -0.052850 1.967420 
# 
# From -- ./inp_files/446553.got.cif
#   From: 2010.05.17/outbox.cif.g08.bks.cpg/sg2_224_cif.got.tgz:446553.got - 2010.06.03 11:33:40.
