data_PCOD9103377
_publ_section_title
;
Structure prediction by ZEFSAII (Michael W. Deem and Ramdas Pophale) SiO2 
 PCOD9103377
Probable space group: P -1
;
_chemical_formula_sum "Si O2"
_cell_formula_units_Z 16
_cell_length_a 11.974806
_cell_length_b 13.282148
_cell_length_c 15.769611
_cell_angle_alpha 147.400571
_cell_angle_beta 127.134135
_cell_angle_gamma 30.696445
_cell_volume 619.811010
_symmetry_space_group_name_H-M "P -1"
_symmetry_group_IT_number 2
_symmetry_cell_setting 'triclinic'
loop_
_space_group_symop_operation_xyz
x,y,z
-x,-y,-z
loop_
_atom_site_type_symbol
_atom_site_label
_atom_site_fract_x
_atom_site_fract_y
_atom_site_fract_z
Si Si1 0.447394 0.465236 0.840800
Si Si2 0.469797 0.745580 0.455999
Si Si3 0.925726 0.389386 0.185505
Si Si4 0.055856 0.731776 0.367545
Si Si5 0.512253 0.206378 0.980993
Si Si6 0.952711 0.465106 0.056244
Si Si7 0.435594 0.726179 0.749679
Si Si8 0.266095 0.202342 0.449039
O O1 0.413822 0.461563 0.722941
O O2 0.184499 0.700364 0.925190
O O3 0.630038 0.118715 0.721116
O O4 0.556538 0.551552 0.944478
O O5 0.541968 0.523789 0.407055
O O6 0.572281 0.842606 0.570403
O O7 0.177277 0.053991 0.528258
O O8 0.914294 0.456923 0.130995
O O9 0.762762 0.679753 0.385232
O O10 0.205338 0.126471 0.149458
O O11 0.337460 0.436575 0.314592
O O12 0.033164 0.593143 0.189104
O O13 0.000000 0.000000 0.500000
O O14 0.304405 0.281268 0.926597
O O15 0.517736 0.253490 0.117163
O O16 0.173136 0.090204 0.861395
O O17 0.000000 0.500000 0.500000
#
# Coordination Sequence:
#
# PCOD9103377 Si02
#       8
#     2   2   2   2   2   2   2   2
#     4  10  20  39  58  85 127 162 195 243 296 351
#     4   9  19  38  61  82 118 160 200 239 297 350
#     4  10  22  40  59  89 122 162 197 241 296 353
#     4  10  20  38  66  86 113 159 199 245 305 350
#     4  10  23  38  61  91 120 157 202 246 291 356
#     4  11  22  38  64  86 120 153 199 245 302 352
#     4   9  21  40  62  86 118 157 197 252 298 347
#     4  11  23  35  61  89 123 157 199 242 292 352
#
# _framework density 25.814319000000001
#
# number of rings (size 3 to 8) (size 9 to 14) (size 15 to 20)
#    0.000    2.000    0.000    3.750    5.250    2.000 
#    0.000    0.000    2.750    6.000    0.000    0.000 
#    0.000    0.000    0.000    0.000    0.000    0.000 
#
# Total GULP energy -89389.083693 kJ/mol
# GULP energy per Si atom -5586.817731 kJ/mol
# Density = 2.575556 g / cm^3
# Si number density = 25.814319 Si / 1000 Ang^3
#
#
#
# Elastic Constant Matrix: (Units=GPa)
#
#
# Indices 1 2 3 4 5 6 
#
# 1 147.4969 40.7547 24.9192 5.8019 -1.8866 -31.8273
# 2 40.7547 101.1071 16.2190 23.7682 -0.3921 -10.9128
# 3 24.9192 16.2190 54.6998 23.6439 -3.6539 -7.0340
# 4 5.8019 23.7682 23.6439 33.4452 -4.8460 -11.9355
# 5 -1.8866 -0.3921 -3.6539 -4.8460 39.0871 5.2699
# 6 -31.8273 -10.9128 -7.0340 -11.9355 5.2699 39.9031
#
#
#
# Elastic Compliance Matrix: (Units=1/GPa)
#
#
# Indices 1 2 3 4 5 6 
#
# 1 0.010593 -0.004389 -0.006200 0.008777 -0.000212 0.008809
# 2 -0.004389 0.013757 0.002712 -0.012047 -0.000945 -0.002739
# 3 -0.006200 0.002712 0.029997 -0.024221 0.000366 -0.006208
# 4 0.008777 -0.012047 -0.024221 0.060652 0.003246 0.017149
# 5 -0.000212 -0.000945 0.000366 0.003246 0.026389 -0.002877
# 6 0.008809 -0.002739 -0.006208 0.017149 -0.002877 0.035753
#
#
# Mechanical properties :
#
#
# Convention : Reuss Voigt Hill
#
# Bulk Modulus (GPa) = 25.91001 51.89885 38.90443
# Shear Modulus (GPa) = 24.30041 37.24781 30.77411
#
# Velocity S-wave (km/s) = 3.07148 3.80269 3.45647
# Velocity P-wave (km/s) = 4.75789 6.27925 5.57075
#
# Compressibility (1/GPa) = 0.03859512
#
# Stress axis : x y z
#
# Youngs Moduli (GPa) = 94.40445 72.68956 33.33628
#
# Poissons Ratio (x) = 0.31900 0.20667
# Poissons Ratio (y) = 0.41430 -0.09041
# Poissons Ratio (z) = 0.58527 -0.19715
#
# Static dielectric constant tensor:
#      x y z
#    x 2.043810 -0.017990 0.025380 
#    y -0.017990 2.020470 -0.021830 
#    z 0.025380 -0.021830 2.155880 
# 
# From -- ./inp_files/595663.got.cif
#   From: 2010.05.17/outbox.cif.g08.bks.cpg/sg2_298_cif.got.tgz:595663.got - 2010.06.03 11:33:40.
