data_PCOD9103520
_publ_section_title
;
Structure prediction by ZEFSAII (Michael W. Deem and Ramdas Pophale) SiO2 
 PCOD9103520
Probable space group: P -1
;
_chemical_formula_sum "Si O2"
_cell_formula_units_Z 13
_cell_length_a 11.163243
_cell_length_b 7.069577
_cell_length_c 9.178156
_cell_angle_alpha 113.823543
_cell_angle_beta 87.907467
_cell_angle_gamma 63.006397
_cell_volume 568.549098
_symmetry_space_group_name_H-M "P -1"
_symmetry_group_IT_number 2
_symmetry_cell_setting 'triclinic'
loop_
_space_group_symop_operation_xyz
x,y,z
-x,-y,-z
loop_
_atom_site_type_symbol
_atom_site_label
_atom_site_fract_x
_atom_site_fract_y
_atom_site_fract_z
Si Si1 0.258894 0.480287 0.500110
Si Si2 0.969109 0.264250 0.627731
Si Si3 0.754267 0.174308 0.158135
Si Si4 0.142754 0.325792 0.852477
Si Si5 0.500000 0.000000 0.500000
Si Si6 0.230908 0.652579 0.069137
Si Si7 0.436208 0.583253 0.287078
O O1 0.127507 0.534659 0.422643
O O2 0.200445 0.681890 0.691946
O O3 0.365730 0.220334 0.479585
O O4 0.348644 0.547518 0.406793
O O5 0.880215 0.304200 0.790193
O O6 0.099085 0.289006 0.681968
O O7 0.000000 0.000000 0.500000
O O8 0.588901 0.348307 0.201487
O O9 0.786952 0.930559 0.154432
O O10 0.818100 0.139587 0.983639
O O11 0.245447 0.429775 0.902482
O O12 0.000000 0.500000 0.000000
O O13 0.547741 0.192217 0.603929
O O14 0.361472 0.611430 0.144464
#
# Coordination Sequence:
#
# PCOD9103520 Si02
#       7
#     2   2   2   2   1   2   2
#     4  10  22  41  67  95 131 168 208 270 316 376
#     4  10  20  44  66  89 128 174 213 258 316 377
#     4  11  21  39  64  94 128 167 212 266 313 378
#     4  10  23  41  64  90 130 170 211 259 323 374
#     4  10  20  38  66  96 126 156 222 254 316 370
#     4  10  24  40  65  94 130 166 210 266 318 374
#     4  10  23  41  64  95 132 168 208 266 322 381
#
# _framework density 22.865219
#
# number of rings (size 3 to 8) (size 9 to 14) (size 15 to 20)
#    0.000    1.846    1.538    2.308    0.000   11.692 
#    0.000    2.308    0.000    0.000    0.000    0.000 
#    0.000    0.000    0.000    0.000    0.000    0.000 
#
# Total GULP energy -72400.553946 kJ/mol
# GULP energy per Si atom -5569.273380 kJ/mol
# Density = 2.281318 g / cm^3
# Si number density = 22.865219 Si / 1000 Ang^3
#
#
#
# Elastic Constant Matrix: (Units=GPa)
#
#
# Indices 1 2 3 4 5 6 
#
# 1 100.2556 59.1744 52.6564 -6.4017 45.2636 -7.4353
# 2 59.1744 144.3072 50.0886 8.5696 35.2819 -10.9874
# 3 52.6564 50.0886 95.3140 -21.7211 31.1211 -9.5794
# 4 -6.4017 8.5696 -21.7211 37.8861 0.2141 6.8682
# 5 45.2636 35.2819 31.1211 0.2141 48.9558 -8.6688
# 6 -7.4353 -10.9874 -9.5794 6.8682 -8.6688 14.5780
#
#
#
# Elastic Compliance Matrix: (Units=1/GPa)
#
#
# Indices 1 2 3 4 5 6 
#
# 1 0.021275 -0.004084 -0.004685 0.002900 -0.014723 -0.005426
# 2 -0.004084 0.011102 -0.004426 -0.006915 -0.000231 0.006497
# 3 -0.004685 -0.004426 0.019673 0.011792 -0.005303 -0.001507
# 4 0.002900 -0.006915 0.011792 0.038795 -0.008817 -0.019505
# 5 -0.014723 -0.000231 -0.005303 -0.008817 0.040655 0.017160
# 6 -0.005426 0.006497 -0.001507 -0.019505 0.017160 0.089130
#
#
# Mechanical properties :
#
#
# Convention : Reuss Voigt Hill
#
# Bulk Modulus (GPa) = 38.96818 73.74618 56.35718
# Shear Modulus (GPa) = 19.56390 32.14780 25.85585
#
# Velocity S-wave (km/s) = 2.92827 3.75369 3.36638
# Velocity P-wave (km/s) = 5.33972 7.14909 6.30960
#
# Compressibility (1/GPa) = 0.02566196
#
# Stress axis : x y z
#
# Youngs Moduli (GPa) = 47.00256 90.07142 50.83134
#
# Poissons Ratio (x) = 0.36783 0.23814
# Poissons Ratio (y) = 0.19195 0.22496
# Poissons Ratio (z) = 0.22020 0.39863
#
# Static dielectric constant tensor:
#      x y z
#    x 1.918760 -0.013170 -0.018220 
#    y -0.013170 1.774380 -0.019900 
#    z -0.018220 -0.019900 1.940270 
# 
# From -- ./inp_files/23635.got.cif
#   From: 2010.05.17/outbox.cif.g08.bks.cpg/sg2_12_cif.got.tgz:23635.got - 2010.06.03 11:33:40.
