data_PCOD9103187
_publ_section_title
;
Structure prediction by ZEFSAII (Michael W. Deem and Ramdas Pophale) SiO2 
 PCOD9103187
Probable space group: P -1
;
_chemical_formula_sum "Si O2"
_cell_formula_units_Z 14
_cell_length_a 11.683986
_cell_length_b 8.065715
_cell_length_c 14.859930
_cell_angle_alpha 128.076983
_cell_angle_beta 151.131369
_cell_angle_gamma 49.258837
_cell_volume 508.346720
_symmetry_space_group_name_H-M "P -1"
_symmetry_group_IT_number 2
_symmetry_cell_setting 'triclinic'
loop_
_space_group_symop_operation_xyz
x,y,z
-x,-y,-z
loop_
_atom_site_type_symbol
_atom_site_label
_atom_site_fract_x
_atom_site_fract_y
_atom_site_fract_z
Si Si1 0.468817 0.471304 0.174382
Si Si2 0.586859 0.220640 0.547201
Si Si3 0.328173 0.174345 0.660631
Si Si4 0.887219 0.915407 0.805075
Si Si5 0.002729 0.356900 0.816378
Si Si6 0.910844 0.263395 0.521855
Si Si7 0.303168 0.880740 0.944589
O O1 0.540617 0.680298 0.257408
O O2 0.570221 0.286530 0.103581
O O3 0.626763 0.375703 0.339592
O O4 0.178643 0.509292 0.005008
O O5 0.296560 0.232520 0.350890
O O6 0.725705 0.402079 0.679562
O O7 0.688548 0.032157 0.477667
O O8 0.707502 0.113697 0.688377
O O9 0.061753 0.317027 0.559734
O O10 0.489039 0.097972 0.835406
O O11 0.108620 0.806715 0.850322
O O12 0.000000 0.000000 0.000000
O O13 0.990185 0.333585 0.693887
O O14 0.160839 0.119076 0.886253
O O15 0.000000 0.000000 0.500000
#
# Coordination Sequence:
#
# PCOD9103187 Si02
#       7
#     2   2   2   2   2   2   2
#     4  12  25  39  59  96 135 164 192 250 325 372
#     4  10  22  39  63  95 118 156 217 257 297 361
#     4  12  23  39  61  96 133 161 196 255 318 375
#     4  10  20  38  65  92 114 158 215 268 292 342
#     4  11  23  38  61  92 124 162 210 253 298 371
#     4  12  21  37  60  87 127 165 206 247 301 369
#     4  11  21  38  64  91 124 162 208 252 302 364
#
# _framework density 27.540257
#
# number of rings (size 3 to 8) (size 9 to 14) (size 15 to 20)
#    0.000    0.857    5.714    3.000    0.000    0.000 
#    0.000    0.000    0.000    8.571    0.000    0.000 
#    0.000    0.000    0.000    0.000    0.000    0.000 
#
# Total GULP energy -78584.403382 kJ/mol
# GULP energy per Si atom -5613.171670 kJ/mol
# Density = 2.747757 g / cm^3
# Si number density = 27.540257 Si / 1000 Ang^3
#
#
#
# Elastic Constant Matrix: (Units=GPa)
#
#
# Indices 1 2 3 4 5 6 
#
# 1 159.7210 25.5423 68.6914 12.7540 29.7447 2.5569
# 2 25.5423 78.6912 37.2195 -2.7465 4.9382 15.9901
# 3 68.6914 37.2195 228.4641 -11.4484 11.8298 10.0628
# 4 12.7540 -2.7465 -11.4484 40.8427 12.7177 7.6190
# 5 29.7447 4.9382 11.8298 12.7177 80.3768 8.9802
# 6 2.5569 15.9901 10.0628 7.6190 8.9802 39.1630
#
#
#
# Elastic Compliance Matrix: (Units=1/GPa)
#
#
# Indices 1 2 3 4 5 6 
#
# 1 0.008180 -0.001940 -0.002257 -0.002956 -0.002325 0.001946
# 2 -0.001940 0.015408 -0.001554 0.002272 0.000343 -0.006286
# 3 -0.002257 -0.001554 0.005481 0.002376 -0.000134 -0.001058
# 4 -0.002956 0.002272 0.002376 0.028366 -0.003198 -0.006130
# 5 -0.002325 0.000343 -0.000134 -0.003198 0.014093 -0.002563
# 6 0.001946 -0.006286 -0.001058 -0.006130 -0.002563 0.030026
#
#
# Mechanical properties :
#
#
# Convention : Reuss Voigt Hill
#
# Bulk Modulus (GPa) = 56.92506 81.08697 69.00601
# Shear Modulus (GPa) = 42.04840 54.43802 48.24321
#
# Velocity S-wave (km/s) = 3.91167 4.45080 4.18991
# Velocity P-wave (km/s) = 6.41219 7.47796 6.96548
#
# Compressibility (1/GPa) = 0.01756696
#
# Stress axis : x y z
#
# Youngs Moduli (GPa) = 122.25313 64.90279 182.43928
#
# Poissons Ratio (x) = 0.12594 0.41171
# Poissons Ratio (y) = 0.23723 0.28345
# Poissons Ratio (z) = 0.27589 0.10084
#
# Static dielectric constant tensor:
#      x y z
#    x 2.182220 -0.020690 0.089210 
#    y -0.020690 2.173090 -0.018520 
#    z 0.089210 -0.018520 2.105640 
# 
# From -- ./inp_files/306929.got.cif
#   From: 2010.05.17/outbox.cif.g08.bks.cpg/sg2_154_cif.got.tgz:306929.got - 2010.06.03 11:33:40.
