data_PCOD9103283
_publ_section_title
;
Structure prediction by ZEFSAII (Michael W. Deem and Ramdas Pophale) SiO2 
 PCOD9103283
Probable space group: P -1
;
_chemical_formula_sum "Si O2"
_cell_formula_units_Z 14
_cell_length_a 9.252465
_cell_length_b 16.306520
_cell_length_c 9.624146
_cell_angle_alpha 111.638809
_cell_angle_beta 125.133680
_cell_angle_gamma 33.813060
_cell_volume 641.452127
_symmetry_space_group_name_H-M "P -1"
_symmetry_group_IT_number 2
_symmetry_cell_setting 'triclinic'
loop_
_space_group_symop_operation_xyz
x,y,z
-x,-y,-z
loop_
_atom_site_type_symbol
_atom_site_label
_atom_site_fract_x
_atom_site_fract_y
_atom_site_fract_z
Si Si1 0.359035 0.868345 0.645960
Si Si2 0.363734 0.968362 0.326856
Si Si3 0.180953 0.337065 0.468341
Si Si4 0.291768 0.764684 0.737730
Si Si5 0.587234 0.463795 0.186511
Si Si6 0.734870 0.342058 0.610678
Si Si7 0.580651 0.951738 0.172701
O O1 0.603530 0.732773 0.587397
O O2 0.436153 0.800460 0.801316
O O3 0.401157 0.955532 0.706415
O O4 0.000000 0.000000 0.500000
O O5 0.589436 0.795272 0.372449
O O6 0.352468 0.993641 0.173194
O O7 0.500000 0.000000 0.500000
O O8 0.034678 0.086161 0.282164
O O9 0.000000 0.500000 0.500000
O O10 0.929517 0.362393 0.323788
O O11 0.436094 0.626524 0.820794
O O12 0.268441 0.737451 0.549087
O O13 0.385385 0.608760 0.266736
O O14 0.500000 0.500000 0.000000
O O15 0.500000 0.500000 0.500000
O O16 0.086337 0.226767 0.738123
O O17 0.500000 0.000000 0.000000
#
# Coordination Sequence:
#
# PCOD9103283 Si02
#       7
#     2   2   2   2   2   2   2
#     4  12  22  43  70 100 133 179 232 283 335 415
#     4  12  19  44  72  96 129 183 233 270 338 419
#     4  12  25  42  72 104 136 176 236 285 335 413
#     4  11  21  41  71  95 126 183 231 275 330 420
#     4  11  25  42  67  96 140 179 222 285 353 401
#     4  10  20  38  65  95 128 173 232 269 335 410
#     4  12  26  41  69 103 138 178 231 292 349 407
#
# _framework density 21.825479999999999
#
# number of rings (size 3 to 8) (size 9 to 14) (size 15 to 20)
#    0.000    0.571    7.143    1.714    4.000    1.143 
#    2.571    1.429    0.000    0.000    0.000    0.000 
#    0.000    0.000    0.000    0.000    0.000    0.000 
#
# Total GULP energy -78092.934990 kJ/mol
# GULP energy per Si atom -5578.066785 kJ/mol
# Density = 2.177580 g / cm^3
# Si number density = 21.825480 Si / 1000 Ang^3
#
#
#
# Elastic Constant Matrix: (Units=GPa)
#
#
# Indices 1 2 3 4 5 6 
#
# 1 147.2155 48.4688 17.3070 3.8333 -44.3077 -11.4321
# 2 48.4688 158.7825 25.7397 7.8149 -19.1287 -5.6459
# 3 17.3070 25.7397 51.1186 11.8095 -37.3939 -6.5602
# 4 3.8333 7.8149 11.8095 16.2548 -7.1781 -14.3980
# 5 -44.3077 -19.1287 -37.3939 -7.1781 36.3772 0.5044
# 6 -11.4321 -5.6459 -6.5602 -14.3980 0.5044 52.8308
#
#
#
# Elastic Compliance Matrix: (Units=1/GPa)
#
#
# Indices 1 2 3 4 5 6 
#
# 1 0.114341 -0.029557 0.291222 0.014451 0.425139 0.057625
# 2 -0.029557 0.014512 -0.078208 -0.004609 -0.109468 -0.014767
# 3 0.291222 -0.078208 0.831663 0.014577 1.169279 0.150739
# 4 0.014451 -0.004609 0.014577 0.098872 0.049244 0.030920
# 5 0.425139 -0.109468 1.169279 0.049244 1.696337 0.222716
# 6 0.057625 -0.014767 0.150739 0.030920 0.222716 0.054838
#
#
# Mechanical properties :
#
#
# Convention : Reuss Voigt Hill
#
# Bulk Modulus (GPa) = 0.75334 60.01639 30.38486
# Shear Modulus (GPa) = 1.73243 38.79930 20.26586
#
# Velocity S-wave (km/s) = 0.89190 4.22086 3.05050
# Velocity P-wave (km/s) = 1.18599 7.16326 5.13414
#
# Compressibility (1/GPa) = 1.32743040
#
# Stress axis : x y z
#
# Youngs Moduli (GPa) = 8.74580 68.90675 1.20241
#
# Poissons Ratio (x) = 2.03669 -0.35017
# Poissons Ratio (y) = 0.25850 0.09404
# Poissons Ratio (z) = -2.54697 5.38904
#
# Static dielectric constant tensor:
#      x y z
#    x 1.859910 0.138930 0.098910 
#    y 0.138930 1.946860 0.098110 
#    z 0.098910 0.098110 1.840300 
# 
# From -- ./inp_files/218086.got.cif
#   From: 2010.05.17/outbox.cif.g08.bks.cpg/sg2_110_cif.got.tgz:218086.got - 2010.06.03 11:33:40.
