data_PCOD9103806
_publ_section_title
;
Structure prediction by ZEFSAII (Michael W. Deem and Ramdas Pophale) SiO2 
 PCOD9103806
Probable space group: P -1
;
_chemical_formula_sum "Si O2"
_cell_formula_units_Z 15
_cell_length_a 14.536501
_cell_length_b 11.732111
_cell_length_c 14.018993
_cell_angle_alpha 30.344840
_cell_angle_beta 142.504282
_cell_angle_gamma 122.039836
_cell_volume 636.126137
_symmetry_space_group_name_H-M "P -1"
_symmetry_group_IT_number 2
_symmetry_cell_setting 'triclinic'
loop_
_space_group_symop_operation_xyz
x,y,z
-x,-y,-z
loop_
_atom_site_type_symbol
_atom_site_label
_atom_site_fract_x
_atom_site_fract_y
_atom_site_fract_z
Si Si1 0.856740 0.788585 0.561526
Si Si2 0.197992 0.777854 0.657186
Si Si3 0.255930 0.488654 0.185051
Si Si4 0.187041 0.234105 0.859467
Si Si5 0.582114 0.720844 0.721528
Si Si6 0.312534 0.620321 0.668941
Si Si7 0.000000 0.000000 0.000000
Si Si8 0.799723 0.001633 0.157130
O O1 0.768466 0.648030 0.644302
O O2 0.818715 0.823749 0.392672
O O3 0.783855 0.069196 0.349302
O O4 0.063215 0.634667 0.869715
O O5 0.304440 0.755282 0.665990
O O6 0.996048 0.944900 0.340795
O O7 0.235276 0.493643 0.925632
O O8 0.387277 0.293761 0.355185
O O9 0.304012 0.702767 0.104963
O O10 0.312505 0.356811 0.886317
O O11 0.250684 0.073906 0.928355
O O12 0.000000 0.500000 0.500000
O O13 0.150946 0.071226 0.026861
O O14 0.467884 0.590859 0.752688
O O15 0.500000 0.000000 0.500000
O O16 0.138578 0.813944 0.328188
#
# Coordination Sequence:
#
# PCOD9103806 Si02
#       8
#     2   2   2   2   2   2   1   2
#     4  10  20  38  68  95 131 167 216 283 325 397
#     4  11  20  42  65  99 132 169 215 274 347 391
#     4  10  21  37  59 100 127 170 220 263 340 388
#     4  10  22  41  65  94 124 172 225 273 318 379
#     4  12  25  40  65 100 143 177 213 275 343 402
#     4  11  25  41  64  97 135 177 220 270 332 394
#     4  10  22  44  64  90 128 172 232 270 304 388
#     4  11  19  40  69  93 130 166 221 280 322 392
#
# _framework density 23.580228999999999
#
# number of rings (size 3 to 8) (size 9 to 14) (size 15 to 20)
#    0.000    1.333    5.333    2.000    1.867    2.133 
#    4.800    0.667    0.000    1.600    0.000    0.000 
#    0.000    0.000    0.000    0.000    0.000    0.000 
#
# Total GULP energy -83557.389286 kJ/mol
# GULP energy per Si atom -5570.492619 kJ/mol
# Density = 2.352656 g / cm^3
# Si number density = 23.580229 Si / 1000 Ang^3
#
#
#
# Elastic Constant Matrix: (Units=GPa)
#
#
# Indices 1 2 3 4 5 6 
#
# 1 200.5249 56.1777 29.6464 -20.3146 -24.9738 -3.4611
# 2 56.1777 76.0118 21.6034 -12.1592 -6.6071 -7.0134
# 3 29.6464 21.6034 68.0894 -18.8883 -13.1226 -11.4863
# 4 -20.3146 -12.1592 -18.8883 27.4969 -1.2058 3.3965
# 5 -24.9738 -6.6071 -13.1226 -1.2058 47.1925 -3.7177
# 6 -3.4611 -7.0134 -11.4863 3.3965 -3.7177 33.4675
#
#
#
# Elastic Compliance Matrix: (Units=1/GPa)
#
#
# Indices 1 2 3 4 5 6 
#
# 1 0.006928 -0.004300 -0.000201 0.003244 0.003072 -0.000241
# 2 -0.004300 0.017673 -0.002779 0.002465 -0.000352 0.002016
# 3 -0.000201 -0.002779 0.021486 0.012896 0.006294 0.006161
# 4 0.003244 0.002465 0.012896 0.048884 0.006983 0.001093
# 5 0.003072 -0.000352 0.006294 0.006983 0.025048 0.004478
# 6 -0.000241 0.002016 0.006161 0.001093 0.004478 0.032778
#
#
# Mechanical properties :
#
#
# Convention : Reuss Voigt Hill
#
# Bulk Modulus (GPa) = 31.71889 62.16457 46.94173
# Shear Modulus (GPa) = 28.11095 37.44462 32.77778
#
# Velocity S-wave (km/s) = 3.45648 3.98925 3.73239
# Velocity P-wave (km/s) = 5.42314 6.90211 6.20683
#
# Compressibility (1/GPa) = 0.03152695
#
# Stress axis : x y z
#
# Youngs Moduli (GPa) = 144.33591 56.58299 46.54231
#
# Poissons Ratio (x) = 0.24329 0.00937
# Poissons Ratio (y) = 0.62059 0.12935
# Poissons Ratio (z) = 0.02905 0.15726
#
# Static dielectric constant tensor:
#      x y z
#    x 1.895820 0.035500 0.057960 
#    y 0.035500 1.960250 0.058410 
#    z 0.057960 0.058410 2.039240 
# 
# From -- ./inp_files/532294.got.cif
#   From: 2010.05.17/outbox.cif.g08.bks.cpg/sg2_267_cif.got.tgz:532294.got - 2010.06.03 11:33:40.
