data_PCOD9103839
_publ_section_title
;
Structure prediction by ZEFSAII (Michael W. Deem and Ramdas Pophale) SiO2 
 PCOD9103839
Probable space group: P -1
;
_chemical_formula_sum "Si O2"
_cell_formula_units_Z 14
_cell_length_a 8.805040
_cell_length_b 9.082381
_cell_length_c 15.509856
_cell_angle_alpha 144.684818
_cell_angle_beta 69.319257
_cell_angle_gamma 111.563512
_cell_volume 663.542053
_symmetry_space_group_name_H-M "P -1"
_symmetry_group_IT_number 2
_symmetry_cell_setting 'triclinic'
loop_
_space_group_symop_operation_xyz
x,y,z
-x,-y,-z
loop_
_atom_site_type_symbol
_atom_site_label
_atom_site_fract_x
_atom_site_fract_y
_atom_site_fract_z
Si Si1 0.017957 0.200932 0.362700
Si Si2 0.394667 0.138127 0.293111
Si Si3 0.841761 0.013033 0.481909
Si Si4 0.387022 0.777204 0.970734
Si Si5 0.905387 0.981780 0.918518
Si Si6 0.548749 0.666489 0.441675
Si Si7 0.654689 0.450909 0.727005
O O1 0.903731 0.071771 0.400419
O O2 0.000000 0.500000 0.500000
O O3 0.208171 0.196764 0.349635
O O4 0.989159 0.058116 0.207610
O O5 0.518122 0.368252 0.333111
O O6 0.447696 0.160688 0.391737
O O7 0.392913 0.879823 0.116463
O O8 0.752308 0.242803 0.649310
O O9 0.714983 0.756403 0.400301
O O10 0.000000 0.000000 0.500000
O O11 0.206234 0.794531 0.975383
O O12 0.484301 0.533434 0.833236
O O13 0.500000 0.000000 0.000000
O O14 0.778561 0.714525 0.818977
O O15 0.000000 0.000000 0.000000
O O16 0.398137 0.685532 0.418518
#
# Coordination Sequence:
#
# PCOD9103839 Si02
#       7
#     2   2   2   2   2   2   2
#     4  11  20  41  65  99 131 164 223 274 320 396
#     4  10  20  38  68  98 119 173 224 265 324 393
#     4  12  25  41  66 100 141 170 210 282 339 382
#     4   9  18  39  63  93 129 162 222 274 312 388
#     4  10  21  39  68  97 127 171 224 272 323 380
#     4  11  21  39  68  96 130 169 218 267 329 388
#     4  11  22  42  61  96 126 173 221 264 326 395
#
# _framework density 21.098890000000001
#
# number of rings (size 3 to 8) (size 9 to 14) (size 15 to 20)
#    0.000    1.429    7.143    0.429    0.000    2.286 
#    7.714    0.714    3.143    2.571    0.000    0.000 
#    0.000    0.000    0.000    0.000    0.000    0.000 
#
# Total GULP energy -78050.464917 kJ/mol
# GULP energy per Si atom -5575.033208 kJ/mol
# Density = 2.105087 g / cm^3
# Si number density = 21.098890 Si / 1000 Ang^3
#
#
#
# Elastic Constant Matrix: (Units=GPa)
#
#
# Indices 1 2 3 4 5 6 
#
# 1 137.1912 43.1293 84.3164 -7.7765 4.7781 -12.2772
# 2 43.1293 105.9407 32.3689 -15.8963 -5.4913 22.0041
# 3 84.3164 32.3689 129.6966 -24.1882 -15.1120 -20.0004
# 4 -7.7765 -15.8963 -24.1882 24.6423 -8.3136 0.1902
# 5 4.7781 -5.4913 -15.1120 -8.3136 42.8240 4.8730
# 6 -12.2772 22.0041 -20.0004 0.1902 4.8730 34.8813
#
#
#
# Elastic Compliance Matrix: (Units=1/GPa)
#
#
# Indices 1 2 3 4 5 6 
#
# 1 0.017420 -0.006982 -0.013042 -0.015554 -0.010993 0.004678
# 2 -0.006982 0.016905 0.001526 0.012832 0.007497 -0.013364
# 3 -0.013042 0.001526 0.022635 0.023637 0.013613 0.005395
# 4 -0.015554 0.012832 0.023637 0.076297 0.027013 -0.004206
# 5 -0.010993 0.007497 0.013613 0.027013 0.036271 -0.006007
# 6 0.004678 -0.013364 0.005395 -0.004206 -0.006007 0.042701
#
#
# Mechanical properties :
#
#
# Convention : Reuss Voigt Hill
#
# Bulk Modulus (GPa) = 50.09381 76.93975 63.51678
# Shear Modulus (GPa) = 19.54038 34.67046 27.10542
#
# Velocity S-wave (km/s) = 3.04655 4.05808 3.58814
# Velocity P-wave (km/s) = 6.01408 7.64871 6.88012
#
# Compressibility (1/GPa) = 0.01996255
#
# Stress axis : x y z
#
# Youngs Moduli (GPa) = 57.40673 59.15286 44.17980
#
# Poissons Ratio (x) = 0.41300 0.57620
# Poissons Ratio (y) = 0.40081 -0.06740
# Poissons Ratio (z) = 0.74871 -0.09025
#
# Static dielectric constant tensor:
#      x y z
#    x 1.631450 0.150720 -0.057000 
#    y 0.150720 1.614740 0.032210 
#    z -0.057000 0.032210 1.801730 
# 
# From -- ./inp_files/495798.got.cif
#   From: 2010.05.17/outbox.cif.g08.bks.cpg/sg2_248_cif.got.tgz:495798.got - 2010.06.03 11:33:40.
