data_PCOD9103406
_publ_section_title
;
Structure prediction by ZEFSAII (Michael W. Deem and Ramdas Pophale) SiO2 
 PCOD9103406
Probable space group: P -1
;
_chemical_formula_sum "Si O2"
_cell_formula_units_Z 16
_cell_length_a 18.285152
_cell_length_b 5.248594
_cell_length_c 12.175585
_cell_angle_alpha 79.451237
_cell_angle_beta 42.142437
_cell_angle_gamma 58.257698
_cell_volume 621.336586
_symmetry_space_group_name_H-M "P -1"
_symmetry_group_IT_number 2
_symmetry_cell_setting 'triclinic'
loop_
_space_group_symop_operation_xyz
x,y,z
-x,-y,-z
loop_
_atom_site_type_symbol
_atom_site_label
_atom_site_fract_x
_atom_site_fract_y
_atom_site_fract_z
Si Si1 0.209973 0.410103 0.787007
Si Si2 0.214085 0.715045 0.955108
Si Si3 0.386475 0.190539 0.973001
Si Si4 0.980264 0.682326 0.618450
Si Si5 0.553161 0.480280 0.763699
Si Si6 0.993382 0.397337 0.176311
Si Si7 0.772139 0.311931 0.703817
Si Si8 0.451746 0.744737 0.634845
O O1 0.200717 0.692064 0.840245
O O2 0.150886 0.451322 0.729333
O O3 0.365378 0.106460 0.654664
O O4 0.097393 0.409159 0.983261
O O5 0.279883 0.389352 0.976451
O O6 0.329129 0.769792 0.832156
O O7 0.071695 0.014598 0.131902
O O8 0.499503 0.260919 0.832385
O O9 0.452019 0.817523 0.915270
O O10 0.312342 0.362571 0.155791
O O11 0.005800 0.481842 0.714524
O O12 0.000000 0.500000 0.500000
O O13 0.096626 0.734547 0.487468
O O14 0.832676 0.017912 0.745209
O O15 0.686968 0.307990 0.701238
O O16 0.560915 0.595212 0.623332
O O17 0.500000 0.500000 0.500000
#
# Coordination Sequence:
#
# PCOD9103406 Si02
#       8
#     2   2   2   2   2   2   2   2
#     4  10  21  39  67  93 123 174 222 281 338 400
#     4  10  20  38  66  89 125 170 220 280 338 395
#     4  11  23  43  74 100 135 178 230 285 333 414
#     4  11  27  42  64  96 138 184 222 285 343 407
#     4  11  25  44  71 103 134 182 229 283 340 411
#     4  10  22  41  63  94 126 169 231 278 333 405
#     4  11  26  43  65  99 133 182 228 280 348 401
#     4  10  23  40  59  97 133 170 219 278 343 408
#
# _framework density 25.750934999999998
#
# number of rings (size 3 to 8) (size 9 to 14) (size 15 to 20)
#    0.000    1.500    2.500    1.125    5.250    2.500 
#    2.250    0.000    0.000    0.000    0.000    0.000 
#    0.000    0.000    0.000    0.000    0.000    0.000 
#
# Total GULP energy -89506.957180 kJ/mol
# GULP energy per Si atom -5594.184824 kJ/mol
# Density = 2.569233 g / cm^3
# Si number density = 25.750935 Si / 1000 Ang^3
#
#
#
# Elastic Constant Matrix: (Units=GPa)
#
#
# Indices 1 2 3 4 5 6 
#
# 1 184.3828 19.3946 41.4764 -6.0014 6.4945 -27.0061
# 2 19.3946 40.3086 3.9830 -2.9930 0.0926 -0.7298
# 3 41.4764 3.9830 71.0676 3.3253 9.3478 -9.1923
# 4 -6.0014 -2.9930 3.3253 24.4621 6.0899 10.0308
# 5 6.4945 0.0926 9.3478 6.0899 51.1362 -2.0475
# 6 -27.0061 -0.7298 -9.1923 10.0308 -2.0475 42.7406
#
#
#
# Elastic Compliance Matrix: (Units=1/GPa)
#
#
# Indices 1 2 3 4 5 6 
#
# 1 0.007060 -0.002955 -0.003494 0.000430 -0.000162 0.003550
# 2 -0.002955 0.026470 -0.000200 0.003517 -0.000147 -0.002291
# 3 -0.003494 -0.000200 0.016843 -0.003516 -0.002131 0.002134
# 4 0.000430 0.003517 -0.003516 0.048224 -0.005642 -0.012012
# 5 -0.000162 -0.000147 -0.002131 -0.005642 0.020708 0.001753
# 6 0.003550 -0.002291 0.002134 -0.012012 0.001753 0.028963
#
#
# Mechanical properties :
#
#
# Convention : Reuss Voigt Hill
#
# Bulk Modulus (GPa) = 26.97386 47.27410 37.12398
# Shear Modulus (GPa) = 28.74794 39.06145 33.90470
#
# Velocity S-wave (km/s) = 3.34486 3.89896 3.63249
# Velocity P-wave (km/s) = 5.04134 6.21830 5.66049
#
# Compressibility (1/GPa) = 0.03707293
#
# Stress axis : x y z
#
# Youngs Moduli (GPa) = 141.64127 37.77823 59.37349
#
# Poissons Ratio (x) = 0.11164 0.20748
# Poissons Ratio (y) = 0.41856 0.01190
# Poissons Ratio (z) = 0.49495 0.00757
#
# Static dielectric constant tensor:
#      x y z
#    x 2.039090 -0.028790 0.024450 
#    y -0.028790 2.155310 -0.080370 
#    z 0.024450 -0.080370 2.075990 
# 
# From -- ./inp_files/127502.got.cif
#   From: 2010.05.17/outbox.cif.g08.bks.cpg/sg2_64_cif.got.tgz:127502.got - 2010.06.03 11:33:40.
