data_PCOD9103817
_publ_section_title
;
Structure prediction by ZEFSAII (Michael W. Deem and Ramdas Pophale) SiO2 
 PCOD9103817
Probable space group: P -1
;
_chemical_formula_sum "Si O2"
_cell_formula_units_Z 16
_cell_length_a 11.122109
_cell_length_b 17.321108
_cell_length_c 19.285888
_cell_angle_alpha 157.902871
_cell_angle_beta 149.284688
_cell_angle_gamma 41.904813
_cell_volume 686.909648
_symmetry_space_group_name_H-M "P -1"
_symmetry_group_IT_number 2
_symmetry_cell_setting 'triclinic'
loop_
_space_group_symop_operation_xyz
x,y,z
-x,-y,-z
loop_
_atom_site_type_symbol
_atom_site_label
_atom_site_fract_x
_atom_site_fract_y
_atom_site_fract_z
Si Si1 0.287642 0.964946 0.683179
Si Si2 0.822699 0.152497 0.162281
Si Si3 0.937586 0.248687 0.745644
Si Si4 0.480036 0.918570 0.501194
Si Si5 0.887728 0.617776 0.264618
Si Si6 0.978297 0.203836 0.009352
Si Si7 0.582558 0.503709 0.158703
Si Si8 0.031060 0.377225 0.324870
O O1 0.229407 0.828520 0.469616
O O2 0.118706 0.813743 0.530708
O O3 0.178397 0.167514 0.788600
O O4 0.562710 0.035447 0.903859
O O5 0.825129 0.377680 0.385577
O O6 0.021653 0.224521 0.258444
O O7 0.908636 0.985515 0.114759
O O8 0.780141 0.122159 0.626212
O O9 0.000000 0.500000 0.000000
O O10 0.541038 0.693122 0.342056
O O11 0.500000 0.000000 0.500000
O O12 0.691883 0.093249 0.789915
O O13 0.753156 0.603320 0.259835
O O14 0.975288 0.400643 0.122301
O O15 0.679047 0.615118 0.102196
O O16 0.103608 0.295603 0.220298
O O17 0.747265 0.381969 0.179764
#
# Coordination Sequence:
#
# PCOD9103817 Si02
#       8
#     2   2   2   2   2   2   2   2
#     4  11  26  45  65  97 141 177 216 263 354 398
#     4  11  24  42  64  92 133 180 216 273 323 409
#     4  11  27  43  68 102 138 174 216 281 339 400
#     4  12  22  39  69 103 129 170 228 278 329 391
#     4  10  22  40  67 100 131 176 216 287 329 394
#     4  11  23  40  65  97 127 172 233 271 324 384
#     4  10  20  38  68  96 132 161 229 279 330 378
#     4  10  23  40  65  94 127 173 227 275 328 382
#
# _framework density 23.292729999999999
#
# number of rings (size 3 to 8) (size 9 to 14) (size 15 to 20)
#    0.000    1.250    2.500    2.625    8.750    1.500 
#    0.000    2.500    0.000    0.000    0.000    0.000 
#    0.000    0.000    0.000    0.000    0.000    0.000 
#
# Total GULP energy -89530.630836 kJ/mol
# GULP energy per Si atom -5595.664427 kJ/mol
# Density = 2.323972 g / cm^3
# Si number density = 23.292730 Si / 1000 Ang^3
#
#
#
# Elastic Constant Matrix: (Units=GPa)
#
#
# Indices 1 2 3 4 5 6 
#
# 1 64.2333 9.5304 25.6177 1.8281 5.6171 2.2570
# 2 9.5304 101.5482 43.8228 4.7545 5.9837 -6.2953
# 3 25.6177 43.8228 138.9477 0.0058 -5.6396 -12.5462
# 4 1.8281 4.7545 0.0058 39.5079 1.8538 -4.1547
# 5 5.6171 5.9837 -5.6396 1.8538 37.4008 5.1815
# 6 2.2570 -6.2953 -12.5462 -4.1547 5.1815 18.6784
#
#
#
# Elastic Compliance Matrix: (Units=1/GPa)
#
#
# Indices 1 2 3 4 5 6 
#
# 1 0.017442 -0.000116 -0.003656 -0.001111 -0.002522 -0.004150
# 2 -0.000116 0.011747 -0.003606 -0.001069 -0.002636 0.002044
# 3 -0.003656 -0.003606 0.009568 0.001087 0.001766 0.005405
# 4 -0.001111 -0.001069 0.001087 0.026292 -0.001749 0.006838
# 5 -0.002522 -0.002636 0.001766 -0.001749 0.028975 -0.007824
# 6 -0.004150 0.002044 0.005405 0.006838 -0.007824 0.062050
#
#
# Mechanical properties :
#
#
# Convention : Reuss Voigt Hill
#
# Bulk Modulus (GPa) = 41.66536 51.40787 46.53661
# Shear Modulus (GPa) = 27.95958 34.16797 31.06378
#
# Velocity S-wave (km/s) = 3.46837 3.83416 3.65585
# Velocity P-wave (km/s) = 5.82804 6.45905 6.15164
#
# Compressibility (1/GPa) = 0.02400075
#
# Stress axis : x y z
#
# Youngs Moduli (GPa) = 57.33415 85.13116 104.51529
#
# Poissons Ratio (x) = 0.00985 0.38213
# Poissons Ratio (y) = 0.00663 0.37686
# Poissons Ratio (z) = 0.20963 0.30696
#
# Static dielectric constant tensor:
#      x y z
#    x 1.869600 0.018860 -0.039940 
#    y 0.018860 1.903590 0.025200 
#    z -0.039940 0.025200 1.874920 
# 
# From -- ./inp_files/596092.got.cif
#   From: 2010.05.17/outbox.cif.g08.bks.cpg/sg2_299_cif.got.tgz:596092.got - 2010.06.03 11:33:40.
