data_PCOD9103992
_publ_section_title
;
Structure prediction by ZEFSAII (Michael W. Deem and Ramdas Pophale) SiO2 
 PCOD9103992
Probable space group: P -1
;
_chemical_formula_sum "Si O2"
_cell_formula_units_Z 14
_cell_length_a 16.086404
_cell_length_b 8.471499
_cell_length_c 14.376545
_cell_angle_alpha 57.429236
_cell_angle_beta 26.978651
_cell_angle_gamma 42.403438
_cell_volume 551.559409
_symmetry_space_group_name_H-M "P -1"
_symmetry_group_IT_number 2
_symmetry_cell_setting 'triclinic'
loop_
_space_group_symop_operation_xyz
x,y,z
-x,-y,-z
loop_
_atom_site_type_symbol
_atom_site_label
_atom_site_fract_x
_atom_site_fract_y
_atom_site_fract_z
Si Si1 0.838153 0.284027 0.138612
Si Si2 0.795603 0.252344 0.988705
Si Si3 0.509204 0.975929 0.780660
Si Si4 0.423770 0.257998 0.603659
Si Si5 0.732643 0.457412 0.660099
Si Si6 0.918654 0.971851 0.413216
Si Si7 0.946090 0.380041 0.282627
O O1 0.649447 0.236991 0.354536
O O2 0.736860 0.513399 0.233224
O O3 0.836284 0.340369 0.014395
O O4 0.101228 0.023113 0.994190
O O5 0.956472 0.180257 0.759690
O O6 0.511224 0.448539 0.179104
O O7 0.512498 0.024714 0.651690
O O8 0.632424 0.686981 0.756310
O O9 0.677998 0.010970 0.652931
O O10 0.229749 0.177831 0.031723
O O11 0.236844 0.354064 0.674613
O O12 0.882799 0.200004 0.649389
O O13 0.910993 0.418138 0.415434
O O14 0.850668 0.236654 0.393536
#
# Coordination Sequence:
#
# PCOD9103992 Si02
#       7
#     2   2   2   2   2   2   2
#     4  10  20  38  71 106 132 181 233 283 349 417
#     4  11  21  40  73 102 134 181 234 282 347 405
#     4  12  27  45  70 105 141 184 230 289 350 407
#     4  11  20  43  66  99 148 170 229 295 343 413
#     4  12  27  47  69 103 144 184 235 285 340 416
#     4  12  25  50  72  97 144 188 231 288 341 410
#     4  12  26  48  72 105 138 185 235 285 348 411
#
# _framework density 25.382579
#
# number of rings (size 3 to 8) (size 9 to 14) (size 15 to 20)
#    0.000    0.571    5.714    2.571    0.000    2.286 
#    0.000    0.000    0.000    0.000    0.000    0.000 
#    0.000    0.000    0.000    0.000    0.000    0.000 
#
# Total GULP energy -78520.876357 kJ/mol
# GULP energy per Si atom -5608.634026 kJ/mol
# Density = 2.532481 g / cm^3
# Si number density = 25.382579 Si / 1000 Ang^3
#
#
#
# Elastic Constant Matrix: (Units=GPa)
#
#
# Indices 1 2 3 4 5 6 
#
# 1 96.6707 12.8707 35.3674 10.9063 -6.3205 -19.6789
# 2 12.8707 59.9368 -5.6993 13.8362 -12.1521 -17.1392
# 3 35.3674 -5.6993 94.2680 5.0643 -6.1346 -4.8768
# 4 10.9063 13.8362 5.0643 21.4348 2.7764 -8.9777
# 5 -6.3205 -12.1521 -6.1346 2.7764 54.7248 5.0616
# 6 -19.6789 -17.1392 -4.8768 -8.9777 5.0616 41.7630
#
#
#
# Elastic Compliance Matrix: (Units=1/GPa)
#
#
# Indices 1 2 3 4 5 6 
#
# 1 0.013557 -0.001220 -0.004721 -0.003132 0.000499 0.004602
# 2 -0.001220 0.023092 0.003226 -0.013354 0.005495 0.005742
# 3 -0.004721 0.003226 0.012841 -0.003062 0.001791 -0.000277
# 4 -0.003132 -0.013354 -0.003062 0.061391 -0.007412 0.006782
# 5 0.000499 0.005495 0.001791 -0.007412 0.020253 -0.001349
# 6 0.004602 0.005742 -0.000277 0.006782 -0.001349 0.030059
#
#
# Mechanical properties :
#
#
# Convention : Reuss Voigt Hill
#
# Bulk Modulus (GPa) = 22.69684 37.32813 30.01249
# Shear Modulus (GPa) = 27.57730 37.47364 32.52547
#
# Velocity S-wave (km/s) = 3.29973 3.84650 3.58356
# Velocity P-wave (km/s) = 4.84551 5.87074 5.38259
#
# Compressibility (1/GPa) = 0.04405899
#
# Stress axis : x y z
#
# Youngs Moduli (GPa) = 73.76292 43.30581 77.87471
#
# Poissons Ratio (x) = 0.05283 0.36766
# Poissons Ratio (y) = 0.08998 -0.25121
# Poissons Ratio (z) = 0.34825 -0.13970
#
# Static dielectric constant tensor:
#      x y z
#    x 1.974110 0.018560 -0.000780 
#    y 0.018560 1.979850 -0.040140 
#    z -0.000780 -0.040140 1.981480 
# 
# From -- ./inp_files/428400.got.cif
#   From: 2010.05.17/outbox.cif.g08.bks.cpg/sg2_215_cif.got.tgz:428400.got - 2010.06.03 11:33:40.
