data_PCOD9103153
_publ_section_title
;
Structure prediction by ZEFSAII (Michael W. Deem and Ramdas Pophale) SiO2 
 PCOD9103153
Probable space group: P -1
;
_chemical_formula_sum "Si O2"
_cell_formula_units_Z 16
_cell_length_a 30.948353
_cell_length_b 15.979717
_cell_length_c 19.834790
_cell_angle_alpha 18.051480
_cell_angle_beta 162.563558
_cell_angle_gamma 161.564072
_cell_volume 814.341909
_symmetry_space_group_name_H-M "P -1"
_symmetry_group_IT_number 2
_symmetry_cell_setting 'triclinic'
loop_
_space_group_symop_operation_xyz
x,y,z
-x,-y,-z
loop_
_atom_site_type_symbol
_atom_site_label
_atom_site_fract_x
_atom_site_fract_y
_atom_site_fract_z
Si Si1 0.950768 0.220473 0.190228
Si Si2 0.746010 0.843609 0.282413
Si Si3 0.761463 0.625540 0.277938
Si Si4 0.595822 0.825593 0.360414
Si Si5 0.981816 0.322079 0.792544
Si Si6 0.087512 0.835230 0.344910
Si Si7 0.703579 0.044745 0.211664
Si Si8 0.503337 0.686870 0.762504
O O1 0.116282 0.268655 0.435166
O O2 0.812739 0.133901 0.108912
O O3 0.881170 0.928420 0.262221
O O4 0.000000 0.500000 0.000000
O O5 0.578556 0.573661 0.216179
O O6 0.746269 0.927160 0.296514
O O7 0.617393 0.439009 0.257516
O O8 0.857423 0.434742 0.550220
O O9 0.676005 0.710400 0.023628
O O10 0.500000 0.500000 0.500000
O O11 0.735666 0.017553 0.473270
O O12 0.676284 0.846497 0.390506
O O13 0.464878 0.949195 0.059562
O O14 0.155958 0.618348 0.822065
O O15 0.918567 0.196784 0.720033
O O16 0.005924 0.057667 0.069342
O O17 0.000000 0.500000 0.500000
O O18 0.500000 0.000000 0.500000
#
# Coordination Sequence:
#
# PCOD9103153 Si02
#       8
#     2   2   2   2   2   2   2   2
#     4  10  20  38  65  90 127 160 204 266 320 381
#     4  10  22  39  60  93 124 162 213 260 316 390
#     4  10  22  41  62  91 128 166 217 261 318 392
#     4  11  24  44  66  91 131 174 213 282 339 392
#     4  11  23  42  67  97 125 169 225 278 330 408
#     4  11  24  44  68  94 129 169 220 281 340 396
#     4  11  23  42  64  94 129 167 224 272 333 404
#     4  10  22  42  61  90 133 171 208 265 320 386
#
# _framework density 19.647767999999999
#
# number of rings (size 3 to 8) (size 9 to 14) (size 15 to 20)
#    0.000    1.500    3.750    0.750    1.750    2.000 
#    4.500    0.000    0.000    0.000    0.000    0.000 
#    0.000    0.000    0.000    0.000    0.000    0.000 
#
# Total GULP energy -89255.498924 kJ/mol
# GULP energy per Si atom -5578.468683 kJ/mol
# Density = 1.960305 g / cm^3
# Si number density = 19.647768 Si / 1000 Ang^3
#
#
#
# Elastic Constant Matrix: (Units=GPa)
#
#
# Indices 1 2 3 4 5 6 
#
# 1 88.8677 44.8661 24.3471 -9.1761 -6.6742 -8.3129
# 2 44.8661 129.5942 59.6401 8.3353 -16.2525 -4.6419
# 3 24.3471 59.6401 104.6521 1.8689 -8.3167 3.8883
# 4 -9.1761 8.3353 1.8689 47.0760 4.6387 -15.3269
# 5 -6.6742 -16.2525 -8.3167 4.6387 34.9589 -0.1929
# 6 -8.3129 -4.6419 3.8883 -15.3269 -0.1929 25.6938
#
#
#
# Elastic Compliance Matrix: (Units=1/GPa)
#
#
# Indices 1 2 3 4 5 6 
#
# 1 0.015559 -0.005019 -0.001229 0.006730 -0.000502 0.008324
# 2 -0.005019 0.012816 -0.005724 -0.003609 0.004114 -0.000564
# 3 -0.001229 -0.005724 0.013308 -0.001135 0.000398 -0.004120
# 4 0.006730 -0.003609 -0.001135 0.030067 -0.004545 0.019598
# 5 -0.000502 0.004114 0.000398 -0.004545 0.031109 -0.001957
# 6 0.008324 -0.000564 -0.004120 0.019598 -0.001957 0.053810
#
#
# Mechanical properties :
#
#
# Convention : Reuss Voigt Hill
#
# Bulk Modulus (GPa) = 56.36871 64.53561 60.45216
# Shear Modulus (GPa) = 26.80607 34.49647 30.65127
#
# Velocity S-wave (km/s) = 3.69769 4.19471 3.95402
# Velocity P-wave (km/s) = 6.85438 7.50855 7.18891
#
# Compressibility (1/GPa) = 0.01774034
#
# Stress axis : x y z
#
# Youngs Moduli (GPa) = 64.27187 78.02857 75.14144
#
# Poissons Ratio (x) = 0.39160 0.09235
# Poissons Ratio (y) = 0.32256 0.43008
# Poissons Ratio (z) = 0.07899 0.44661
#
# Static dielectric constant tensor:
#      x y z
#    x 1.723980 0.015360 -0.020000 
#    y 0.015360 1.665560 -0.005320 
#    z -0.020000 -0.005320 1.723920 
# 
# From -- ./inp_files/530020.got.cif
#   From: 2010.05.17/outbox.cif.g08.bks.cpg/sg2_266_cif.got.tgz:530020.got - 2010.06.03 11:33:40.
