data_PCOD9103394
_publ_section_title
;
Structure prediction by ZEFSAII (Michael W. Deem and Ramdas Pophale) SiO2 
 PCOD9103394
Probable space group: P -1
;
_chemical_formula_sum "Si O2"
_cell_formula_units_Z 16
_cell_length_a 14.263903
_cell_length_b 13.362376
_cell_length_c 7.152531
_cell_angle_alpha 146.239567
_cell_angle_beta 69.656291
_cell_angle_gamma 116.783807
_cell_volume 675.316964
_symmetry_space_group_name_H-M "P -1"
_symmetry_group_IT_number 2
_symmetry_cell_setting 'triclinic'
loop_
_space_group_symop_operation_xyz
x,y,z
-x,-y,-z
loop_
_atom_site_type_symbol
_atom_site_label
_atom_site_fract_x
_atom_site_fract_y
_atom_site_fract_z
Si Si1 0.003446 0.193297 0.504980
Si Si2 0.782695 0.889644 0.697038
Si Si3 0.732991 0.293655 0.857933
Si Si4 0.634909 0.512687 0.748177
Si Si5 0.933709 0.454893 0.233150
Si Si6 0.213471 0.693534 0.576752
Si Si7 0.781869 0.919791 0.296883
Si Si8 0.407563 0.472610 0.753030
O O1 0.111287 0.147056 0.367794
O O2 0.006332 0.335046 0.551610
O O3 0.899948 0.012949 0.285455
O O4 0.989236 0.308128 0.881230
O O5 0.789843 0.906765 0.494301
O O6 0.678741 0.719004 0.551974
O O7 0.776075 0.087483 0.083205
O O8 0.780308 0.364616 0.730987
O O9 0.719794 0.071283 0.535471
O O10 0.823925 0.395110 0.097480
O O11 0.628959 0.355971 0.038658
O O12 0.689027 0.348283 0.450906
O O13 0.528081 0.482986 0.662953
O O14 0.721373 0.710967 0.943788
O O15 0.608600 0.526642 0.008499
O O16 0.892060 0.421706 0.420936
#
# Coordination Sequence:
#
# PCOD9103394 Si02
#       8
#     2   2   2   2   2   2   2   2
#     4  10  20  38  66  88 124 173 202 248 319 371
#     4  11  20  37  67  91 124 167 208 252 313 369
#     4  10  20  41  64  92 126 163 207 257 314 368
#     4   9  21  40  61  93 125 162 211 255 314 367
#     4  10  21  41  63  90 129 165 203 259 312 370
#     4  11  23  39  64  94 128 161 211 263 301 374
#     4  10  21  39  63  87 127 167 204 252 310 374
#     4   9  19  39  67  87 124 169 201 260 314 371
#
# _framework density 23.692578000000001
#
# number of rings (size 3 to 8) (size 9 to 14) (size 15 to 20)
#    0.000    2.000    3.750    0.375    0.000    2.000 
#    0.000   13.750    0.000    0.000    0.000    0.000 
#    0.000    0.000    0.000    0.000    0.000    0.000 
#
# Total GULP energy -89620.368631 kJ/mol
# GULP energy per Si atom -5601.273039 kJ/mol
# Density = 2.363865 g / cm^3
# Si number density = 23.692578 Si / 1000 Ang^3
#
#
#
# Elastic Constant Matrix: (Units=GPa)
#
#
# Indices 1 2 3 4 5 6 
#
# 1 160.4089 26.9885 69.8392 22.9603 -37.6048 23.1683
# 2 26.9885 79.1700 40.8009 -1.2086 2.1243 -1.3677
# 3 69.8392 40.8009 83.2309 9.9034 -27.7286 16.4172
# 4 22.9603 -1.2086 9.9034 44.4117 -14.0839 7.3633
# 5 -37.6048 2.1243 -27.7286 -14.0839 29.9742 -4.7266
# 6 23.1683 -1.3677 16.4172 7.3633 -4.7266 37.2381
#
#
#
# Elastic Compliance Matrix: (Units=1/GPa)
#
#
# Indices 1 2 3 4 5 6 
#
# 1 0.011446 -0.001552 -0.005161 -0.001558 0.008406 -0.003527
# 2 -0.001552 0.022975 -0.017820 -0.002158 -0.019881 0.007569
# 3 -0.005161 -0.017820 0.036270 0.005086 0.029034 -0.010754
# 4 -0.001558 -0.002158 0.005086 0.027755 0.015169 -0.004915
# 5 0.008406 -0.019881 0.029034 0.015169 0.077422 -0.011933
# 6 -0.003527 0.007569 -0.010754 -0.004915 -0.011933 0.033525
#
#
# Mechanical properties :
#
#
# Convention : Reuss Voigt Hill
#
# Bulk Modulus (GPa) = 46.24458 66.45188 56.34823
# Shear Modulus (GPa) = 18.82053 34.67021 26.74537
#
# Velocity S-wave (km/s) = 2.82150 3.82951 3.36348
# Velocity P-wave (km/s) = 5.49322 6.90376 6.23849
#
# Compressibility (1/GPa) = 0.02162416
#
# Stress axis : x y z
#
# Youngs Moduli (GPa) = 87.37026 43.52563 27.57084
#
# Poissons Ratio (x) = 0.06755 0.14231
# Poissons Ratio (y) = 0.13560 0.49131
# Poissons Ratio (z) = 0.45096 0.77562
#
# Static dielectric constant tensor:
#      x y z
#    x 1.889410 -0.030840 0.006310 
#    y -0.030840 1.910260 -0.039060 
#    z 0.006310 -0.039060 1.888800 
# 
# From -- ./inp_files/299509.got.cif
#   From: 2010.05.17/outbox.cif.g08.bks.cpg/sg2_150_cif.got.tgz:299509.got - 2010.06.03 11:33:40.
