data_PCOD9103598
_publ_section_title
;
Structure prediction by ZEFSAII (Michael W. Deem and Ramdas Pophale) SiO2 
 PCOD9103598
Probable space group: P -1
;
_chemical_formula_sum "Si O2"
_cell_formula_units_Z 16
_cell_length_a 10.020587
_cell_length_b 13.225771
_cell_length_c 29.259826
_cell_angle_alpha 153.948002
_cell_angle_beta 27.245634
_cell_angle_gamma 144.075445
_cell_volume 778.497956
_symmetry_space_group_name_H-M "P -1"
_symmetry_group_IT_number 2
_symmetry_cell_setting 'triclinic'
loop_
_space_group_symop_operation_xyz
x,y,z
-x,-y,-z
loop_
_atom_site_type_symbol
_atom_site_label
_atom_site_fract_x
_atom_site_fract_y
_atom_site_fract_z
Si Si1 0.958044 0.875736 0.539893
Si Si2 0.740821 0.639473 0.349238
Si Si3 0.700921 0.972131 0.193811
Si Si4 0.994376 0.222548 0.060464
Si Si5 0.230095 0.517113 0.623583
Si Si6 0.819343 0.408732 0.561474
Si Si7 0.443492 0.189033 0.151021
Si Si8 0.113931 0.738368 0.038522
O O1 0.985118 0.684558 0.413973
O O2 0.038990 0.778511 0.525779
O O3 0.631029 0.963930 0.675967
O O4 0.157897 0.103621 0.563786
O O5 0.652965 0.523864 0.377582
O O6 0.495443 0.658524 0.392663
O O7 0.989578 0.472648 0.187271
O O8 0.830041 0.844309 0.145557
O O9 0.877842 0.223499 0.238634
O O10 0.766729 0.814865 0.066370
O O11 0.678374 0.196412 0.122582
O O12 0.000000 0.000000 0.000000
O O13 0.500000 0.500000 0.500000
O O14 0.784339 0.621639 0.692629
O O15 0.000000 0.500000 0.500000
O O16 0.274846 0.939891 0.101243
O O17 0.641214 0.268476 0.079219
O O18 0.000000 0.500000 0.000000
#
# Coordination Sequence:
#
# PCOD9103598 Si02
#       8
#     2   2   2   2   2   2   2   2
#     4  11  24  40  63  97 129 159 211 273 313 381
#     4  11  23  41  63  96 123 166 214 264 322 374
#     4  10  21  40  64  93 121 165 211 251 322 386
#     4  10  20  38  67  86 124 166 207 259 313 383
#     4  10  20  39  63  86 125 163 207 251 313 382
#     4  11  23  44  65  86 130 177 211 254 327 393
#     4   9  22  42  64  95 125 170 216 260 322 386
#     4  10  21  43  67  95 130 163 215 270 323 382
#
# _framework density 20.552399000000001
#
# number of rings (size 3 to 8) (size 9 to 14) (size 15 to 20)
#    0.000    1.750    1.250    3.000    1.750    2.500 
#   18.000    0.000    0.000    0.000    0.000    0.000 
#    0.000    0.000    0.000    0.000    0.000    0.000 
#
# Total GULP energy -89190.105084 kJ/mol
# GULP energy per Si atom -5574.381568 kJ/mol
# Density = 2.050562 g / cm^3
# Si number density = 20.552399 Si / 1000 Ang^3
#
#
#
# Elastic Constant Matrix: (Units=GPa)
#
#
# Indices 1 2 3 4 5 6 
#
# 1 76.7463 20.9374 17.8922 15.2150 -9.5045 -14.2714
# 2 20.9374 96.0558 19.1730 30.4307 -8.9646 -1.9138
# 3 17.8922 19.1730 80.4879 11.6943 -5.6924 -2.1695
# 4 15.2150 30.4307 11.6943 24.9000 1.1547 -1.7253
# 5 -9.5045 -8.9646 -5.6924 1.1547 32.9975 16.6047
# 6 -14.2714 -1.9138 -2.1695 -1.7253 16.6047 27.7754
#
#
#
# Elastic Compliance Matrix: (Units=1/GPa)
#
#
# Indices 1 2 3 4 5 6 
#
# 1 0.016765 -0.000341 -0.002167 -0.008347 0.000969 0.007323
# 2 -0.000341 0.018535 -0.000562 -0.022937 0.008335 -0.005349
# 3 -0.002167 -0.000562 0.013878 -0.004780 0.002815 -0.002048
# 4 -0.008347 -0.022937 -0.004780 0.076869 -0.016322 0.008289
# 5 0.000969 0.008335 0.002815 -0.016322 0.048294 -0.028593
# 6 0.007323 -0.005349 -0.002048 0.008289 -0.028593 0.056845
#
#
# Mechanical properties :
#
#
# Convention : Reuss Voigt Hill
#
# Bulk Modulus (GPa) = 23.23469 41.03279 32.13374
# Shear Modulus (GPa) = 19.86726 30.15376 25.01051
#
# Velocity S-wave (km/s) = 3.11249 3.83451 3.49221
# Velocity P-wave (km/s) = 4.92407 6.29388 5.65064
#
# Compressibility (1/GPa) = 0.04303909
#
# Stress axis : x y z
#
# Youngs Moduli (GPa) = 59.64869 53.95283 72.05620
#
# Poissons Ratio (x) = 0.01839 0.15613
# Poissons Ratio (y) = 0.02034 0.04046
# Poissons Ratio (z) = 0.12925 0.03030
#
# Static dielectric constant tensor:
#      x y z
#    x 1.769450 0.025700 0.016500 
#    y 0.025700 1.774390 0.019120 
#    z 0.016500 0.019120 1.761790 
# 
# From -- ./inp_files/617059.got.cif
#   From: 2010.05.17/outbox.cif.g08.bks.cpg/sg2_309_cif.got.tgz:617059.got - 2010.06.03 11:33:40.
