data_PCOD9103659
_publ_section_title
;
Structure prediction by ZEFSAII (Michael W. Deem and Ramdas Pophale) SiO2 
 PCOD9103659
Probable space group: P -1
;
_chemical_formula_sum "Si O2"
_cell_formula_units_Z 14
_cell_length_a 10.259377
_cell_length_b 10.263282
_cell_length_c 9.595371
_cell_angle_alpha 63.131430
_cell_angle_beta 133.754973
_cell_angle_gamma 115.680067
_cell_volume 639.450929
_symmetry_space_group_name_H-M "P -1"
_symmetry_group_IT_number 2
_symmetry_cell_setting 'triclinic'
loop_
_space_group_symop_operation_xyz
x,y,z
-x,-y,-z
loop_
_atom_site_type_symbol
_atom_site_label
_atom_site_fract_x
_atom_site_fract_y
_atom_site_fract_z
Si Si1 0.532174 0.922675 0.415424
Si Si2 0.143003 0.895509 0.622121
Si Si3 0.906153 0.607344 0.552210
Si Si4 0.665611 0.617632 0.631995
Si Si5 0.754231 0.511392 0.039836
Si Si6 0.632526 0.682384 0.104659
Si Si7 0.322637 0.973615 0.980413
O O1 0.588925 0.763164 0.551345
O O2 0.500000 0.000000 0.500000
O O3 0.692227 0.021734 0.392249
O O4 0.358627 0.910380 0.188003
O O5 0.048637 0.751613 0.539189
O O6 0.192164 0.862774 0.835051
O O7 0.000000 0.000000 0.500000
O O8 0.811362 0.653753 0.598774
O O9 0.740696 0.581107 0.331384
O O10 0.044387 0.498336 0.747265
O O11 0.500000 0.500000 0.500000
O O12 0.753624 0.545958 0.860387
O O13 0.681256 0.642000 0.005038
O O14 0.587177 0.369021 0.011156
O O15 0.706110 0.856122 0.105759
O O16 0.500000 0.000000 0.000000
#
# Coordination Sequence:
#
# PCOD9103659 Si02
#       7
#     2   2   2   2   2   2   2
#     4  11  24  44  68  98 133 174 222 278 340 389
#     4  11  21  41  70  92 124 172 222 276 318 390
#     4  12  23  44  70  95 129 176 229 265 331 402
#     4  12  25  43  64  95 140 175 219 275 329 403
#     4  11  25  40  65  95 133 177 211 269 345 388
#     4  11  22  43  64  97 134 164 220 282 324 397
#     4  10  20  38  67  94 122 171 220 266 328 389
#
# _framework density 21.893782999999999
#
# number of rings (size 3 to 8) (size 9 to 14) (size 15 to 20)
#    0.000    0.857    4.286    4.286    2.000    1.143 
#    2.571    0.714    0.000    0.000    0.000    0.000 
#    0.000    0.000    0.000    0.000    0.000    0.000 
#
# Total GULP energy -78096.118312 kJ/mol
# GULP energy per Si atom -5578.294165 kJ/mol
# Density = 2.184395 g / cm^3
# Si number density = 21.893783 Si / 1000 Ang^3
#
#
#
# Elastic Constant Matrix: (Units=GPa)
#
#
# Indices 1 2 3 4 5 6 
#
# 1 89.9396 18.1513 33.6906 4.0146 -8.5711 -18.7198
# 2 18.1513 56.6299 -14.9228 1.7330 7.7130 -8.2241
# 3 33.6906 -14.9228 97.6056 4.6919 4.3122 -3.8068
# 4 4.0146 1.7330 4.6919 29.6648 -3.1767 3.8310
# 5 -8.5711 7.7130 4.3122 -3.1767 32.8344 2.9071
# 6 -18.7198 -8.2241 -3.8068 3.8310 2.9071 27.9938
#
#
#
# Elastic Compliance Matrix: (Units=1/GPa)
#
#
# Indices 1 2 3 4 5 6 
#
# 1 0.017564 -0.007123 -0.007053 -0.001226 0.006340 0.008203
# 2 -0.007123 0.023705 0.006802 -0.003040 -0.009012 0.004478
# 3 -0.007053 0.006802 0.014075 -0.002270 -0.005514 0.000079
# 4 -0.001226 -0.003040 -0.002270 0.035889 0.004823 -0.007434
# 5 0.006340 -0.009012 -0.005514 0.004823 0.035731 -0.003528
# 6 0.008203 0.004478 0.000079 -0.007434 -0.003528 0.043918
#
#
# Mechanical properties :
#
#
# Convention : Reuss Voigt Hill
#
# Bulk Modulus (GPa) = 24.63294 35.33480 29.98387
# Shear Modulus (GPa) = 25.10514 31.91567 28.51041
#
# Velocity S-wave (km/s) = 3.38994 3.82219 3.61254
# Velocity P-wave (km/s) = 5.15730 5.97102 5.57902
#
# Compressibility (1/GPa) = 0.04059604
#
# Stress axis : x y z
#
# Youngs Moduli (GPa) = 56.93358 42.18584 71.04551
#
# Poissons Ratio (x) = 0.30049 0.50108
# Poissons Ratio (y) = 0.40554 -0.48323
# Poissons Ratio (z) = 0.40155 -0.28694
#
# Static dielectric constant tensor:
#      x y z
#    x 1.746030 0.018420 0.064930 
#    y 0.018420 1.864040 0.048580 
#    z 0.064930 0.048580 1.926150 
# 
# From -- ./inp_files/185541.got.cif
#   From: 2010.05.17/outbox.cif.g08.bks.cpg/sg2_93_cif.got.tgz:185541.got - 2010.06.03 11:33:40.
