data_PCOD9103017
_publ_section_title
;
Structure prediction by ZEFSAII (Michael W. Deem and Ramdas Pophale) SiO2 
 PCOD9103017
Probable space group: P -1
;
_chemical_formula_sum "Si O2"
_cell_formula_units_Z 16
_cell_length_a 17.922639
_cell_length_b 11.640008
_cell_length_c 8.208590
_cell_angle_alpha 62.495986
_cell_angle_beta 82.454081
_cell_angle_gamma 135.120790
_cell_volume 729.424073
_symmetry_space_group_name_H-M "P -1"
_symmetry_group_IT_number 2
_symmetry_cell_setting 'triclinic'
loop_
_space_group_symop_operation_xyz
x,y,z
-x,-y,-z
loop_
_atom_site_type_symbol
_atom_site_label
_atom_site_fract_x
_atom_site_fract_y
_atom_site_fract_z
Si Si1 0.023670 0.684575 0.315962
Si Si2 0.274799 0.649541 0.266097
Si Si3 0.339519 0.720822 0.820683
Si Si4 0.340596 0.180538 0.752179
Si Si5 0.122119 0.601857 0.791506
Si Si6 0.307102 0.126888 0.426800
Si Si7 0.625610 0.520594 0.963903
Si Si8 0.506877 0.800848 0.112567
O O1 0.907196 0.598940 0.507907
O O2 0.954908 0.577526 0.224625
O O3 0.000000 0.500000 0.500000
O O4 0.202559 0.997228 0.041927
O O5 0.345257 0.622466 0.331692
O O6 0.333524 0.739865 0.003502
O O7 0.369944 0.903663 0.167167
O O8 0.209805 0.619912 0.849463
O O9 0.317141 0.530072 0.946746
O O10 0.500000 0.000000 0.500000
O O11 0.500000 0.500000 0.500000
O O12 0.269192 0.080265 0.658654
O O13 0.403606 0.134566 0.811116
O O14 0.238708 0.894121 0.520696
O O15 0.000000 0.500000 0.000000
O O16 0.492462 0.382740 0.203061
O O17 0.262800 0.191816 0.303206
O O18 0.541043 0.359297 0.920942
#
# Coordination Sequence:
#
# PCOD9103017 Si02
#       8
#     2   2   2   2   2   2   2   2
#     4  12  25  41  67 100 136 173 222 282 341 389
#     4  10  22  38  62  98 132 170 222 278 336 388
#     4  11  23  41  66  99 133 176 230 276 329 405
#     4  12  24  41  67  96 133 176 226 271 329 406
#     4  12  24  41  66 100 132 172 223 281 329 398
#     4  11  22  40  64  97 132 170 220 270 339 390
#     4  10  22  38  64  96 130 172 217 275 331 395
#     4  10  20  38  64  96 127 173 218 274 324 399
#
# _framework density 21.935113999999999
#
# number of rings (size 3 to 8) (size 9 to 14) (size 15 to 20)
#    0.000    1.000    5.000    2.250    3.500    0.000 
#    0.000    1.250    0.000    0.000    0.000    0.000 
#    0.000    0.000    0.000    0.000    0.000    0.000 
#
# Total GULP energy -89281.276949 kJ/mol
# GULP energy per Si atom -5580.079809 kJ/mol
# Density = 2.188519 g / cm^3
# Si number density = 21.935114 Si / 1000 Ang^3
#
#
#
# Elastic Constant Matrix: (Units=GPa)
#
#
# Indices 1 2 3 4 5 6 
#
# 1 173.7754 6.7260 63.2507 -0.6953 1.8534 6.3552
# 2 6.7260 45.9150 16.1794 -2.9468 5.3863 -1.1452
# 3 63.2507 16.1794 118.5955 -1.6738 -17.1991 2.0818
# 4 -0.6953 -2.9468 -1.6738 27.9333 -2.8623 -1.5596
# 5 1.8534 5.3863 -17.1991 -2.8623 39.7176 0.4041
# 6 6.3552 -1.1452 2.0818 -1.5596 0.4041 29.5844
#
#
#
# Elastic Compliance Matrix: (Units=1/GPa)
#
#
# Indices 1 2 3 4 5 6 
#
# 1 0.007380 0.000673 -0.004348 -0.000314 -0.002329 -0.001238
# 2 0.000673 0.023957 -0.004355 0.001836 -0.005047 0.001255
# 3 -0.004348 -0.004355 0.012252 0.000790 0.006157 -0.000139
# 4 -0.000314 0.001836 0.000790 0.036420 0.002712 0.001966
# 5 -0.002329 -0.005047 0.006157 0.002712 0.028836 -0.000379
# 6 -0.001238 0.001255 -0.000139 0.001966 -0.000379 0.034235
#
#
# Mechanical properties :
#
#
# Convention : Reuss Voigt Hill
#
# Bulk Modulus (GPa) = 36.32694 56.73314 46.53004
# Shear Modulus (GPa) = 29.70591 36.25574 32.98083
#
# Velocity S-wave (km/s) = 3.68402 4.06995 3.88179
# Velocity P-wave (km/s) = 5.89008 6.92865 6.43037
#
# Compressibility (1/GPa) = 0.02752778
#
# Stress axis : x y z
#
# Youngs Moduli (GPa) = 135.50086 41.74208 81.62058
#
# Poissons Ratio (x) = -0.02811 0.35491
# Poissons Ratio (y) = -0.09123 0.35549
# Poissons Ratio (z) = 0.58919 0.18180
#
# Static dielectric constant tensor:
#      x y z
#    x 1.954820 0.030750 0.038260 
#    y 0.030750 1.842410 -0.038390 
#    z 0.038260 -0.038390 1.961550 
# 
# From -- ./inp_files/331729.got.cif
#   From: 2010.05.17/outbox.cif.g08.bks.cpg/sg2_166_cif.got.tgz:331729.got - 2010.06.03 11:33:40.
