data_PCOD9103092
_publ_section_title
;
Structure prediction by ZEFSAII (Michael W. Deem and Ramdas Pophale) SiO2 
 PCOD9103092
Probable space group: P -1
;
_chemical_formula_sum "Si O2"
_cell_formula_units_Z 16
_cell_length_a 7.680532
_cell_length_b 28.186103
_cell_length_c 11.885373
_cell_angle_alpha 30.426503
_cell_angle_beta 126.288291
_cell_angle_gamma 146.060068
_cell_volume 654.434453
_symmetry_space_group_name_H-M "P -1"
_symmetry_group_IT_number 2
_symmetry_cell_setting 'triclinic'
loop_
_space_group_symop_operation_xyz
x,y,z
-x,-y,-z
loop_
_atom_site_type_symbol
_atom_site_label
_atom_site_fract_x
_atom_site_fract_y
_atom_site_fract_z
Si Si1 0.432152 0.114205 0.669425
Si Si2 0.779399 0.178114 0.245344
Si Si3 0.620561 0.587074 0.252400
Si Si4 0.695882 0.876935 0.993013
Si Si5 0.460902 0.652124 0.874807
Si Si6 0.635734 0.114015 0.979236
Si Si7 0.149809 0.441385 0.988038
Si Si8 0.320459 0.572725 0.546672
O O1 0.523729 0.234673 0.384897
O O2 0.663980 0.175696 0.743617
O O3 0.047621 0.997564 0.811796
O O4 0.433781 0.017898 0.799591
O O5 0.614983 0.198501 0.055750
O O6 0.149666 0.257401 0.191934
O O7 0.500000 0.000000 0.500000
O O8 0.851405 0.264014 0.209409
O O9 0.500000 0.500000 0.500000
O O10 0.582736 0.494473 0.331715
O O11 0.011185 0.750672 0.094952
O O12 0.427953 0.611634 0.075891
O O13 0.667381 0.942217 0.948684
O O14 0.619394 0.749549 0.276898
O O15 0.188323 0.508017 0.983536
O O16 0.202967 0.525531 0.727152
O O17 0.500000 0.500000 0.000000
O O18 0.000000 0.500000 0.500000
#
# Coordination Sequence:
#
# PCOD9103092 Si02
#       8
#     2   2   2   2   2   2   2   2
#     4  11  26  43  73 102 145 191 241 294 377 426
#     4  11  20  39  67 108 146 170 238 300 350 429
#     4  12  25  45  70  97 143 191 244 297 364 437
#     4  12  22  41  72 107 137 194 241 284 367 438
#     4  11  22  44  71 104 144 189 241 305 358 425
#     4  11  24  47  64 104 150 183 237 313 347 437
#     4  10  20  38  65 102 138 180 228 301 353 408
#     4  12  20  39  71  99 134 187 233 288 357 418
#
# _framework density 24.448592000000001
#
# number of rings (size 3 to 8) (size 9 to 14) (size 15 to 20)
#    0.000    0.750    7.500    1.875    0.000    0.500 
#    0.000    1.875    0.000    0.000    0.000    0.000 
#    0.000    0.000    0.000    0.000    0.000    0.000 
#
# Total GULP energy -89589.629425 kJ/mol
# GULP energy per Si atom -5599.351839 kJ/mol
# Density = 2.439295 g / cm^3
# Si number density = 24.448592 Si / 1000 Ang^3
#
#
#
# Elastic Constant Matrix: (Units=GPa)
#
#
# Indices 1 2 3 4 5 6 
#
# 1 109.8132 41.6640 57.8752 -3.1712 12.6633 -26.5119
# 2 41.6640 157.1482 74.5469 6.3379 7.9537 -10.9030
# 3 57.8752 74.5469 193.5913 9.5111 17.3227 -14.3110
# 4 -3.1712 6.3379 9.5111 46.3380 2.5972 4.9924
# 5 12.6633 7.9537 17.3227 2.5972 39.1725 -0.7740
# 6 -26.5119 -10.9030 -14.3110 4.9924 -0.7740 40.2750
#
#
#
# Elastic Compliance Matrix: (Units=1/GPa)
#
#
# Indices 1 2 3 4 5 6 
#
# 1 0.013157 -0.001681 -0.002570 0.001043 -0.002704 0.007112
# 2 -0.001681 0.008064 -0.002556 -0.000727 0.000090 0.000260
# 3 -0.002570 -0.002556 0.007153 -0.001228 -0.001727 0.000277
# 4 0.001043 -0.000727 -0.001228 0.022365 -0.001184 -0.002741
# 5 -0.002704 0.000090 -0.001727 -0.001184 0.027193 -0.001700
# 6 0.007112 0.000260 0.000277 -0.002741 -0.001700 0.029987
#
#
# Mechanical properties :
#
#
# Convention : Reuss Voigt Hill
#
# Bulk Modulus (GPa) = 67.74301 89.85833 78.80067
# Shear Modulus (GPa) = 39.54019 44.25488 41.89754
#
# Velocity S-wave (km/s) = 4.02590 4.25917 4.14418
# Velocity P-wave (km/s) = 7.02702 7.81160 7.42967
#
# Compressibility (1/GPa) = 0.01476167
#
# Stress axis : x y z
#
# Youngs Moduli (GPa) = 76.00239 124.00184 139.79633
#
# Poissons Ratio (x) = 0.20847 0.35923
# Poissons Ratio (y) = 0.12777 0.35730
# Poissons Ratio (z) = 0.19530 0.31693
#
# Static dielectric constant tensor:
#      x y z
#    x 2.023230 0.029170 -0.014020 
#    y 0.029170 1.933850 0.015820 
#    z -0.014020 0.015820 1.955770 
# 
# From -- ./inp_files/407523.got.cif
#   From: 2010.05.17/outbox.cif.g08.bks.cpg/sg2_204_cif.got.tgz:407523.got - 2010.06.03 11:33:40.
