data_PCOD9103703
_publ_section_title
;
Structure prediction by ZEFSAII (Michael W. Deem and Ramdas Pophale) SiO2 
 PCOD9103703
Probable space group: P -1
;
_chemical_formula_sum "Si O2"
_cell_formula_units_Z 16
_cell_length_a 16.562890
_cell_length_b 23.562945
_cell_length_c 14.941843
_cell_angle_alpha 161.270578
_cell_angle_beta 149.452456
_cell_angle_gamma 22.163389
_cell_volume 700.296046
_symmetry_space_group_name_H-M "P -1"
_symmetry_group_IT_number 2
_symmetry_cell_setting 'triclinic'
loop_
_space_group_symop_operation_xyz
x,y,z
-x,-y,-z
loop_
_atom_site_type_symbol
_atom_site_label
_atom_site_fract_x
_atom_site_fract_y
_atom_site_fract_z
Si Si1 0.498247 0.837588 0.623179
Si Si2 0.854120 0.443674 0.923067
Si Si3 0.891638 0.094644 0.653114
Si Si4 0.747700 0.317325 0.041526
Si Si5 0.440442 0.816034 0.211585
Si Si6 0.410529 0.129165 0.807818
Si Si7 0.918646 0.662793 0.855465
Si Si8 0.836808 0.874543 0.758857
O O1 0.309148 0.857823 0.516333
O O2 0.651997 0.584139 0.337887
O O3 0.673308 0.809387 0.809188
O O4 0.390391 0.043020 0.752477
O O5 0.649821 0.624487 0.064670
O O6 0.781341 0.595222 0.989766
O O7 0.917799 0.193124 0.594997
O O8 0.047041 0.386406 0.078791
O O9 0.799533 0.193131 0.811355
O O10 0.985878 0.214001 0.891550
O O11 0.963876 0.161360 0.072590
O O12 0.586818 0.328985 0.966670
O O13 0.436303 0.978563 0.521654
O O14 0.252176 0.999024 0.233703
O O15 0.645218 0.042946 0.899046
O O16 0.070805 0.395818 0.558689
#
# Coordination Sequence:
#
# PCOD9103703 Si02
#       8
#     2   2   2   2   2   2   2   2
#     4  11  25  41  68  99 128 167 222 270 311 379
#     4  11  24  42  68  93 130 175 211 260 330 386
#     4  12  25  42  65  98 135 169 209 268 330 385
#     4  11  23  39  66  99 129 164 219 271 318 376
#     4  11  20  41  69  92 128 167 223 265 312 384
#     4  11  20  41  68  91 127 168 218 264 316 382
#     4  11  22  43  66  96 130 170 215 267 320 377
#     4  10  20  38  67  98 123 167 223 269 309 378
#
# _framework density 22.847480000000001
#
# number of rings (size 3 to 8) (size 9 to 14) (size 15 to 20)
#    0.000    1.000    3.750    4.125    0.000    3.000 
#    0.000    6.875    0.000    0.000    0.000    0.000 
#    0.000    0.000    0.000    0.000    0.000    0.000 
#
# Total GULP energy -89389.190539 kJ/mol
# GULP energy per Si atom -5586.824409 kJ/mol
# Density = 2.279548 g / cm^3
# Si number density = 22.847480 Si / 1000 Ang^3
#
#
#
# Elastic Constant Matrix: (Units=GPa)
#
#
# Indices 1 2 3 4 5 6 
#
# 1 104.3012 44.5518 30.1514 4.8764 6.3011 2.9779
# 2 44.5518 151.7479 64.1014 1.6016 8.3418 12.0701
# 3 30.1514 64.1014 77.7290 13.7822 17.3155 2.5605
# 4 4.8764 1.6016 13.7822 27.6068 1.9108 8.6843
# 5 6.3011 8.3418 17.3155 1.9108 30.1200 6.9354
# 6 2.9779 12.0701 2.5605 8.6843 6.9354 25.0499
#
#
#
# Elastic Compliance Matrix: (Units=1/GPa)
#
#
# Indices 1 2 3 4 5 6 
#
# 1 0.011296 -0.002423 -0.002119 -0.000920 -0.000533 0.000507
# 2 -0.002423 0.012585 -0.011739 0.007961 0.005292 -0.008801
# 3 -0.002119 -0.011739 0.029218 -0.016520 -0.015002 0.012803
# 4 -0.000920 0.007961 -0.016520 0.050485 0.009379 -0.022137
# 5 -0.000533 0.005292 -0.015002 0.009379 0.043625 -0.016283
# 6 0.000507 -0.008801 0.012803 -0.022137 -0.016283 0.054975
#
#
# Mechanical properties :
#
#
# Convention : Reuss Voigt Hill
#
# Bulk Modulus (GPa) = 48.69249 67.93194 58.31222
# Shear Modulus (GPa) = 20.69608 29.55357 25.12483
#
# Velocity S-wave (km/s) = 3.01298 3.60045 3.31973
# Velocity P-wave (km/s) = 5.78466 6.86161 6.34602
#
# Compressibility (1/GPa) = 0.02053705
#
# Stress axis : x y z
#
# Youngs Moduli (GPa) = 88.52999 79.45784 34.22568
#
# Poissons Ratio (x) = 0.19250 0.07251
# Poissons Ratio (y) = 0.21448 0.40179
# Poissons Ratio (z) = 0.18757 0.93279
#
# Static dielectric constant tensor:
#      x y z
#    x 1.872660 -0.017030 0.030890 
#    y -0.017030 1.901630 -0.015180 
#    z 0.030890 -0.015180 1.880520 
# 
# From -- ./inp_files/539308.got.cif
#   From: 2010.05.17/outbox.cif.g08.bks.cpg/sg2_270_cif.got.tgz:539308.got - 2010.06.03 11:33:40.
