data_PCOD9103242
_publ_section_title
;
Structure prediction by ZEFSAII (Michael W. Deem and Ramdas Pophale) SiO2 
 PCOD9103242
Probable space group: P -1
;
_chemical_formula_sum "Si O2"
_cell_formula_units_Z 16
_cell_length_a 9.536274
_cell_length_b 8.761823
_cell_length_c 13.385311
_cell_angle_alpha 120.241128
_cell_angle_beta 125.605981
_cell_angle_gamma 74.772537
_cell_volume 784.823643
_symmetry_space_group_name_H-M "P -1"
_symmetry_group_IT_number 2
_symmetry_cell_setting 'triclinic'
loop_
_space_group_symop_operation_xyz
x,y,z
-x,-y,-z
loop_
_atom_site_type_symbol
_atom_site_label
_atom_site_fract_x
_atom_site_fract_y
_atom_site_fract_z
Si Si1 0.023446 0.798395 0.792612
Si Si2 0.317143 0.352345 0.955294
Si Si3 0.856424 0.127896 0.526249
Si Si4 0.437823 0.041660 0.774502
Si Si5 0.045056 0.813864 0.186160
Si Si6 0.625507 0.282503 0.209574
Si Si7 0.776087 0.263523 0.955923
Si Si8 0.151184 0.516010 0.486065
O O1 0.202377 0.754710 0.795164
O O2 0.872924 0.661721 0.646570
O O3 0.064833 0.773645 0.917842
O O4 0.983092 0.995655 0.811614
O O5 0.344810 0.214994 0.832141
O O6 0.137349 0.290425 0.911243
O O7 0.473202 0.332625 0.090471
O O8 0.302657 0.553362 0.981632
O O9 0.879419 0.154968 0.661964
O O10 0.877509 0.315619 0.540639
O O11 0.671121 0.041008 0.389450
O O12 0.000000 0.000000 0.500000
O O13 0.632569 0.105489 0.853979
O O14 0.425392 0.896039 0.809340
O O15 0.166221 0.716162 0.127572
O O16 0.677909 0.434127 0.362403
O O17 0.000000 0.500000 0.500000
#
# Coordination Sequence:
#
# PCOD9103242 Si02
#       8
#     2   2   2   2   2   2   2   2
#     4  11  21  40  63  89 128 164 212 260 307 374
#     4  12  22  40  65  89 127 161 210 261 306 371
#     4  11  21  39  67  90 127 164 206 259 310 374
#     4  11  22  40  64  93 122 165 210 257 312 367
#     4  12  25  43  62  91 128 171 204 254 325 374
#     4  10  20  38  65  94 121 159 212 261 310 366
#     4  12  27  39  61  95 128 165 210 260 315 371
#     4   9  20  35  60  98 122 154 206 260 307 357
#
# _framework density 20.386745000000001
#
# number of rings (size 3 to 8) (size 9 to 14) (size 15 to 20)
#    0.000    1.000    3.750    4.500    0.000    2.500 
#    0.000    0.000    0.000    3.750    0.000    0.000 
#    0.000    0.000    0.000    0.000    0.000    0.000 
#
# Total GULP energy -89479.782489 kJ/mol
# GULP energy per Si atom -5592.486406 kJ/mol
# Density = 2.034034 g / cm^3
# Si number density = 20.386745 Si / 1000 Ang^3
#
#
#
# Elastic Constant Matrix: (Units=GPa)
#
#
# Indices 1 2 3 4 5 6 
#
# 1 48.8583 -6.8304 26.4056 6.9063 -7.8872 13.1053
# 2 -6.8304 84.7006 51.6709 1.9455 6.1086 6.8057
# 3 26.4056 51.6709 130.3637 -1.7158 -1.8612 6.9102
# 4 6.9063 1.9455 -1.7158 31.5821 13.9885 7.9757
# 5 -7.8872 6.1086 -1.8612 13.9885 27.1798 -2.7820
# 6 13.1053 6.8057 6.9102 7.9757 -2.7820 15.2665
#
#
#
# Elastic Compliance Matrix: (Units=1/GPa)
#
#
# Indices 1 2 3 4 5 6 
#
# 1 0.037193 0.011190 -0.010464 -0.005796 0.007704 -0.027748
# 2 0.011190 0.020005 -0.009384 0.001858 -0.004492 -0.016066
# 3 -0.010464 -0.009384 0.013225 0.002421 -0.000675 0.005792
# 4 -0.005796 0.001858 0.002421 0.056385 -0.034296 -0.032655
# 5 0.007704 -0.004492 -0.000675 -0.034296 0.060157 0.024574
# 6 -0.027748 -0.016066 0.005792 -0.032655 0.024574 0.115401
#
#
# Mechanical properties :
#
#
# Convention : Reuss Voigt Hill
#
# Bulk Modulus (GPa) = 18.82997 45.15721 31.99359
# Shear Modulus (GPa) = 14.81982 27.65078 21.23530
#
# Velocity S-wave (km/s) = 2.69910 3.68681 3.23092
# Velocity P-wave (km/s) = 4.35545 6.34994 5.44480
#
# Compressibility (1/GPa) = 0.05310684
#
# Stress axis : x y z
#
# Youngs Moduli (GPa) = 26.88677 49.98632 75.61394
#
# Poissons Ratio (x) = -0.55934 0.79125
# Poissons Ratio (y) = -0.30086 0.70956
# Poissons Ratio (z) = 0.28135 0.46907
#
# Static dielectric constant tensor:
#      x y z
#    x 1.716670 0.002140 -0.010790 
#    y 0.002140 1.695600 0.015650 
#    z -0.010790 0.015650 1.739960 
# 
# From -- ./inp_files/261535.got.cif
#   From: 2010.05.17/outbox.cif.g08.bks.cpg/sg2_131_cif.got.tgz:261535.got - 2010.06.03 11:33:40.
