data_PCOD9103609
_publ_section_title
;
Structure prediction by ZEFSAII (Michael W. Deem and Ramdas Pophale) SiO2 
 PCOD9103609
Probable space group: P -1
;
_chemical_formula_sum "Si O2"
_cell_formula_units_Z 16
_cell_length_a 11.231386
_cell_length_b 8.928003
_cell_length_c 8.141636
_cell_angle_alpha 55.393707
_cell_angle_beta 67.087992
_cell_angle_gamma 83.745017
_cell_volume 612.127661
_symmetry_space_group_name_H-M "P -1"
_symmetry_group_IT_number 2
_symmetry_cell_setting 'triclinic'
loop_
_space_group_symop_operation_xyz
x,y,z
-x,-y,-z
loop_
_atom_site_type_symbol
_atom_site_label
_atom_site_fract_x
_atom_site_fract_y
_atom_site_fract_z
Si Si1 0.920685 0.011188 0.704561
Si Si2 0.183822 0.545380 0.070650
Si Si3 0.073967 0.572318 0.585120
Si Si4 0.835987 0.042449 0.187290
Si Si5 0.417305 0.598256 0.634769
Si Si6 0.610971 0.645419 0.777791
Si Si7 0.751570 0.723819 0.182447
Si Si8 0.390818 0.974377 0.428413
O O1 0.872221 0.210988 0.602059
O O2 0.025942 0.008105 0.797715
O O3 0.000000 0.000000 0.500000
O O4 0.816881 0.830501 0.918047
O O5 0.037347 0.440058 0.204027
O O6 0.253010 0.427739 0.238282
O O7 0.291091 0.574260 0.848356
O O8 0.162491 0.750707 0.005661
O O9 0.000000 0.500000 0.500000
O O10 0.168802 0.431408 0.685104
O O11 0.764467 0.893455 0.194658
O O12 0.747904 0.036976 0.400597
O O13 0.553673 0.647146 0.625857
O O14 0.389344 0.396258 0.700311
O O15 0.399365 0.790732 0.439529
O O16 0.598228 0.826188 0.777865
O O17 0.500000 0.500000 0.000000
O O18 0.500000 0.000000 0.500000
#
# Coordination Sequence:
#
# PCOD9103609 Si02
#       8
#     2   2   2   2   2   2   2   2
#     4  12  26  41  66  96 130 181 227 267 322 393
#     4  10  20  38  67  89 123 171 223 267 316 385
#     4  12  24  40  65  94 133 180 216 262 337 394
#     4  11  22  42  66  92 132 178 211 272 338 383
#     4   9  21  39  64  92 124 170 209 278 325 378
#     4   9  18  37  64  93 122 157 216 271 321 379
#     4  12  25  45  61  98 146 166 216 279 329 397
#     4   9  19  38  65  91 117 166 221 259 316 392
#
# _framework density 26.138339999999999
#
# number of rings (size 3 to 8) (size 9 to 14) (size 15 to 20)
#    0.000    1.500    2.500    3.375    3.500    2.000 
#    0.000    3.125    0.000    0.000    0.000    0.000 
#    0.000    0.000    0.000    0.000    0.000    0.000 
#
# Total GULP energy -89380.849533 kJ/mol
# GULP energy per Si atom -5586.303096 kJ/mol
# Density = 2.607885 g / cm^3
# Si number density = 26.138340 Si / 1000 Ang^3
#
#
#
# Elastic Constant Matrix: (Units=GPa)
#
#
# Indices 1 2 3 4 5 6 
#
# 1 76.1717 2.5214 1.5166 -19.6850 19.6926 -1.2901
# 2 2.5214 138.8005 52.8813 -38.8260 21.9127 -0.6390
# 3 1.5166 52.8813 116.3600 -41.9394 8.0285 -0.4641
# 4 -19.6850 -38.8260 -41.9394 68.8320 -0.7117 2.6668
# 5 19.6926 21.9127 8.0285 -0.7117 36.5468 -5.3760
# 6 -1.2901 -0.6390 -0.4641 2.6668 -5.3760 37.2334
#
#
#
# Elastic Compliance Matrix: (Units=1/GPa)
#
#
# Indices 1 2 3 4 5 6 
#
# 1 0.018231 0.003057 0.002162 0.008193 -0.012213 -0.001639
# 2 0.003057 0.010816 -0.002471 0.005438 -0.007666 -0.001236
# 3 0.002162 -0.002471 0.012261 0.006695 -0.002339 -0.000632
# 4 0.008193 0.005438 0.006695 0.024024 -0.009056 -0.002568
# 5 -0.012213 -0.007666 -0.002339 -0.009056 0.039730 0.005801
# 6 -0.001639 -0.001236 -0.000632 -0.002568 0.005801 0.027793
#
#
# Mechanical properties :
#
#
# Convention : Reuss Voigt Hill
#
# Bulk Modulus (GPa) = 21.36546 49.46341 35.41444
# Shear Modulus (GPa) = 34.97456 46.81664 40.89560
#
# Velocity S-wave (km/s) = 3.66191 4.23674 3.95977
# Velocity P-wave (km/s) = 5.10600 6.54966 5.87236
#
# Compressibility (1/GPa) = 0.04680451
#
# Stress axis : x y z
#
# Youngs Moduli (GPa) = 54.85178 92.45247 81.55942
#
# Poissons Ratio (x) = -0.28267 -0.17633
# Poissons Ratio (y) = -0.16771 0.20156
# Poissons Ratio (z) = -0.11859 0.22848
#
# Static dielectric constant tensor:
#      x y z
#    x 2.089130 0.018570 0.084050 
#    y 0.018570 2.164700 0.167120 
#    z 0.084050 0.167120 2.184820 
# 
# From -- ./inp_files/242036.got.cif
#   From: 2010.05.17/outbox.cif.g08.bks.cpg/sg2_122_cif.got.tgz:242036.got - 2010.06.03 11:33:40.
