data_PCOD9103733
_publ_section_title
;
Structure prediction by ZEFSAII (Michael W. Deem and Ramdas Pophale) SiO2 
 PCOD9103733
Probable space group: P -1
;
_chemical_formula_sum "Si O2"
_cell_formula_units_Z 12
_cell_length_a 18.558005
_cell_length_b 7.970471
_cell_length_c 6.680192
_cell_angle_alpha 85.826778
_cell_angle_beta 45.803865
_cell_angle_gamma 60.830067
_cell_volume 559.503299
_symmetry_space_group_name_H-M "P -1"
_symmetry_group_IT_number 2
_symmetry_cell_setting 'triclinic'
loop_
_space_group_symop_operation_xyz
x,y,z
-x,-y,-z
loop_
_atom_site_type_symbol
_atom_site_label
_atom_site_fract_x
_atom_site_fract_y
_atom_site_fract_z
Si Si1 0.755256 0.545860 0.768702
Si Si2 0.768158 0.865137 0.907083
Si Si3 0.965429 0.655538 0.867591
Si Si4 0.068178 0.106313 0.728373
Si Si5 0.209084 0.669910 0.656489
Si Si6 0.650358 0.338239 0.243428
O O1 0.698251 0.777194 0.950558
O O2 0.731352 0.537753 0.577985
O O3 0.908015 0.421046 0.487743
O O4 0.708280 0.433600 0.993720
O O5 0.854397 0.709567 0.935398
O O6 0.865994 0.833810 0.553145
O O7 0.695509 0.106684 0.102476
O O8 0.914120 0.865567 0.074671
O O9 0.000000 0.500000 0.000000
O O10 0.145044 0.855010 0.594938
O O11 0.916896 0.253000 0.981034
O O12 0.305711 0.664383 0.614748
O O13 0.500000 0.500000 0.500000
#
# Coordination Sequence:
#
# PCOD9103733 Si02
#       6
#     2   2   2   2   2   2
#     4  11  25  40  69 100 129 173 218 268 338 390
#     4  12  24  42  67 101 137 168 220 272 332 398
#     4  11  22  37  67 109 140 164 202 271 351 409
#     4  10  20  38  68 101 133 173 200 271 350 394
#     4  10  22  42  67  99 135 167 219 268 336 401
#     4  12  28  47  66  91 133 186 231 271 312 377
#
# _framework density 21.447595
#
# number of rings (size 3 to 8) (size 9 to 14) (size 15 to 20)
#    0.000    1.000    5.000    1.500    4.667    2.667 
#    0.000    0.833    0.000    0.000    0.000    0.000 
#    0.000    0.000    0.000    0.000    0.000    0.000 
#
# Total GULP energy -66930.926400 kJ/mol
# GULP energy per Si atom -5577.577200 kJ/mol
# Density = 2.139878 g / cm^3
# Si number density = 21.447595 Si / 1000 Ang^3
#
#
#
# Elastic Constant Matrix: (Units=GPa)
#
#
# Indices 1 2 3 4 5 6 
#
# 1 145.7637 59.1977 55.3924 30.6728 20.6809 14.2909
# 2 59.1977 121.2627 55.6432 -1.6339 -1.1950 22.5264
# 3 55.3924 55.6432 73.7619 2.7011 6.3466 2.9403
# 4 30.6728 -1.6339 2.7011 30.0250 9.3792 6.2748
# 5 20.6809 -1.1950 6.3466 9.3792 29.8341 9.5562
# 6 14.2909 22.5264 2.9403 6.2748 9.5562 35.5916
#
#
#
# Elastic Compliance Matrix: (Units=1/GPa)
#
#
# Indices 1 2 3 4 5 6 
#
# 1 0.014647 -0.004544 -0.006693 -0.013265 -0.005147 0.001269
# 2 -0.004544 0.017463 -0.010199 0.006535 0.007680 -0.011600
# 3 -0.006693 -0.010199 0.026263 0.003894 -0.005026 0.007636
# 4 -0.013265 0.006535 0.003894 0.049772 -0.004908 -0.006589
# 5 -0.005147 0.007680 -0.005026 -0.004908 0.044301 -0.013408
# 6 0.001269 -0.011600 0.007636 -0.006589 -0.013408 0.039060
#
#
# Mechanical properties :
#
#
# Convention : Reuss Voigt Hill
#
# Bulk Modulus (GPa) = 64.51522 75.69499 70.10511
# Shear Modulus (GPa) = 20.87285 30.46046 25.66666
#
# Velocity S-wave (km/s) = 3.12300 3.77268 3.46311
# Velocity P-wave (km/s) = 6.56886 7.37205 6.98201
#
# Compressibility (1/GPa) = 0.01550022
#
# Stress axis : x y z
#
# Youngs Moduli (GPa) = 68.27545 57.26240 38.07680
#
# Poissons Ratio (x) = 0.26020 0.25485
# Poissons Ratio (y) = 0.31024 0.38835
# Poissons Ratio (z) = 0.45698 0.58403
#
# Static dielectric constant tensor:
#      x y z
#    x 1.842620 0.136970 0.072190 
#    y 0.136970 1.929220 0.039650 
#    z 0.072190 0.039650 1.779810 
# 
# From -- ./inp_files/51531.got.cif
#   From: 2010.05.17/outbox.cif.g08.bks.cpg/sg2_26_cif.got.tgz:51531.got - 2010.06.03 11:33:40.
