data_PCOD9103928
_publ_section_title
;
Structure prediction by ZEFSAII (Michael W. Deem and Ramdas Pophale) SiO2 
 PCOD9103928
Probable space group: P -1
;
_chemical_formula_sum "Si O2"
_cell_formula_units_Z 13
_cell_length_a 11.197531
_cell_length_b 7.987503
_cell_length_c 11.506865
_cell_angle_alpha 138.261245
_cell_angle_beta 122.712776
_cell_angle_gamma 79.632997
_cell_volume 528.694662
_symmetry_space_group_name_H-M "P -1"
_symmetry_group_IT_number 2
_symmetry_cell_setting 'triclinic'
loop_
_space_group_symop_operation_xyz
x,y,z
-x,-y,-z
loop_
_atom_site_type_symbol
_atom_site_label
_atom_site_fract_x
_atom_site_fract_y
_atom_site_fract_z
Si Si1 0.813191 0.448552 0.681193
Si Si2 0.318593 0.797326 0.978204
Si Si3 0.130372 0.067192 0.880662
Si Si4 0.458400 0.371889 0.130133
Si Si5 0.956017 0.734388 0.418493
Si Si6 0.546698 0.942800 0.369023
Si Si7 0.500000 0.500000 0.500000
O O1 0.927903 0.407874 0.628978
O O2 0.678887 0.522463 0.593580
O O3 0.718323 0.152872 0.538620
O O4 0.896926 0.686137 0.942982
O O5 0.433217 0.780356 0.930434
O O6 0.213725 0.494739 0.809337
O O7 0.200236 0.918777 0.931749
O O8 0.432800 0.987706 0.235774
O O9 0.986316 0.846987 0.623951
O O10 0.274003 0.196908 0.932487
O O11 0.511606 0.625595 0.199622
O O12 0.475897 0.456870 0.318787
O O13 0.000000 0.000000 0.500000
O O14 0.500000 0.000000 0.500000
#
# Coordination Sequence:
#
# PCOD9103928 Si02
#       7
#     2   2   2   2   2   2   1
#     4  11  24  45  72 104 142 184 238 293 356 420
#     4  12  26  44  69 104 142 191 233 296 360 427
#     4  11  24  44  69 100 138 187 238 291 354 421
#     4  11  22  42  71 101 141 180 242 293 356 412
#     4  12  27  48  69 101 150 191 237 286 359 436
#     4  12  22  42  71 104 139 177 247 297 350 415
#     4  10  20  38  70 102 132 178 224 294 340 406
#
# _framework density 24.588863
#
# number of rings (size 3 to 8) (size 9 to 14) (size 15 to 20)
#    0.000    0.615    3.077    6.923    0.000    1.231 
#    2.769    0.000    0.000    0.000    0.000    0.000 
#    0.000    0.000    0.000    0.000    0.000    0.000 
#
# Total GULP energy -72582.267373 kJ/mol
# GULP energy per Si atom -5583.251336 kJ/mol
# Density = 2.453290 g / cm^3
# Si number density = 24.588863 Si / 1000 Ang^3
#
#
#
# Elastic Constant Matrix: (Units=GPa)
#
#
# Indices 1 2 3 4 5 6 
#
# 1 48.5515 6.8802 36.0053 -1.8078 -5.4451 -13.0644
# 2 6.8802 76.0147 5.9177 -3.6122 -15.3114 5.1842
# 3 36.0053 5.9177 138.9128 -10.8673 -15.6447 2.4216
# 4 -1.8078 -3.6122 -10.8673 41.2821 11.4402 8.1786
# 5 -5.4451 -15.3114 -15.6447 11.4402 14.6084 1.6908
# 6 -13.0644 5.1842 2.4216 8.1786 1.6908 28.4833
#
#
#
# Elastic Compliance Matrix: (Units=1/GPa)
#
#
# Indices 1 2 3 4 5 6 
#
# 1 0.032254 -0.003526 -0.008822 -0.004880 0.000669 0.017547
# 2 -0.003526 0.018343 0.002679 -0.003406 0.024100 -0.005636
# 3 -0.008822 0.002679 0.010806 0.000862 0.011152 -0.006362
# 4 -0.004880 -0.003406 0.000862 0.034218 -0.030137 -0.009728
# 5 0.000669 0.024100 0.011152 -0.030137 0.129980 -0.004090
# 6 0.017547 -0.005636 -0.006362 -0.009728 -0.004090 0.047759
#
#
# Mechanical properties :
#
#
# Convention : Reuss Voigt Hill
#
# Bulk Modulus (GPa) = 23.77417 40.12061 31.94739
# Shear Modulus (GPa) = 16.30149 31.18647 23.74398
#
# Velocity S-wave (km/s) = 2.57760 3.56521 3.11085
# Velocity P-wave (km/s) = 4.30678 5.77058 5.09156
#
# Compressibility (1/GPa) = 0.04206247
#
# Stress axis : x y z
#
# Youngs Moduli (GPa) = 31.00415 54.51718 92.54410
#
# Poissons Ratio (x) = 0.19225 0.81643
# Poissons Ratio (y) = 0.10933 -0.24788
# Poissons Ratio (z) = 0.27352 -0.14603
#
# Static dielectric constant tensor:
#      x y z
#    x 1.907400 -0.128460 -0.090620 
#    y -0.128460 2.143220 0.168010 
#    z -0.090620 0.168010 2.051790 
# 
# From -- ./inp_files/415978.got.cif
#   From: 2010.05.17/outbox.cif.g08.bks.cpg/sg2_208_cif.got.tgz:415978.got - 2010.06.03 11:33:40.
