data_PCOD9103046
_publ_section_title
;
Structure prediction by ZEFSAII (Michael W. Deem and Ramdas Pophale) SiO2 
 PCOD9103046
Probable space group: P -1
;
_chemical_formula_sum "Si O2"
_cell_formula_units_Z 16
_cell_length_a 21.933144
_cell_length_b 10.090286
_cell_length_c 8.860995
_cell_angle_alpha 41.065446
_cell_angle_beta 33.823608
_cell_angle_gamma 41.902747
_cell_volume 678.776519
_symmetry_space_group_name_H-M "P -1"
_symmetry_group_IT_number 2
_symmetry_cell_setting 'triclinic'
loop_
_space_group_symop_operation_xyz
x,y,z
-x,-y,-z
loop_
_atom_site_type_symbol
_atom_site_label
_atom_site_fract_x
_atom_site_fract_y
_atom_site_fract_z
Si Si1 0.656346 0.564607 0.693705
Si Si2 0.413003 0.597907 0.734190
Si Si3 0.254980 0.606933 0.802731
Si Si4 0.573205 0.806648 0.355138
Si Si5 0.983329 0.206729 0.958451
Si Si6 0.940179 0.934175 0.538634
Si Si7 0.694052 0.134617 0.797347
Si Si8 0.084698 0.479276 0.695811
O O1 0.600962 0.741321 0.529016
O O2 0.663931 0.342665 0.785306
O O3 0.786862 0.551280 0.482452
O O4 0.586078 0.562738 0.993556
O O5 0.500000 0.500000 0.500000
O O6 0.289271 0.654100 0.859461
O O7 0.451451 0.786226 0.567477
O O8 0.334687 0.381699 0.768010
O O9 0.123540 0.613995 0.049639
O O10 0.279722 0.784367 0.490269
O O11 0.597928 0.021334 0.082993
O O12 0.936551 0.126972 0.271637
O O13 0.082373 0.291443 0.746381
O O14 0.000000 0.000000 0.000000
O O15 0.022453 0.696101 0.544756
O O16 0.805593 0.957171 0.796021
O O17 0.000000 0.000000 0.500000
O O18 0.000000 0.500000 0.000000
#
# Coordination Sequence:
#
# PCOD9103046 Si02
#       8
#     2   2   2   2   2   2   2   2
#     4  11  23  39  66  97 127 162 220 269 316 386
#     4  10  23  45  65  86 128 174 214 271 325 375
#     4   9  21  43  62  88 134 170 211 259 324 393
#     4  10  21  41  69  92 120 166 218 274 325 367
#     4  11  25  40  60  96 138 168 207 266 319 390
#     4  11  20  37  63  92 131 171 210 253 318 390
#     4  10  20  38  64  97 125 164 214 269 316 383
#     4  12  22  40  68  97 132 176 212 258 325 393
#
# _framework density 23.571823999999999
#
# number of rings (size 3 to 8) (size 9 to 14) (size 15 to 20)
#    0.000    1.500    2.500    3.375    1.750    1.500 
#    9.000    0.000    0.000    0.000    0.000    0.000 
#    0.000    0.000    0.000    0.000    0.000    0.000 
#
# Total GULP energy -89347.343705 kJ/mol
# GULP energy per Si atom -5584.208982 kJ/mol
# Density = 2.351817 g / cm^3
# Si number density = 23.571824 Si / 1000 Ang^3
#
#
#
# Elastic Constant Matrix: (Units=GPa)
#
#
# Indices 1 2 3 4 5 6 
#
# 1 145.3858 25.2566 43.1962 -15.6070 -8.8626 19.3609
# 2 25.2566 53.1150 13.7448 -15.0094 -8.5933 12.4924
# 3 43.1962 13.7448 87.4720 -19.0967 -11.0060 20.0603
# 4 -15.6070 -15.0094 -19.0967 35.4763 10.4411 -3.5998
# 5 -8.8626 -8.5933 -11.0060 10.4411 37.0364 -7.7626
# 6 19.3609 12.4924 20.0603 -3.5998 -7.7626 31.5225
#
#
#
# Elastic Compliance Matrix: (Units=1/GPa)
#
#
# Indices 1 2 3 4 5 6 
#
# 1 0.008646 -0.002559 -0.003204 0.000823 -0.000171 -0.002206
# 2 -0.002559 0.024126 0.001228 0.008584 0.001368 -0.007454
# 3 -0.003204 0.001228 0.016209 0.006812 0.000766 -0.007868
# 4 0.000823 0.008584 0.006812 0.037487 -0.007577 -0.005827
# 5 -0.000171 0.001368 0.000766 -0.007577 0.030858 0.005809
# 6 -0.002206 -0.007454 -0.007868 -0.005827 0.005809 0.041804
#
#
# Mechanical properties :
#
#
# Convention : Reuss Voigt Hill
#
# Bulk Modulus (GPa) = 25.05439 50.04089 37.54764
# Shear Modulus (GPa) = 27.54767 34.39205 30.96986
#
# Velocity S-wave (km/s) = 3.42229 3.82387 3.62864
# Velocity P-wave (km/s) = 5.12524 6.38523 5.78962
#
# Compressibility (1/GPa) = 0.03991317
#
# Stress axis : x y z
#
# Youngs Moduli (GPa) = 115.65659 41.44895 61.69360
#
# Poissons Ratio (x) = 0.10605 0.19765
# Poissons Ratio (y) = 0.29592 -0.07576
# Poissons Ratio (z) = 0.37052 -0.05090
#
# Static dielectric constant tensor:
#      x y z
#    x 2.006150 0.019950 -0.091420 
#    y 0.019950 1.960220 0.032070 
#    z -0.091420 0.032070 1.968980 
# 
# From -- ./inp_files/272902.got.cif
#   From: 2010.05.17/outbox.cif.g08.bks.cpg/sg2_137_cif.got.tgz:272902.got - 2010.06.03 11:33:40.
