data_PCOD9103618
_publ_section_title
;
Structure prediction by ZEFSAII (Michael W. Deem and Ramdas Pophale) SiO2 
 PCOD9103618
Probable space group: P -1
;
_chemical_formula_sum "Si O2"
_cell_formula_units_Z 16
_cell_length_a 13.752188
_cell_length_b 8.212472
_cell_length_c 11.409462
_cell_angle_alpha 55.704261
_cell_angle_beta 51.886942
_cell_angle_gamma 45.080689
_cell_volume 698.811024
_symmetry_space_group_name_H-M "P -1"
_symmetry_group_IT_number 2
_symmetry_cell_setting 'triclinic'
loop_
_space_group_symop_operation_xyz
x,y,z
-x,-y,-z
loop_
_atom_site_type_symbol
_atom_site_label
_atom_site_fract_x
_atom_site_fract_y
_atom_site_fract_z
Si Si1 0.139819 0.217769 0.226662
Si Si2 0.700217 0.978910 0.281784
Si Si3 0.444795 0.292491 0.518544
Si Si4 0.616168 0.205633 0.651947
Si Si5 0.170221 0.836938 0.038937
Si Si6 0.956945 0.304910 0.120166
Si Si7 0.317754 0.410967 0.914208
Si Si8 0.005405 0.351939 0.668357
O O1 0.043291 0.174487 0.226492
O O2 0.039126 0.466819 0.264531
O O3 0.226848 0.012673 0.338253
O O4 0.264730 0.239822 0.059121
O O5 0.677579 0.767218 0.369854
O O6 0.839049 0.880635 0.308593
O O7 0.550691 0.186713 0.369412
O O8 0.723145 0.067610 0.104288
O O9 0.552972 0.159285 0.601695
O O10 0.380103 0.565801 0.464139
O O11 0.489365 0.279594 0.813867
O O12 0.116215 0.717266 0.220372
O O13 0.021930 0.108409 0.047737
O O14 0.254594 0.617737 0.973558
O O15 0.780875 0.448392 0.183904
O O16 0.000000 0.500000 0.000000
O O17 0.000000 0.500000 0.500000
#
# Coordination Sequence:
#
# PCOD9103618 Si02
#       8
#     2   2   2   2   2   2   2   2
#     4  10  23  40  62  98 129 165 214 271 328 381
#     4  11  21  43  65  96 125 170 228 265 313 396
#     4  10  25  38  67  90 129 175 219 268 318 385
#     4  11  22  43  60  94 132 174 214 263 333 377
#     4  11  22  41  69  95 124 171 219 264 318 393
#     4  10  21  37  63 102 123 160 221 270 319 377
#     4  10  20  38  67  90 128 172 217 258 324 396
#     4  11  24  42  68  94 133 169 210 271 335 385
#
# _framework density 22.896032000000002
#
# number of rings (size 3 to 8) (size 9 to 14) (size 15 to 20)
#    0.000    1.500    1.250    4.875    5.250    1.000 
#    0.000    3.125    0.000    0.000    0.000    0.000 
#    0.000    0.000    0.000    0.000    0.000    0.000 
#
# Total GULP energy -89127.789338 kJ/mol
# GULP energy per Si atom -5570.486834 kJ/mol
# Density = 2.284392 g / cm^3
# Si number density = 22.896032 Si / 1000 Ang^3
#
#
#
# Elastic Constant Matrix: (Units=GPa)
#
#
# Indices 1 2 3 4 5 6 
#
# 1 46.4990 7.2710 20.6363 -13.5151 -7.5340 -0.7754
# 2 7.2710 70.0009 4.3878 -1.3796 -2.6090 0.7043
# 3 20.6363 4.3878 119.4823 -5.9860 -24.7454 7.2279
# 4 -13.5151 -1.3796 -5.9860 25.1797 -2.5603 9.2284
# 5 -7.5340 -2.6090 -24.7454 -2.5603 23.3570 -3.3710
# 6 -0.7754 0.7043 7.2279 9.2284 -3.3710 24.8687
#
#
#
# Elastic Compliance Matrix: (Units=1/GPa)
#
#
# Indices 1 2 3 4 5 6 
#
# 1 0.029054 -0.002203 -0.002163 0.017130 0.008185 -0.003650
# 2 -0.002203 0.014545 0.000042 -0.000172 0.000895 -0.000308
# 3 -0.002163 0.000042 0.011515 0.003966 0.011460 -0.003334
# 4 0.017130 -0.000172 0.003966 0.058741 0.013170 -0.020627
# 5 0.008185 0.000895 0.011460 0.013170 0.059143 0.000029
# 6 -0.003650 -0.000308 -0.003334 -0.020627 0.000029 0.048733
#
#
# Mechanical properties :
#
#
# Convention : Reuss Voigt Hill
#
# Bulk Modulus (GPa) = 21.52106 33.39694 27.45900
# Shear Modulus (GPa) = 20.33598 28.26021 24.29809
#
# Velocity S-wave (km/s) = 2.98348 3.51705 3.26120
# Velocity P-wave (km/s) = 4.61390 5.57771 5.11854
#
# Compressibility (1/GPa) = 0.04646612
#
# Stress axis : x y z
#
# Youngs Moduli (GPa) = 34.41814 68.75304 86.84038
#
# Poissons Ratio (x) = 0.15146 0.18784
# Poissons Ratio (y) = 0.07582 -0.00362
# Poissons Ratio (z) = 0.07445 -0.00287
#
# Static dielectric constant tensor:
#      x y z
#    x 1.905050 0.003770 0.046430 
#    y 0.003770 1.830500 0.001740 
#    z 0.046430 0.001740 1.922110 
# 
# From -- ./inp_files/209477.got.cif
#   From: 2010.05.17/outbox.cif.g08.bks.cpg/sg2_105_cif.got.tgz:209477.got - 2010.06.03 11:33:40.
