data_PCOD9103111
_publ_section_title
;
Structure prediction by ZEFSAII (Michael W. Deem and Ramdas Pophale) SiO2 
 PCOD9103111
Probable space group: P -1
;
_chemical_formula_sum "Si O2"
_cell_formula_units_Z 14
_cell_length_a 22.319567
_cell_length_b 6.330636
_cell_length_c 9.640206
_cell_angle_alpha 129.638369
_cell_angle_beta 35.635177
_cell_angle_gamma 123.357042
_cell_volume 609.651068
_symmetry_space_group_name_H-M "P -1"
_symmetry_group_IT_number 2
_symmetry_cell_setting 'triclinic'
loop_
_space_group_symop_operation_xyz
x,y,z
-x,-y,-z
loop_
_atom_site_type_symbol
_atom_site_label
_atom_site_fract_x
_atom_site_fract_y
_atom_site_fract_z
Si Si1 0.092695 0.226394 0.390957
Si Si2 0.280982 0.890147 0.979922
Si Si3 0.947252 0.522931 0.963289
Si Si4 0.577598 0.322057 0.863746
Si Si5 0.538889 0.254482 0.225490
Si Si6 0.735271 0.199781 0.320849
Si Si7 0.836104 0.698390 0.013343
O O1 0.096861 0.267880 0.236612
O O2 0.200509 0.127252 0.206917
O O3 0.000000 0.000000 0.500000
O O4 0.044318 0.477532 0.661629
O O5 0.211004 0.612873 0.030652
O O6 0.369737 0.893087 0.928524
O O7 0.330259 0.843811 0.715177
O O8 0.845723 0.315892 0.101405
O O9 0.892824 0.754581 0.076351
O O10 0.000000 0.500000 0.000000
O O11 0.685938 0.381465 0.605333
O O12 0.543596 0.999197 0.762754
O O13 0.500000 0.500000 0.000000
O O14 0.576191 0.369784 0.051797
O O15 0.500000 0.500000 0.500000
O O16 0.750768 0.909716 0.239906
#
# Coordination Sequence:
#
# PCOD9103111 Si02
#       7
#     2   2   2   2   2   2   2
#     4  11  20  40  60  91 124 168 217 258 312 390
#     4  10  22  37  67  95 126 168 222 267 323 400
#     4  11  24  37  57  91 129 167 212 268 319 388
#     4  11  26  45  70  96 138 172 218 288 342 399
#     4  11  25  46  70 103 131 173 228 277 342 405
#     4  10  22  41  60  93 126 169 216 264 333 394
#     4  10  20  38  65  86 129 172 211 263 324 382
#
# _framework density 22.963953
#
# number of rings (size 3 to 8) (size 9 to 14) (size 15 to 20)
#    0.000    1.429    4.286    2.143    0.000   12.000 
#    0.000    0.000    0.000    0.000    0.000    0.000 
#    0.000    0.000    0.000    0.000    0.000    0.000 
#
# Total GULP energy -77978.540628 kJ/mol
# GULP energy per Si atom -5569.895759 kJ/mol
# Density = 2.291169 g / cm^3
# Si number density = 22.963953 Si / 1000 Ang^3
#
#
#
# Elastic Constant Matrix: (Units=GPa)
#
#
# Indices 1 2 3 4 5 6 
#
# 1 157.6003 30.3214 41.9513 -17.3703 15.5362 -39.9070
# 2 30.3214 61.3734 27.5563 -5.4629 6.6331 -24.7354
# 3 41.9513 27.5563 133.1784 -13.4984 14.5001 -19.0694
# 4 -17.3703 -5.4629 -13.4984 19.1951 -4.5553 4.5514
# 5 15.5362 6.6331 14.5001 -4.5553 28.9750 -5.8539
# 6 -39.9070 -24.7354 -19.0694 4.5514 -5.8539 47.2529
#
#
#
# Elastic Compliance Matrix: (Units=1/GPa)
#
#
# Indices 1 2 3 4 5 6 
#
# 1 0.009121 -0.000900 -0.001054 0.005327 -0.002100 0.006033
# 2 -0.000900 0.021949 -0.002682 0.001047 -0.001135 0.009406
# 3 -0.001054 -0.002682 0.009185 0.003945 -0.002655 0.000704
# 4 0.005327 0.001047 0.003945 0.060795 0.004765 0.001374
# 5 -0.002100 -0.001135 -0.002655 0.004765 0.038144 0.000827
# 6 0.006033 0.009406 0.000704 0.001374 0.000827 0.031436
#
#
# Mechanical properties :
#
#
# Convention : Reuss Voigt Hill
#
# Bulk Modulus (GPa) = 32.27530 61.31225 46.79377
# Shear Modulus (GPa) = 26.28411 35.90613 31.09512
#
# Velocity S-wave (km/s) = 3.38684 3.95851 3.68378
# Velocity P-wave (km/s) = 5.42029 6.90293 6.20604
#
# Compressibility (1/GPa) = 0.03098344
#
# Stress axis : x y z
#
# Youngs Moduli (GPa) = 109.63897 45.55991 108.86843
#
# Poissons Ratio (x) = 0.04101 0.11479
# Poissons Ratio (y) = 0.09868 0.29193
# Poissons Ratio (z) = 0.11560 0.12217
#
# Static dielectric constant tensor:
#      x y z
#    x 1.960610 0.107910 0.095850 
#    y 0.107910 1.895840 0.001640 
#    z 0.095850 0.001640 1.923680 
# 
# From -- ./inp_files/105703.got.cif
#   From: 2010.05.17/outbox.cif.g08.bks.cpg/sg2_53_cif.got.tgz:105703.got - 2010.06.03 11:33:40.
