data_PCOD9103351
_publ_section_title
;
Structure prediction by ZEFSAII (Michael W. Deem and Ramdas Pophale) SiO2 
 PCOD9103351
Probable space group: P -1
;
_chemical_formula_sum "Si O2"
_cell_formula_units_Z 16
_cell_length_a 12.665649
_cell_length_b 9.127846
_cell_length_c 10.623185
_cell_angle_alpha 84.236492
_cell_angle_beta 35.858618
_cell_angle_gamma 96.637689
_cell_volume 673.675627
_symmetry_space_group_name_H-M "P -1"
_symmetry_group_IT_number 2
_symmetry_cell_setting 'triclinic'
loop_
_space_group_symop_operation_xyz
x,y,z
-x,-y,-z
loop_
_atom_site_type_symbol
_atom_site_label
_atom_site_fract_x
_atom_site_fract_y
_atom_site_fract_z
Si Si1 0.708444 0.737892 0.631314
Si Si2 0.895071 0.050352 0.846935
Si Si3 0.020351 0.413591 0.115989
Si Si4 0.351606 0.308448 0.843647
Si Si5 0.252007 0.574419 0.400567
Si Si6 0.804624 0.132771 0.191108
Si Si7 0.379788 0.836389 0.065988
Si Si8 0.555242 0.777111 0.514330
O O1 0.757921 0.587411 0.640764
O O2 0.628415 0.707043 0.568349
O O3 0.903095 0.886675 0.424649
O O4 0.539770 0.767792 0.867687
O O5 0.749329 0.127125 0.920088
O O6 0.925522 0.109496 0.957451
O O7 0.783315 0.865223 0.969758
O O8 0.906032 0.456824 0.335240
O O9 0.922086 0.232711 0.183447
O O10 0.000000 0.500000 0.000000
O O11 0.231607 0.425483 0.952644
O O12 0.539934 0.357559 0.741151
O O13 0.411112 0.296668 0.642528
O O14 0.244294 0.709351 0.302557
O O15 0.659953 0.219944 0.275855
O O16 0.680249 0.961465 0.372930
O O17 0.500000 0.000000 0.000000
#
# Coordination Sequence:
#
# PCOD9103351 Si02
#       8
#     2   2   2   2   2   2   2   2
#     4  12  27  45  73 102 140 182 235 294 352 412
#     4  11  24  45  74 104 135 186 240 294 344 411
#     4  12  26  41  69 105 148 182 226 284 354 424
#     4  11  24  42  71 106 144 186 234 281 351 423
#     4  12  28  47  69 106 145 186 232 291 350 414
#     4  10  20  38  66 102 135 177 227 279 342 413
#     4  12  28  49  75  99 138 188 244 290 346 410
#     4  10  20  38  70  97 137 181 222 279 347 413
#
# _framework density 23.750302999999999
#
# number of rings (size 3 to 8) (size 9 to 14) (size 15 to 20)
#    0.000    0.750    3.750    3.375    5.250    6.000 
#    0.000    0.000    0.000    0.000    0.000    0.000 
#    0.000    0.000    0.000    0.000    0.000    0.000 
#
# Total GULP energy -89700.694301 kJ/mol
# GULP energy per Si atom -5606.293394 kJ/mol
# Density = 2.369625 g / cm^3
# Si number density = 23.750303 Si / 1000 Ang^3
#
#
#
# Elastic Constant Matrix: (Units=GPa)
#
#
# Indices 1 2 3 4 5 6 
#
# 1 50.2125 19.9016 7.0912 9.7560 -3.4352 -10.1414
# 2 19.9016 87.3669 27.8117 -4.5473 5.4862 -24.7514
# 3 7.0912 27.8117 93.8424 10.7327 -1.6322 -11.9898
# 4 9.7560 -4.5473 10.7327 25.0021 -12.1172 -6.0890
# 5 -3.4352 5.4862 -1.6322 -12.1172 34.9121 -4.0640
# 6 -10.1414 -24.7514 -11.9898 -6.0890 -4.0640 36.4591
#
#
#
# Elastic Compliance Matrix: (Units=1/GPa)
#
#
# Indices 1 2 3 4 5 6 
#
# 1 0.024602 -0.006308 0.001433 -0.011227 -0.000287 0.001125
# 2 -0.006308 0.017954 -0.004696 0.011109 0.001464 0.010908
# 3 0.001433 -0.004696 0.012775 -0.007413 -0.001091 0.000052
# 4 -0.011227 0.011109 -0.007413 0.063078 0.020418 0.014791
# 5 -0.000287 0.001464 -0.001091 0.020418 0.036354 0.008018
# 6 0.001125 0.010908 0.000052 0.014791 0.008018 0.038528
#
#
# Mechanical properties :
#
#
# Convention : Reuss Voigt Hill
#
# Bulk Modulus (GPa) = 27.63147 37.89233 32.76190
# Shear Modulus (GPa) = 22.27216 31.04917 26.66067
#
# Velocity S-wave (km/s) = 3.06561 3.61961 3.35407
# Velocity P-wave (km/s) = 4.91834 5.78427 5.36879
#
# Compressibility (1/GPa) = 0.03619062
#
# Stress axis : x y z
#
# Youngs Moduli (GPa) = 40.64678 55.69667 78.27747
#
# Poissons Ratio (x) = 0.35134 -0.11219
# Poissons Ratio (y) = 0.25640 0.36757
# Poissons Ratio (z) = -0.05826 0.26154
#
# Static dielectric constant tensor:
#      x y z
#    x 1.881800 -0.004930 -0.017910 
#    y -0.004930 1.908600 -0.033290 
#    z -0.017910 -0.033290 1.895750 
# 
# From -- ./inp_files/447313.got.cif
#   From: 2010.05.17/outbox.cif.g08.bks.cpg/sg2_224_cif.got.tgz:447313.got - 2010.06.03 11:33:40.
