data_PCOD9103163
_publ_section_title
;
Structure prediction by ZEFSAII (Michael W. Deem and Ramdas Pophale) SiO2 
 PCOD9103163
Probable space group: P -1
;
_chemical_formula_sum "Si O2"
_cell_formula_units_Z 16
_cell_length_a 18.502770
_cell_length_b 8.934745
_cell_length_c 9.141881
_cell_angle_alpha 114.787536
_cell_angle_beta 146.542047
_cell_angle_gamma 54.320731
_cell_volume 669.127798
_symmetry_space_group_name_H-M "P -1"
_symmetry_group_IT_number 2
_symmetry_cell_setting 'triclinic'
loop_
_space_group_symop_operation_xyz
x,y,z
-x,-y,-z
loop_
_atom_site_type_symbol
_atom_site_label
_atom_site_fract_x
_atom_site_fract_y
_atom_site_fract_z
Si Si1 0.190775 0.519522 0.590358
Si Si2 0.176988 0.213886 0.596491
Si Si3 0.379866 0.021572 0.100213
Si Si4 0.941327 0.136823 0.320986
Si Si5 0.025572 0.772212 0.136087
Si Si6 0.707060 0.949058 0.702968
Si Si7 0.479653 0.674890 0.947401
Si Si8 0.737837 0.165879 0.600989
O O1 0.110919 0.409222 0.481129
O O2 0.194012 0.674726 0.769899
O O3 0.356077 0.350379 0.790951
O O4 0.121662 0.627757 0.366239
O O5 0.055368 0.208683 0.494767
O O6 0.220452 0.036580 0.487998
O O7 0.309421 0.180035 0.921413
O O8 0.296548 0.055718 0.128227
O O9 0.551926 0.957076 0.397615
O O10 0.373632 0.852100 0.936484
O O11 0.959515 0.985881 0.168288
O O12 0.000000 0.000000 0.500000
O O13 0.865806 0.775418 0.852485
O O14 0.866049 0.228025 0.811558
O O15 0.695435 0.134649 0.679260
O O16 0.500000 0.500000 0.000000
O O17 0.403650 0.692158 0.671232
#
# Coordination Sequence:
#
# PCOD9103163 Si02
#       8
#     2   2   2   2   2   2   2   2
#     4  11  20  34  62  94 119 155 203 261 301 342
#     4  10  20  38  65  91 119 150 216 256 292 352
#     4  10  23  40  61  93 119 166 199 250 308 353
#     4   9  19  33  57  90 119 156 196 252 301 345
#     4  10  21  37  60  88 125 161 199 243 309 365
#     4  11  22  39  64  83 130 165 198 236 307 384
#     4  11  22  39  66  89 120 151 212 260 295 348
#     4  10  21  41  63  91 116 163 203 251 302 357
#
# _framework density 23.911724
#
# number of rings (size 3 to 8) (size 9 to 14) (size 15 to 20)
#    0.000    1.750    1.250    3.750    3.500    2.000 
#    0.000    3.125    8.250    0.000    0.000    0.000 
#    0.000    0.000    0.000    0.000    0.000    0.000 
#
# Total GULP energy -89179.073581 kJ/mol
# GULP energy per Si atom -5573.692099 kJ/mol
# Density = 2.385730 g / cm^3
# Si number density = 23.911724 Si / 1000 Ang^3
#
#
#
# Elastic Constant Matrix: (Units=GPa)
#
#
# Indices 1 2 3 4 5 6 
#
# 1 111.6577 24.5184 29.4368 -11.5597 -2.1031 30.1549
# 2 24.5184 75.0751 -6.8159 -15.5801 -12.7550 14.0111
# 3 29.4368 -6.8159 93.4962 -19.2078 2.0194 11.5132
# 4 -11.5597 -15.5801 -19.2078 27.7671 9.3212 -5.8258
# 5 -2.1031 -12.7550 2.0194 9.3212 32.0875 -8.9739
# 6 30.1549 14.0111 11.5132 -5.8258 -8.9739 43.2310
#
#
#
# Elastic Compliance Matrix: (Units=1/GPa)
#
#
# Indices 1 2 3 4 5 6 
#
# 1 0.012467 -0.003327 -0.003127 0.000471 -0.002469 -0.007234
# 2 -0.003327 0.018027 0.004809 0.010528 0.002803 -0.002802
# 3 -0.003127 0.004809 0.014955 0.012415 -0.003517 -0.002417
# 4 0.000471 0.010528 0.012415 0.054597 -0.013100 -0.002409
# 5 -0.002469 0.002803 -0.003517 -0.013100 0.038367 0.007949
# 6 -0.007234 -0.002802 -0.002417 -0.002409 0.007949 0.031055
#
#
# Mechanical properties :
#
#
# Convention : Reuss Voigt Hill
#
# Bulk Modulus (GPa) = 23.71952 41.61195 32.66574
# Shear Modulus (GPa) = 26.76518 36.15642 31.46080
#
# Velocity S-wave (km/s) = 3.34927 3.89277 3.63120
# Velocity P-wave (km/s) = 4.98979 6.13555 5.59209
#
# Compressibility (1/GPa) = 0.04215937
#
# Stress axis : x y z
#
# Youngs Moduli (GPa) = 80.21382 55.47221 66.86828
#
# Poissons Ratio (x) = 0.18455 0.20907
# Poissons Ratio (y) = 0.26686 -0.32156
# Poissons Ratio (z) = 0.25080 -0.26676
#
# Static dielectric constant tensor:
#      x y z
#    x 2.277030 -0.009700 0.228820 
#    y -0.009700 1.947100 0.099010 
#    z 0.228820 0.099010 2.223240 
# 
# From -- ./inp_files/329222.got.cif
#   From: 2010.05.17/outbox.cif.g08.bks.cpg/sg2_165_cif.got.tgz:329222.got - 2010.06.03 11:33:40.
