data_PCOD9103944
_publ_section_title
;
Structure prediction by ZEFSAII (Michael W. Deem and Ramdas Pophale) SiO2 
 PCOD9103944
Probable space group: P -1
;
_chemical_formula_sum "Si O2"
_cell_formula_units_Z 12
_cell_length_a 9.611917
_cell_length_b 13.073569
_cell_length_c 13.988574
_cell_angle_alpha 159.774237
_cell_angle_beta 54.021246
_cell_angle_gamma 134.270809
_cell_volume 418.655811
_symmetry_space_group_name_H-M "P -1"
_symmetry_group_IT_number 2
_symmetry_cell_setting 'triclinic'
loop_
_space_group_symop_operation_xyz
x,y,z
-x,-y,-z
loop_
_atom_site_type_symbol
_atom_site_label
_atom_site_fract_x
_atom_site_fract_y
_atom_site_fract_z
Si Si1 0.363140 0.659358 0.694108
Si Si2 0.321309 0.717062 0.541124
Si Si3 0.500000 0.500000 0.000000
Si Si4 0.263398 0.130507 0.583069
Si Si5 0.000000 0.500000 0.000000
Si Si6 0.165245 0.228853 0.017235
Si Si7 0.055313 0.644214 0.926490
O O1 0.500000 0.500000 0.500000
O O2 0.315396 0.714322 0.653987
O O3 0.155820 0.486756 0.684028
O O4 0.500000 0.000000 0.000000
O O5 0.530861 0.767234 0.465459
O O6 0.154907 0.363863 0.244490
O O7 0.279003 0.014399 0.783021
O O8 0.674742 0.752617 0.229500
O O9 0.334112 0.559187 0.177377
O O10 0.121670 0.709467 0.254837
O O11 0.157133 0.337093 0.778751
O O12 0.853067 0.173623 0.851393
O O13 0.976114 0.123664 0.934457
#
# Coordination Sequence:
#
# PCOD9103944 Si02
#       7
#     2   2   1   2   1   2   2
#     4  12  28  50  74 104 150 206 251 312 385 465
#     4  11  24  44  73 109 148 192 252 305 386 448
#     4  10  20  38  70 112 150 194 246 310 386 442
#     4   9  20  42  71 107 150 194 250 313 373 454
#     4   8  20  42  68 106 146 200 244 312 366 452
#     4  11  23  41  72 109 146 192 247 316 372 456
#     4  10  23  45  75 107 151 196 257 314 382 450
#
# _framework density 28.663164999999999
#
# number of rings (size 3 to 8) (size 9 to 14) (size 15 to 20)
#    1.000    0.667    0.000    4.000    0.000    6.667 
#    3.000    1.667    0.000    3.000    0.000    0.000 
#    0.000    0.000    0.000    0.000    0.000    0.000 
#
# Total GULP energy -66821.425014 kJ/mol
# GULP energy per Si atom -5568.452085 kJ/mol
# Density = 2.859793 g / cm^3
# Si number density = 28.663165 Si / 1000 Ang^3
#
#
#
# Elastic Constant Matrix: (Units=GPa)
#
#
# Indices 1 2 3 4 5 6 
#
# 1 223.8678 52.0225 103.3741 -19.0565 -14.4468 -53.3781
# 2 52.0225 95.6093 46.8880 -40.8503 2.4106 -27.9143
# 3 103.3741 46.8880 213.4529 -25.0377 -12.6539 -12.8237
# 4 -19.0565 -40.8503 -25.0377 61.2749 2.7501 19.8048
# 5 -14.4468 2.4106 -12.6539 2.7501 82.7451 -11.0744
# 6 -53.3781 -27.9143 -12.8237 19.8048 -11.0744 45.8217
#
#
#
# Elastic Compliance Matrix: (Units=1/GPa)
#
#
# Indices 1 2 3 4 5 6 
#
# 1 0.008799 -0.001425 -0.003543 -0.003119 0.002525 0.010349
# 2 -0.001425 0.017219 -0.001832 0.008942 -0.000756 0.004269
# 3 -0.003543 -0.001832 0.006754 0.001789 -0.000149 -0.004162
# 4 -0.003119 0.008942 0.001789 0.025123 -0.002594 -0.009171
# 5 0.002525 -0.000756 -0.000149 -0.002594 0.013526 0.006829
# 6 0.010349 0.004269 -0.004162 -0.009171 0.006829 0.040929
#
#
# Mechanical properties :
#
#
# Convention : Reuss Voigt Hill
#
# Bulk Modulus (GPa) = 52.15786 104.16656 78.16221
# Shear Modulus (GPa) = 37.78167 60.01137 48.89652
#
# Velocity S-wave (km/s) = 3.63454 4.58063 4.13474
# Velocity P-wave (km/s) = 5.98744 8.02476 7.07977
#
# Compressibility (1/GPa) = 0.01917257
#
# Stress axis : x y z
#
# Youngs Moduli (GPa) = 113.65090 58.07514 148.06299
#
# Poissons Ratio (x) = 0.08278 0.52454
# Poissons Ratio (y) = 0.16199 0.27120
# Poissons Ratio (z) = 0.40263 0.10637
#
# Static dielectric constant tensor:
#      x y z
#    x 5.478440 -2.842670 -0.808300 
#    y -2.842670 5.629860 1.143350 
#    z -0.808300 1.143350 2.590810 
# 
# From -- ./inp_files/503424.got.cif
#   From: 2010.05.17/outbox.cif.g08.bks.cpg/sg2_252_cif.got.tgz:503424.got - 2010.06.03 11:33:40.
