data_PCOD9103204
_publ_section_title
;
Structure prediction by ZEFSAII (Michael W. Deem and Ramdas Pophale) SiO2 
 PCOD9103204
Probable space group: P -1
;
_chemical_formula_sum "Si O2"
_cell_formula_units_Z 12
_cell_length_a 8.070593
_cell_length_b 11.937984
_cell_length_c 9.286697
_cell_angle_alpha 131.644871
_cell_angle_beta 47.379001
_cell_angle_gamma 123.913702
_cell_volume 482.425997
_symmetry_space_group_name_H-M "P -1"
_symmetry_group_IT_number 2
_symmetry_cell_setting 'triclinic'
loop_
_space_group_symop_operation_xyz
x,y,z
-x,-y,-z
loop_
_atom_site_type_symbol
_atom_site_label
_atom_site_fract_x
_atom_site_fract_y
_atom_site_fract_z
Si Si1 0.385133 0.465347 0.729336
Si Si2 0.429749 0.844741 0.613701
Si Si3 0.997739 0.457220 0.765159
Si Si4 0.995671 0.101253 0.948347
Si Si5 0.796050 0.116007 0.533107
Si Si6 0.710486 0.596935 0.870139
O O1 0.449346 0.299330 0.561841
O O2 0.600539 0.588214 0.769329
O O3 0.264723 0.499479 0.681725
O O4 0.164516 0.468541 0.967640
O O5 0.239739 0.839973 0.845893
O O6 0.310777 0.840845 0.520864
O O7 0.601458 0.008966 0.649751
O O8 0.915018 0.274775 0.667768
O O9 0.923274 0.514839 0.704855
O O10 0.211305 0.237381 0.966145
O O11 0.000000 0.000000 0.000000
O O12 0.030517 0.996240 0.705077
O O13 0.500000 0.500000 0.000000
#
# Coordination Sequence:
#
# PCOD9103204 Si02
#       6
#     2   2   2   2   2   2
#     4  10  21  37  60  97 121 165 217 254 313 377
#     4  10  21  38  64  93 126 167 211 256 318 379
#     4  10  21  37  64  94 124 163 215 262 306 379
#     4  10  23  39  65  98 124 166 216 255 315 383
#     4  10  20  38  65  92 127 168 209 259 318 374
#     4  10  20  39  68  88 124 170 203 259 317 367
#
# _framework density 24.874282000000001
#
# number of rings (size 3 to 8) (size 9 to 14) (size 15 to 20)
#    0.000    2.000    1.667    2.000   11.667    1.333 
#    0.000    1.667    0.000    0.000    0.000    0.000 
#    0.000    0.000    0.000    0.000    0.000    0.000 
#
# Total GULP energy -67094.534223 kJ/mol
# GULP energy per Si atom -5591.211185 kJ/mol
# Density = 2.481767 g / cm^3
# Si number density = 24.874282 Si / 1000 Ang^3
#
#
#
# Elastic Constant Matrix: (Units=GPa)
#
#
# Indices 1 2 3 4 5 6 
#
# 1 125.4005 6.7648 51.5902 6.2222 -34.0299 11.6570
# 2 6.7648 87.2320 43.0689 27.1430 -8.9899 0.2740
# 3 51.5902 43.0689 156.4978 14.5150 -33.7864 8.5364
# 4 6.2222 27.1430 14.5150 43.9352 -5.3455 2.0484
# 5 -34.0299 -8.9899 -33.7864 -5.3455 35.4343 -5.5042
# 6 11.6570 0.2740 8.5364 2.0484 -5.5042 20.0389
#
#
#
# Elastic Compliance Matrix: (Units=1/GPa)
#
#
# Indices 1 2 3 4 5 6 
#
# 1 0.011449 0.001137 -0.001956 -0.000446 0.008827 -0.003372
# 2 0.001137 0.016146 -0.004034 -0.008853 0.000289 0.001821
# 3 -0.001956 -0.004034 0.009467 0.000429 0.005998 -0.001236
# 4 -0.000446 -0.008853 0.000429 0.028461 0.001678 -0.002250
# 5 0.008827 0.000289 0.005998 0.001678 0.043373 0.004048
# 6 -0.003372 0.001821 -0.001236 -0.002250 0.004048 0.053708
#
#
# Mechanical properties :
#
#
# Convention : Reuss Voigt Hill
#
# Bulk Modulus (GPa) = 36.55453 63.55312 50.05382
# Shear Modulus (GPa) = 27.55899 37.72878 32.64388
#
# Velocity S-wave (km/s) = 3.33217 3.89881 3.62657
# Velocity P-wave (km/s) = 5.43434 6.77295 6.14023
#
# Compressibility (1/GPa) = 0.02735639
#
# Stress axis : x y z
#
# Youngs Moduli (GPa) = 87.34423 61.93493 105.62555
#
# Poissons Ratio (x) = -0.07043 0.20661
# Poissons Ratio (y) = -0.09932 0.42610
# Poissons Ratio (z) = 0.17085 0.24985
#
# Static dielectric constant tensor:
#      x y z
#    x 2.146750 -0.044880 0.063030 
#    y -0.044880 1.945070 -0.059210 
#    z 0.063030 -0.059210 2.071370 
# 
# From -- ./inp_files/154227.got.cif
#   From: 2010.05.17/outbox.cif.g08.bks.cpg/sg2_78_cif.got.tgz:154227.got - 2010.06.03 11:33:40.
