data_PCOD9103495
_publ_section_title
;
Structure prediction by ZEFSAII (Michael W. Deem and Ramdas Pophale) SiO2 
 PCOD9103495
Probable space group: P -1
;
_chemical_formula_sum "Si O2"
_cell_formula_units_Z 16
_cell_length_a 10.269551
_cell_length_b 11.895830
_cell_length_c 19.934174
_cell_angle_alpha 48.759227
_cell_angle_beta 155.303294
_cell_angle_gamma 122.034068
_cell_volume 746.685476
_symmetry_space_group_name_H-M "P -1"
_symmetry_group_IT_number 2
_symmetry_cell_setting 'triclinic'
loop_
_space_group_symop_operation_xyz
x,y,z
-x,-y,-z
loop_
_atom_site_type_symbol
_atom_site_label
_atom_site_fract_x
_atom_site_fract_y
_atom_site_fract_z
Si Si1 0.041988 0.068597 0.784299
Si Si2 0.299129 0.928320 0.834858
Si Si3 0.529369 0.892249 0.269311
Si Si4 0.282486 0.399915 0.127940
Si Si5 0.215599 0.602569 0.524545
Si Si6 0.708648 0.542262 0.520244
Si Si7 0.545773 0.576721 0.061839
Si Si8 0.162176 0.091433 0.130124
O O1 0.976744 0.239331 0.658521
O O2 0.048756 0.959012 0.766225
O O3 0.381104 0.042887 0.990686
O O4 0.813735 0.030711 0.750078
O O5 0.244366 0.049760 0.701334
O O6 0.383162 0.756296 0.915173
O O7 0.679753 0.724427 0.433123
O O8 0.428663 0.020398 0.228707
O O9 0.187006 0.885701 0.077352
O O10 0.562955 0.355246 0.330753
O O11 0.393339 0.498732 0.081817
O O12 0.194088 0.251860 0.112138
O O13 0.000000 0.500000 0.000000
O O14 0.392492 0.508081 0.580885
O O15 0.000000 0.500000 0.500000
O O16 0.500000 0.500000 0.500000
O O17 0.074520 0.453601 0.736014
O O18 0.500000 0.500000 0.000000
#
# Coordination Sequence:
#
# PCOD9103495 Si02
#       8
#     2   2   2   2   2   2   2   2
#     4  10  20  38  66  94 128 171 220 271 330 396
#     4  10  20  40  66  93 129 172 218 268 335 393
#     4  10  22  40  71  93 130 180 224 270 329 405
#     4  12  26  44  69 100 139 177 224 280 345 396
#     4  12  23  44  71  99 136 175 230 285 332 402
#     4  12  26  44  71 101 133 179 231 273 336 401
#     4  12  27  46  66 101 139 175 224 283 333 402
#     4  10  22  41  64  98 134 173 221 272 335 403
#
# _framework density 21.428031000000001
#
# number of rings (size 3 to 8) (size 9 to 14) (size 15 to 20)
#    0.000    1.000    2.500    3.750    7.000    2.500 
#    2.250    1.250    0.000    0.000    0.000    0.000 
#    0.000    0.000    0.000    0.000    0.000    0.000 
#
# Total GULP energy -89475.037360 kJ/mol
# GULP energy per Si atom -5592.189835 kJ/mol
# Density = 2.137926 g / cm^3
# Si number density = 21.428031 Si / 1000 Ang^3
#
#
#
# Elastic Constant Matrix: (Units=GPa)
#
#
# Indices 1 2 3 4 5 6 
#
# 1 158.5047 48.7676 17.7186 1.9804 -16.0708 -5.0115
# 2 48.7676 101.1908 10.9364 -13.1398 -10.4969 -23.2952
# 3 17.7186 10.9364 37.6056 -13.3104 -9.7758 2.6177
# 4 1.9804 -13.1398 -13.3104 33.0144 1.0028 -7.2429
# 5 -16.0708 -10.4969 -9.7758 1.0028 22.9492 -8.0427
# 6 -5.0115 -23.2952 2.6177 -7.2429 -8.0427 51.0661
#
#
#
# Elastic Compliance Matrix: (Units=1/GPa)
#
#
# Indices 1 2 3 4 5 6 
#
# 1 0.008179 -0.004087 -0.003347 -0.003770 0.002220 -0.001075
# 2 -0.004087 0.015789 0.002017 0.009130 0.008067 0.009263
# 3 -0.003347 0.002017 0.036909 0.016164 0.014757 0.003316
# 4 -0.003770 0.009130 0.016164 0.042688 0.010285 0.010641
# 5 0.002220 0.008067 0.014757 0.010285 0.059555 0.013980
# 6 -0.001075 0.009263 0.003316 0.010641 0.013980 0.027244
#
#
# Mechanical properties :
#
#
# Convention : Reuss Voigt Hill
#
# Bulk Modulus (GPa) = 19.98291 50.23846 35.11068
# Shear Modulus (GPa) = 22.94876 36.06452 29.50664
#
# Velocity S-wave (km/s) = 3.27612 4.10695 3.71484
# Velocity P-wave (km/s) = 4.86379 6.78126 5.90093
#
# Compressibility (1/GPa) = 0.05004276
#
# Stress axis : x y z
#
# Youngs Moduli (GPa) = 122.26888 63.33715 27.09396
#
# Poissons Ratio (x) = 0.25883 0.09070
# Poissons Ratio (y) = 0.49965 -0.05466
# Poissons Ratio (z) = 0.40929 -0.12778
#
# Static dielectric constant tensor:
#      x y z
#    x 1.781610 -0.052650 -0.049810 
#    y -0.052650 2.192480 0.503950 
#    z -0.049810 0.503950 2.369990 
# 
# From -- ./inp_files/205080.got.cif
#   From: 2010.05.17/outbox.cif.g08.bks.cpg/sg2_103_cif.got.tgz:205080.got - 2010.06.03 11:33:40.
