data_PCOD9103718
_publ_section_title
;
Structure prediction by ZEFSAII (Michael W. Deem and Ramdas Pophale) SiO2 
 PCOD9103718
Probable space group: P -1
;
_chemical_formula_sum "Si O2"
_cell_formula_units_Z 12
_cell_length_a 6.851909
_cell_length_b 10.977180
_cell_length_c 7.589747
_cell_angle_alpha 97.310291
_cell_angle_beta 117.406084
_cell_angle_gamma 58.201766
_cell_volume 425.666987
_symmetry_space_group_name_H-M "P -1"
_symmetry_group_IT_number 2
_symmetry_cell_setting 'triclinic'
loop_
_space_group_symop_operation_xyz
x,y,z
-x,-y,-z
loop_
_atom_site_type_symbol
_atom_site_label
_atom_site_fract_x
_atom_site_fract_y
_atom_site_fract_z
Si Si1 0.496214 0.704399 0.538942
Si Si2 0.224540 0.484248 0.959173
Si Si3 0.666038 0.920865 0.729221
Si Si4 0.140934 0.762183 0.099019
Si Si5 0.163710 0.601200 0.564937
Si Si6 0.308165 0.206777 0.827979
O O1 0.611989 0.790456 0.693225
O O2 0.319294 0.789272 0.307994
O O3 0.315191 0.681475 0.594497
O O4 0.705365 0.542086 0.529939
O O5 0.153185 0.557710 0.751033
O O6 0.396618 0.313175 0.957156
O O7 0.305117 0.588136 0.102602
O O8 0.000000 0.500000 0.000000
O O9 0.869673 0.710431 0.400196
O O10 0.500000 0.000000 0.500000
O O11 0.525820 0.046652 0.839077
O O12 0.901787 0.789000 0.127012
O O13 0.975816 0.853125 0.875431
#
# Coordination Sequence:
#
# PCOD9103718 Si02
#       6
#     2   2   2   2   2   2
#     4  10  24  43  67  99 136 178 227 278 333 406
#     4  10  20  38  67  99 132 171 225 282 333 398
#     4  12  24  42  67  94 135 182 222 278 343 404
#     4  10  23  42  63  96 134 176 227 276 336 401
#     4  10  20  40  65  97 135 175 225 280 337 395
#     4  10  21  38  66  97 129 174 224 277 334 399
#
# _framework density 28.191051999999999
#
# number of rings (size 3 to 8) (size 9 to 14) (size 15 to 20)
#    0.000    1.667    0.000    4.000    0.000    8.000 
#    0.000    5.000    0.000    3.000    0.000    0.000 
#    0.000    0.000    0.000    0.000    0.000    0.000 
#
# Total GULP energy -67228.824491 kJ/mol
# GULP energy per Si atom -5602.402041 kJ/mol
# Density = 2.812689 g / cm^3
# Si number density = 28.191052 Si / 1000 Ang^3
#
#
#
# Elastic Constant Matrix: (Units=GPa)
#
#
# Indices 1 2 3 4 5 6 
#
# 1 150.8711 58.6391 51.2339 11.5246 18.7061 3.6411
# 2 58.6391 159.1536 76.3212 20.9178 7.0769 -23.4296
# 3 51.2339 76.3212 159.9264 -16.5872 14.4867 -2.9460
# 4 11.5246 20.9178 -16.5872 86.3279 -1.5606 -0.3124
# 5 18.7061 7.0769 14.4867 -1.5606 50.0030 -11.2814
# 6 3.6411 -23.4296 -2.9460 -0.3124 -11.2814 51.2670
#
#
#
# Elastic Compliance Matrix: (Units=1/GPa)
#
#
# Indices 1 2 3 4 5 6 
#
# 1 0.008630 -0.002670 -0.001346 -0.000828 -0.003071 -0.002591
# 2 -0.002670 0.010519 -0.004554 -0.003014 0.001894 0.005133
# 3 -0.001346 -0.004554 0.009307 0.003031 -0.001870 -0.001844
# 4 -0.000828 -0.003014 0.003031 0.013004 0.000025 -0.001060
# 5 -0.003071 0.001894 -0.001870 0.000025 0.022773 0.005987
# 6 -0.002591 0.005133 -0.001844 -0.001060 0.005987 0.023241
#
#
# Mechanical properties :
#
#
# Convention : Reuss Voigt Hill
#
# Bulk Modulus (GPa) = 88.37520 93.59326 90.98423
# Shear Modulus (GPa) = 46.13203 56.43671 51.28437
#
# Velocity S-wave (km/s) = 4.04964 4.47916 4.26980
# Velocity P-wave (km/s) = 7.29951 7.74740 7.52679
#
# Compressibility (1/GPa) = 0.01131539
#
# Stress axis : x y z
#
# Youngs Moduli (GPa) = 115.88016 95.06982 107.44553
#
# Poissons Ratio (x) = 0.25386 0.14460
# Poissons Ratio (y) = 0.30942 0.48930
# Poissons Ratio (z) = 0.15595 0.43294
#
# Static dielectric constant tensor:
#      x y z
#    x 2.203030 -0.002460 0.032160 
#    y -0.002460 2.170610 -0.108690 
#    z 0.032160 -0.108690 2.305330 
# 
# From -- ./inp_files/155139.got.cif
#   From: 2010.05.17/outbox.cif.g08.bks.cpg/sg2_78_cif.got.tgz:155139.got - 2010.06.03 11:33:40.
