data_PCOD9103387
_publ_section_title
;
Structure prediction by ZEFSAII (Michael W. Deem and Ramdas Pophale) SiO2 
 PCOD9103387
Probable space group: P -1
;
_chemical_formula_sum "Si O2"
_cell_formula_units_Z 14
_cell_length_a 19.489214
_cell_length_b 9.302845
_cell_length_c 7.041161
_cell_angle_alpha 115.030263
_cell_angle_beta 49.344939
_cell_angle_gamma 147.735756
_cell_volume 490.579643
_symmetry_space_group_name_H-M "P -1"
_symmetry_group_IT_number 2
_symmetry_cell_setting 'triclinic'
loop_
_space_group_symop_operation_xyz
x,y,z
-x,-y,-z
loop_
_atom_site_type_symbol
_atom_site_label
_atom_site_fract_x
_atom_site_fract_y
_atom_site_fract_z
Si Si1 0.671933 0.749804 0.491239
Si Si2 0.582048 0.267781 0.756470
Si Si3 0.333507 0.283473 0.944367
Si Si4 0.162211 0.439097 0.827664
Si Si5 0.002347 0.881548 0.700389
Si Si6 0.707617 0.151674 0.711957
Si Si7 0.002680 0.663280 0.261152
O O1 0.510311 0.460658 0.727974
O O2 0.692555 0.706008 0.223042
O O3 0.831822 0.960980 0.442065
O O4 0.642676 0.893808 0.593072
O O5 0.662442 0.348130 0.452216
O O6 0.644568 0.210812 0.740178
O O7 0.658225 0.542796 0.853272
O O8 0.389316 0.993142 0.992929
O O9 0.194586 0.955339 0.060143
O O10 0.083647 0.467674 0.862828
O O11 0.040940 0.118436 0.809011
O O12 0.139068 0.400407 0.072606
O O13 0.972515 0.791719 0.489072
O O14 0.898850 0.413124 0.460804
#
# Coordination Sequence:
#
# PCOD9103387 Si02
#       7
#     2   2   2   2   2   2   2
#     4  10  22  40  58  95 124 159 198 253 306 364
#     4   9  18  39  62  89 116 166 202 245 298 363
#     4  10  20  38  66  88 117 159 212 241 296 358
#     4  10  21  37  61  93 120 156 207 256 292 349
#     4  11  22  35  62  93 124 153 206 255 294 359
#     4   9  21  36  62  88 128 156 198 248 310 358
#     4  11  21  38  63  90 117 165 202 247 299 359
#
# _framework density 28.537673000000002
#
# number of rings (size 3 to 8) (size 9 to 14) (size 15 to 20)
#    0.000    2.000    2.857    0.429    2.000    1.714 
#    0.000    0.714    0.000    0.000    0.000    0.000 
#    0.000    0.000    0.000    0.000    0.000    0.000 
#
# Total GULP energy -78316.822346 kJ/mol
# GULP energy per Si atom -5594.058739 kJ/mol
# Density = 2.847272 g / cm^3
# Si number density = 28.537673 Si / 1000 Ang^3
#
#
#
# Elastic Constant Matrix: (Units=GPa)
#
#
# Indices 1 2 3 4 5 6 
#
# 1 113.4872 13.4771 41.5909 -3.1788 2.5782 -3.9408
# 2 13.4771 122.2183 48.0905 -54.4095 -8.4690 -10.0356
# 3 41.5909 48.0905 219.8948 -68.6821 22.8703 7.6170
# 4 -3.1788 -54.4095 -68.6821 72.8754 7.4945 2.8309
# 5 2.5782 -8.4690 22.8703 7.4945 48.9165 0.2945
# 6 -3.9408 -10.0356 7.6170 2.8309 0.2945 18.3132
#
#
#
# Elastic Compliance Matrix: (Units=1/GPa)
#
#
# Indices 1 2 3 4 5 6 
#
# 1 0.010020 -0.001119 -0.002958 -0.003434 0.001168 0.003286
# 2 -0.001119 0.012961 0.000029 0.009361 0.000823 0.005390
# 3 -0.002958 0.000029 0.008529 0.008668 -0.005122 -0.005426
# 4 -0.003434 0.009361 0.008668 0.029569 -0.006759 -0.003677
# 5 0.001168 0.000823 -0.005122 -0.006759 0.023933 0.003493
# 6 0.003286 0.005390 -0.005426 -0.003677 0.003493 0.061035
#
#
# Mechanical properties :
#
#
# Convention : Reuss Voigt Hill
#
# Bulk Modulus (GPa) = 42.71177 73.54634 58.12906
# Shear Modulus (GPa) = 30.87399 51.51717 41.19558
#
# Velocity S-wave (km/s) = 3.29274 4.25341 3.80353
# Velocity P-wave (km/s) = 5.42729 7.06751 6.30100
#
# Compressibility (1/GPa) = 0.02341275
#
# Stress axis : x y z
#
# Youngs Moduli (GPa) = 99.80029 77.15318 117.24711
#
# Poissons Ratio (x) = 0.08634 0.34686
# Poissons Ratio (y) = 0.11168 -0.00336
# Poissons Ratio (z) = 0.29525 -0.00221
#
# Static dielectric constant tensor:
#      x y z
#    x 2.154780 -0.023310 -0.023540 
#    y -0.023310 2.234790 -0.033200 
#    z -0.023540 -0.033200 2.284730 
# 
# From -- ./inp_files/356873.got.cif
#   From: 2010.05.17/outbox.cif.g08.bks.cpg/sg2_179_cif.got.tgz:356873.got - 2010.06.03 11:33:40.
