data_PCOD9103058
_publ_section_title
;
Structure prediction by ZEFSAII (Michael W. Deem and Ramdas Pophale) SiO2 
 PCOD9103058
Probable space group: P -1
;
_chemical_formula_sum "Si O2"
_cell_formula_units_Z 16
_cell_length_a 15.019704
_cell_length_b 12.522668
_cell_length_c 20.147115
_cell_angle_alpha 152.882775
_cell_angle_beta 152.258649
_cell_angle_gamma 29.704432
_cell_volume 743.384083
_symmetry_space_group_name_H-M "P -1"
_symmetry_group_IT_number 2
_symmetry_cell_setting 'triclinic'
loop_
_space_group_symop_operation_xyz
x,y,z
-x,-y,-z
loop_
_atom_site_type_symbol
_atom_site_label
_atom_site_fract_x
_atom_site_fract_y
_atom_site_fract_z
Si Si1 0.715368 0.936972 0.256540
Si Si2 0.085493 0.945155 0.189746
Si Si3 0.009054 0.410801 0.170810
Si Si4 0.309443 0.965591 0.946996
Si Si5 0.336875 0.408878 0.280664
Si Si6 0.867878 0.191035 0.384618
Si Si7 0.706168 0.105349 0.560711
Si Si8 0.259728 0.219075 0.354139
O O1 0.856623 0.685192 0.247838
O O2 0.556209 0.191753 0.326850
O O3 0.850811 0.034561 0.351185
O O4 0.551535 0.850963 0.060038
O O5 0.210641 0.849372 0.287453
O O6 0.845053 0.087501 0.132099
O O7 0.175814 0.125668 0.311136
O O8 0.094812 0.725152 0.022916
O O9 0.181927 0.460384 0.267841
O O10 0.120011 0.228212 0.203140
O O11 0.256871 0.892424 0.800444
O O12 0.258012 0.263652 0.091142
O O13 0.349610 0.649077 0.386602
O O14 0.763665 0.490134 0.491678
O O15 0.099752 0.109092 0.464893
O O16 0.499322 0.053802 0.406773
#
# Coordination Sequence:
#
# PCOD9103058 Si02
#       8
#     2   2   2   2   2   2   2   2
#     4  10  20  38  64  98 119 161 199 260 319 363
#     4  10  24  45  65  89 122 171 219 250 297 368
#     4  11  24  41  68  89 125 167 210 256 307 374
#     4   8  20  36  64  94 122 155 204 269 298 354
#     4   9  20  39  63  97 127 151 209 261 313 359
#     4  11  22  38  63  96 128 159 201 260 320 369
#     4  11  23  41  67  95 124 164 204 265 311 364
#     4  12  26  44  59  91 134 170 204 251 308 376
#
# _framework density 21.523194
#
# number of rings (size 3 to 8) (size 9 to 14) (size 15 to 20)
#    0.750    1.000    2.500    1.125    3.500    5.500 
#    2.250    0.625    0.000    0.000    0.000    0.000 
#    0.000    0.000    0.000    0.000    0.000    0.000 
#
# Total GULP energy -89333.520989 kJ/mol
# GULP energy per Si atom -5583.345062 kJ/mol
# Density = 2.147421 g / cm^3
# Si number density = 21.523194 Si / 1000 Ang^3
#
#
#
# Elastic Constant Matrix: (Units=GPa)
#
#
# Indices 1 2 3 4 5 6 
#
# 1 62.6047 28.6593 22.1656 -4.4224 5.4316 6.4819
# 2 28.6593 70.5933 21.2377 -16.4664 -5.4321 -9.2676
# 3 22.1656 21.2377 58.7727 -12.0616 -6.1652 8.4366
# 4 -4.4224 -16.4664 -12.0616 13.7591 0.5341 0.8214
# 5 5.4316 -5.4321 -6.1652 0.5341 40.3865 -4.8745
# 6 6.4819 -9.2676 8.4366 0.8214 -4.8745 20.7799
#
#
#
# Elastic Compliance Matrix: (Units=1/GPa)
#
#
# Indices 1 2 3 4 5 6 
#
# 1 0.025555 -0.013712 -0.006220 -0.012587 -0.007615 -0.012850
# 2 -0.013712 0.029983 -0.001748 0.028517 0.007526 0.018998
# 3 -0.006220 -0.001748 0.025469 0.018662 0.003134 -0.009182
# 4 -0.012587 0.028517 0.018662 0.118460 0.007554 0.006157
# 5 -0.007615 0.007526 0.003134 0.007554 0.028484 0.010843
# 6 -0.012850 0.018998 -0.009182 0.006157 0.010843 0.066633
#
#
# Mechanical properties :
#
#
# Convention : Reuss Voigt Hill
#
# Bulk Modulus (GPa) = 26.56338 37.34400 31.95369
# Shear Modulus (GPa) = 14.26554 22.97898 18.62226
#
# Velocity S-wave (km/s) = 2.57728 3.27102 2.94465
# Velocity P-wave (km/s) = 4.60706 5.62622 5.14195
#
# Compressibility (1/GPa) = 0.03764581
#
# Stress axis : x y z
#
# Youngs Moduli (GPa) = 39.13156 33.35175 39.26335
#
# Poissons Ratio (x) = 0.45733 0.24422
# Poissons Ratio (y) = 0.53658 0.06865
# Poissons Ratio (z) = 0.24340 0.05831
#
# Static dielectric constant tensor:
#      x y z
#    x 1.742530 -0.031060 -0.018010 
#    y -0.031060 1.761190 -0.036680 
#    z -0.018010 -0.036680 1.820680 
# 
# From -- ./inp_files/597888.got.cif
#   From: 2010.05.17/outbox.cif.g08.bks.cpg/sg2_299_cif.got.tgz:597888.got - 2010.06.03 11:33:40.
