data_PCOD9103556
_publ_section_title
;
Structure prediction by ZEFSAII (Michael W. Deem and Ramdas Pophale) SiO2 
 PCOD9103556
Probable space group: P -1
;
_chemical_formula_sum "Si O2"
_cell_formula_units_Z 10
_cell_length_a 6.558313
_cell_length_b 7.133518
_cell_length_c 8.992728
_cell_angle_alpha 64.614114
_cell_angle_beta 93.944457
_cell_angle_gamma 85.319536
_cell_volume 376.298936
_symmetry_space_group_name_H-M "P -1"
_symmetry_group_IT_number 2
_symmetry_cell_setting 'triclinic'
loop_
_space_group_symop_operation_xyz
x,y,z
-x,-y,-z
loop_
_atom_site_type_symbol
_atom_site_label
_atom_site_fract_x
_atom_site_fract_y
_atom_site_fract_z
Si Si1 0.606404 0.033346 0.255003
Si Si2 0.475230 0.394354 0.751448
Si Si3 0.821604 0.360011 0.576373
Si Si4 0.195917 0.098042 0.371052
Si Si5 0.843549 0.387623 0.126450
O O1 0.571859 0.834428 0.223455
O O2 0.716861 0.948160 0.443496
O O3 0.388469 0.148862 0.264006
O O4 0.734985 0.194065 0.123244
O O5 0.715093 0.399093 0.720591
O O6 0.358471 0.566857 0.574999
O O7 0.345782 0.456879 0.871057
O O8 0.000000 0.500000 0.500000
O O9 0.867722 0.112748 0.636948
O O10 0.999130 0.269547 0.296654
O O11 0.000000 0.500000 0.000000
#
# Coordination Sequence:
#
# PCOD9103556 Si02
#       5
#     2   2   2   2   2
#     4  10  22  43  67  94 127 162 228 277 306 381
#     4  10  23  38  64  99 125 165 216 268 325 374
#     4  10  20  38  66  99 126 158 213 278 324 372
#     4  10  22  42  67  96 127 168 217 276 324 367
#     4  12  26  42  61  95 140 177 209 255 329 397
#
# _framework density 26.574618000000001
#
# number of rings (size 3 to 8) (size 9 to 14) (size 15 to 20)
#    0.000    1.600    2.000    1.800    5.600    1.600 
#    0.000    4.000    0.000    0.000    0.000    0.000 
#    0.000    0.000    0.000    0.000    0.000    0.000 
#
# Total GULP energy -56005.154144 kJ/mol
# GULP energy per Si atom -5600.515414 kJ/mol
# Density = 2.651413 g / cm^3
# Si number density = 26.574618 Si / 1000 Ang^3
#
#
#
# Elastic Constant Matrix: (Units=GPa)
#
#
# Indices 1 2 3 4 5 6 
#
# 1 150.0286 70.0718 61.9232 -4.5369 -48.1219 -7.5238
# 2 70.0718 157.1244 38.9498 -5.9392 -33.8511 1.9755
# 3 61.9232 38.9498 133.6476 -9.0469 -57.3139 -1.8908
# 4 -4.5369 -5.9392 -9.0469 19.7755 7.0471 -18.5477
# 5 -48.1219 -33.8511 -57.3139 7.0471 72.3227 -9.3498
# 6 -7.5238 1.9755 -1.8908 -18.5477 -9.3498 39.3378
#
#
#
# Elastic Compliance Matrix: (Units=1/GPa)
#
#
# Indices 1 2 3 4 5 6 
#
# 1 0.010735 -0.003307 -0.001774 0.003699 0.004467 0.004940
# 2 -0.003307 0.008220 -0.000248 0.000767 0.001327 -0.000380
# 3 -0.001774 -0.000248 0.012812 0.008008 0.008875 0.006174
# 4 0.003699 0.000767 0.008008 0.099535 0.005851 0.049375
# 5 0.004467 0.001327 0.008875 0.005851 0.025170 0.009955
# 6 0.004940 -0.000380 0.006174 0.049375 0.009955 0.052328
#
#
# Mechanical properties :
#
#
# Convention : Reuss Voigt Hill
#
# Bulk Modulus (GPa) = 47.37432 86.96558 67.16995
# Shear Modulus (GPa) = 22.07563 44.27757 33.17660
#
# Velocity S-wave (km/s) = 2.88532 4.08629 3.53715
# Velocity P-wave (km/s) = 5.38198 7.42023 6.48172
#
# Compressibility (1/GPa) = 0.02110848
#
# Stress axis : x y z
#
# Youngs Moduli (GPa) = 93.15569 121.64841 78.05370
#
# Poissons Ratio (x) = 0.40235 0.13846
# Poissons Ratio (y) = 0.30811 0.01934
# Poissons Ratio (z) = 0.16525 0.03015
#
# Static dielectric constant tensor:
#      x y z
#    x 2.113430 0.020310 0.005830 
#    y 0.020310 2.090310 0.077500 
#    z 0.005830 0.077500 2.171230 
# 
# From -- ./inp_files/291351.got.cif
#   From: 2010.05.17/outbox.cif.g08.bks.cpg/sg2_146_cif.got.tgz:291351.got - 2010.06.03 11:33:40.
