data_PCOD9103060
_publ_section_title
;
Structure prediction by ZEFSAII (Michael W. Deem and Ramdas Pophale) SiO2 
 PCOD9103060
Probable space group: P -1
;
_chemical_formula_sum "Si O2"
_cell_formula_units_Z 16
_cell_length_a 24.404528
_cell_length_b 8.547555
_cell_length_c 5.569547
_cell_angle_alpha 118.591280
_cell_angle_beta 101.840271
_cell_angle_gamma 41.550032
_cell_volume 652.870451
_symmetry_space_group_name_H-M "P -1"
_symmetry_group_IT_number 2
_symmetry_cell_setting 'triclinic'
loop_
_space_group_symop_operation_xyz
x,y,z
-x,-y,-z
loop_
_atom_site_type_symbol
_atom_site_label
_atom_site_fract_x
_atom_site_fract_y
_atom_site_fract_z
Si Si1 0.076555 0.963561 0.534207
Si Si2 0.428673 0.749695 0.445987
Si Si3 0.317823 0.660879 0.218277
Si Si4 0.618352 0.866134 0.952584
Si Si5 0.016375 0.176320 0.134950
Si Si6 0.176379 0.244172 0.620148
Si Si7 0.224654 0.324624 0.222060
Si Si8 0.467191 0.252933 0.784792
O O1 0.058999 0.111985 0.382809
O O2 0.163362 0.642355 0.362492
O O3 0.069527 0.081767 0.869219
O O4 0.000000 0.000000 0.500000
O O5 0.500000 0.500000 0.500000
O O6 0.365125 0.736866 0.353735
O O7 0.488876 0.685611 0.249877
O O8 0.376956 0.041338 0.723522
O O9 0.345983 0.419706 0.215787
O O10 0.220758 0.947291 0.388483
O O11 0.364722 0.502481 0.891135
O O12 0.677804 0.841942 0.815543
O O13 0.518650 0.116313 0.980332
O O14 0.925735 0.492290 0.265404
O O15 0.000000 0.000000 0.000000
O O16 0.200870 0.296686 0.437299
O O17 0.208956 0.239650 0.907383
O O18 0.500000 0.000000 0.500000
#
# Coordination Sequence:
#
# PCOD9103060 Si02
#       8
#     2   2   2   2   2   2   2   2
#     4  10  16  32  60  96 125 172 222 273 330 408
#     4  12  24  43  70  95 123 174 229 278 341 403
#     4  12  26  44  65  98 135 177 227 288 340 405
#     4  12  27  45  64  97 138 176 226 289 340 405
#     4  10  16  32  59  96 128 166 228 268 331 408
#     4  12  23  38  66 103 132 178 227 283 339 408
#     4  12  23  39  66 101 136 174 231 280 341 406
#     4  12  25  46  72  94 131 183 231 280 344 410
#
# _framework density 24.507159000000001
#
# number of rings (size 3 to 8) (size 9 to 14) (size 15 to 20)
#    0.000    0.500    8.750    2.250    1.750    1.000 
#    0.000    0.000    0.000    1.500    0.000    0.000 
#    0.000    0.000    0.000    0.000    0.000    0.000 
#
# Total GULP energy -89324.828272 kJ/mol
# GULP energy per Si atom -5582.801767 kJ/mol
# Density = 2.445138 g / cm^3
# Si number density = 24.507159 Si / 1000 Ang^3
#
#
#
# Elastic Constant Matrix: (Units=GPa)
#
#
# Indices 1 2 3 4 5 6 
#
# 1 66.4949 10.7229 25.3324 -3.2803 2.9753 11.7186
# 2 10.7229 114.0014 51.5036 17.3113 3.7898 7.2802
# 3 25.3324 51.5036 167.6640 14.3389 -10.3691 12.0719
# 4 -3.2803 17.3113 14.3389 63.4637 5.2522 -9.9277
# 5 2.9753 3.7898 -10.3691 5.2522 30.6706 11.4029
# 6 11.7186 7.2802 12.0719 -9.9277 11.4029 32.8077
#
#
#
# Elastic Compliance Matrix: (Units=1/GPa)
#
#
# Indices 1 2 3 4 5 6 
#
# 1 0.016828 -0.000390 -0.002209 0.000819 -0.000761 -0.004599
# 2 -0.000390 0.010653 -0.003002 -0.002343 -0.001392 -0.001345
# 3 -0.002209 -0.003002 0.008001 -0.002138 0.005111 -0.003912
# 4 0.000819 -0.002343 -0.002138 0.018965 -0.007202 0.009256
# 5 -0.000761 -0.001392 0.005111 -0.007202 0.042611 -0.018289
# 6 -0.004599 -0.001345 -0.003912 0.009256 -0.018289 0.043019
#
#
# Mechanical properties :
#
#
# Convention : Reuss Voigt Hill
#
# Bulk Modulus (GPa) = 41.18754 58.14201 49.66477
# Shear Modulus (GPa) = 31.37294 42.76181 37.06738
#
# Velocity S-wave (km/s) = 3.58181 4.18170 3.89332
# Velocity P-wave (km/s) = 5.82654 6.86232 6.36553
#
# Compressibility (1/GPa) = 0.02427919
#
# Stress axis : x y z
#
# Youngs Moduli (GPa) = 59.42446 93.87158 124.98677
#
# Poissons Ratio (x) = 0.03664 0.27605
# Poissons Ratio (y) = 0.02320 0.37525
# Poissons Ratio (z) = 0.13125 0.28183
#
# Static dielectric constant tensor:
#      x y z
#    x 2.136070 -0.011600 -0.020760 
#    y -0.011600 1.981900 -0.067630 
#    z -0.020760 -0.067630 2.172450 
# 
# From -- ./inp_files/126522.got.cif
#   From: 2010.05.17/outbox.cif.g08.bks.cpg/sg2_64_cif.got.tgz:126522.got - 2010.06.03 11:33:40.
