data_PCOD9103730
_publ_section_title
;
Structure prediction by ZEFSAII (Michael W. Deem and Ramdas Pophale) SiO2 
 PCOD9103730
Probable space group: P -1
;
_chemical_formula_sum "Si O2"
_cell_formula_units_Z 14
_cell_length_a 7.985637
_cell_length_b 12.797357
_cell_length_c 9.096399
_cell_angle_alpha 53.813745
_cell_angle_beta 85.124311
_cell_angle_gamma 121.242632
_cell_volume 528.425135
_symmetry_space_group_name_H-M "P -1"
_symmetry_group_IT_number 2
_symmetry_cell_setting 'triclinic'
loop_
_space_group_symop_operation_xyz
x,y,z
-x,-y,-z
loop_
_atom_site_type_symbol
_atom_site_label
_atom_site_fract_x
_atom_site_fract_y
_atom_site_fract_z
Si Si1 0.135919 0.160140 0.475186
Si Si2 0.833647 0.997256 0.132184
Si Si3 0.326760 0.377327 0.754618
Si Si4 0.254171 0.518395 0.179306
Si Si5 0.455491 0.945831 0.380918
Si Si6 0.310714 0.606691 0.767540
Si Si7 0.513493 0.147093 0.961184
O O1 0.088123 0.073670 0.708318
O O2 0.116822 0.305386 0.363582
O O3 0.410216 0.272768 0.332344
O O4 0.000000 0.000000 0.500000
O O5 0.930829 0.816538 0.108811
O O6 0.700681 0.027798 0.222717
O O7 0.636107 0.853658 0.145583
O O8 0.500000 0.500000 0.500000
O O9 0.482150 0.387171 0.861446
O O10 0.242817 0.459765 0.780630
O O11 0.223251 0.552574 0.986725
O O12 0.251519 0.643436 0.184485
O O13 0.394672 0.039497 0.213840
O O14 0.500000 0.000000 0.500000
O O15 0.283772 0.728171 0.583419
O O16 0.500000 0.000000 0.000000
#
# Coordination Sequence:
#
# PCOD9103730 Si02
#       7
#     2   2   2   2   2   2   2
#     4  10  20  38  68 100 135 176 226 288 351 415
#     4  10  23  43  67 101 145 177 235 286 347 429
#     4  11  25  43  67 100 142 181 227 297 362 410
#     4  11  22  39  68 101 138 186 222 290 356 409
#     4  10  20  43  72  97 130 189 233 283 345 405
#     4  10  21  41  66  95 135 178 233 292 340 405
#     4  10  23  41  68  98 146 185 232 284 347 412
#
# _framework density 26.493818999999998
#
# number of rings (size 3 to 8) (size 9 to 14) (size 15 to 20)
#    0.000    1.714    1.429    3.429    8.000    0.571 
#    5.143    4.286    9.429    0.000    0.000    0.000 
#    0.000    0.000    0.000    0.000    0.000    0.000 
#
# Total GULP energy -78174.342845 kJ/mol
# GULP energy per Si atom -5583.881632 kJ/mol
# Density = 2.643352 g / cm^3
# Si number density = 26.493819 Si / 1000 Ang^3
#
#
#
# Elastic Constant Matrix: (Units=GPa)
#
#
# Indices 1 2 3 4 5 6 
#
# 1 93.3825 27.0755 34.5377 5.2691 10.9627 -5.3141
# 2 27.0755 230.4302 80.7441 8.4953 -2.0177 0.0830
# 3 34.5377 80.7441 155.3920 14.4040 14.1696 19.7910
# 4 5.2691 8.4953 14.4040 53.6966 -4.0134 -1.2675
# 5 10.9627 -2.0177 14.1696 -4.0134 49.8421 -3.6314
# 6 -5.3141 0.0830 19.7910 -1.2675 -3.6314 30.7733
#
#
#
# Elastic Compliance Matrix: (Units=1/GPa)
#
#
# Indices 1 2 3 4 5 6 
#
# 1 0.012302 -0.000479 -0.002758 -0.000432 -0.001708 0.003680
# 2 -0.000479 0.005512 -0.003171 0.000180 0.001399 0.002114
# 3 -0.002758 -0.003171 0.010152 -0.002362 -0.003142 -0.007465
# 4 -0.000432 0.000180 -0.002362 0.019520 0.002531 0.002547
# 5 -0.001708 0.001399 -0.003142 0.002531 0.021914 0.004412
# 6 0.003680 0.002114 -0.007465 0.002547 0.004412 0.038552
#
#
# Mechanical properties :
#
#
# Convention : Reuss Voigt Hill
#
# Bulk Modulus (GPa) = 66.00981 84.87992 75.44487
# Shear Modulus (GPa) = 39.73949 49.31887 44.52918
#
# Velocity S-wave (km/s) = 3.87712 4.31922 4.10413
# Velocity P-wave (km/s) = 6.70910 7.54860 7.14120
#
# Compressibility (1/GPa) = 0.01514926
#
# Stress axis : x y z
#
# Youngs Moduli (GPa) = 81.28747 181.42048 98.49967
#
# Poissons Ratio (x) = 0.08697 0.27167
# Poissons Ratio (y) = 0.03897 0.31235
# Poissons Ratio (z) = 0.22420 0.57530
#
# Static dielectric constant tensor:
#      x y z
#    x 2.273080 -0.185080 0.041920 
#    y -0.185080 2.268760 -0.117410 
#    z 0.041920 -0.117410 2.139080 
# 
# From -- ./inp_files/252138.got.cif
#   From: 2010.05.17/outbox.cif.g08.bks.cpg/sg2_127_cif.got.tgz:252138.got - 2010.06.03 11:33:40.
