data_PCOD9103150
_publ_section_title
;
Structure prediction by ZEFSAII (Michael W. Deem and Ramdas Pophale) SiO2 
 PCOD9103150
Probable space group: P -1
;
_chemical_formula_sum "Si O2"
_cell_formula_units_Z 14
_cell_length_a 11.967816
_cell_length_b 9.400365
_cell_length_c 7.227458
_cell_angle_alpha 69.624058
_cell_angle_beta 90.653699
_cell_angle_gamma 128.795021
_cell_volume 569.793752
_symmetry_space_group_name_H-M "P -1"
_symmetry_group_IT_number 2
_symmetry_cell_setting 'triclinic'
loop_
_space_group_symop_operation_xyz
x,y,z
-x,-y,-z
loop_
_atom_site_type_symbol
_atom_site_label
_atom_site_fract_x
_atom_site_fract_y
_atom_site_fract_z
Si Si1 0.376843 0.906353 0.294899
Si Si2 0.405668 0.614924 0.264259
Si Si3 0.097988 0.358655 0.164998
Si Si4 0.683048 0.328928 0.223201
Si Si5 0.052985 0.061687 0.690989
Si Si6 0.932242 0.273705 0.562519
Si Si7 0.643321 0.606559 0.268681
O O1 0.411796 0.800765 0.204569
O O2 0.319915 0.767770 0.543734
O O3 0.231350 0.877437 0.279759
O O4 0.525985 0.135950 0.221578
O O5 0.241092 0.437723 0.259668
O O6 0.536051 0.635579 0.163003
O O7 0.425493 0.563518 0.493779
O O8 0.964939 0.283807 0.337830
O O9 0.171604 0.558343 0.953937
O O10 0.039142 0.163937 0.133216
O O11 0.681924 0.508732 0.171025
O O12 0.220662 0.192511 0.708952
O O13 0.014194 0.199556 0.678810
O O14 0.000000 0.000000 0.500000
O O15 0.000000 0.500000 0.500000
#
# Coordination Sequence:
#
# PCOD9103150 Si02
#       7
#     2   2   2   2   2   2   2
#     4  10  22  42  63  90 127 180 205 254 335 382
#     4  10  20  38  65  90 124 171 214 259 307 388
#     4  11  23  40  65  99 128 163 222 269 307 374
#     4  10  24  41  62  95 133 164 217 266 317 381
#     4  10  21  38  64  93 121 168 212 259 321 372
#     4  11  20  40  66  92 129 170 212 261 316 385
#     4  10  20  39  63  89 129 168 209 259 318 383
#
# _framework density 24.570291000000001
#
# number of rings (size 3 to 8) (size 9 to 14) (size 15 to 20)
#    0.000    1.714    4.286    0.857    2.000    8.000 
#    0.000    0.000    0.000    0.000    0.000    0.000 
#    0.000    0.000    0.000    0.000    0.000    0.000 
#
# Total GULP energy -78036.073181 kJ/mol
# GULP energy per Si atom -5574.005227 kJ/mol
# Density = 2.451437 g / cm^3
# Si number density = 24.570291 Si / 1000 Ang^3
#
#
#
# Elastic Constant Matrix: (Units=GPa)
#
#
# Indices 1 2 3 4 5 6 
#
# 1 110.4701 39.4113 1.2079 -0.9468 2.3023 -4.4996
# 2 39.4113 130.1819 12.1012 -29.7848 -11.5490 -2.5167
# 3 1.2079 12.1012 79.9749 -10.2752 3.2439 -18.5389
# 4 -0.9468 -29.7848 -10.2752 34.7594 11.9151 -2.1360
# 5 2.3023 -11.5490 3.2439 11.9151 17.4467 3.7496
# 6 -4.4996 -2.5167 -18.5389 -2.1360 3.7496 22.4773
#
#
#
# Elastic Compliance Matrix: (Units=1/GPa)
#
#
# Indices 1 2 3 4 5 6 
#
# 1 0.010637 -0.003878 0.001237 -0.001017 -0.004220 0.003323
# 2 -0.003878 0.011048 -0.000444 0.008617 0.001894 0.000597
# 3 0.001237 -0.000444 0.019577 0.012532 -0.017035 0.020377
# 4 -0.001017 0.008617 0.012532 0.054439 -0.038549 0.022701
# 5 -0.004220 0.001894 -0.017035 -0.038549 0.096008 -0.034362
# 6 0.003323 0.000597 0.020377 0.022701 -0.034362 0.069918
#
#
# Mechanical properties :
#
#
# Convention : Reuss Voigt Hill
#
# Bulk Modulus (GPa) = 28.49722 47.34086 37.91904
# Shear Modulus (GPa) = 17.88942 32.79712 25.34327
#
# Velocity S-wave (km/s) = 2.70124 3.65749 3.21512
# Velocity P-wave (km/s) = 4.62086 6.09473 5.40824
#
# Compressibility (1/GPa) = 0.03509114
#
# Stress axis : x y z
#
# Youngs Moduli (GPa) = 94.01348 90.51378 51.07972
#
# Poissons Ratio (x) = 0.35101 -0.06318
# Poissons Ratio (y) = 0.36458 0.02270
# Poissons Ratio (z) = -0.11629 0.04023
#
# Static dielectric constant tensor:
#      x y z
#    x 2.032680 -0.040290 -0.026210 
#    y -0.040290 1.921360 0.039450 
#    z -0.026210 0.039450 2.129890 
# 
# From -- ./inp_files/237677.got.cif
#   From: 2010.05.17/outbox.cif.g08.bks.cpg/sg2_119_cif.got.tgz:237677.got - 2010.06.03 11:33:40.
