data_PCOD9103684
_publ_section_title
;
Structure prediction by ZEFSAII (Michael W. Deem and Ramdas Pophale) SiO2 
 PCOD9103684
Probable space group: P -1
;
_chemical_formula_sum "Si O2"
_cell_formula_units_Z 16
_cell_length_a 13.552091
_cell_length_b 8.210308
_cell_length_c 26.594195
_cell_angle_alpha 46.485629
_cell_angle_beta 22.032886
_cell_angle_gamma 57.330397
_cell_volume 750.444409
_symmetry_space_group_name_H-M "P -1"
_symmetry_group_IT_number 2
_symmetry_cell_setting 'triclinic'
loop_
_space_group_symop_operation_xyz
x,y,z
-x,-y,-z
loop_
_atom_site_type_symbol
_atom_site_label
_atom_site_fract_x
_atom_site_fract_y
_atom_site_fract_z
Si Si1 0.109521 0.886010 0.207607
Si Si2 0.514019 0.648862 0.015379
Si Si3 0.562403 0.765275 0.786934
Si Si4 0.059956 0.171458 0.073035
Si Si5 0.014026 0.238278 0.497863
Si Si6 0.677302 0.501243 0.555964
Si Si7 0.781072 0.973564 0.153490
Si Si8 0.427706 0.612029 0.743416
O O1 0.246500 0.703702 0.155258
O O2 0.819613 0.714895 0.405207
O O3 0.103362 0.060557 0.127911
O O4 0.266188 0.074611 0.138850
O O5 0.569999 0.465759 0.067259
O O6 0.500000 0.500000 0.000000
O O7 0.820216 0.752009 0.634849
O O8 0.331959 0.808963 0.850418
O O9 0.725554 0.008583 0.689702
O O10 0.798961 0.262321 0.178150
O O11 0.956162 0.973655 0.120457
O O12 0.323621 0.386847 0.879089
O O13 0.251690 0.234442 0.425369
O O14 0.910764 0.461073 0.491331
O O15 0.509573 0.253069 0.659899
O O16 0.444517 0.529369 0.696578
O O17 0.000000 0.000000 0.000000
#
# Coordination Sequence:
#
# PCOD9103684 Si02
#       8
#     2   2   2   2   2   2   2   2
#     4  11  27  46  66 104 143 177 230 280 345 416
#     4  11  26  45  70  96 142 187 223 276 350 415
#     4  10  21  40  67  98 127 172 228 284 330 401
#     4  11  25  43  67  96 136 187 220 279 344 411
#     4  10  20  38  67  96 130 163 227 291 333 385
#     4  11  24  42  67 101 135 173 227 290 335 404
#     4  11  23  43  68 100 134 176 232 282 337 405
#     4  11  23  40  67  96 131 176 229 277 340 403
#
# _framework density 21.320699999999999
#
# number of rings (size 3 to 8) (size 9 to 14) (size 15 to 20)
#    0.000    1.250    3.750    1.125    7.000    1.000 
#    0.000    0.000    0.000    0.000    0.000    0.000 
#    0.000    0.000    0.000    0.000    0.000    0.000 
#
# Total GULP energy -89079.948235 kJ/mol
# GULP energy per Si atom -5567.496765 kJ/mol
# Density = 2.127217 g / cm^3
# Si number density = 21.320700 Si / 1000 Ang^3
#
#
#
# Elastic Constant Matrix: (Units=GPa)
#
#
# Indices 1 2 3 4 5 6 
#
# 1 71.2801 28.5718 16.0840 -11.4431 1.3083 12.1413
# 2 28.5718 62.6296 25.4107 -0.2746 16.2284 11.5868
# 3 16.0840 25.4107 78.5333 -9.5307 6.5100 5.0159
# 4 -11.4431 -0.2746 -9.5307 29.8783 -2.2335 1.6067
# 5 1.3083 16.2284 6.5100 -2.2335 34.5257 -1.4554
# 6 12.1413 11.5868 5.0159 1.6067 -1.4554 25.6647
#
#
#
# Elastic Compliance Matrix: (Units=1/GPa)
#
#
# Indices 1 2 3 4 5 6 
#
# 1 0.019793 -0.008852 -0.000165 0.008028 0.003724 -0.005627
# 2 -0.008852 0.026816 -0.006117 -0.005596 -0.011775 -0.007041
# 3 -0.000165 -0.006117 0.015336 0.004818 0.000283 -0.000443
# 4 0.008028 -0.005596 0.004818 0.038545 0.003725 -0.004414
# 5 0.003724 -0.011775 0.000283 0.003725 0.034766 0.005237
# 6 -0.005627 -0.007041 -0.000443 -0.004414 0.005237 0.045465
#
#
# Mechanical properties :
#
#
# Convention : Reuss Voigt Hill
#
# Bulk Modulus (GPa) = 31.56773 39.17513 35.37143
# Shear Modulus (GPa) = 22.56857 27.50551 25.03704
#
# Velocity S-wave (km/s) = 3.25703 3.59567 3.43053
# Velocity P-wave (km/s) = 5.38355 5.97098 5.68486
#
# Compressibility (1/GPa) = 0.03167792
#
# Stress axis : x y z
#
# Youngs Moduli (GPa) = 50.52241 37.29112 65.20578
#
# Poissons Ratio (x) = 0.33009 0.01074
# Poissons Ratio (y) = 0.44720 0.39889
# Poissons Ratio (z) = 0.00832 0.22812
#
# Static dielectric constant tensor:
#      x y z
#    x 1.860990 0.145360 -0.037830 
#    y 0.145360 1.925040 0.006460 
#    z -0.037830 0.006460 1.757730 
# 
# From -- ./inp_files/623446.got.cif
#   From: 2010.05.17/outbox.cif.g08.bks.cpg/sg2_312_cif.got.tgz:623446.got - 2010.06.03 11:33:40.
