data_PCOD9103893
_publ_section_title
;
Structure prediction by ZEFSAII (Michael W. Deem and Ramdas Pophale) SiO2 
 PCOD9103893
Probable space group: P -1
;
_chemical_formula_sum "Si O2"
_cell_formula_units_Z 16
_cell_length_a 11.315890
_cell_length_b 9.209851
_cell_length_c 11.602535
_cell_angle_alpha 54.083071
_cell_angle_beta 116.130501
_cell_angle_gamma 140.802700
_cell_volume 618.662433
_symmetry_space_group_name_H-M "P -1"
_symmetry_group_IT_number 2
_symmetry_cell_setting 'triclinic'
loop_
_space_group_symop_operation_xyz
x,y,z
-x,-y,-z
loop_
_atom_site_type_symbol
_atom_site_label
_atom_site_fract_x
_atom_site_fract_y
_atom_site_fract_z
Si Si1 0.708804 0.055355 0.302849
Si Si2 0.213792 0.698815 0.542401
Si Si3 0.442440 0.799579 0.973592
Si Si4 0.150350 0.282366 0.833663
Si Si5 0.365698 0.608351 0.473461
Si Si6 0.648420 0.659981 0.723244
Si Si7 0.269938 0.097253 0.117869
Si Si8 0.065745 0.048198 0.661032
O O1 0.749974 0.122433 0.425692
O O2 0.713535 0.247931 0.147262
O O3 0.841410 0.039774 0.307962
O O4 0.494440 0.773736 0.342115
O O5 0.336585 0.772112 0.448624
O O6 0.000000 0.500000 0.500000
O O7 0.242216 0.541789 0.696529
O O8 0.609383 0.915050 0.902881
O O9 0.390938 0.567194 0.125873
O O10 0.500000 0.000000 0.000000
O O11 0.953410 0.151996 0.864304
O O12 0.105226 0.108067 0.787502
O O13 0.280089 0.304485 0.967469
O O14 0.484490 0.577793 0.612020
O O15 0.157094 0.167500 0.341543
O O16 0.165034 0.316470 0.518853
O O17 0.677912 0.831896 0.759558
#
# Coordination Sequence:
#
# PCOD9103893 Si02
#       8
#     2   2   2   2   2   2   2   2
#     4  12  26  43  70 104 145 182 225 295 357 408
#     4  11  25  42  68 101 144 180 230 291 346 411
#     4  12  25  41  68 107 144 177 228 292 355 412
#     4   9  20  40  64  96 133 178 231 286 329 417
#     4  11  25  47  71 100 139 181 241 282 341 425
#     4  11  24  45  74  96 135 189 234 282 339 423
#     4  10  20  38  69  94 130 182 233 274 344 409
#     4  10  24  46  69  99 139 178 238 279 349 411
#
# _framework density 25.862245999999999
#
# number of rings (size 3 to 8) (size 9 to 14) (size 15 to 20)
#    0.000    1.250    0.000    5.625    7.000    2.000 
#    2.250    0.000    0.000    0.000    0.000    0.000 
#    0.000    0.000    0.000    0.000    0.000    0.000 
#
# Total GULP energy -89701.771532 kJ/mol
# GULP energy per Si atom -5606.360721 kJ/mol
# Density = 2.580338 g / cm^3
# Si number density = 25.862246 Si / 1000 Ang^3
#
#
#
# Elastic Constant Matrix: (Units=GPa)
#
#
# Indices 1 2 3 4 5 6 
#
# 1 237.4254 72.2622 32.5786 -4.0945 -26.0012 -10.5855
# 2 72.2622 80.5228 23.6728 -3.5724 -8.9150 -3.3673
# 3 32.5786 23.6728 101.5497 -1.5144 -6.0130 -7.0191
# 4 -4.0945 -3.5724 -1.5144 45.9831 -10.4609 -4.9509
# 5 -26.0012 -8.9150 -6.0130 -10.4609 40.0967 0.0648
# 6 -10.5855 -3.3673 -7.0191 -4.9509 0.0648 50.7892
#
#
#
# Elastic Compliance Matrix: (Units=1/GPa)
#
#
# Indices 1 2 3 4 5 6 
#
# 1 0.006200 -0.004974 -0.000566 0.000952 0.003076 0.000973
# 2 -0.004974 0.017720 -0.002493 0.000975 0.000595 -0.000112
# 3 -0.000566 -0.002493 0.010750 0.000426 0.000800 0.001243
# 4 0.000952 0.000975 0.000426 0.023822 0.007109 0.002635
# 5 0.003076 0.000595 0.000800 0.007109 0.029039 0.001447
# 6 0.000973 -0.000112 0.001243 0.002635 0.001447 0.020311
#
#
# Mechanical properties :
#
#
# Convention : Reuss Voigt Hill
#
# Bulk Modulus (GPa) = 53.75275 75.16945 64.46110
# Shear Modulus (GPa) = 38.42892 46.77276 42.60084
#
# Velocity S-wave (km/s) = 3.85893 4.25730 4.06300
# Velocity P-wave (km/s) = 6.37844 7.30031 6.85489
#
# Compressibility (1/GPa) = 0.01860370
#
# Stress axis : x y z
#
# Youngs Moduli (GPa) = 161.28677 56.43315 93.02559
#
# Poissons Ratio (x) = 0.28071 0.05264
# Poissons Ratio (y) = 0.80227 0.23191
# Poissons Ratio (z) = 0.09127 0.14069
#
# Static dielectric constant tensor:
#      x y z
#    x 1.985240 -0.018320 -0.035520 
#    y -0.018320 2.136570 0.029350 
#    z -0.035520 0.029350 2.075660 
# 
# From -- ./inp_files/414733.got.cif
#   From: 2010.05.17/outbox.cif.g08.bks.cpg/sg2_208_cif.got.tgz:414733.got - 2010.06.03 11:33:40.
