data_PCOD9103941
_publ_section_title
;
Structure prediction by ZEFSAII (Michael W. Deem and Ramdas Pophale) SiO2 
 PCOD9103941
Probable space group: P -1
;
_chemical_formula_sum "Si O2"
_cell_formula_units_Z 11
_cell_length_a 9.395913
_cell_length_b 8.875022
_cell_length_c 7.491907
_cell_angle_alpha 112.839659
_cell_angle_beta 114.427497
_cell_angle_gamma 111.514681
_cell_volume 407.802083
_symmetry_space_group_name_H-M "P -1"
_symmetry_group_IT_number 2
_symmetry_cell_setting 'triclinic'
loop_
_space_group_symop_operation_xyz
x,y,z
-x,-y,-z
loop_
_atom_site_type_symbol
_atom_site_label
_atom_site_fract_x
_atom_site_fract_y
_atom_site_fract_z
Si Si1 0.812511 0.662602 0.717725
Si Si2 0.976048 0.658556 0.155131
Si Si3 0.561016 0.783796 0.570515
Si Si4 0.000000 0.500000 0.500000
Si Si5 0.421333 0.631684 0.029073
Si Si6 0.646021 0.070754 0.305590
O O1 0.764378 0.812974 0.693940
O O2 0.599985 0.427224 0.496468
O O3 0.955283 0.638086 0.669630
O O4 0.878493 0.709627 0.980820
O O5 0.189471 0.860726 0.423462
O O6 0.823439 0.527229 0.184932
O O7 0.000000 0.500000 0.000000
O O8 0.466219 0.719950 0.294433
O O9 0.539393 0.948655 0.717258
O O10 0.212827 0.725556 0.648236
O O11 0.555153 0.842902 0.080849
O O12 0.500000 0.500000 0.000000
#
# Coordination Sequence:
#
# PCOD9103941 Si02
#       6
#     2   2   2   1   2   2
#     4   9  19  37  67  97 140 178 225 287 341 408
#     4  11  21  43  72  98 134 188 233 278 344 428
#     4   9  19  39  68  96 135 183 226 282 343 413
#     4  10  20  38  70 104 142 174 232 290 344 402
#     4  11  25  42  70 106 140 178 234 291 348 409
#     4  11  23  45  74  97 140 187 229 287 347 415
#
# _framework density 26.973872
#
# number of rings (size 3 to 8) (size 9 to 14) (size 15 to 20)
#    0.000    1.818    5.455    0.545    2.545    0.727 
#    0.000    1.818   12.000    1.091    0.000    0.000 
#    0.000    0.000    0.000    0.000    0.000    0.000 
#
# Total GULP energy -61381.539435 kJ/mol
# GULP energy per Si atom -5580.139949 kJ/mol
# Density = 2.691248 g / cm^3
# Si number density = 26.973872 Si / 1000 Ang^3
#
#
#
# Elastic Constant Matrix: (Units=GPa)
#
#
# Indices 1 2 3 4 5 6 
#
# 1 157.1682 51.7881 20.9052 22.1049 16.5822 -8.5894
# 2 51.7881 121.8713 40.3408 26.9408 -1.5879 -12.1729
# 3 20.9052 40.3408 130.9803 11.6196 13.8691 -10.2465
# 4 22.1049 26.9408 11.6196 52.5797 3.9566 1.4038
# 5 16.5822 -1.5879 13.8691 3.9566 31.6409 -6.9798
# 6 -8.5894 -12.1729 -10.2465 1.4038 -6.9798 39.7780
#
#
#
# Elastic Compliance Matrix: (Units=1/GPa)
#
#
# Indices 1 2 3 4 5 6 
#
# 1 0.008060 -0.003246 0.000310 -0.001473 -0.004312 0.000122
# 2 -0.003246 0.011982 -0.003037 -0.004559 0.004911 0.003206
# 3 0.000310 -0.003037 0.009037 -0.000285 -0.004072 0.000761
# 4 -0.001473 -0.004559 -0.000285 0.022329 -0.002801 -0.003066
# 5 -0.004312 0.004911 -0.004072 -0.002801 0.037619 0.006223
# 6 0.000122 0.003206 0.000761 -0.003066 0.006223 0.027543
#
#
# Mechanical properties :
#
#
# Convention : Reuss Voigt Hill
#
# Bulk Modulus (GPa) = 58.36882 70.67645 64.52263
# Shear Modulus (GPa) = 37.25065 44.59875 40.92470
#
# Velocity S-wave (km/s) = 3.72020 4.07062 3.89935
# Velocity P-wave (km/s) = 6.33555 6.95356 6.65173
#
# Compressibility (1/GPa) = 0.01713244
#
# Stress axis : x y z
#
# Youngs Moduli (GPa) = 124.07546 83.45869 110.66032
#
# Poissons Ratio (x) = 0.27090 -0.03432
# Poissons Ratio (y) = 0.40274 0.33608
# Poissons Ratio (z) = -0.03848 0.25347
#
# Static dielectric constant tensor:
#      x y z
#    x 2.040430 0.030770 -0.027800 
#    y 0.030770 2.194380 -0.039590 
#    z -0.027800 -0.039590 2.035750 
# 
# From -- ./inp_files/156023.got.cif
#   From: 2010.05.17/outbox.cif.g08.bks.cpg/sg2_79_cif.got.tgz:156023.got - 2010.06.03 11:33:40.
