data_PCOD9103933
_publ_section_title
;
Structure prediction by ZEFSAII (Michael W. Deem and Ramdas Pophale) SiO2 
 PCOD9103933
Probable space group: P -1
;
_chemical_formula_sum "Si O2"
_cell_formula_units_Z 14
_cell_length_a 13.206699
_cell_length_b 8.128047
_cell_length_c 9.140122
_cell_angle_alpha 132.463499
_cell_angle_beta 59.340082
_cell_angle_gamma 101.197870
_cell_volume 604.955254
_symmetry_space_group_name_H-M "P -1"
_symmetry_group_IT_number 2
_symmetry_cell_setting 'triclinic'
loop_
_space_group_symop_operation_xyz
x,y,z
-x,-y,-z
loop_
_atom_site_type_symbol
_atom_site_label
_atom_site_fract_x
_atom_site_fract_y
_atom_site_fract_z
Si Si1 0.958388 0.219636 0.977781
Si Si2 0.928162 0.235549 0.517398
Si Si3 0.368742 0.032998 0.189511
Si Si4 0.758837 0.379089 0.006549
Si Si5 0.821346 0.625199 0.626756
Si Si6 0.173518 0.102461 0.934462
Si Si7 0.374815 0.098497 0.569896
O O1 0.857327 0.395032 0.069177
O O2 0.883359 0.080299 0.049224
O O3 0.034956 0.036867 0.696787
O O4 0.061367 0.273344 0.037155
O O5 0.837014 0.310882 0.761448
O O6 0.866052 0.366524 0.495960
O O7 0.726015 0.987420 0.313630
O O8 0.283998 0.280036 0.353041
O O9 0.377553 0.026036 0.354919
O O10 0.306447 0.832357 0.054593
O O11 0.500000 0.000000 0.000000
O O12 0.665063 0.624236 0.219376
O O13 0.778130 0.762773 0.891600
O O14 0.941903 0.699673 0.528956
O O15 0.500000 0.000000 0.500000
#
# Coordination Sequence:
#
# PCOD9103933 Si02
#       7
#     2   2   2   2   2   2   2
#     4  10  22  38  71 107 142 180 223 282 353 418
#     4  10  20  38  70 102 144 176 215 283 349 416
#     4  12  28  50  72  98 140 189 239 292 342 415
#     4  12  25  45  75 104 140 182 237 291 345 418
#     4  10  21  42  68 100 146 178 219 280 353 407
#     4  10  20  43  66 102 143 175 224 281 343 412
#     4  12  29  48  72 100 138 187 240 292 339 415
#
# _framework density 23.142209000000001
#
# number of rings (size 3 to 8) (size 9 to 14) (size 15 to 20)
#    0.000    1.143    4.286    2.143    2.000    6.286 
#    2.571    0.000    0.000    0.000    0.000    0.000 
#    0.000    0.000    0.000    0.000    0.000    0.000 
#
# Total GULP energy -78321.670705 kJ/mol
# GULP energy per Si atom -5594.405050 kJ/mol
# Density = 2.308954 g / cm^3
# Si number density = 23.142209 Si / 1000 Ang^3
#
#
#
# Elastic Constant Matrix: (Units=GPa)
#
#
# Indices 1 2 3 4 5 6 
#
# 1 99.1574 45.3795 27.2220 -6.1751 -28.9721 -28.7731
# 2 45.3795 87.2194 29.9339 0.3087 -21.9931 -26.6866
# 3 27.2220 29.9339 112.8286 -17.0885 -19.8863 -14.7118
# 4 -6.1751 0.3087 -17.0885 46.8836 -8.4003 -10.7607
# 5 -28.9721 -21.9931 -19.8863 -8.4003 34.8303 1.7272
# 6 -28.7731 -26.6866 -14.7118 -10.7607 1.7272 56.6809
#
#
#
# Elastic Compliance Matrix: (Units=1/GPa)
#
#
# Indices 1 2 3 4 5 6 
#
# 1 0.019361 -0.003616 0.001681 0.008323 0.016310 0.009645
# 2 -0.003616 0.017568 -0.001452 0.001603 0.007339 0.006140
# 3 0.001681 -0.001452 0.012085 0.007245 0.008910 0.004411
# 4 0.008323 0.001603 0.007245 0.031265 0.019006 0.012216
# 5 0.016310 0.007339 0.008910 0.019006 0.055791 0.015956
# 6 0.009645 0.006140 0.004411 0.012216 0.015956 0.028407
#
#
# Mechanical properties :
#
#
# Convention : Reuss Voigt Hill
#
# Bulk Modulus (GPa) = 23.67344 56.03070 39.85207
# Shear Modulus (GPa) = 26.97865 40.79030 33.88447
#
# Velocity S-wave (km/s) = 3.41805 4.20288 3.83062
# Velocity P-wave (km/s) = 5.08224 6.91493 6.06817
#
# Compressibility (1/GPa) = 0.04224143
#
# Stress axis : x y z
#
# Youngs Moduli (GPa) = 51.65072 56.92033 82.74473
#
# Poissons Ratio (x) = 0.20581 -0.13909
# Poissons Ratio (y) = 0.18676 0.12012
# Poissons Ratio (z) = -0.08682 0.08263
#
# Static dielectric constant tensor:
#      x y z
#    x 1.866260 0.005580 0.063900 
#    y 0.005580 1.903260 0.021200 
#    z 0.063900 0.021200 1.898130 
# 
# From -- ./inp_files/296744.got.cif
#   From: 2010.05.17/outbox.cif.g08.bks.cpg/sg2_149_cif.got.tgz:296744.got - 2010.06.03 11:33:40.
