data_PCOD9103454
_publ_section_title
;
Structure prediction by ZEFSAII (Michael W. Deem and Ramdas Pophale) SiO2 
 PCOD9103454
Probable space group: P -1
;
_chemical_formula_sum "Si O2"
_cell_formula_units_Z 16
_cell_length_a 6.026782
_cell_length_b 24.152777
_cell_length_c 10.944176
_cell_angle_alpha 38.184866
_cell_angle_beta 127.974024
_cell_angle_gamma 134.824022
_cell_volume 691.681316
_symmetry_space_group_name_H-M "P -1"
_symmetry_group_IT_number 2
_symmetry_cell_setting 'triclinic'
loop_
_space_group_symop_operation_xyz
x,y,z
-x,-y,-z
loop_
_atom_site_type_symbol
_atom_site_label
_atom_site_fract_x
_atom_site_fract_y
_atom_site_fract_z
Si Si1 0.962370 0.231626 0.526858
Si Si2 0.806746 0.944762 0.739441
Si Si3 0.812258 0.049631 0.931928
Si Si4 0.129814 0.209705 0.104929
Si Si5 0.075831 0.839757 0.624343
Si Si6 0.383243 0.622359 0.193645
Si Si7 0.329577 0.712891 0.258945
Si Si8 0.045478 0.399648 0.443122
O O1 0.303822 0.241617 0.665311
O O2 0.922333 0.319631 0.430211
O O3 0.736740 0.121697 0.693274
O O4 0.940417 0.226228 0.383610
O O5 0.888434 0.899758 0.726098
O O6 0.430519 0.897743 0.697514
O O7 0.975854 0.064713 0.600380
O O8 0.918594 0.896051 0.969548
O O9 0.500000 0.000000 0.000000
O O10 0.000000 0.000000 0.000000
O O11 0.138625 0.225019 0.225994
O O12 0.429623 0.294086 0.989108
O O13 0.826027 0.211629 0.933482
O O14 0.236036 0.659981 0.186709
O O15 0.145345 0.514716 0.245358
O O16 0.645483 0.605751 0.389353
O O17 0.178813 0.636123 0.452993
#
# Coordination Sequence:
#
# PCOD9103454 Si02
#       8
#     2   2   2   2   2   2   2   2
#     4  11  24  42  61  96 129 170 214 271 326 395
#     4  11  25  43  64  89 125 177 222 265 327 396
#     4  12  27  44  71 101 136 172 225 283 339 392
#     4  11  22  38  64  89 126 166 216 270 325 400
#     4  11  25  43  61  89 130 174 224 262 326 396
#     4   9  18  36  60  97 120 161 207 267 331 399
#     4  10  20  38  66  92 126 159 213 268 336 384
#     4   9  19  35  64  90 128 159 209 266 333 393
#
# _framework density 23.132041000000001
#
# number of rings (size 3 to 8) (size 9 to 14) (size 15 to 20)
#    0.000    1.500    1.250    4.500    5.250    3.000 
#    0.000    0.625    0.000    3.750    0.000    0.000 
#    0.000    0.000    0.000    0.000    0.000    0.000 
#
# Total GULP energy -89307.240630 kJ/mol
# GULP energy per Si atom -5581.702539 kJ/mol
# Density = 2.307939 g / cm^3
# Si number density = 23.132041 Si / 1000 Ang^3
#
#
#
# Elastic Constant Matrix: (Units=GPa)
#
#
# Indices 1 2 3 4 5 6 
#
# 1 123.7063 49.9786 37.5978 -13.0488 -22.3921 -27.0609
# 2 49.9786 77.0148 31.7530 -11.8591 -19.8272 -34.5129
# 3 37.5978 31.7530 63.7983 -8.7517 -17.2876 -16.3914
# 4 -13.0488 -11.8591 -8.7517 29.3326 -5.6532 2.0522
# 5 -22.3921 -19.8272 -17.2876 -5.6532 36.5425 19.1912
# 6 -27.0609 -34.5129 -16.3914 2.0522 19.1912 38.2811
#
#
#
# Elastic Compliance Matrix: (Units=1/GPa)
#
#
# Indices 1 2 3 4 5 6 
#
# 1 0.012127 -0.004729 -0.003203 0.003065 0.003214 0.001162
# 2 -0.004729 0.027769 -0.005085 0.006481 0.000950 0.018691
# 3 -0.003203 -0.005085 0.022392 0.004660 0.007174 -0.001107
# 4 0.003065 0.006481 0.004660 0.042025 0.013614 0.000928
# 5 0.003214 0.000950 0.007174 0.013614 0.044083 -0.016630
# 6 0.001162 0.018691 -0.001107 0.000928 -0.016630 0.051609
#
#
# Mechanical properties :
#
#
# Convention : Reuss Voigt Hill
#
# Bulk Modulus (GPa) = 27.58411 55.90868 41.74640
# Shear Modulus (GPa) = 20.99750 30.51058 25.75404
#
# Velocity S-wave (km/s) = 3.01611 3.63571 3.34031
# Velocity P-wave (km/s) = 4.90711 6.46888 5.74135
#
# Compressibility (1/GPa) = 0.03625276
#
# Stress axis : x y z
#
# Youngs Moduli (GPa) = 82.46049 36.01169 44.65958
#
# Poissons Ratio (x) = 0.17030 0.14305
# Poissons Ratio (y) = 0.38996 0.22710
# Poissons Ratio (z) = 0.26414 0.18312
#
# Static dielectric constant tensor:
#      x y z
#    x 2.043190 -0.015350 0.012010 
#    y -0.015350 1.894090 -0.028430 
#    z 0.012010 -0.028430 1.869900 
# 
# From -- ./inp_files/84156.got.cif
#   From: 2010.05.17/outbox.cif.g08.bks.cpg/sg2_43_cif.got.tgz:84156.got - 2010.06.03 11:33:40.
