data_PCOD9103680
_publ_section_title
;
Structure prediction by ZEFSAII (Michael W. Deem and Ramdas Pophale) SiO2 
 PCOD9103680
Probable space group: P -1
;
_chemical_formula_sum "Si O2"
_cell_formula_units_Z 16
_cell_length_a 9.223186
_cell_length_b 19.623074
_cell_length_c 9.018725
_cell_angle_alpha 150.751247
_cell_angle_beta 96.922056
_cell_angle_gamma 81.365704
_cell_volume 788.309081
_symmetry_space_group_name_H-M "P -1"
_symmetry_group_IT_number 2
_symmetry_cell_setting 'triclinic'
loop_
_space_group_symop_operation_xyz
x,y,z
-x,-y,-z
loop_
_atom_site_type_symbol
_atom_site_label
_atom_site_fract_x
_atom_site_fract_y
_atom_site_fract_z
Si Si1 0.193823 0.364646 0.666080
Si Si2 0.115086 0.887214 0.231667
Si Si3 0.907372 0.638261 0.691716
Si Si4 0.906449 0.320642 0.699972
Si Si5 0.289675 0.755286 0.238187
Si Si6 0.264482 0.770653 0.769429
Si Si7 0.669888 0.470969 0.437690
Si Si8 0.500032 0.169691 0.325143
O O1 0.123841 0.357298 0.479406
O O2 0.342778 0.261980 0.490461
O O3 0.076753 0.329418 0.710003
O O4 0.193956 0.530789 0.012797
O O5 0.256772 0.868131 0.320268
O O6 0.189812 0.897299 0.099723
O O7 0.000000 0.000000 0.500000
O O8 0.011872 0.758242 0.966725
O O9 0.752612 0.612180 0.702013
O O10 0.000000 0.500000 0.500000
O O11 0.865317 0.240262 0.687332
O O12 0.847371 0.250971 0.416094
O O13 0.407789 0.785591 0.434193
O O14 0.314483 0.611784 0.874836
O O15 0.276228 0.636372 0.626773
O O16 0.415052 0.790845 0.740068
O O17 0.500000 0.500000 0.500000
O O18 0.500000 0.000000 0.000000
#
# Coordination Sequence:
#
# PCOD9103680 Si02
#       8
#     2   2   2   2   2   2   2   2
#     4  11  22  37  66 102 128 168 220 280 333 401
#     4  11  24  43  69  97 136 179 229 279 330 398
#     4  12  20  42  69  98 133 169 227 281 333 392
#     4  10  20  38  67  96 128 158 225 280 339 381
#     4  10  23  43  61  95 131 172 220 281 327 398
#     4  10  22  42  64  93 129 173 216 283 328 395
#     4  11  22  39  64  96 132 165 215 276 344 387
#     4  11  27  45  64  91 143 186 224 265 344 421
#
# _framework density 20.296609
#
# number of rings (size 3 to 8) (size 9 to 14) (size 15 to 20)
#    0.000    1.250    5.000    0.750    3.500    3.000 
#    2.250    3.750    0.000    0.000    0.000    0.000 
#    0.000    0.000    0.000    0.000    0.000    0.000 
#
# Total GULP energy -89101.083598 kJ/mol
# GULP energy per Si atom -5568.817725 kJ/mol
# Density = 2.025041 g / cm^3
# Si number density = 20.296609 Si / 1000 Ang^3
#
#
#
# Elastic Constant Matrix: (Units=GPa)
#
#
# Indices 1 2 3 4 5 6 
#
# 1 113.9099 28.9074 33.7289 -3.9658 -23.6522 6.6725
# 2 28.9074 65.7416 45.4792 -29.3205 -3.2136 7.6481
# 3 33.7289 45.4792 84.4427 -14.2002 -18.6079 -4.4815
# 4 -3.9658 -29.3205 -14.2002 32.2887 1.3514 -0.5911
# 5 -23.6522 -3.2136 -18.6079 1.3514 34.2059 1.0524
# 6 6.6725 7.6481 -4.4815 -0.5911 1.0524 36.4274
#
#
#
# Elastic Compliance Matrix: (Units=1/GPa)
#
#
# Indices 1 2 3 4 5 6 
#
# 1 0.012151 -0.006993 -0.000323 -0.005347 0.007814 -0.001110
# 2 -0.006993 0.048997 -0.021147 0.034673 -0.012778 -0.010676
# 3 -0.000323 -0.021147 0.024787 -0.008689 0.011400 0.007078
# 4 -0.005347 0.034673 -0.008689 0.058169 -0.007274 -0.006215
# 5 0.007814 -0.012778 0.011400 -0.007274 0.039884 0.001384
# 6 -0.001110 -0.010676 0.007078 -0.006215 0.001384 0.030627
#
#
# Mechanical properties :
#
#
# Convention : Reuss Voigt Hill
#
# Bulk Modulus (GPa) = 34.47304 53.36946 43.92125
# Shear Modulus (GPa) = 17.78036 30.98296 24.38166
#
# Velocity S-wave (km/s) = 2.96299 3.91130 3.46969
# Velocity P-wave (km/s) = 5.35978 6.83736 6.14315
#
# Compressibility (1/GPa) = 0.02900818
#
# Stress axis : x y z
#
# Youngs Moduli (GPa) = 82.30033 20.40961 40.34336
#
# Poissons Ratio (x) = 0.14273 0.01303
# Poissons Ratio (y) = 0.57553 0.85314
# Poissons Ratio (z) = 0.02659 0.43160
#
# Static dielectric constant tensor:
#      x y z
#    x 1.770180 0.028530 0.011510 
#    y 0.028530 1.761720 0.031520 
#    z 0.011510 0.031520 1.766630 
# 
# From -- ./inp_files/222152.got.cif
#   From: 2010.05.17/outbox.cif.g08.bks.cpg/sg2_112_cif.got.tgz:222152.got - 2010.06.03 11:33:40.
