data_PCOD9103322
_publ_section_title
;
Structure prediction by ZEFSAII (Michael W. Deem and Ramdas Pophale) SiO2 
 PCOD9103322
Probable space group: P -1
;
_chemical_formula_sum "Si O2"
_cell_formula_units_Z 14
_cell_length_a 7.209557
_cell_length_b 9.007932
_cell_length_c 11.318282
_cell_angle_alpha 119.268167
_cell_angle_beta 77.959235
_cell_angle_gamma 107.997239
_cell_volume 608.367747
_symmetry_space_group_name_H-M "P -1"
_symmetry_group_IT_number 2
_symmetry_cell_setting 'triclinic'
loop_
_space_group_symop_operation_xyz
x,y,z
-x,-y,-z
loop_
_atom_site_type_symbol
_atom_site_label
_atom_site_fract_x
_atom_site_fract_y
_atom_site_fract_z
Si Si1 0.205930 0.014754 0.119409
Si Si2 0.897470 0.333909 0.866279
Si Si3 0.481054 0.622408 0.159566
Si Si4 0.265083 0.025201 0.845639
Si Si5 0.778686 0.676868 0.597016
Si Si6 0.238344 0.378019 0.676909
Si Si7 0.208809 0.663018 0.617871
O O1 0.217707 0.832017 0.106912
O O2 0.969720 0.994393 0.137147
O O3 0.283539 0.191591 0.253701
O O4 0.298811 0.035193 0.985486
O O5 0.746083 0.381015 0.811926
O O6 0.066593 0.282024 0.748594
O O7 0.000000 0.500000 0.000000
O O8 0.613561 0.809648 0.176292
O O9 0.571847 0.570353 0.246788
O O10 0.500000 0.500000 0.000000
O O11 0.316626 0.856633 0.714330
O O12 0.752147 0.730078 0.485705
O O13 0.692391 0.464764 0.523124
O O14 0.006743 0.682040 0.593906
O O15 0.178347 0.550389 0.699784
#
# Coordination Sequence:
#
# PCOD9103322 Si02
#       7
#     2   2   2   2   2   2   2
#     4  10  20  38  65  98 124 175 215 258 323 379
#     4  12  23  40  65  94 129 169 216 264 328 374
#     4  12  25  41  62 100 131 167 215 269 324 375
#     4  10  20  38  67  93 130 162 221 266 312 383
#     4   8  18  37  68  96 126 173 216 252 324 384
#     4  10  20  42  66  92 131 170 209 267 316 381
#     4   8  17  38  68  93 123 176 211 255 323 374
#
# _framework density 23.012398000000001
#
# number of rings (size 3 to 8) (size 9 to 14) (size 15 to 20)
#    0.857    1.143    2.857    0.857    0.000    3.429 
#    0.000    0.714    0.000    5.143    0.000    0.000 
#    0.000    0.000    0.000    0.000    0.000    0.000 
#
# Total GULP energy -78133.850891 kJ/mol
# GULP energy per Si atom -5580.989349 kJ/mol
# Density = 2.296002 g / cm^3
# Si number density = 23.012398 Si / 1000 Ang^3
#
#
#
# Elastic Constant Matrix: (Units=GPa)
#
#
# Indices 1 2 3 4 5 6 
#
# 1 119.8910 15.4409 32.9309 -20.1083 19.2958 -23.7681
# 2 15.4409 82.3293 52.3552 7.5918 15.3530 6.4285
# 3 32.9309 52.3552 165.7234 14.2451 29.6127 0.7548
# 4 -20.1083 7.5918 14.2451 46.3073 -7.1404 13.4514
# 5 19.2958 15.3530 29.6127 -7.1404 19.5128 -16.2039
# 6 -23.7681 6.4285 0.7548 13.4514 -16.2039 35.0099
#
#
#
# Elastic Compliance Matrix: (Units=1/GPa)
#
#
# Indices 1 2 3 4 5 6 
#
# 1 0.011009 -0.001697 -0.002114 0.003878 0.000555 0.006598
# 2 -0.001697 0.019504 -0.000568 -0.003298 -0.027420 -0.016145
# 3 -0.002114 -0.000568 0.012274 -0.005295 -0.028689 -0.012840
# 4 0.003878 -0.003298 -0.005295 0.027942 0.017687 0.000803
# 5 0.000555 -0.027420 -0.028689 0.017687 0.197594 0.090689
# 6 0.006598 -0.016145 -0.012840 0.000803 0.090689 0.077950
#
#
# Mechanical properties :
#
#
# Convention : Reuss Voigt Hill
#
# Bulk Modulus (GPa) = 29.38649 63.26642 46.32646
# Shear Modulus (GPa) = 13.64727 37.98046 25.81386
#
# Velocity S-wave (km/s) = 2.43788 4.06696 3.35287
# Velocity P-wave (km/s) = 4.55214 7.04312 5.92990
#
# Compressibility (1/GPa) = 0.03402924
#
# Stress axis : x y z
#
# Youngs Moduli (GPa) = 90.83200 51.27219 81.47600
#
# Poissons Ratio (x) = 0.08699 0.17226
# Poissons Ratio (y) = 0.15411 0.04626
# Poissons Ratio (z) = 0.19204 0.02911
#
# Static dielectric constant tensor:
#      x y z
#    x 2.021400 -0.055960 -0.028340 
#    y -0.055960 1.865840 0.008350 
#    z -0.028340 0.008350 1.885480 
# 
# From -- ./inp_files/380342.got.cif
#   From: 2010.05.17/outbox.cif.g08.bks.cpg/sg2_191_cif.got.tgz:380342.got - 2010.06.03 11:33:40.
