data_PCOD9103693
_publ_section_title
;
Structure prediction by ZEFSAII (Michael W. Deem and Ramdas Pophale) SiO2 
 PCOD9103693
Probable space group: P -1
;
_chemical_formula_sum "Si O2"
_cell_formula_units_Z 16
_cell_length_a 5.225414
_cell_length_b 20.367444
_cell_length_c 8.922062
_cell_angle_alpha 72.026436
_cell_angle_beta 72.097615
_cell_angle_gamma 53.008274
_cell_volume 712.102951
_symmetry_space_group_name_H-M "P -1"
_symmetry_group_IT_number 2
_symmetry_cell_setting 'triclinic'
loop_
_space_group_symop_operation_xyz
x,y,z
-x,-y,-z
loop_
_atom_site_type_symbol
_atom_site_label
_atom_site_fract_x
_atom_site_fract_y
_atom_site_fract_z
Si Si1 0.533637 0.201326 0.321316
Si Si2 0.274179 0.542284 0.656541
Si Si3 0.842918 0.954485 0.633798
Si Si4 0.506765 0.384176 0.919447
Si Si5 0.752047 0.881429 0.398759
Si Si6 0.448575 0.351434 0.400242
Si Si7 0.121444 0.307684 0.050885
Si Si8 0.590668 0.265012 0.746128
O O1 0.396801 0.172281 0.498982
O O2 0.582489 0.269792 0.333107
O O3 0.878212 0.120350 0.264282
O O4 0.277452 0.243078 0.203952
O O5 0.500000 0.500000 0.500000
O O6 0.393374 0.472259 0.810462
O O7 0.327418 0.613402 0.649188
O O8 0.907311 0.579633 0.645889
O O9 0.785699 0.910765 0.536657
O O10 0.501884 0.032046 0.701488
O O11 0.000000 0.000000 0.500000
O O12 0.210802 0.375368 0.017399
O O13 0.681926 0.316206 0.801651
O O14 0.753963 0.354939 0.031594
O O15 0.095540 0.821799 0.301126
O O16 0.421440 0.322854 0.591496
O O17 0.340030 0.259360 0.898281
#
# Coordination Sequence:
#
# PCOD9103693 Si02
#       8
#     2   2   2   2   2   2   2   2
#     4  11  24  40  64  94 132 167 215 256 322 383
#     4  12  22  39  60  94 128 159 217 275 317 360
#     4   9  20  37  63  97 129 160 202 266 320 365
#     4  10  23  40  63  87 130 171 210 260 324 370
#     4  10  20  38  67  97 126 160 214 262 313 376
#     4  12  24  36  66  97 119 166 219 272 308 373
#     4  10  24  41  63  89 132 178 205 258 322 382
#     4  10  22  38  67  94 127 164 219 259 320 373
#
# _framework density 22.46866
#
# number of rings (size 3 to 8) (size 9 to 14) (size 15 to 20)
#    0.750    0.750    2.500    2.625    3.500    0.000 
#    0.000    4.375    0.000    7.500    0.000    0.000 
#    0.000    0.000    0.000    0.000    0.000    0.000 
#
# Total GULP energy -89446.147043 kJ/mol
# GULP energy per Si atom -5590.384190 kJ/mol
# Density = 2.241752 g / cm^3
# Si number density = 22.468660 Si / 1000 Ang^3
#
#
#
# Elastic Constant Matrix: (Units=GPa)
#
#
# Indices 1 2 3 4 5 6 
#
# 1 114.8282 35.3816 13.6076 -9.9677 18.4374 -5.2409
# 2 35.3816 119.7348 33.9202 -6.9691 10.3701 -13.8650
# 3 13.6076 33.9202 72.1611 -6.0346 18.1196 -12.7826
# 4 -9.9677 -6.9691 -6.0346 27.1048 -9.6126 5.2927
# 5 18.4374 10.3701 18.1196 -9.6126 33.5347 -6.5207
# 6 -5.2409 -13.8650 -12.7826 5.2927 -6.5207 40.0189
#
#
#
# Elastic Compliance Matrix: (Units=1/GPa)
#
#
# Indices 1 2 3 4 5 6 
#
# 1 0.010385 -0.002780 0.000618 0.001619 -0.004798 -0.000402
# 2 -0.002780 0.010573 -0.004329 0.000768 0.001209 0.002012
# 3 0.000618 -0.004329 0.018423 -0.000397 -0.008459 0.003140
# 4 0.001619 0.000768 -0.000397 0.041985 0.010441 -0.003500
# 5 -0.004798 0.001209 -0.008459 0.010441 0.040082 0.002239
# 6 -0.000402 0.002012 0.003140 -0.003500 0.002239 0.027463
#
#
# Mechanical properties :
#
#
# Convention : Reuss Voigt Hill
#
# Bulk Modulus (GPa) = 37.88236 52.50476 45.19356
# Shear Modulus (GPa) = 29.29244 35.05267 32.17255
#
# Velocity S-wave (km/s) = 3.61460 3.95406 3.78813
# Velocity P-wave (km/s) = 5.85808 6.65318 6.26825
#
# Compressibility (1/GPa) = 0.02639751
#
# Stress axis : x y z
#
# Youngs Moduli (GPa) = 96.29565 94.58429 54.27961
#
# Poissons Ratio (x) = 0.26299 -0.03352
# Poissons Ratio (y) = 0.26774 0.23495
# Poissons Ratio (z) = -0.05947 0.40941
#
# Static dielectric constant tensor:
#      x y z
#    x 1.893020 -0.005540 -0.036150 
#    y -0.005540 1.836190 0.023480 
#    z -0.036150 0.023480 1.855260 
# 
# From -- ./inp_files/140672.got.cif
#   From: 2010.05.17/outbox.cif.g08.bks.cpg/sg2_71_cif.got.tgz:140672.got - 2010.06.03 11:33:40.
