data_PCOD9103901
_publ_section_title
;
Structure prediction by ZEFSAII (Michael W. Deem and Ramdas Pophale) SiO2 
 PCOD9103901
Probable space group: P -1
;
_chemical_formula_sum "Si O2"
_cell_formula_units_Z 10
_cell_length_a 7.519298
_cell_length_b 12.032553
_cell_length_c 18.435455
_cell_angle_alpha 25.460157
_cell_angle_beta 35.600136
_cell_angle_gamma 36.304917
_cell_volume 399.882134
_symmetry_space_group_name_H-M "P -1"
_symmetry_group_IT_number 2
_symmetry_cell_setting 'triclinic'
loop_
_space_group_symop_operation_xyz
x,y,z
-x,-y,-z
loop_
_atom_site_type_symbol
_atom_site_label
_atom_site_fract_x
_atom_site_fract_y
_atom_site_fract_z
Si Si1 0.882502 0.923758 0.161059
Si Si2 0.750167 0.420799 0.527682
Si Si3 0.702671 0.612371 0.928025
Si Si4 0.728313 0.213536 0.417536
Si Si5 0.204741 0.924808 0.734143
O O1 0.982650 0.602670 0.324991
O O2 0.937564 0.020152 0.167731
O O3 0.507556 0.077427 0.182722
O O4 0.000000 0.000000 0.000000
O O5 0.500000 0.500000 0.500000
O O6 0.543406 0.562648 0.581175
O O7 0.939107 0.114970 0.659337
O O8 0.713856 0.394601 0.115357
O O9 0.500000 0.500000 0.000000
O O10 0.057820 0.620930 0.789319
O O11 0.517401 0.030706 0.562168
O O12 0.000000 0.000000 0.500000
#
# Coordination Sequence:
#
# PCOD9103901 Si02
#       5
#     2   2   2   2   2
#     4  10  21  40  67  95 131 162 208 272 324 382
#     4  11  25  43  64  95 130 174 220 264 315 377
#     4  10  20  38  69  96 126 170 214 260 325 388
#     4  11  19  40  71  92 130 172 208 264 328 383
#     4  10  23  44  67  94 132 173 214 258 327 387
#
# _framework density 25.007366999999999
#
# number of rings (size 3 to 8) (size 9 to 14) (size 15 to 20)
#    0.000    1.600    6.000    2.400    5.600    0.800 
#    3.600    7.000    0.000    0.000    0.000    0.000 
#    0.000    0.000    0.000    0.000    0.000    0.000 
#
# Total GULP energy -55736.705211 kJ/mol
# GULP energy per Si atom -5573.670521 kJ/mol
# Density = 2.495045 g / cm^3
# Si number density = 25.007367 Si / 1000 Ang^3
#
#
#
# Elastic Constant Matrix: (Units=GPa)
#
#
# Indices 1 2 3 4 5 6 
#
# 1 119.1349 14.0157 44.3759 0.8679 13.4065 -18.0355
# 2 14.0157 61.0674 51.1345 -2.7506 14.1883 -22.4139
# 3 44.3759 51.1345 148.3432 0.2134 -2.9729 -19.8643
# 4 0.8679 -2.7506 0.2134 68.6799 -13.9435 16.9675
# 5 13.4065 14.1883 -2.9729 -13.9435 35.2575 -6.7609
# 6 -18.0355 -22.4139 -19.8643 16.9675 -6.7609 33.7616
#
#
#
# Elastic Compliance Matrix: (Units=1/GPa)
#
#
# Indices 1 2 3 4 5 6 
#
# 1 0.011181 0.004856 -0.004217 -0.002941 -0.006399 0.006912
# 2 0.004856 0.035297 -0.011312 -0.006667 -0.015894 0.019539
# 3 -0.004217 -0.011312 0.011756 0.001595 0.007361 -0.002173
# 4 -0.002941 -0.006667 0.001595 0.019381 0.009112 -0.012974
# 5 -0.006399 -0.015894 0.007361 0.009112 0.040235 -0.006162
# 6 0.006912 0.019539 -0.002173 -0.012974 -0.006162 0.050291
#
#
# Mechanical properties :
#
#
# Convention : Reuss Voigt Hill
#
# Bulk Modulus (GPa) = 27.10875 60.84421 43.97648
# Shear Modulus (GPa) = 24.77891 42.14110 33.46001
#
# Velocity S-wave (km/s) = 3.15121 4.10951 3.66184
# Velocity P-wave (km/s) = 4.90959 6.84841 5.95839
#
# Compressibility (1/GPa) = 0.03688846
#
# Stress axis : x y z
#
# Youngs Moduli (GPa) = 89.43512 28.33072 85.06110
#
# Poissons Ratio (x) = -0.13758 0.35872
# Poissons Ratio (y) = -0.43432 0.96224
# Poissons Ratio (z) = 0.37717 0.32049
#
# Static dielectric constant tensor:
#      x y z
#    x 2.036810 0.026480 0.016880 
#    y 0.026480 1.936320 0.040850 
#    z 0.016880 0.040850 2.095980 
# 
# From -- ./inp_files/144073.got.cif
#   From: 2010.05.17/outbox.cif.g08.bks.cpg/sg2_73_cif.got.tgz:144073.got - 2010.06.03 11:33:40.
