data_PCOD9103233
_publ_section_title
;
Structure prediction by ZEFSAII (Michael W. Deem and Ramdas Pophale) SiO2 
 PCOD9103233
Probable space group: P -1
;
_chemical_formula_sum "Si O2"
_cell_formula_units_Z 14
_cell_length_a 12.147911
_cell_length_b 8.405437
_cell_length_c 17.424241
_cell_angle_alpha 43.851239
_cell_angle_beta 150.499139
_cell_angle_gamma 124.617365
_cell_volume 597.650604
_symmetry_space_group_name_H-M "P -1"
_symmetry_group_IT_number 2
_symmetry_cell_setting 'triclinic'
loop_
_space_group_symop_operation_xyz
x,y,z
-x,-y,-z
loop_
_atom_site_type_symbol
_atom_site_label
_atom_site_fract_x
_atom_site_fract_y
_atom_site_fract_z
Si Si1 0.785813 0.906331 0.315314
Si Si2 0.550494 0.767233 0.561755
Si Si3 0.350685 0.738386 0.147522
Si Si4 0.364735 0.406207 0.067119
Si Si5 0.267070 0.920704 0.201655
Si Si6 0.961377 0.172691 0.198382
Si Si7 0.810819 0.378649 0.262360
O O1 0.537341 0.848125 0.175803
O O2 0.942194 0.691790 0.527700
O O3 0.910326 0.963329 0.293344
O O4 0.770340 0.138950 0.278109
O O5 0.592970 0.540432 0.719721
O O6 0.351961 0.762697 0.380959
O O7 0.786795 0.776893 0.657636
O O8 0.500000 0.000000 0.500000
O O9 0.361118 0.806318 0.218946
O O10 0.106671 0.840657 0.927108
O O11 0.617235 0.441965 0.186796
O O12 0.369660 0.155678 0.192740
O O13 0.219051 0.606225 0.958982
O O14 0.233684 0.426196 0.898138
O O15 0.000000 0.000000 0.000000
#
# Coordination Sequence:
#
# PCOD9103233 Si02
#       7
#     2   2   2   2   2   2   2
#     4  10  21  39  68  99 136 170 222 272 331 384
#     4  12  27  48  68  93 134 183 222 269 340 399
#     4  12  25  43  67 102 134 170 226 280 323 385
#     4  10  20  38  65  93 130 174 216 256 337 394
#     4  12  25  41  68  99 130 168 226 279 324 390
#     4  11  24  44  69  94 137 181 217 268 338 400
#     4   9  19  37  64  96 133 174 209 268 332 397
#
# _framework density 23.425058
#
# number of rings (size 3 to 8) (size 9 to 14) (size 15 to 20)
#    0.000    1.143    1.429    4.714    6.000    0.000 
#    0.000    1.429    0.000    0.000    0.000    0.000 
#    0.000    0.000    0.000    0.000    0.000    0.000 
#
# Total GULP energy -78357.268669 kJ/mol
# GULP energy per Si atom -5596.947762 kJ/mol
# Density = 2.337174 g / cm^3
# Si number density = 23.425058 Si / 1000 Ang^3
#
#
#
# Elastic Constant Matrix: (Units=GPa)
#
#
# Indices 1 2 3 4 5 6 
#
# 1 63.1000 7.1870 9.8872 0.8446 3.1878 -1.9329
# 2 7.1870 39.6387 -0.5772 1.6960 -0.8095 9.8210
# 3 9.8872 -0.5772 107.5104 13.9703 -2.8291 4.1983
# 4 0.8446 1.6960 13.9703 33.1330 0.3677 -2.1063
# 5 3.1878 -0.8095 -2.8291 0.3677 32.3445 -3.7842
# 6 -1.9329 9.8210 4.1983 -2.1063 -3.7842 29.3746
#
#
#
# Elastic Compliance Matrix: (Units=1/GPa)
#
#
# Indices 1 2 3 4 5 6 
#
# 1 0.016698 -0.003720 -0.001783 0.000690 -0.001617 0.002438
# 2 -0.003720 0.028541 0.001220 -0.002525 0.000030 -0.010139
# 3 -0.001783 0.001220 0.010159 -0.004449 0.000890 -0.002182
# 4 0.000690 -0.002525 -0.004449 0.032415 -0.000445 0.003793
# 5 -0.001617 0.000030 0.000890 -0.000445 0.031604 0.003796
# 6 0.002438 -0.010139 -0.002182 0.003793 0.003796 0.038666
#
#
# Mechanical properties :
#
#
# Convention : Reuss Voigt Hill
#
# Bulk Modulus (GPa) = 21.35311 27.02701 24.19006
# Shear Modulus (GPa) = 27.43343 31.88723 29.66033
#
# Velocity S-wave (km/s) = 3.42587 3.69351 3.56220
# Velocity P-wave (km/s) = 4.97836 5.45454 5.22188
#
# Compressibility (1/GPa) = 0.04683158
#
# Stress axis : x y z
#
# Youngs Moduli (GPa) = 59.88689 35.03758 98.43803
#
# Poissons Ratio (x) = 0.13035 0.17551
# Poissons Ratio (y) = 0.22279 -0.12012
# Poissons Ratio (z) = 0.10678 -0.04275
#
# Static dielectric constant tensor:
#      x y z
#    x 1.839070 -0.094190 -0.082720 
#    y -0.094190 1.816830 -0.043850 
#    z -0.082720 -0.043850 1.776690 
# 
# From -- ./inp_files/185506.got.cif
#   From: 2010.05.17/outbox.cif.g08.bks.cpg/sg2_93_cif.got.tgz:185506.got - 2010.06.03 11:33:40.
