data_PCOD9103138
_publ_section_title
;
Structure prediction by ZEFSAII (Michael W. Deem and Ramdas Pophale) SiO2 
 PCOD9103138
Probable space group: P -1
;
_chemical_formula_sum "Si O2"
_cell_formula_units_Z 16
_cell_length_a 8.976871
_cell_length_b 20.832251
_cell_length_c 10.221660
_cell_angle_alpha 48.217167
_cell_angle_beta 108.415865
_cell_angle_gamma 69.615616
_cell_volume 829.417062
_symmetry_space_group_name_H-M "P -1"
_symmetry_group_IT_number 2
_symmetry_cell_setting 'triclinic'
loop_
_space_group_symop_operation_xyz
x,y,z
-x,-y,-z
loop_
_atom_site_type_symbol
_atom_site_label
_atom_site_fract_x
_atom_site_fract_y
_atom_site_fract_z
Si Si1 0.619527 0.020604 0.753059
Si Si2 0.873202 0.506188 0.833866
Si Si3 0.817318 0.775732 0.307245
Si Si4 0.982188 0.948900 0.765691
Si Si5 0.731309 0.218478 0.185139
Si Si6 0.875106 0.515082 0.315373
Si Si7 0.965029 0.747061 0.686825
Si Si8 0.595250 0.169496 0.765913
O O1 0.322658 0.125727 0.507401
O O2 0.623280 0.107341 0.721281
O O3 0.783582 0.965752 0.743956
O O4 0.747071 0.891146 0.052000
O O5 0.589506 0.668078 0.520841
O O6 0.034352 0.464858 0.807978
O O7 0.000000 0.500000 0.000000
O O8 0.893131 0.397076 0.017525
O O9 0.924490 0.750899 0.514849
O O10 0.560408 0.830904 0.186016
O O11 0.011861 0.628461 0.487685
O O12 0.179969 0.826992 0.879178
O O13 0.145394 0.916297 0.975544
O O14 0.826453 0.091849 0.457363
O O15 0.878011 0.235616 0.264609
O O16 0.428443 0.356826 0.928137
O O17 0.000000 0.500000 0.500000
#
# Coordination Sequence:
#
# PCOD9103138 Si02
#       8
#     2   2   2   2   2   2   2   2
#     4  11  21  37  64  88 123 161 209 259 313 365
#     4  11  20  41  67  95 124 164 211 254 310 377
#     4  10  21  38  62  92 121 159 209 256 312 371
#     4  11  24  41  59  91 124 167 212 251 312 377
#     4  11  25  41  62  88 129 165 207 260 311 369
#     4  11  24  43  66  90 127 172 205 251 321 376
#     4  11  22  39  63  95 125 160 209 264 308 367
#     4  10  20  38  65  89 125 158 205 259 310 368
#
# _framework density 19.290658000000001
#
# number of rings (size 3 to 8) (size 9 to 14) (size 15 to 20)
#    0.000    1.250    3.750    5.625    0.000    4.000 
#    0.000    1.875    0.000    0.000    0.000    0.000 
#    0.000    0.000    0.000    0.000    0.000    0.000 
#
# Total GULP energy -89455.955901 kJ/mol
# GULP energy per Si atom -5590.997244 kJ/mol
# Density = 1.924675 g / cm^3
# Si number density = 19.290658 Si / 1000 Ang^3
#
#
#
# Elastic Constant Matrix: (Units=GPa)
#
#
# Indices 1 2 3 4 5 6 
#
# 1 78.6132 34.6346 54.9262 -3.9175 -6.6940 -5.4320
# 2 34.6346 55.4791 26.7441 -8.0422 3.0724 -16.0792
# 3 54.9262 26.7441 82.2254 -9.9595 -3.4002 -15.7691
# 4 -3.9175 -8.0422 -9.9595 33.6717 2.6475 3.4729
# 5 -6.6940 3.0724 -3.4002 2.6475 48.6772 2.7443
# 6 -5.4320 -16.0792 -15.7691 3.4729 2.7443 28.6438
#
#
#
# Elastic Compliance Matrix: (Units=1/GPa)
#
#
# Indices 1 2 3 4 5 6 
#
# 1 0.032650 -0.015786 -0.019609 -0.004796 0.005132 -0.013375
# 2 -0.015786 0.032034 0.003835 0.005612 -0.005184 0.016916
# 3 -0.019609 0.003835 0.027058 0.005474 -0.002072 0.012865
# 4 -0.004796 0.005612 0.005474 0.032130 -0.002469 0.001595
# 5 0.005132 -0.005184 -0.002072 -0.002469 0.021841 -0.004871
# 6 -0.013375 0.016916 0.012865 0.001595 -0.004871 0.049227
#
#
# Mechanical properties :
#
#
# Convention : Reuss Voigt Hill
#
# Bulk Modulus (GPa) = 34.93825 49.88083 42.40954
# Shear Modulus (GPa) = 18.68465 28.86605 23.77535
#
# Velocity S-wave (km/s) = 3.11559 3.87250 3.51448
# Velocity P-wave (km/s) = 5.57614 6.77559 6.20491
#
# Compressibility (1/GPa) = 0.02862193
#
# Stress axis : x y z
#
# Youngs Moduli (GPa) = 30.62802 31.21665 36.95791
#
# Poissons Ratio (x) = 0.49278 0.72472
# Poissons Ratio (y) = 0.48349 -0.14174
# Poissons Ratio (z) = 0.60059 -0.11972
#
# Static dielectric constant tensor:
#      x y z
#    x 1.643620 -0.007370 -0.006640 
#    y -0.007370 1.682910 -0.010220 
#    z -0.006640 -0.010220 1.652850 
# 
# From -- ./inp_files/223225.got.cif
#   From: 2010.05.17/outbox.cif.g08.bks.cpg/sg2_112_cif.got.tgz:223225.got - 2010.06.03 11:33:40.
