data_PCOD9103228
_publ_section_title
;
Structure prediction by ZEFSAII (Michael W. Deem and Ramdas Pophale) SiO2 
 PCOD9103228
Probable space group: P -1
;
_chemical_formula_sum "Si O2"
_cell_formula_units_Z 16
_cell_length_a 18.278641
_cell_length_b 23.467301
_cell_length_c 7.952030
_cell_angle_alpha 144.811079
_cell_angle_beta 137.682724
_cell_angle_gamma 19.582459
_cell_volume 650.527843
_symmetry_space_group_name_H-M "P -1"
_symmetry_group_IT_number 2
_symmetry_cell_setting 'triclinic'
loop_
_space_group_symop_operation_xyz
x,y,z
-x,-y,-z
loop_
_atom_site_type_symbol
_atom_site_label
_atom_site_fract_x
_atom_site_fract_y
_atom_site_fract_z
Si Si1 0.645139 0.407148 0.791112
Si Si2 0.555627 0.155643 0.872583
Si Si3 0.231381 0.815499 0.237600
Si Si4 0.188012 0.864521 0.846162
Si Si5 0.708061 0.663312 0.809761
Si Si6 0.017816 0.262979 0.213565
Si Si7 0.376103 0.058402 0.762531
Si Si8 0.747812 0.975271 0.273334
O O1 0.650613 0.308094 0.687161
O O2 0.711299 0.314355 0.497536
O O3 0.400332 0.646339 0.971215
O O4 0.815481 0.350778 0.025965
O O5 0.476154 0.127306 0.553662
O O6 0.782285 0.937354 0.817606
O O7 0.622654 0.201047 0.992318
O O8 0.382015 0.305598 0.090574
O O9 0.175406 0.974530 0.505590
O O10 0.992480 0.955032 0.165382
O O11 0.000000 0.000000 0.000000
O O12 0.911648 0.440661 0.551152
O O13 0.509113 0.806151 0.681951
O O14 0.728209 0.766262 0.087337
O O15 0.141581 0.184260 0.058377
O O16 0.211098 0.106403 0.674616
O O17 0.500000 0.000000 0.000000
#
# Coordination Sequence:
#
# PCOD9103228 Si02
#       8
#     2   2   2   2   2   2   2   2
#     4  11  22  37  65  93 130 173 210 245 301 377
#     4  11  24  41  65  93 126 164 213 262 309 371
#     4  11  21  38  65  92 128 170 210 248 301 373
#     4  12  25  39  61  94 137 170 201 254 314 371
#     4  10  22  41  66  93 122 162 214 266 308 359
#     4  11  21  38  66  96 126 165 212 255 304 371
#     4  10  23  45  68  90 123 167 209 264 326 370
#     4  10  20  38  65  93 127 165 208 251 310 373
#
# _framework density 24.595412
#
# number of rings (size 3 to 8) (size 9 to 14) (size 15 to 20)
#    0.000    1.250    3.750    3.000    1.750    1.500 
#    0.000    3.750    0.000    0.000    0.000    0.000 
#    0.000    0.000    0.000    0.000    0.000    0.000 
#
# Total GULP energy -89303.740406 kJ/mol
# GULP energy per Si atom -5581.483775 kJ/mol
# Density = 2.453943 g / cm^3
# Si number density = 24.595412 Si / 1000 Ang^3
#
#
#
# Elastic Constant Matrix: (Units=GPa)
#
#
# Indices 1 2 3 4 5 6 
#
# 1 119.4207 -9.8633 33.1147 15.6786 0.7365 7.9825
# 2 -9.8633 59.3526 22.8801 11.1927 -9.3993 -16.9988
# 3 33.1147 22.8801 123.4097 8.9967 -14.1940 -1.5823
# 4 15.6786 11.1927 8.9967 44.7550 -12.1603 -6.0468
# 5 0.7365 -9.3993 -14.1940 -12.1603 38.9107 -1.7017
# 6 7.9825 -16.9988 -1.5823 -6.0468 -1.7017 8.4694
#
#
#
# Elastic Compliance Matrix: (Units=1/GPa)
#
#
# Indices 1 2 3 4 5 6 
#
# 1 0.011573 -0.003744 -0.002836 -0.007512 -0.005618 -0.025443
# 2 -0.003744 0.056246 -0.006257 0.011281 0.020473 0.127418
# 3 -0.002836 -0.006257 0.010146 0.000013 0.001915 -0.007597
# 4 -0.007512 0.011281 0.000013 0.034286 0.016099 0.057437
# 5 -0.005618 0.020473 0.001915 0.016099 0.039374 0.066149
# 6 -0.025443 0.127418 -0.007597 0.057437 0.066149 0.450670
#
#
# Mechanical properties :
#
#
# Convention : Reuss Voigt Hill
#
# Bulk Modulus (GPa) = 19.12387 43.82734 31.47561
# Shear Modulus (GPa) = 7.74714 35.49712 21.62213
#
# Velocity S-wave (km/s) = 1.77670 3.80312 2.96820
# Velocity P-wave (km/s) = 3.46427 6.09451 4.95702
#
# Compressibility (1/GPa) = 0.05229067
#
# Stress axis : x y z
#
# Youngs Moduli (GPa) = 86.41158 17.77896 98.55983
#
# Poissons Ratio (x) = 0.06656 0.27951
# Poissons Ratio (y) = 0.32350 0.61674
# Poissons Ratio (z) = 0.24506 0.11125
#
# Static dielectric constant tensor:
#      x y z
#    x 2.077700 0.013590 -0.001360 
#    y 0.013590 2.001830 -0.131300 
#    z -0.001360 -0.131300 2.052780 
# 
# From -- ./inp_files/350269.got.cif
#   From: 2010.05.17/outbox.cif.g08.bks.cpg/sg2_176_cif.got.tgz:350269.got - 2010.06.03 11:33:40.
