data_PCOD9103896
_publ_section_title
;
Structure prediction by ZEFSAII (Michael W. Deem and Ramdas Pophale) SiO2 
 PCOD9103896
Probable space group: P -1
;
_chemical_formula_sum "Si O2"
_cell_formula_units_Z 16
_cell_length_a 9.985642
_cell_length_b 12.416636
_cell_length_c 11.883461
_cell_angle_alpha 63.607596
_cell_angle_beta 49.686153
_cell_angle_gamma 101.959518
_cell_volume 693.754342
_symmetry_space_group_name_H-M "P -1"
_symmetry_group_IT_number 2
_symmetry_cell_setting 'triclinic'
loop_
_space_group_symop_operation_xyz
x,y,z
-x,-y,-z
loop_
_atom_site_type_symbol
_atom_site_label
_atom_site_fract_x
_atom_site_fract_y
_atom_site_fract_z
Si Si1 0.731101 0.710396 0.029981
Si Si2 0.474211 0.031391 0.148522
Si Si3 0.983470 0.831566 0.363526
Si Si4 0.425654 0.379636 0.489400
Si Si5 0.148781 0.003349 0.517524
Si Si6 0.332462 0.505575 0.161786
Si Si7 0.510174 0.764665 0.301889
Si Si8 0.039648 0.569329 0.319973
O O1 0.621584 0.530211 0.219932
O O2 0.523147 0.655717 0.079609
O O3 0.727721 0.808099 0.086004
O O4 0.981187 0.827275 0.763687
O O5 0.369254 0.044355 0.312695
O O6 0.517029 0.107558 0.767545
O O7 0.753708 0.222670 0.883186
O O8 0.277254 0.973937 0.181712
O O9 0.857251 0.745829 0.349961
O O10 0.829771 0.875946 0.463609
O O11 0.870859 0.673947 0.579057
O O12 0.500000 0.500000 0.500000
O O13 0.445910 0.254947 0.584753
O O14 0.000000 0.000000 0.500000
O O15 0.177918 0.538418 0.179683
O O16 0.500000 0.500000 0.000000
O O17 0.247088 0.567048 0.503530
O O18 0.000000 0.500000 0.500000
#
# Coordination Sequence:
#
# PCOD9103896 Si02
#       8
#     2   2   2   2   2   2   2   2
#     4  10  21  41  66  92 135 177 228 281 329 408
#     4  11  24  44  70 104 140 174 228 290 347 402
#     4  10  20  38  69  95 131 181 228 282 333 395
#     4   9  22  45  67  95 138 187 234 272 336 418
#     4  10  21  40  66 105 135 172 233 287 337 407
#     4  11  19  35  64  96 127 174 223 272 335 398
#     4  11  24  45  67 101 143 182 222 282 351 400
#     4  12  25  41  66 102 144 173 222 289 353 402
#
# _framework density 23.062919000000001
#
# number of rings (size 3 to 8) (size 9 to 14) (size 15 to 20)
#    0.000    1.500    2.500    3.750    0.000    1.500 
#    2.250    2.500    0.000    0.000    0.000    0.000 
#    0.000    0.000    0.000    0.000    0.000    0.000 
#
# Total GULP energy -89239.272760 kJ/mol
# GULP energy per Si atom -5577.454548 kJ/mol
# Density = 2.301043 g / cm^3
# Si number density = 23.062919 Si / 1000 Ang^3
#
#
#
# Elastic Constant Matrix: (Units=GPa)
#
#
# Indices 1 2 3 4 5 6 
#
# 1 122.7745 47.4371 67.9314 -8.4370 9.1941 -3.8551
# 2 47.4371 102.7874 48.8868 -9.4690 -6.1648 -11.6190
# 3 67.9314 48.8868 153.1480 -13.4013 5.4281 -4.5786
# 4 -8.4370 -9.4690 -13.4013 41.8477 -5.1821 -2.6812
# 5 9.1941 -6.1648 5.4281 -5.1821 26.7598 -4.9354
# 6 -3.8551 -11.6190 -4.5786 -2.6812 -4.9354 33.9835
#
#
#
# Elastic Compliance Matrix: (Units=1/GPa)
#
#
# Indices 1 2 3 4 5 6 
#
# 1 0.012278 -0.004231 -0.004005 -0.000432 -0.004706 -0.001311
# 2 -0.004231 0.014091 -0.002466 0.002705 0.006681 0.005189
# 3 -0.004005 -0.002466 0.009251 0.001496 -0.000787 -0.000047
# 4 -0.000432 0.002705 0.001496 0.025930 0.006233 0.004029
# 5 -0.004706 0.006681 -0.000787 0.006233 0.043450 0.008446
# 6 -0.001311 0.005189 -0.000047 0.004029 0.008446 0.032590
#
#
# Mechanical properties :
#
#
# Convention : Reuss Voigt Hill
#
# Bulk Modulus (GPa) = 70.35370 78.58005 74.46687
# Shear Modulus (GPa) = 30.53737 34.81518 32.67628
#
# Velocity S-wave (km/s) = 3.64275 3.88954 3.76817
# Velocity P-wave (km/s) = 6.94724 7.37003 7.16176
#
# Compressibility (1/GPa) = 0.01421389
#
# Stress axis : x y z
#
# Youngs Moduli (GPa) = 81.44804 70.96690 108.09709
#
# Poissons Ratio (x) = 0.30029 0.43298
# Poissons Ratio (y) = 0.34464 0.26657
# Poissons Ratio (z) = 0.32624 0.17501
#
# Static dielectric constant tensor:
#      x y z
#    x 1.894150 -0.053860 0.020380 
#    y -0.053860 2.028430 -0.001320 
#    z 0.020380 -0.001320 1.935350 
# 
# From -- ./inp_files/432797.got.cif
#   From: 2010.05.17/outbox.cif.g08.bks.cpg/sg2_217_cif.got.tgz:432797.got - 2010.06.03 11:33:40.
