data_PCOD9103677
_publ_section_title
;
Structure prediction by ZEFSAII (Michael W. Deem and Ramdas Pophale) SiO2 
 PCOD9103677
Probable space group: P -1
;
_chemical_formula_sum "Si O2"
_cell_formula_units_Z 16
_cell_length_a 15.379050
_cell_length_b 9.588199
_cell_length_c 11.824168
_cell_angle_alpha 61.127148
_cell_angle_beta 126.490810
_cell_angle_gamma 74.005463
_cell_volume 737.677284
_symmetry_space_group_name_H-M "P -1"
_symmetry_group_IT_number 2
_symmetry_cell_setting 'triclinic'
loop_
_space_group_symop_operation_xyz
x,y,z
-x,-y,-z
loop_
_atom_site_type_symbol
_atom_site_label
_atom_site_fract_x
_atom_site_fract_y
_atom_site_fract_z
Si Si1 0.466155 0.198408 0.712394
Si Si2 0.761289 0.627468 0.222813
Si Si3 0.783220 0.667490 0.680708
Si Si4 0.210887 0.755589 0.284154
Si Si5 0.024123 0.529273 0.330322
Si Si6 0.860413 0.909330 0.721951
Si Si7 0.951970 0.078727 0.563187
Si Si8 0.767381 0.108811 0.968646
O O1 0.397862 0.215873 0.530796
O O2 0.609817 0.170766 0.850867
O O3 0.286226 0.503081 0.492920
O O4 0.559597 0.931791 0.939649
O O5 0.844410 0.608999 0.406794
O O6 0.801233 0.393609 0.340622
O O7 0.880215 0.561385 0.237529
O O8 0.870786 0.615257 0.647824
O O9 0.758393 0.863116 0.647483
O O10 0.937267 0.379753 0.970661
O O11 0.235738 0.868857 0.346018
O O12 0.295270 0.691476 0.251871
O O13 0.091743 0.173038 0.875723
O O14 0.000000 0.000000 0.000000
O O15 0.883970 0.994356 0.598326
O O16 0.000000 0.000000 0.500000
O O17 0.124262 0.939220 0.825130
#
# Coordination Sequence:
#
# PCOD9103677 Si02
#       8
#     2   2   2   2   2   2   2   2
#     4  11  23  38  63  96 131 162 213 264 313 373
#     4   9  21  37  61  95 121 167 213 251 311 379
#     4  11  22  41  64  94 125 164 212 266 320 369
#     4  12  20  41  67  95 123 168 216 264 310 376
#     4   9  17  38  65  85 121 166 210 253 303 383
#     4  11  24  39  66  94 123 168 215 258 315 378
#     4  11  22  42  67  91 131 169 209 255 317 384
#     4  10  20  38  67  96 120 160 216 261 313 372
#
# _framework density 21.689702
#
# number of rings (size 3 to 8) (size 9 to 14) (size 15 to 20)
#    0.000    1.500    3.750    1.875    1.750    0.500 
#    2.250    1.250    0.000    0.000    0.000    0.000 
#    0.000    0.000    0.000    0.000    0.000    0.000 
#
# Total GULP energy -89276.546736 kJ/mol
# GULP energy per Si atom -5579.784171 kJ/mol
# Density = 2.164034 g / cm^3
# Si number density = 21.689702 Si / 1000 Ang^3
#
#
#
# Elastic Constant Matrix: (Units=GPa)
#
#
# Indices 1 2 3 4 5 6 
#
# 1 57.0310 8.1565 22.1356 -4.3899 -15.7914 4.7365
# 2 8.1565 123.7736 42.5996 -9.4203 -9.4845 13.5229
# 3 22.1356 42.5996 105.6643 -29.1544 -7.5637 4.0187
# 4 -4.3899 -9.4203 -29.1544 31.8950 0.8992 -6.6396
# 5 -15.7914 -9.4845 -7.5637 0.8992 37.3184 3.9907
# 6 4.7365 13.5229 4.0187 -6.6396 3.9907 34.5373
#
#
#
# Elastic Compliance Matrix: (Units=1/GPa)
#
#
# Indices 1 2 3 4 5 6 
#
# 1 0.021992 0.001256 -0.004918 -0.002278 0.009157 -0.004432
# 2 0.001256 0.010071 -0.004502 -0.001933 0.002682 -0.004273
# 3 -0.004918 -0.004502 0.015745 0.013070 -0.000691 0.003198
# 4 -0.002278 -0.001933 0.013070 0.044126 -0.000737 0.008117
# 5 0.009157 0.002682 -0.000691 -0.000737 0.031878 -0.006051
# 6 -0.004432 -0.004273 0.003198 0.008117 -0.006051 0.033123
#
#
# Mechanical properties :
#
#
# Convention : Reuss Voigt Hill
#
# Bulk Modulus (GPa) = 31.76742 48.02802 39.89772
# Shear Modulus (GPa) = 27.21006 34.98862 31.09934
#
# Velocity S-wave (km/s) = 3.54576 4.02075 3.79070
# Velocity P-wave (km/s) = 5.60725 6.61412 6.13139
#
# Compressibility (1/GPa) = 0.03147879
#
# Stress axis : x y z
#
# Youngs Moduli (GPa) = 45.47170 99.29135 63.51415
#
# Poissons Ratio (x) = -0.12470 0.31236
# Poissons Ratio (y) = -0.05711 0.28596
# Poissons Ratio (z) = 0.22363 0.44704
#
# Static dielectric constant tensor:
#      x y z
#    x 1.875980 0.009490 -0.002340 
#    y 0.009490 1.787540 0.000960 
#    z -0.002340 0.000960 1.834660 
# 
# From -- ./inp_files/461110.got.cif
#   From: 2010.05.17/outbox.cif.g08.bks.cpg/sg2_231_cif.got.tgz:461110.got - 2010.06.03 11:33:40.
