data_PCOD9103162
_publ_section_title
;
Structure prediction by ZEFSAII (Michael W. Deem and Ramdas Pophale) SiO2 
 PCOD9103162
Probable space group: P -1
;
_chemical_formula_sum "Si O2"
_cell_formula_units_Z 16
_cell_length_a 14.359935
_cell_length_b 6.754046
_cell_length_c 14.076177
_cell_angle_alpha 68.002294
_cell_angle_beta 43.608453
_cell_angle_gamma 92.733435
_cell_volume 756.775066
_symmetry_space_group_name_H-M "P -1"
_symmetry_group_IT_number 2
_symmetry_cell_setting 'triclinic'
loop_
_space_group_symop_operation_xyz
x,y,z
-x,-y,-z
loop_
_atom_site_type_symbol
_atom_site_label
_atom_site_fract_x
_atom_site_fract_y
_atom_site_fract_z
Si Si1 0.523522 0.372647 0.413424
Si Si2 0.391658 0.543969 0.971780
Si Si3 0.933713 0.253536 0.311294
Si Si4 0.756166 0.181792 0.264367
Si Si5 0.873100 0.902347 0.693400
Si Si6 0.446725 0.251473 0.833237
Si Si7 0.685729 0.058666 0.700032
Si Si8 0.796969 0.232832 0.007034
O O1 0.500000 0.500000 0.500000
O O2 0.683690 0.362868 0.296219
O O3 0.509805 0.521684 0.309202
O O4 0.386357 0.092081 0.564239
O O5 0.410289 0.334056 0.944115
O O6 0.551061 0.772683 0.845270
O O7 0.320483 0.657778 0.930139
O O8 0.256943 0.385828 0.175431
O O9 0.877233 0.228692 0.249683
O O10 0.044240 0.547615 0.192773
O O11 0.791431 0.141087 0.511688
O O12 0.035667 0.118802 0.278815
O O13 0.815878 0.191887 0.111208
O O14 0.793586 0.070809 0.706564
O O15 0.000000 0.000000 0.500000
O O16 0.588615 0.199437 0.750580
O O17 0.296530 0.016144 0.940046
#
# Coordination Sequence:
#
# PCOD9103162 Si02
#       8
#     2   2   2   2   2   2   2   2
#     4  11  21  35  59  88 121 153 200 249 285 343
#     4  10  20  38  65  91 118 152 202 246 294 357
#     4  10  21  38  60  84 122 160 200 240 293 357
#     4  11  21  36  61  86 118 162 200 236 297 351
#     4   9  20  40  63  88 119 157 194 246 304 353
#     4  11  21  37  61  91 121 153 199 249 294 346
#     4  10  21  39  64  88 116 156 201 248 299 347
#     4  10  21  38  57  87 126 159 194 242 295 356
#
# _framework density 21.142346
#
# number of rings (size 3 to 8) (size 9 to 14) (size 15 to 20)
#    0.000    1.750    2.500    2.250    3.500    0.500 
#    0.000    9.375    0.000   15.000    0.000    0.000 
#    0.000    0.000    0.000    0.000    0.000    0.000 
#
# Total GULP energy -89230.856691 kJ/mol
# GULP energy per Si atom -5576.928543 kJ/mol
# Density = 2.109423 g / cm^3
# Si number density = 21.142346 Si / 1000 Ang^3
#
#
#
# Elastic Constant Matrix: (Units=GPa)
#
#
# Indices 1 2 3 4 5 6 
#
# 1 126.8710 32.4174 24.6945 -7.6204 6.7424 -32.0385
# 2 32.4174 91.5450 28.7994 -3.1549 -1.9202 -12.7473
# 3 24.6945 28.7994 114.6451 -18.8171 3.6739 -4.5333
# 4 -7.6204 -3.1549 -18.8171 15.8489 -2.7652 6.6638
# 5 6.7424 -1.9202 3.6739 -2.7652 28.7905 -4.8846
# 6 -32.0385 -12.7473 -4.5333 6.6638 -4.8846 17.1749
#
#
#
# Elastic Compliance Matrix: (Units=1/GPa)
#
#
# Indices 1 2 3 4 5 6 
#
# 1 0.016763 -0.000160 -0.004079 -0.011212 0.001416 0.034828
# 2 -0.000160 0.013852 -0.004200 -0.007022 0.002932 0.012433
# 3 -0.004079 -0.004200 0.013225 0.018940 -0.001752 -0.015083
# 4 -0.011212 -0.007022 0.018940 0.104723 -0.000714 -0.061963
# 5 0.001416 0.002932 -0.001752 -0.000714 0.037340 0.015252
# 6 0.034828 0.012433 -0.015083 -0.061963 0.015252 0.156821
#
#
# Mechanical properties :
#
#
# Convention : Reuss Voigt Hill
#
# Bulk Modulus (GPa) = 37.08914 56.09819 46.59366
# Shear Modulus (GPa) = 13.56522 28.83952 21.20237
#
# Velocity S-wave (km/s) = 2.53576 3.69733 3.17020
# Velocity P-wave (km/s) = 5.11411 6.69464 5.95702
#
# Compressibility (1/GPa) = 0.02696207
#
# Stress axis : x y z
#
# Youngs Moduli (GPa) = 59.65431 72.19000 75.61550
#
# Poissons Ratio (x) = 0.01154 0.30844
# Poissons Ratio (y) = 0.00953 0.31761
# Poissons Ratio (z) = 0.24333 0.30322
#
# Static dielectric constant tensor:
#      x y z
#    x 1.812860 -0.007960 0.007090 
#    y -0.007960 1.745720 0.023230 
#    z 0.007090 0.023230 1.848730 
# 
# From -- ./inp_files/90446.got.cif
#   From: 2010.05.17/outbox.cif.g08.bks.cpg/sg2_46_cif.got.tgz:90446.got - 2010.06.03 11:33:40.
