data_PCOD9103324
_publ_section_title
;
Structure prediction by ZEFSAII (Michael W. Deem and Ramdas Pophale) SiO2 
 PCOD9103324
Probable space group: P -1
;
_chemical_formula_sum "Si O2"
_cell_formula_units_Z 12
_cell_length_a 7.055663
_cell_length_b 9.620513
_cell_length_c 15.522240
_cell_angle_alpha 140.288023
_cell_angle_beta 113.068981
_cell_angle_gamma 45.848177
_cell_volume 458.568262
_symmetry_space_group_name_H-M "P -1"
_symmetry_group_IT_number 2
_symmetry_cell_setting 'triclinic'
loop_
_space_group_symop_operation_xyz
x,y,z
-x,-y,-z
loop_
_atom_site_type_symbol
_atom_site_label
_atom_site_fract_x
_atom_site_fract_y
_atom_site_fract_z
Si Si1 0.059160 0.706106 0.541081
Si Si2 0.232528 0.686176 0.275383
Si Si3 0.410750 0.069273 0.318987
Si Si4 0.761036 0.590194 0.304099
Si Si5 0.302487 0.459680 0.988326
Si Si6 0.815252 0.740549 0.904096
O O1 0.883855 0.835525 0.661144
O O2 0.877926 0.669879 0.433155
O O3 0.342659 0.372882 0.445899
O O4 0.020568 0.965479 0.613118
O O5 0.517915 0.610417 0.307456
O O6 0.269897 0.548944 0.123056
O O7 0.180631 0.518317 0.245794
O O8 0.611145 0.835340 0.318062
O O9 0.547016 0.876490 0.165216
O O10 0.012102 0.280015 0.154814
O O11 0.989490 0.342192 0.019056
O O12 0.500000 0.500000 0.000000
O O13 0.500000 0.000000 0.000000
#
# Coordination Sequence:
#
# PCOD9103324 Si02
#       6
#     2   2   2   2   2   2
#     4  10  20  38  65  98 127 170 216 262 323 390
#     4  11  22  42  67  93 128 173 211 267 329 377
#     4   9  19  36  64  95 124 165 217 255 320 382
#     4  10  22  43  65  93 136 168 213 270 321 383
#     4  11  20  43  68  92 130 170 214 270 320 385
#     4  11  26  42  62 100 129 166 223 268 322 388
#
# _framework density 26.168405
#
# number of rings (size 3 to 8) (size 9 to 14) (size 15 to 20)
#    0.000    1.667    5.000    2.500    2.333    2.667 
#    3.000    3.333    0.000    0.000    0.000    0.000 
#    0.000    0.000    0.000    0.000    0.000    0.000 
#
# Total GULP energy -67140.926445 kJ/mol
# GULP energy per Si atom -5595.077204 kJ/mol
# Density = 2.610884 g / cm^3
# Si number density = 26.168405 Si / 1000 Ang^3
#
#
#
# Elastic Constant Matrix: (Units=GPa)
#
#
# Indices 1 2 3 4 5 6 
#
# 1 113.3405 27.5420 19.5085 24.3028 -4.8049 -20.9325
# 2 27.5420 79.6944 19.6613 21.2548 6.1197 -27.9373
# 3 19.5085 19.6613 117.8787 14.5020 -7.1689 -26.6757
# 4 24.3028 21.2548 14.5020 55.5481 -7.9736 1.0669
# 5 -4.8049 6.1197 -7.1689 -7.9736 34.2950 17.7237
# 6 -20.9325 -27.9373 -26.6757 1.0669 17.7237 37.1947
#
#
#
# Elastic Compliance Matrix: (Units=1/GPa)
#
#
# Indices 1 2 3 4 5 6 
#
# 1 0.011782 0.003171 0.001144 -0.008023 -0.007618 0.013692
# 2 0.003171 0.038282 0.005902 -0.024152 -0.038603 0.053859
# 3 0.001144 0.005902 0.011814 -0.007587 -0.009688 0.018383
# 4 -0.008023 -0.024152 -0.007587 0.038490 0.034017 -0.045410
# 5 -0.007618 -0.038603 -0.009688 0.034017 0.082467 -0.080502
# 6 0.013692 0.053859 0.018383 -0.045410 -0.080502 0.127892
#
#
# Mechanical properties :
#
#
# Convention : Reuss Voigt Hill
#
# Bulk Modulus (GPa) = 12.14917 49.37078 30.75997
# Shear Modulus (GPa) = 15.73654 41.68769 28.71211
#
# Velocity S-wave (km/s) = 2.45492 3.99564 3.31600
# Velocity P-wave (km/s) = 3.56206 6.33990 5.14211
#
# Compressibility (1/GPa) = 0.08231018
#
# Stress axis : x y z
#
# Youngs Moduli (GPa) = 84.87687 26.12174 84.64584
#
# Poissons Ratio (x) = -0.08282 -0.09680
# Poissons Ratio (y) = -0.26912 -0.49956
# Poissons Ratio (z) = -0.09706 -0.15417
#
# Static dielectric constant tensor:
#      x y z
#    x 2.092290 0.068760 -0.031060 
#    y 0.068760 2.150450 0.050520 
#    z -0.031060 0.050520 2.125350 
# 
# From -- ./inp_files/559295.got.cif
#   From: 2010.05.17/outbox.cif.g08.bks.cpg/sg2_280_cif.got.tgz:559295.got - 2010.06.03 11:33:40.
