data_PCOD9103600
_publ_section_title
;
Structure prediction by ZEFSAII (Michael W. Deem and Ramdas Pophale) SiO2 
 PCOD9103600
Probable space group: P -1
;
_chemical_formula_sum "Si O2"
_cell_formula_units_Z 14
_cell_length_a 15.922665
_cell_length_b 8.545721
_cell_length_c 15.159701
_cell_angle_alpha 117.536256
_cell_angle_beta 152.217471
_cell_angle_gamma 43.808344
_cell_volume 557.652197
_symmetry_space_group_name_H-M "P -1"
_symmetry_group_IT_number 2
_symmetry_cell_setting 'triclinic'
loop_
_space_group_symop_operation_xyz
x,y,z
-x,-y,-z
loop_
_atom_site_type_symbol
_atom_site_label
_atom_site_fract_x
_atom_site_fract_y
_atom_site_fract_z
Si Si1 0.290263 0.490408 0.814090
Si Si2 0.579208 0.182239 0.525522
Si Si3 0.890014 0.386332 0.119056
Si Si4 0.400733 0.750821 0.236647
Si Si5 0.724091 0.882273 0.053305
Si Si6 0.937164 0.261197 0.834665
Si Si7 0.042397 0.759985 0.481751
O O1 0.205379 0.551036 0.852167
O O2 0.050798 0.698328 0.575051
O O3 0.500000 0.500000 0.000000
O O4 0.446601 0.193775 0.860085
O O5 0.523066 0.265523 0.597252
O O6 0.767360 0.202628 0.667033
O O7 0.283227 0.421559 0.267175
O O8 0.777156 0.865617 0.629454
O O9 0.753808 0.651805 0.013031
O O10 0.782308 0.291750 0.945889
O O11 0.665646 0.516174 0.361092
O O12 0.197635 0.048562 0.085525
O O13 0.939470 0.808301 0.166187
O O14 0.812412 0.851712 0.228461
O O15 0.000000 0.000000 0.500000
#
# Coordination Sequence:
#
# PCOD9103600 Si02
#       7
#     2   2   2   2   2   2   2
#     4  12  22  44  68  92 127 168 217 256 313 384
#     4  10  22  41  67  93 122 170 224 252 302 386
#     4  11  24  40  66  96 133 165 203 272 322 364
#     4  11  21  44  65  93 122 170 224 251 303 387
#     4  12  24  42  62 100 133 161 207 268 328 364
#     4  10  20  38  67  87 125 168 211 255 309 368
#     4  12  24  38  70  95 119 169 215 260 309 385
#
# _framework density 25.105253000000001
#
# number of rings (size 3 to 8) (size 9 to 14) (size 15 to 20)
#    0.000    0.857    5.714    3.000    0.000    1.143 
#    0.000   10.000    0.000    0.000    0.000    0.000 
#    0.000    0.000    0.000    0.000    0.000    0.000 
#
# Total GULP energy -78466.046295 kJ/mol
# GULP energy per Si atom -5604.717592 kJ/mol
# Density = 2.504811 g / cm^3
# Si number density = 25.105253 Si / 1000 Ang^3
#
#
#
# Elastic Constant Matrix: (Units=GPa)
#
#
# Indices 1 2 3 4 5 6 
#
# 1 119.1734 30.0006 24.6119 -1.7884 -15.8690 -3.0727
# 2 30.0006 112.3435 36.9276 -41.8314 -0.6660 19.0858
# 3 24.6119 36.9276 104.6760 -32.9930 -13.6927 15.5222
# 4 -1.7884 -41.8314 -32.9930 45.2759 1.8028 -1.3278
# 5 -15.8690 -0.6660 -13.6927 1.8028 37.4901 -11.7116
# 6 -3.0727 19.0858 15.5222 -1.3278 -11.7116 33.0659
#
#
#
# Elastic Compliance Matrix: (Units=1/GPa)
#
#
# Indices 1 2 3 4 5 6 
#
# 1 0.011633 -0.006278 -0.003350 -0.007801 0.006552 0.008285
# 2 -0.006278 0.019405 0.001773 0.018832 -0.007057 -0.014360
# 3 -0.003350 0.001773 0.014731 0.011979 0.001114 -0.007374
# 4 -0.007801 0.018832 0.011979 0.047646 -0.006369 -0.017561
# 5 0.006552 -0.007057 0.001114 -0.006369 0.035143 0.016351
# 6 0.008285 -0.014360 -0.007374 -0.017561 0.016351 0.047848
#
#
# Mechanical properties :
#
#
# Convention : Reuss Voigt Hill
#
# Bulk Modulus (GPa) = 33.27151 57.69700 45.48426
# Shear Modulus (GPa) = 24.73569 39.47659 32.10614
#
# Velocity S-wave (km/s) = 3.14232 3.96971 3.58000
# Velocity P-wave (km/s) = 5.14268 6.63652 5.93677
#
# Compressibility (1/GPa) = 0.03005574
#
# Stress axis : x y z
#
# Youngs Moduli (GPa) = 85.96516 51.53244 67.88579
#
# Poissons Ratio (x) = 0.32354 0.22745
# Poissons Ratio (y) = 0.53973 -0.12033
# Poissons Ratio (z) = 0.28802 -0.09134
#
# Static dielectric constant tensor:
#      x y z
#    x 1.949660 0.037870 0.038860 
#    y 0.037870 2.031270 -0.033180 
#    z 0.038860 -0.033180 2.017260 
# 
# From -- ./inp_files/214856.got.cif
#   From: 2010.05.17/outbox.cif.g08.bks.cpg/sg2_108_cif.got.tgz:214856.got - 2010.06.03 11:33:40.
