data_PCOD9103110
_publ_section_title
;
Structure prediction by ZEFSAII (Michael W. Deem and Ramdas Pophale) SiO2 
 PCOD9103110
Probable space group: P -1
;
_chemical_formula_sum "Si O2"
_cell_formula_units_Z 12
_cell_length_a 16.388791
_cell_length_b 16.774341
_cell_length_c 6.941805
_cell_angle_alpha 40.777992
_cell_angle_beta 44.599237
_cell_angle_gamma 17.787280
_cell_volume 380.372537
_symmetry_space_group_name_H-M "P -1"
_symmetry_group_IT_number 2
_symmetry_cell_setting 'triclinic'
loop_
_space_group_symop_operation_xyz
x,y,z
-x,-y,-z
loop_
_atom_site_type_symbol
_atom_site_label
_atom_site_fract_x
_atom_site_fract_y
_atom_site_fract_z
Si Si1 0.298884 0.910209 0.263799
Si Si2 0.242396 0.287665 0.288584
Si Si3 0.788707 0.513045 0.713330
Si Si4 0.740797 0.895026 0.700893
Si Si5 0.565641 0.345399 0.848773
Si Si6 0.137466 0.732959 0.369603
O O1 0.290380 0.897986 0.072519
O O2 0.270191 0.070941 0.114725
O O3 0.526194 0.807235 0.500757
O O4 0.055600 0.068982 0.482148
O O5 0.225170 0.440836 0.114150
O O6 0.248777 0.254817 0.110198
O O7 0.015553 0.400770 0.503873
O O8 0.500000 0.000000 0.500000
O O9 0.704892 0.448970 0.976437
O O10 0.244689 0.772093 0.095252
O O11 0.974008 0.774794 0.464883
O O12 0.425560 0.399750 0.541286
O O13 0.500000 0.500000 0.500000
#
# Coordination Sequence:
#
# PCOD9103110 Si02
#       6
#     2   2   2   2   2   2
#     4   9  19  37  60  85 126 166 198 245 302 363
#     4   9  19  39  59  90 116 159 209 260 302 360
#     4  10  20  38  65  86 123 160 207 255 309 358
#     4   9  19  35  63  87 123 158 206 252 309 356
#     4  10  21  40  59  92 125 166 200 248 305 378
#     4   9  19  36  60  87 125 165 197 246 300 368
#
# _framework density 31.548017999999999
#
# number of rings (size 3 to 8) (size 9 to 14) (size 15 to 20)
#    1.000    1.667    0.000    1.500    0.000    0.667 
#   24.000    5.000    0.000   13.000    0.000    0.000 
#    0.000    0.000    0.000    0.000    0.000    0.000 
#
# Total GULP energy -66940.621382 kJ/mol
# GULP energy per Si atom -5578.385115 kJ/mol
# Density = 3.147621 g / cm^3
# Si number density = 31.548018 Si / 1000 Ang^3
#
#
#
# Elastic Constant Matrix: (Units=GPa)
#
#
# Indices 1 2 3 4 5 6 
#
# 1 102.6117 -75.4154 9.8573 33.2833 -58.1829 -100.5760
# 2 -75.4154 92.3538 37.0352 66.5651 -16.0418 -116.0050
# 3 9.8573 37.0352 173.1054 46.2190 -46.1238 -24.2974
# 4 33.2833 66.5651 46.2190 60.8609 -28.9647 -4.5723
# 5 -58.1829 -16.0418 -46.1238 -28.9647 63.2715 14.1350
# 6 -100.5760 -116.0050 -24.2974 -4.5723 14.1350 31.0551
#
#
#
# Elastic Compliance Matrix: (Units=1/GPa)
#
#
# Indices 1 2 3 4 5 6 
#
# 1 0.004315 -0.004409 0.000518 0.004781 0.006374 -0.004288
# 2 -0.004409 0.002497 -0.001681 -0.001424 -0.004287 -0.004527
# 3 0.000518 -0.001681 0.007865 -0.002087 0.005065 -0.001061
# 4 0.004781 -0.001424 -0.002087 0.022946 0.011530 0.006664
# 5 0.006374 -0.004287 0.005065 0.011530 0.030336 -0.003519
# 6 -0.004288 -0.004527 -0.001061 0.006664 -0.003519 0.003156
#
#
# Mechanical properties :
#
#
# Convention : Reuss Voigt Hill
#
# Bulk Modulus (GPa) = 283.16792 34.55835 158.86313
# Shear Modulus (GPa) = 59.92533 57.47709 58.70121
#
# Velocity S-wave (km/s) = 4.36305 4.27299 4.31826
# Velocity P-wave (km/s) = 10.73938 5.94328 8.67919
#
# Compressibility (1/GPa) = 0.00353147
#
# Stress axis : x y z
#
# Youngs Moduli (GPa) = 231.74181 400.49520 127.15194
#
# Poissons Ratio (x) = 1.76595 -0.06581
# Poissons Ratio (y) = 1.02185 0.21371
# Poissons Ratio (z) = -0.11994 0.67312
#
# Static dielectric constant tensor:
#      x y z
#    x 2.978530 0.691250 0.208230 
#    y 0.691250 3.087620 0.171710 
#    z 0.208230 0.171710 2.503510 
# 
# From -- ./inp_files/317538.got.cif
#   From: 2010.05.17/outbox.cif.g08.bks.cpg/sg2_159_cif.got.tgz:317538.got - 2010.06.03 11:33:40.
