data_PCOD9103202
_publ_section_title
;
Structure prediction by ZEFSAII (Michael W. Deem and Ramdas Pophale) SiO2 
 PCOD9103202
Probable space group: P -1
;
_chemical_formula_sum "Si O2"
_cell_formula_units_Z 14
_cell_length_a 17.482276
_cell_length_b 6.857397
_cell_length_c 12.381339
_cell_angle_alpha 93.916311
_cell_angle_beta 23.271973
_cell_angle_gamma 93.479111
_cell_volume 585.068182
_symmetry_space_group_name_H-M "P -1"
_symmetry_group_IT_number 2
_symmetry_cell_setting 'triclinic'
loop_
_space_group_symop_operation_xyz
x,y,z
-x,-y,-z
loop_
_atom_site_type_symbol
_atom_site_label
_atom_site_fract_x
_atom_site_fract_y
_atom_site_fract_z
Si Si1 0.038942 0.264297 0.167205
Si Si2 0.462380 0.083173 0.879417
Si Si3 0.780034 0.955954 0.588441
Si Si4 0.292749 0.899100 0.756868
Si Si5 0.294626 0.624060 0.541121
Si Si6 0.658407 0.426187 0.133106
Si Si7 0.123566 0.871762 0.249375
O O1 0.908675 0.393983 0.258266
O O2 0.214297 0.386071 0.994543
O O3 0.884994 0.168582 0.448562
O O4 0.131786 0.068912 0.986546
O O5 0.551357 0.288054 0.741174
O O6 0.646157 0.940702 0.656611
O O7 0.352534 0.076727 0.135983
O O8 0.304032 0.014428 0.996805
O O9 0.962258 0.818619 0.368317
O O10 0.264964 0.792449 0.674795
O O11 0.305968 0.726821 0.822159
O O12 0.500000 0.000000 0.500000
O O13 0.429010 0.460886 0.417116
O O14 0.758324 0.327524 0.893187
O O15 0.000000 0.000000 0.500000
#
# Coordination Sequence:
#
# PCOD9103202 Si02
#       7
#     2   2   2   2   2   2   2
#     4  11  24  44  69 101 137 179 229 271 341 406
#     4   9  19  38  66  92 131 172 219 271 330 395
#     4   9  18  39  66  92 127 178 216 268 334 398
#     4  12  24  46  72  95 140 184 219 281 341 396
#     4  11  24  42  67 106 136 177 231 276 332 399
#     4  12  25  44  68 101 137 174 225 288 333 394
#     4  10  20  38  65  92 126 175 219 266 333 396
#
# _framework density 23.928837999999999
#
# number of rings (size 3 to 8) (size 9 to 14) (size 15 to 20)
#    0.000    1.429    2.857    2.571    0.000    1.714 
#    2.571   11.429    0.000   15.429    0.000    0.000 
#    0.000    0.000    0.000    0.000    0.000    0.000 
#
# Total GULP energy -77951.923805 kJ/mol
# GULP energy per Si atom -5567.994557 kJ/mol
# Density = 2.387437 g / cm^3
# Si number density = 23.928838 Si / 1000 Ang^3
#
#
#
# Elastic Constant Matrix: (Units=GPa)
#
#
# Indices 1 2 3 4 5 6 
#
# 1 75.4819 25.2193 37.6672 13.0766 -20.3072 -13.4222
# 2 25.2193 80.3565 34.5884 19.6636 2.6179 -0.4016
# 3 37.6672 34.5884 89.9279 21.8271 -16.3075 -11.2973
# 4 13.0766 19.6636 21.8271 45.7593 -12.4022 -1.2633
# 5 -20.3072 2.6179 -16.3075 -12.4022 49.5614 9.1467
# 6 -13.4222 -0.4016 -11.2973 -1.2633 9.1467 29.4027
#
#
#
# Elastic Compliance Matrix: (Units=1/GPa)
#
#
# Indices 1 2 3 4 5 6 
#
# 1 0.019540 -0.004239 -0.004933 0.000284 0.005719 0.005200
# 2 -0.004239 0.017315 -0.004781 -0.005413 -0.005181 -0.002156
# 3 -0.004933 -0.004781 0.016768 -0.003853 0.002179 0.003282
# 4 0.000284 -0.005413 -0.003853 0.027625 0.006462 -0.002248
# 5 0.005719 -0.005181 0.002179 0.006462 0.025943 -0.004416
# 6 0.005200 -0.002156 0.003282 -0.002248 -0.004416 0.038893
#
#
# Mechanical properties :
#
#
# Convention : Reuss Voigt Hill
#
# Bulk Modulus (GPa) = 38.88441 48.96847 43.92644
# Shear Modulus (GPa) = 27.38790 34.83078 31.10934
#
# Velocity S-wave (km/s) = 3.38680 3.81937 3.60957
# Velocity P-wave (km/s) = 5.61954 6.32129 5.98072
#
# Compressibility (1/GPa) = 0.02571725
#
# Stress axis : x y z
#
# Youngs Moduli (GPa) = 51.17703 57.75212 59.63869
#
# Poissons Ratio (x) = 0.24482 0.29418
# Poissons Ratio (y) = 0.21694 0.28514
# Poissons Ratio (z) = 0.25244 0.27612
#
# Static dielectric constant tensor:
#      x y z
#    x 2.065040 -0.023220 0.047810 
#    y -0.023220 1.959400 0.053530 
#    z 0.047810 0.053530 2.028540 
# 
# From -- ./inp_files/539785.got.cif
#   From: 2010.05.17/outbox.cif.g08.bks.cpg/sg2_270_cif.got.tgz:539785.got - 2010.06.03 11:33:40.
