data_PCOD9103736
_publ_section_title
;
Structure prediction by ZEFSAII (Michael W. Deem and Ramdas Pophale) SiO2 
 PCOD9103736
Probable space group: P -1
;
_chemical_formula_sum "Si O2"
_cell_formula_units_Z 13
_cell_length_a 14.776617
_cell_length_b 8.816963
_cell_length_c 9.574347
_cell_angle_alpha 75.840715
_cell_angle_beta 126.545263
_cell_angle_gamma 141.955648
_cell_volume 550.560427
_symmetry_space_group_name_H-M "P -1"
_symmetry_group_IT_number 2
_symmetry_cell_setting 'triclinic'
loop_
_space_group_symop_operation_xyz
x,y,z
-x,-y,-z
loop_
_atom_site_type_symbol
_atom_site_label
_atom_site_fract_x
_atom_site_fract_y
_atom_site_fract_z
Si Si1 0.000000 0.000000 0.500000
Si Si2 0.108101 0.390177 0.720665
Si Si3 0.482884 0.407564 0.230504
Si Si4 0.754567 0.931793 0.192427
Si Si5 0.717233 0.130669 0.346100
Si Si6 0.436485 0.762779 0.429789
Si Si7 0.810998 0.669383 0.906761
O O1 0.055261 0.163281 0.658511
O O2 0.015542 0.843767 0.637218
O O3 0.272960 0.674659 0.721741
O O4 0.919875 0.290175 0.560015
O O5 0.166472 0.426315 0.924662
O O6 0.694163 0.714152 0.292615
O O7 0.507830 0.302453 0.389642
O O8 0.368500 0.418265 0.197224
O O9 0.357679 0.214819 0.022052
O O10 0.693884 0.014574 0.202960
O O11 0.558941 0.904196 0.366023
O O12 0.225484 0.468012 0.237892
O O13 0.500000 0.000000 0.500000
O O14 0.000000 0.000000 0.000000
#
# Coordination Sequence:
#
# PCOD9103736 Si02
#       7
#     1   2   2   2   2   2   2
#     4  10  20  38  68 104 128 174 230 278 338 406
#     4  10  23  41  70 102 133 181 227 285 339 412
#     4  11  24  44  67 101 133 181 230 283 344 408
#     4  10  22  40  71  98 133 178 227 285 338 414
#     4  10  23  45  67  97 144 175 225 284 354 398
#     4  12  29  45  68 101 142 186 227 287 345 410
#     4  12  26  45  71 102 137 186 232 285 343 412
#
# _framework density 23.612304999999999
#
# number of rings (size 3 to 8) (size 9 to 14) (size 15 to 20)
#    0.000    1.231    3.077    1.385    8.615    0.615 
#    2.769    1.538    0.000    0.000    0.000    0.000 
#    0.000    0.000    0.000    0.000    0.000    0.000 
#
# Total GULP energy -72477.673017 kJ/mol
# GULP energy per Si atom -5575.205617 kJ/mol
# Density = 2.355856 g / cm^3
# Si number density = 23.612305 Si / 1000 Ang^3
#
#
#
# Elastic Constant Matrix: (Units=GPa)
#
#
# Indices 1 2 3 4 5 6 
#
# 1 86.9150 27.0709 40.1179 7.2299 -26.6283 -25.2549
# 2 27.0709 105.6412 54.2910 -16.2562 -18.5972 -11.6304
# 3 40.1179 54.2910 142.2630 1.0668 -42.5325 -25.2723
# 4 7.2299 -16.2562 1.0668 30.4629 -5.7569 -9.7031
# 5 -26.6283 -18.5972 -42.5325 -5.7569 39.2076 10.5802
# 6 -25.2549 -11.6304 -25.2723 -9.7031 10.5802 43.0390
#
#
#
# Elastic Compliance Matrix: (Units=1/GPa)
#
#
# Indices 1 2 3 4 5 6 
#
# 1 0.016913 -0.002254 -0.000277 -0.001509 0.008052 0.006833
# 2 -0.002254 0.013935 -0.003949 0.008976 0.001642 0.001744
# 3 -0.000277 -0.003949 0.012391 0.000660 0.010503 0.003614
# 4 -0.001509 0.008976 0.000660 0.042453 0.007582 0.009635
# 5 0.008052 0.001642 0.010503 0.007582 0.043634 0.002319
# 6 0.006833 0.001744 0.003614 0.009635 0.002319 0.031440
#
#
# Mechanical properties :
#
#
# Convention : Reuss Voigt Hill
#
# Bulk Modulus (GPa) = 33.02494 64.19764 48.61129
# Shear Modulus (GPa) = 27.20045 36.76453 31.98249
#
# Velocity S-wave (km/s) = 3.39774 3.95017 3.68432
# Velocity P-wave (km/s) = 5.42305 6.93198 6.22342
#
# Compressibility (1/GPa) = 0.03028014
#
# Stress axis : x y z
#
# Youngs Moduli (GPa) = 59.12502 71.75968 80.70174
#
# Poissons Ratio (x) = 0.16178 0.02233
# Poissons Ratio (y) = 0.13329 0.31868
# Poissons Ratio (z) = 0.01636 0.28337
#
# Static dielectric constant tensor:
#      x y z
#    x 1.660070 -0.176920 -0.280180 
#    y -0.176920 1.872000 -0.130050 
#    z -0.280180 -0.130050 1.608550 
# 
# From -- ./inp_files/149226.got.cif
#   From: 2010.05.17/outbox.cif.g08.bks.cpg/sg2_75_cif.got.tgz:149226.got - 2010.06.03 11:33:40.
