data_PCOD9103579
_publ_section_title
;
Structure prediction by ZEFSAII (Michael W. Deem and Ramdas Pophale) SiO2 
 PCOD9103579
Probable space group: P -1
;
_chemical_formula_sum "Si O2"
_cell_formula_units_Z 16
_cell_length_a 11.112086
_cell_length_b 11.890801
_cell_length_c 17.796190
_cell_angle_alpha 152.529392
_cell_angle_beta 141.019929
_cell_angle_gamma 52.179676
_cell_volume 658.176284
_symmetry_space_group_name_H-M "P -1"
_symmetry_group_IT_number 2
_symmetry_cell_setting 'triclinic'
loop_
_space_group_symop_operation_xyz
x,y,z
-x,-y,-z
loop_
_atom_site_type_symbol
_atom_site_label
_atom_site_fract_x
_atom_site_fract_y
_atom_site_fract_z
Si Si1 0.597588 0.211956 0.387116
Si Si2 0.094317 0.797715 0.212870
Si Si3 0.465941 0.828524 0.500714
Si Si4 0.122783 0.125561 0.705224
Si Si5 0.324389 0.610516 0.012945
Si Si6 0.843490 0.133030 0.036250
Si Si7 0.179748 0.951795 0.857909
Si Si8 0.391836 0.629622 0.672025
O O1 0.654726 0.269659 0.536634
O O2 0.643458 0.411071 0.459252
O O3 0.695510 0.997427 0.276499
O O4 0.366852 0.073935 0.194409
O O5 0.323524 0.832696 0.364012
O O6 0.012980 0.927416 0.320320
O O7 0.996487 0.916562 0.168353
O O8 0.000000 0.500000 0.000000
O O9 0.596507 0.630179 0.437511
O O10 0.585614 0.113085 0.745676
O O11 0.207572 0.421197 0.906209
O O12 0.000000 0.000000 0.500000
O O13 0.500000 0.500000 0.000000
O O14 0.178830 0.637048 0.890157
O O15 0.870881 0.187308 0.169534
O O16 0.000000 0.000000 0.000000
O O17 0.235058 0.758759 0.710819
O O18 0.387476 0.175623 0.096719
#
# Coordination Sequence:
#
# PCOD9103579 Si02
#       8
#     2   2   2   2   2   2   2   2
#     4  10  20  40  69 105 135 178 238 289 346 412
#     4  12  24  40  69 108 141 180 240 290 347 418
#     4  11  22  41  66 106 142 187 229 288 350 421
#     4  12  23  44  77 105 133 185 240 291 354 426
#     4  11  23  46  71  99 142 177 233 291 353 416
#     4  10  23  42  68 100 136 186 233 286 351 416
#     4  10  22  40  67  99 142 189 229 289 352 417
#     4  10  20  38  67 102 143 180 233 289 355 415
#
# _framework density 24.309595000000002
#
# number of rings (size 3 to 8) (size 9 to 14) (size 15 to 20)
#    0.000    1.250    6.250    0.375    1.750    0.000 
#    4.500    0.625    2.750    6.000    0.000    0.000 
#    0.000    0.000    0.000    0.000    0.000    0.000 
#
# Total GULP energy -89536.430215 kJ/mol
# GULP energy per Si atom -5596.026888 kJ/mol
# Density = 2.425427 g / cm^3
# Si number density = 24.309595 Si / 1000 Ang^3
#
#
#
# Elastic Constant Matrix: (Units=GPa)
#
#
# Indices 1 2 3 4 5 6 
#
# 1 69.5498 19.9501 -7.1350 -10.4128 -4.5881 -11.7823
# 2 19.9501 171.7437 23.3116 -5.3949 8.1388 -18.9637
# 3 -7.1350 23.3116 75.6622 6.1431 -1.2015 -3.8039
# 4 -10.4128 -5.3949 6.1431 37.8283 0.3456 -10.3092
# 5 -4.5881 8.1388 -1.2015 0.3456 24.7072 -0.4162
# 6 -11.7823 -18.9637 -3.8039 -10.3092 -0.4162 33.0210
#
#
#
# Elastic Compliance Matrix: (Units=1/GPa)
#
#
# Indices 1 2 3 4 5 6 
#
# 1 0.017506 -0.001445 0.002029 0.006340 0.003866 0.007678
# 2 -0.001445 0.006905 -0.002278 0.002012 -0.002618 0.003782
# 3 0.002029 -0.002278 0.014324 -0.001981 0.001859 0.000470
# 4 0.006340 0.002012 -0.001981 0.032415 0.000189 0.013312
# 5 0.003866 -0.002618 0.001859 0.000189 0.042154 0.000681
# 6 0.007678 0.003782 0.000470 0.013312 0.000681 0.039414
#
#
# Mechanical properties :
#
#
# Convention : Reuss Voigt Hill
#
# Bulk Modulus (GPa) = 28.29253 43.24546 35.76900
# Shear Modulus (GPa) = 29.78163 37.83325 33.80744
#
# Velocity S-wave (km/s) = 3.50394 3.94929 3.73326
# Velocity P-wave (km/s) = 5.29469 6.21481 5.77311
#
# Compressibility (1/GPa) = 0.03534501
#
# Stress axis : x y z
#
# Youngs Moduli (GPa) = 57.12351 144.83052 69.81315
#
# Poissons Ratio (x) = 0.20930 -0.14163
# Poissons Ratio (y) = 0.08255 0.15906
# Poissons Ratio (z) = -0.11589 0.32997
#
# Static dielectric constant tensor:
#      x y z
#    x 1.976800 0.081770 -0.005590 
#    y 0.081770 2.203790 -0.005920 
#    z -0.005590 -0.005920 1.936110 
# 
# From -- ./inp_files/569037.got.cif
#   From: 2010.05.17/outbox.cif.g08.bks.cpg/sg2_285_cif.got.tgz:569037.got - 2010.06.03 11:33:40.
