data_PCOD9103732
_publ_section_title
;
Structure prediction by ZEFSAII (Michael W. Deem and Ramdas Pophale) SiO2 
 PCOD9103732
Probable space group: P -1
;
_chemical_formula_sum "Si O2"
_cell_formula_units_Z 10
_cell_length_a 11.509476
_cell_length_b 10.036754
_cell_length_c 7.760722
_cell_angle_alpha 133.474243
_cell_angle_beta 49.345157
_cell_angle_gamma 144.655937
_cell_volume 367.542713
_symmetry_space_group_name_H-M "P -1"
_symmetry_group_IT_number 2
_symmetry_cell_setting 'triclinic'
loop_
_space_group_symop_operation_xyz
x,y,z
-x,-y,-z
loop_
_atom_site_type_symbol
_atom_site_label
_atom_site_fract_x
_atom_site_fract_y
_atom_site_fract_z
Si Si1 0.794136 0.481504 0.534344
Si Si2 0.715602 0.127243 0.553059
Si Si3 0.519636 0.285705 0.080087
Si Si4 0.777420 0.729475 0.446660
Si Si5 0.753232 0.799772 0.049914
O O1 0.701959 0.217724 0.458274
O O2 0.752603 0.549721 0.455872
O O3 0.040616 0.660907 0.455473
O O4 0.717140 0.556767 0.827705
O O5 0.675986 0.880861 0.340506
O O6 0.601015 0.150538 0.832168
O O7 0.718673 0.576658 0.190556
O O8 0.381512 0.232166 0.330320
O O9 0.349381 0.200657 0.024589
O O10 0.000000 0.000000 0.500000
O O11 0.000000 0.000000 0.000000
#
# Coordination Sequence:
#
# PCOD9103732 Si02
#       5
#     2   2   2   2   2
#     4   9  21  40  65  95 132 174 215 268 330 386
#     4  10  20  38  68 101 129 165 224 276 321 387
#     4  10  22  41  66  98 129 172 228 268 323 399
#     4  10  23  44  66  93 137 180 216 268 332 393
#     4   9  19  38  63  95 132 167 208 270 332 379
#
# _framework density 27.207722
#
# number of rings (size 3 to 8) (size 9 to 14) (size 15 to 20)
#    0.000    2.400    0.000    0.600    0.000   15.200 
#    0.000   14.000    0.000    0.000    0.000    0.000 
#    0.000    0.000    0.000    0.000    0.000    0.000 
#
# Total GULP energy -55837.612020 kJ/mol
# GULP energy per Si atom -5583.761202 kJ/mol
# Density = 2.714580 g / cm^3
# Si number density = 27.207722 Si / 1000 Ang^3
#
#
#
# Elastic Constant Matrix: (Units=GPa)
#
#
# Indices 1 2 3 4 5 6 
#
# 1 149.1770 67.6144 79.0308 -4.0627 -1.7365 11.5039
# 2 67.6144 125.1266 45.9275 25.7643 10.8073 17.3813
# 3 79.0308 45.9275 234.4563 2.0723 -10.7353 22.9232
# 4 -4.0627 25.7643 2.0723 49.5715 6.2427 2.3893
# 5 -1.7365 10.8073 -10.7353 6.2427 54.2151 3.2678
# 6 11.5039 17.3813 22.9232 2.3893 3.2678 47.6910
#
#
#
# Elastic Compliance Matrix: (Units=1/GPa)
#
#
# Indices 1 2 3 4 5 6 
#
# 1 0.010755 -0.005796 -0.002551 0.003911 0.000513 0.000513
# 2 -0.005796 0.013257 -0.000401 -0.006972 -0.001939 -0.002759
# 3 -0.002551 -0.000401 0.005451 -0.000290 0.001227 -0.001928
# 4 0.003911 -0.006972 -0.000290 0.024272 -0.001374 0.000615
# 5 0.000513 -0.001939 0.001227 -0.001374 0.019325 -0.001262
# 6 0.000513 -0.002759 -0.001928 0.000615 -0.001262 0.022832
#
#
# Mechanical properties :
#
#
# Convention : Reuss Voigt Hill
#
# Bulk Modulus (GPa) = 83.56181 99.32282 91.44231
# Shear Modulus (GPa) = 42.59729 51.37466 46.98598
#
# Velocity S-wave (km/s) = 3.96110 4.35010 4.16015
# Velocity P-wave (km/s) = 7.19025 7.86230 7.53377
#
# Compressibility (1/GPa) = 0.01196719
#
# Stress axis : x y z
#
# Youngs Moduli (GPa) = 92.97931 75.43064 183.45713
#
# Poissons Ratio (x) = 0.43722 0.46803
# Poissons Ratio (y) = 0.53894 0.07348
# Poissons Ratio (z) = 0.23720 0.03021
#
# Static dielectric constant tensor:
#      x y z
#    x 2.261970 -0.082720 0.083310 
#    y -0.082720 2.263570 -0.046370 
#    z 0.083310 -0.046370 2.075180 
# 
# From -- ./inp_files/255389.got.cif
#   From: 2010.05.17/outbox.cif.g08.bks.cpg/sg2_128_cif.got.tgz:255389.got - 2010.06.03 11:33:40.
