data_PCOD9103776
_publ_section_title
;
Structure prediction by ZEFSAII (Michael W. Deem and Ramdas Pophale) SiO2 
 PCOD9103776
Probable space group: P -1
;
_chemical_formula_sum "Si O2"
_cell_formula_units_Z 16
_cell_length_a 9.671835
_cell_length_b 9.317324
_cell_length_c 11.787329
_cell_angle_alpha 62.546867
_cell_angle_beta 60.262460
_cell_angle_gamma 71.747768
_cell_volume 813.530156
_symmetry_space_group_name_H-M "P -1"
_symmetry_group_IT_number 2
_symmetry_cell_setting 'triclinic'
loop_
_space_group_symop_operation_xyz
x,y,z
-x,-y,-z
loop_
_atom_site_type_symbol
_atom_site_label
_atom_site_fract_x
_atom_site_fract_y
_atom_site_fract_z
Si Si1 0.271893 0.639277 0.600445
Si Si2 0.064074 0.377118 0.357027
Si Si3 0.661371 0.570957 0.945664
Si Si4 0.610729 0.845997 0.060273
Si Si5 0.866472 0.373703 0.098386
Si Si6 0.045643 0.033208 0.098787
Si Si7 0.088782 0.264619 0.644080
Si Si8 0.408053 0.275609 0.632588
O O1 0.243193 0.599371 0.757047
O O2 0.340841 0.467111 0.579894
O O3 0.415572 0.750381 0.485223
O O4 0.094580 0.694893 0.602375
O O5 0.222042 0.359892 0.220417
O O6 0.106867 0.305365 0.489719
O O7 0.999044 0.569068 0.326093
O O8 0.500000 0.500000 0.000000
O O9 0.625648 0.703398 0.012022
O O10 0.768408 0.416580 0.010313
O O11 0.568777 0.778052 0.226127
O O12 0.779743 0.912211 0.986897
O O13 0.500000 0.000000 0.000000
O O14 0.937144 0.188406 0.135080
O O15 0.000000 0.500000 0.000000
O O16 0.024034 0.875476 0.238391
O O17 0.000000 0.000000 0.000000
O O18 0.259502 0.203992 0.656640
#
# Coordination Sequence:
#
# PCOD9103776 Si02
#       8
#     2   2   2   2   2   2   2   2
#     4  10  20  38  68  92 124 177 221 268 322 393
#     4  10  22  42  66  96 132 176 221 268 331 399
#     4  12  27  42  70  98 132 175 227 278 328 393
#     4  12  27  44  63 100 139 171 220 281 335 390
#     4  12  22  45  70  94 129 178 230 270 327 400
#     4  12  24  43  71  97 130 177 224 274 332 395
#     4  10  23  40  66  99 134 171 220 270 331 400
#     4  10  21  41  64  95 130 172 220 265 331 391
#
# _framework density 19.667373000000001
#
# number of rings (size 3 to 8) (size 9 to 14) (size 15 to 20)
#    0.000    1.000    5.000    0.750    7.000    1.000 
#    2.250    1.875    0.000    0.000    0.000    0.000 
#    0.000    0.000    0.000    0.000    0.000    0.000 
#
# Total GULP energy -89278.892170 kJ/mol
# GULP energy per Si atom -5579.930761 kJ/mol
# Density = 1.962261 g / cm^3
# Si number density = 19.667373 Si / 1000 Ang^3
#
#
#
# Elastic Constant Matrix: (Units=GPa)
#
#
# Indices 1 2 3 4 5 6 
#
# 1 116.6675 7.9622 49.2625 7.0012 -9.4835 6.8392
# 2 7.9622 37.0839 20.4266 -7.0688 -2.3455 3.5896
# 3 49.2625 20.4266 133.5794 16.8670 -13.7557 5.2569
# 4 7.0012 -7.0688 16.8670 26.1598 -2.2532 0.6661
# 5 -9.4835 -2.3455 -13.7557 -2.2532 36.5383 -5.8051
# 6 6.8392 3.5896 5.2569 0.6661 -5.8051 26.1123
#
#
#
# Elastic Compliance Matrix: (Units=1/GPa)
#
#
# Indices 1 2 3 4 5 6 
#
# 1 0.010287 -0.000078 -0.003565 -0.000344 0.001027 -0.001729
# 2 -0.000078 0.033573 -0.006677 0.013480 -0.000123 -0.003622
# 3 -0.003565 -0.006677 0.011034 -0.007769 0.002378 0.000357
# 4 -0.000344 0.013480 -0.007769 0.047050 0.000550 -0.001277
# 5 0.001027 -0.000123 0.002378 0.000550 0.029479 0.005809
# 6 -0.001729 -0.003622 0.000357 -0.001277 0.005809 0.040499
#
#
# Mechanical properties :
#
#
# Convention : Reuss Voigt Hill
#
# Bulk Modulus (GPa) = 29.19429 49.18148 39.18789
# Shear Modulus (GPa) = 24.51221 31.74072 28.12646
#
# Velocity S-wave (km/s) = 3.53418 4.02167 3.78578
# Velocity P-wave (km/s) = 5.61517 6.82832 6.25125
#
# Compressibility (1/GPa) = 0.03425327
#
# Stress axis : x y z
#
# Youngs Moduli (GPa) = 97.20677 29.78590 90.63242
#
# Poissons Ratio (x) = 0.00234 0.32307
# Poissons Ratio (y) = 0.00763 0.60517
# Poissons Ratio (z) = 0.34651 0.19889
#
# Static dielectric constant tensor:
#      x y z
#    x 1.704350 0.009140 -0.001160 
#    y 0.009140 1.672130 0.023960 
#    z -0.001160 0.023960 1.667850 
# 
# From -- ./inp_files/190268.got.cif
#   From: 2010.05.17/outbox.cif.g08.bks.cpg/sg2_96_cif.got.tgz:190268.got - 2010.06.03 11:33:40.
