data_PCOD9103211
_publ_section_title
;
Structure prediction by ZEFSAII (Michael W. Deem and Ramdas Pophale) SiO2 
 PCOD9103211
Probable space group: P -1
;
_chemical_formula_sum "Si O2"
_cell_formula_units_Z 13
_cell_length_a 12.242704
_cell_length_b 14.713427
_cell_length_c 8.709170
_cell_angle_alpha 43.083816
_cell_angle_beta 134.865601
_cell_angle_gamma 147.949028
_cell_volume 552.272742
_symmetry_space_group_name_H-M "P -1"
_symmetry_group_IT_number 2
_symmetry_cell_setting 'triclinic'
loop_
_space_group_symop_operation_xyz
x,y,z
-x,-y,-z
loop_
_atom_site_type_symbol
_atom_site_label
_atom_site_fract_x
_atom_site_fract_y
_atom_site_fract_z
Si Si1 0.181377 0.000227 0.171645
Si Si2 0.259945 0.380046 0.471065
Si Si3 0.000000 0.000000 0.500000
Si Si4 0.640695 0.107118 0.350447
Si Si5 0.517619 0.582466 0.075979
Si Si6 0.129651 0.481715 0.973160
Si Si7 0.230056 0.895437 0.029347
O O1 0.207530 0.929915 0.438047
O O2 0.146525 0.890247 0.122375
O O3 0.390372 0.214225 0.093503
O O4 0.000000 0.000000 0.000000
O O5 0.500000 0.500000 0.500000
O O6 0.310261 0.396867 0.679327
O O7 0.167442 0.462741 0.211182
O O8 0.122657 0.179477 0.512487
O O9 0.163274 0.976059 0.752791
O O10 0.781841 0.322304 0.222425
O O11 0.500000 0.000000 0.500000
O O12 0.477632 0.017084 0.158622
O O13 0.500000 0.500000 0.000000
O O14 0.284959 0.464823 0.063384
O O15 0.895296 0.308207 0.900179
#
# Coordination Sequence:
#
# PCOD9103211 Si02
#       7
#     2   2   1   2   2   2   2
#     4  11  22  38  56  85 122 158 196 247 309 360
#     4   9  18  32  57  86 119 151 203 248 293 353
#     4  10  16  32  60  88 114 150 200 248 286 352
#     4  10  20  38  58  85 123 151 203 254 293 358
#     4  11  20  36  56  89 128 157 195 252 305 361
#     4  10  19  35  61  93 109 157 203 248 303 353
#     4  10  19  34  61  87 116 150 198 245 296 353
#
# _framework density 23.539093999999999
#
# number of rings (size 3 to 8) (size 9 to 14) (size 15 to 20)
#    0.000    1.846    4.615    1.846    0.000    2.462 
#    2.769    0.000    0.000    4.615    0.000    0.000 
#    0.000    0.000    0.000    0.000    0.000    0.000 
#
# Total GULP energy -72374.769783 kJ/mol
# GULP energy per Si atom -5567.289983 kJ/mol
# Density = 2.348552 g / cm^3
# Si number density = 23.539094 Si / 1000 Ang^3
#
#
#
# Elastic Constant Matrix: (Units=GPa)
#
#
# Indices 1 2 3 4 5 6 
#
# 1 50.3439 17.7484 16.2584 8.4217 2.6349 1.6634
# 2 17.7484 135.8542 70.6622 19.9808 -1.9744 -13.3123
# 3 16.2584 70.6622 168.5918 20.0944 14.3715 -15.8288
# 4 8.4217 19.9808 20.0944 51.5133 3.9811 -1.9987
# 5 2.6349 -1.9744 14.3715 3.9811 30.5498 12.6252
# 6 1.6634 -13.3123 -15.8288 -1.9987 12.6252 13.6865
#
#
#
# Elastic Compliance Matrix: (Units=1/GPa)
#
#
# Indices 1 2 3 4 5 6 
#
# 1 0.022069 -0.002425 -0.002319 -0.002573 0.004384 -0.012143
# 2 -0.002425 0.010284 -0.003281 -0.002096 0.000209 0.006004
# 3 -0.002319 -0.003281 0.011080 -0.000608 -0.014871 0.023534
# 4 -0.002573 -0.002096 -0.000608 0.021404 -0.004371 0.004729
# 5 0.004384 0.000209 -0.014871 -0.004371 0.076670 -0.088892
# 6 -0.012143 0.006004 0.023534 0.004729 -0.088892 0.190288
#
#
# Mechanical properties :
#
#
# Convention : Reuss Voigt Hill
#
# Bulk Modulus (GPa) = 36.51798 62.68087 49.59943
# Shear Modulus (GPa) = 14.00669 35.82464 24.91566
#
# Velocity S-wave (km/s) = 2.44199 3.90541 3.25696
# Velocity P-wave (km/s) = 4.84753 6.85730 5.93806
#
# Compressibility (1/GPa) = 0.02738377
#
# Stress axis : x y z
#
# Youngs Moduli (GPa) = 45.31181 97.24224 90.25362
#
# Poissons Ratio (x) = 0.23578 0.20932
# Poissons Ratio (y) = 0.10987 0.29609
# Poissons Ratio (z) = 0.10509 0.31901
#
# Static dielectric constant tensor:
#      x y z
#    x 2.178140 0.055950 0.011690 
#    y 0.055950 1.843580 -0.015380 
#    z 0.011690 -0.015380 1.987360 
# 
# From -- ./inp_files/173261.got.cif
#   From: 2010.05.17/outbox.cif.g08.bks.cpg/sg2_87_cif.got.tgz:173261.got - 2010.06.03 11:33:40.
