data_PCOD9103315
_publ_section_title
;
Structure prediction by ZEFSAII (Michael W. Deem and Ramdas Pophale) SiO2 
 PCOD9103315
Probable space group: P -1
;
_chemical_formula_sum "Si O2"
_cell_formula_units_Z 14
_cell_length_a 9.383122
_cell_length_b 5.063182
_cell_length_c 18.472702
_cell_angle_alpha 73.538877
_cell_angle_beta 129.553073
_cell_angle_gamma 92.044147
_cell_volume 636.372774
_symmetry_space_group_name_H-M "P -1"
_symmetry_group_IT_number 2
_symmetry_cell_setting 'triclinic'
loop_
_space_group_symop_operation_xyz
x,y,z
-x,-y,-z
loop_
_atom_site_type_symbol
_atom_site_label
_atom_site_fract_x
_atom_site_fract_y
_atom_site_fract_z
Si Si1 0.560294 0.875437 0.608627
Si Si2 0.919275 0.669196 0.568032
Si Si3 0.693017 0.517166 0.378266
Si Si4 0.204380 0.686276 0.318487
Si Si5 0.556869 0.491954 0.102052
Si Si6 0.925414 0.082399 0.268400
Si Si7 0.546923 0.913556 0.184695
O O1 0.396663 0.735264 0.599718
O O2 0.500000 0.000000 0.500000
O O3 0.222335 0.303348 0.547551
O O4 0.627681 0.141571 0.644879
O O5 0.874437 0.386290 0.397927
O O6 0.841801 0.431892 0.608236
O O7 0.942053 0.885284 0.623043
O O8 0.265961 0.397067 0.317455
O O9 0.533804 0.715858 0.263230
O O10 0.023441 0.940970 0.238408
O O11 0.784954 0.383792 0.187705
O O12 0.496573 0.774951 0.105143
O O13 0.472307 0.245728 0.134252
O O14 0.500000 0.500000 0.000000
O O15 0.771639 0.903817 0.255752
#
# Coordination Sequence:
#
# PCOD9103315 Si02
#       7
#     2   2   2   2   2   2   2
#     4  12  27  42  57  85 128 175 230 253 306 357
#     4  11  21  41  62  87 127 170 214 252 313 357
#     4  11  23  40  62  92 127 179 207 265 304 370
#     4  12  23  43  59  84 124 175 215 268 295 369
#     4  10  20  38  65  97 129 153 194 275 335 372
#     4  10  21  38  64  93 127 154 221 252 315 377
#     4  10  21  38  59  95 127 153 211 253 312 384
#
# _framework density 21.999683000000001
#
# number of rings (size 3 to 8) (size 9 to 14) (size 15 to 20)
#    0.857    0.286    5.714    0.857    0.000    2.857 
#    2.571    0.000    0.000    0.000    0.000    6.000 
#    0.000    0.000    0.000    0.000    0.000    0.000 
#
# Total GULP energy -77936.479809 kJ/mol
# GULP energy per Si atom -5566.891415 kJ/mol
# Density = 2.194961 g / cm^3
# Si number density = 21.999683 Si / 1000 Ang^3
#
#
#
# Elastic Constant Matrix: (Units=GPa)
#
#
# Indices 1 2 3 4 5 6 
#
# 1 84.4720 22.0271 1.8984 -7.0593 -6.9089 11.3871
# 2 22.0271 147.1392 14.2455 7.7527 -12.7901 4.9170
# 3 1.8984 14.2455 48.8132 11.5948 -19.3363 9.3616
# 4 -7.0593 7.7527 11.5948 25.4454 -3.4999 -5.4496
# 5 -6.9089 -12.7901 -19.3363 -3.4999 17.9701 -14.4914
# 6 11.3871 4.9170 9.3616 -5.4496 -14.4914 35.4133
#
#
#
# Elastic Compliance Matrix: (Units=1/GPa)
#
#
# Indices 1 2 3 4 5 6 
#
# 1 0.013230 -0.001870 0.001118 0.003856 0.004072 -0.002030
# 2 -0.001870 0.007609 0.000375 -0.001818 0.006080 0.001654
# 3 0.001118 0.000375 0.040281 -0.010145 0.047592 0.006854
# 4 0.003856 -0.001818 -0.010145 0.049732 0.009695 0.013315
# 5 0.004072 0.006080 0.047592 0.009695 0.155164 0.050252
# 6 -0.002030 0.001654 0.006854 0.013315 0.050252 0.049462
#
#
# Mechanical properties :
#
#
# Convention : Reuss Voigt Hill
#
# Bulk Modulus (GPa) = 16.56583 39.64072 28.10328
# Shear Modulus (GPa) = 14.86532 31.91598 23.39065
#
# Velocity S-wave (km/s) = 2.60225 3.81300 3.26425
# Velocity P-wave (km/s) = 4.07128 6.11908 5.19704
#
# Compressibility (1/GPa) = 0.06036521
#
# Stress axis : x y z
#
# Youngs Moduli (GPa) = 75.58731 131.42443 24.82550
#
# Poissons Ratio (x) = 0.24578 -0.02774
# Poissons Ratio (y) = 0.14136 -0.00932
# Poissons Ratio (z) = -0.08447 -0.04932
#
# Static dielectric constant tensor:
#      x y z
#    x 1.936980 -0.058030 0.036020 
#    y -0.058030 1.880290 -0.070990 
#    z 0.036020 -0.070990 1.833490 
# 
# From -- ./inp_files/408363.got.cif
#   From: 2010.05.17/outbox.cif.g08.bks.cpg/sg2_205_cif.got.tgz:408363.got - 2010.06.03 11:33:40.
