data_PCOD9103180
_publ_section_title
;
Structure prediction by ZEFSAII (Michael W. Deem and Ramdas Pophale) SiO2 
 PCOD9103180
Probable space group: P -1
;
_chemical_formula_sum "Si O2"
_cell_formula_units_Z 14
_cell_length_a 8.458686
_cell_length_b 9.586731
_cell_length_c 11.461383
_cell_angle_alpha 54.653998
_cell_angle_beta 66.989298
_cell_angle_gamma 69.121539
_cell_volume 687.199560
_symmetry_space_group_name_H-M "P -1"
_symmetry_group_IT_number 2
_symmetry_cell_setting 'triclinic'
loop_
_space_group_symop_operation_xyz
x,y,z
-x,-y,-z
loop_
_atom_site_type_symbol
_atom_site_label
_atom_site_fract_x
_atom_site_fract_y
_atom_site_fract_z
Si Si1 0.180199 0.023329 0.503189
Si Si2 0.322838 0.766723 0.413265
Si Si3 0.039691 0.994058 0.223482
Si Si4 0.969032 0.690729 0.259875
Si Si5 0.125106 0.355794 0.959156
Si Si6 0.586823 0.520489 0.303596
Si Si7 0.246854 0.372233 0.421743
O O1 0.331834 0.917633 0.431570
O O2 0.214629 0.215986 0.422771
O O3 0.000000 0.000000 0.500000
O O4 0.139311 0.953622 0.676384
O O5 0.168455 0.848285 0.331732
O O6 0.486981 0.682652 0.329249
O O7 0.288200 0.607962 0.582314
O O8 0.004556 0.886171 0.172797
O O9 0.123934 0.164361 0.102196
O O10 0.930246 0.655851 0.154498
O O11 0.822767 0.670340 0.409396
O O12 0.131052 0.547374 0.322805
O O13 0.311933 0.413718 0.864020
O O14 0.000000 0.500000 0.000000
O O15 0.441131 0.410075 0.359454
#
# Coordination Sequence:
#
# PCOD9103180 Si02
#       7
#     2   2   2   2   2   2   2
#     4   9  20  35  67  96 123 158 213 261 310 366
#     4  10  20  38  65  91 126 162 212 259 308 366
#     4  10  21  40  63  94 128 170 207 254 312 383
#     4  10  21  40  67  93 123 167 216 256 313 377
#     4  12  27  41  65  92 131 171 211 259 319 383
#     4  11  23  40  62  97 126 166 213 260 317 371
#     4  10  21  39  68  98 124 160 211 273 309 361
#
# _framework density 20.372540000000001
#
# number of rings (size 3 to 8) (size 9 to 14) (size 15 to 20)
#    0.000    1.714    1.429    3.000   12.000    1.143 
#    0.000    3.571    0.000    0.000    0.000    0.000 
#    0.000    0.000    0.000    0.000    0.000    0.000 
#
# Total GULP energy -78069.396340 kJ/mol
# GULP energy per Si atom -5576.385453 kJ/mol
# Density = 2.032617 g / cm^3
# Si number density = 20.372540 Si / 1000 Ang^3
#
#
#
# Elastic Constant Matrix: (Units=GPa)
#
#
# Indices 1 2 3 4 5 6 
#
# 1 68.1358 39.4078 29.6777 -11.1800 -8.9335 14.1786
# 2 39.4078 174.8573 42.3161 2.2557 -16.2603 26.7981
# 3 29.6777 42.3161 73.0507 -12.4166 -25.7386 4.5976
# 4 -11.1800 2.2557 -12.4166 31.5554 6.3301 -1.2201
# 5 -8.9335 -16.2603 -25.7386 6.3301 31.2384 1.1189
# 6 14.1786 26.7981 4.5976 -1.2201 1.1189 23.2284
#
#
#
# Elastic Compliance Matrix: (Units=1/GPa)
#
#
# Indices 1 2 3 4 5 6 
#
# 1 0.021182 -0.001996 -0.006348 0.004979 -0.000896 -0.009066
# 2 -0.001996 0.008486 -0.003477 -0.003391 0.001961 -0.008157
# 3 -0.006348 -0.003477 0.024324 0.004582 0.015395 0.002571
# 4 0.004979 -0.003391 0.004582 0.036384 -0.004013 0.002070
# 5 -0.000896 0.001961 0.015395 -0.004013 0.046533 -0.007215
# 6 -0.009066 -0.008157 0.002571 0.002070 -0.007215 0.057942
#
#
# Mechanical properties :
#
#
# Convention : Reuss Voigt Hill
#
# Bulk Modulus (GPa) = 32.94914 59.87188 46.41051
# Shear Modulus (GPa) = 21.87130 30.84727 26.35929
#
# Velocity S-wave (km/s) = 3.28009 3.89544 3.60093
# Velocity P-wave (km/s) = 5.52754 7.04875 6.33398
#
# Compressibility (1/GPa) = 0.03034981
#
# Stress axis : x y z
#
# Youngs Moduli (GPa) = 47.21022 117.83621 41.11210
#
# Poissons Ratio (x) = 0.23516 0.26099
# Poissons Ratio (y) = 0.09421 0.14296
# Poissons Ratio (z) = 0.29970 0.40974
#
# Static dielectric constant tensor:
#      x y z
#    x 1.784430 0.013920 -0.001600 
#    y 0.013920 1.766950 0.011910 
#    z -0.001600 0.011910 1.723860 
# 
# From -- ./inp_files/299011.got.cif
#   From: 2010.05.17/outbox.cif.g08.bks.cpg/sg2_150_cif.got.tgz:299011.got - 2010.06.03 11:33:40.
