data_PCOD9103268
_publ_section_title
;
Structure prediction by ZEFSAII (Michael W. Deem and Ramdas Pophale) SiO2 
 PCOD9103268
Probable space group: P -1
;
_chemical_formula_sum "Si O2"
_cell_formula_units_Z 16
_cell_length_a 16.420753
_cell_length_b 14.884470
_cell_length_c 11.318136
_cell_angle_alpha 131.499390
_cell_angle_beta 27.592385
_cell_angle_gamma 149.230633
_cell_volume 595.669047
_symmetry_space_group_name_H-M "P -1"
_symmetry_group_IT_number 2
_symmetry_cell_setting 'triclinic'
loop_
_space_group_symop_operation_xyz
x,y,z
-x,-y,-z
loop_
_atom_site_type_symbol
_atom_site_label
_atom_site_fract_x
_atom_site_fract_y
_atom_site_fract_z
Si Si1 0.742259 0.829772 0.269775
Si Si2 0.495727 0.518098 0.162417
Si Si3 0.348301 0.176211 0.101972
Si Si4 0.832617 0.522085 0.044202
Si Si5 0.888338 0.164773 0.421681
Si Si6 0.813072 0.747433 0.351271
Si Si7 0.686740 0.210086 0.900082
Si Si8 0.347506 0.816298 0.460236
O O1 0.480915 0.635266 0.359078
O O2 0.824568 0.783352 0.227313
O O3 0.740295 0.957952 0.451472
O O4 0.000000 0.000000 0.000000
O O5 0.346326 0.319885 0.232702
O O6 0.500000 0.500000 0.000000
O O7 0.836991 0.688364 0.885676
O O8 0.521822 0.205826 0.011767
O O9 0.490112 0.214958 0.824500
O O10 0.035773 0.954476 0.304592
O O11 0.923677 0.670225 0.151513
O O12 0.513379 0.402804 0.327882
O O13 0.789862 0.361482 0.994186
O O14 0.058042 0.635053 0.745348
O O15 0.940552 0.272881 0.564957
O O16 0.681064 0.130702 0.579857
O O17 0.500000 0.000000 0.000000
O O18 0.500000 0.000000 0.500000
#
# Coordination Sequence:
#
# PCOD9103268 Si02
#       8
#     2   2   2   2   2   2   2   2
#     4  10  20  38  65  94 137 178 220 277 337 399
#     4  11  23  37  67 105 134 172 225 282 342 402
#     4  11  23  41  69 102 132 172 238 274 333 413
#     4  11  23  42  67  94 135 176 219 280 346 400
#     4  10  22  41  64  96 131 179 227 276 339 397
#     4  11  23  41  67  99 132 176 221 280 346 402
#     4  11  24  44  65  92 137 185 223 279 340 398
#     4  11  22  39  73  95 128 175 226 278 333 401
#
# _framework density 26.860554
#
# number of rings (size 3 to 8) (size 9 to 14) (size 15 to 20)
#    0.000    1.250    1.250    6.000    1.750    2.500 
#    0.000    4.375    0.000    0.000    0.000    0.000 
#    0.000    0.000    0.000    0.000    0.000    0.000 
#
# Total GULP energy -89245.652050 kJ/mol
# GULP energy per Si atom -5577.853253 kJ/mol
# Density = 2.679942 g / cm^3
# Si number density = 26.860554 Si / 1000 Ang^3
#
#
#
# Elastic Constant Matrix: (Units=GPa)
#
#
# Indices 1 2 3 4 5 6 
#
# 1 55.4720 17.4451 -14.2625 -4.1186 14.3944 1.4557
# 2 17.4451 258.8754 38.7041 6.4843 8.9212 -2.2352
# 3 -14.2625 38.7041 116.0416 -13.1113 10.9004 -6.8756
# 4 -4.1186 6.4843 -13.1113 50.2920 1.5050 9.3671
# 5 14.3944 8.9212 10.9004 1.5050 24.6558 0.2510
# 6 1.4557 -2.2352 -6.8756 9.3671 0.2510 40.0786
#
#
#
# Elastic Compliance Matrix: (Units=1/GPa)
#
#
# Indices 1 2 3 4 5 6 
#
# 1 0.024806 -0.002081 0.005744 0.004473 -0.016531 -0.000974
# 2 -0.002081 0.004298 -0.001870 -0.001283 0.000562 0.000291
# 3 0.005744 -0.001870 0.011149 0.003707 -0.007840 0.000782
# 4 0.004473 -0.001283 0.003707 0.022430 -0.005106 -0.004809
# 5 -0.016531 0.000562 -0.007840 -0.005106 0.053782 0.000144
# 6 -0.000974 0.000291 0.000782 -0.004809 0.000144 0.026260
#
#
# Mechanical properties :
#
#
# Convention : Reuss Voigt Hill
#
# Bulk Modulus (GPa) = 22.81144 57.12916 39.97030
# Shear Modulus (GPa) = 32.51987 48.90545 40.71266
#
# Velocity S-wave (km/s) = 3.48328 4.27161 3.89743
# Velocity P-wave (km/s) = 4.96876 6.75603 5.93011
#
# Compressibility (1/GPa) = 0.04383766
#
# Stress axis : x y z
#
# Youngs Moduli (GPa) = 40.31343 232.66962 89.69580
#
# Poissons Ratio (x) = 0.48420 -0.51517
# Poissons Ratio (y) = 0.08389 0.16771
# Poissons Ratio (z) = -0.23154 0.43505
#
# Static dielectric constant tensor:
#      x y z
#    x 2.109530 0.117240 0.028220 
#    y 0.117240 2.365140 0.217510 
#    z 0.028220 0.217510 2.325450 
# 
# From -- ./inp_files/466110.got.cif
#   From: 2010.05.17/outbox.cif.g08.bks.cpg/sg2_234_cif.got.tgz:466110.got - 2010.06.03 11:33:40.
