data_PCOD9103723
_publ_section_title
;
Structure prediction by ZEFSAII (Michael W. Deem and Ramdas Pophale) SiO2 
 PCOD9103723
Probable space group: P -1
;
_chemical_formula_sum "Si O2"
_cell_formula_units_Z 13
_cell_length_a 16.524339
_cell_length_b 5.061562
_cell_length_c 13.070266
_cell_angle_alpha 71.639438
_cell_angle_beta 30.515126
_cell_angle_gamma 69.924309
_cell_volume 520.928368
_symmetry_space_group_name_H-M "P -1"
_symmetry_group_IT_number 2
_symmetry_cell_setting 'triclinic'
loop_
_space_group_symop_operation_xyz
x,y,z
-x,-y,-z
loop_
_atom_site_type_symbol
_atom_site_label
_atom_site_fract_x
_atom_site_fract_y
_atom_site_fract_z
Si Si1 0.840193 0.164756 0.701925
Si Si2 0.747721 0.581180 0.921086
Si Si3 0.500000 0.500000 0.500000
Si Si4 0.655447 0.013277 0.530141
Si Si5 0.884478 0.764120 0.139791
Si Si6 0.406647 0.814215 0.201037
Si Si7 0.338152 0.873897 0.806474
O O1 0.778068 0.900668 0.861440
O O2 0.845357 0.424708 0.739505
O O3 0.722755 0.281857 0.722658
O O4 0.000000 0.000000 0.500000
O O5 0.556561 0.594930 0.104172
O O6 0.775631 0.349944 0.007462
O O7 0.638746 0.309052 0.452099
O O8 0.444367 0.716072 0.622283
O O9 0.681505 0.040879 0.620114
O O10 0.781408 0.790788 0.355801
O O11 0.469401 0.960343 0.730298
O O12 0.758957 0.851477 0.172561
O O13 0.000000 0.500000 0.000000
O O14 0.000000 0.000000 0.000000
O O15 0.500000 0.000000 0.000000
#
# Coordination Sequence:
#
# PCOD9103723 Si02
#       7
#     2   2   1   2   2   2   2
#     4  11  25  45  70 102 150 189 233 289 365 436
#     4  11  23  44  72 104 137 185 241 299 354 422
#     4  10  20  38  68 100 132 170 240 288 360 406
#     4  11  24  44  73 101 143 194 243 303 361 428
#     4  11  28  45  67 103 148 190 240 296 369 439
#     4  10  22  44  71 106 137 182 246 300 356 424
#     4  11  24  42  74  98 142 183 247 294 365 424
#
# _framework density 24.955448000000001
#
# number of rings (size 3 to 8) (size 9 to 14) (size 15 to 20)
#    0.000    1.231    1.538    4.615    8.615    2.462 
#    0.000    4.615    0.000    0.000    0.000    0.000 
#    0.000    0.000    0.000    0.000    0.000    0.000 
#
# Total GULP energy -72395.057347 kJ/mol
# GULP energy per Si atom -5568.850565 kJ/mol
# Density = 2.489865 g / cm^3
# Si number density = 24.955448 Si / 1000 Ang^3
#
#
#
# Elastic Constant Matrix: (Units=GPa)
#
#
# Indices 1 2 3 4 5 6 
#
# 1 6.1447 6.3107 11.7683 -11.2544 28.1388 5.7054
# 2 6.3107 102.7893 38.5658 28.4807 21.5484 5.3032
# 3 11.7683 38.5658 143.6298 27.9262 17.0890 2.0871
# 4 -11.2544 28.4807 27.9262 50.6873 -1.4337 3.3498
# 5 28.1388 21.5484 17.0890 -1.4337 36.2627 3.4756
# 6 5.7054 5.3032 2.0871 3.3498 3.4756 30.4237
#
#
#
# Elastic Compliance Matrix: (Units=1/GPa)
#
#
# Indices 1 2 3 4 5 6 
#
# 1 -0.053440 -0.003819 0.002363 -0.010303 0.041554 0.006913
# 2 -0.003819 0.013664 -0.001221 -0.007981 -0.004882 -0.000145
# 3 0.002363 -0.001221 0.008413 -0.003585 -0.005232 0.000185
# 4 -0.010303 -0.007981 -0.003585 0.024397 0.015476 -0.000885
# 5 0.041554 -0.004882 -0.005232 0.015476 0.002128 -0.008530
# 6 0.006913 -0.000145 0.000185 -0.000885 -0.008530 0.032657
#
#
# Mechanical properties :
#
#
# Convention : Reuss Voigt Hill
#
# Bulk Modulus (GPa) = -27.23549 40.65039 6.70745
# Shear Modulus (GPa) = 238.83478 36.53600 137.68539
#
# Velocity S-wave (km/s) = 9.79348 3.83044 7.43588
# Velocity P-wave (km/s) = 10.81414 5.99062 8.74166
#
# Compressibility (1/GPa) = -0.03671680
#
# Stress axis : x y z
#
# Youngs Moduli (GPa) = -18.71260 73.18697 118.85675
#
# Poissons Ratio (x) = 0.27947 -0.28082
# Poissons Ratio (y) = -0.07145 0.14514
# Poissons Ratio (z) = 0.04421 0.08937
#
# Static dielectric constant tensor:
#      x y z
#    x 1.987520 -0.054400 0.023350 
#    y -0.054400 2.123150 -0.152600 
#    z 0.023350 -0.152600 2.014230 
# 
# From -- ./inp_files/366502.got.cif
#   From: 2010.05.17/outbox.cif.g08.bks.cpg/sg2_184_cif.got.tgz:366502.got - 2010.06.03 11:33:40.
