data_PCOD9103603
_publ_section_title
;
Structure prediction by ZEFSAII (Michael W. Deem and Ramdas Pophale) SiO2 
 PCOD9103603
Probable space group: P -1
;
_chemical_formula_sum "Si O2"
_cell_formula_units_Z 16
_cell_length_a 7.887971
_cell_length_b 14.210489
_cell_length_c 9.845848
_cell_angle_alpha 91.585089
_cell_angle_beta 134.365096
_cell_angle_gamma 71.063395
_cell_volume 713.155015
_symmetry_space_group_name_H-M "P -1"
_symmetry_group_IT_number 2
_symmetry_cell_setting 'triclinic'
loop_
_space_group_symop_operation_xyz
x,y,z
-x,-y,-z
loop_
_atom_site_type_symbol
_atom_site_label
_atom_site_fract_x
_atom_site_fract_y
_atom_site_fract_z
Si Si1 0.461728 0.111243 0.651195
Si Si2 0.516470 0.457491 0.851821
Si Si3 0.195120 0.786199 0.025734
Si Si4 0.924412 0.261559 0.311021
Si Si5 0.234766 0.564112 0.438795
Si Si6 0.035658 0.424502 0.189193
Si Si7 0.403000 0.122849 0.290570
Si Si8 0.594885 0.285810 0.365413
O O1 0.437650 0.119703 0.473958
O O2 0.173421 0.193366 0.539296
O O3 0.524662 0.993882 0.720585
O O4 0.678791 0.147291 0.826251
O O5 0.289394 0.519449 0.621445
O O6 0.500000 0.500000 0.000000
O O7 0.591737 0.334509 0.870231
O O8 0.789603 0.457527 0.953556
O O9 0.124130 0.812551 0.828831
O O10 0.904254 0.807880 0.918512
O O11 0.663399 0.309804 0.254992
O O12 0.998137 0.344572 0.273681
O O13 0.500000 0.500000 0.500000
O O14 0.027609 0.527351 0.259846
O O15 0.211292 0.681168 0.433833
O O16 0.309742 0.357356 0.268455
O O17 0.594860 0.173602 0.353945
#
# Coordination Sequence:
#
# PCOD9103603 Si02
#       8
#     2   2   2   2   2   2   2   2
#     4  10  20  38  67  88 118 161 210 244 314 367
#     4  11  22  37  62  90 121 168 205 248 307 367
#     4  10  20  39  63  87 123 160 207 247 304 368
#     4  10  21  38  63  89 122 160 196 257 304 363
#     4  10  23  36  60  88 122 163 210 251 301 368
#     4  10  21  43  58  86 130 163 206 254 303 363
#     4  10  21  40  62  91 121 161 199 262 306 362
#     4  11  21  40  60  88 127 158 199 257 311 349
#
# _framework density 22.435514999999999
#
# number of rings (size 3 to 8) (size 9 to 14) (size 15 to 20)
#    0.000    1.750    3.750    2.625    1.750    5.500 
#    0.000    4.375    0.000    0.000    0.000    0.000 
#    0.000    0.000    0.000    0.000    0.000    0.000 
#
# Total GULP energy -89140.917418 kJ/mol
# GULP energy per Si atom -5571.307339 kJ/mol
# Density = 2.238445 g / cm^3
# Si number density = 22.435515 Si / 1000 Ang^3
#
#
#
# Elastic Constant Matrix: (Units=GPa)
#
#
# Indices 1 2 3 4 5 6 
#
# 1 100.3905 34.6589 12.0787 1.7605 1.5345 2.0330
# 2 34.6589 146.5643 46.6024 30.7725 14.6529 30.0443
# 3 12.0787 46.6024 85.8364 32.9293 15.4170 10.2430
# 4 1.7605 30.7725 32.9293 46.8733 5.6384 8.4614
# 5 1.5345 14.6529 15.4170 5.6384 21.1753 2.8997
# 6 2.0330 30.0443 10.2430 8.4614 2.8997 29.0144
#
#
#
# Elastic Compliance Matrix: (Units=1/GPa)
#
#
# Indices 1 2 3 4 5 6 
#
# 1 0.011129 -0.003323 -0.001018 0.001888 0.001412 0.002329
# 2 -0.003323 0.011442 -0.002700 -0.003382 -0.003534 -0.009322
# 3 -0.001018 -0.002700 0.018841 -0.010364 -0.009035 0.000141
# 4 0.001888 -0.003382 -0.010364 0.030940 0.001809 -0.002175
# 5 0.001412 -0.003534 -0.009035 0.001809 0.055573 0.000669
# 6 0.002329 -0.009322 0.000141 -0.002175 0.000669 0.044473
#
#
# Mechanical properties :
#
#
# Convention : Reuss Voigt Hill
#
# Bulk Modulus (GPa) = 36.58941 57.71902 47.15422
# Shear Modulus (GPa) = 25.56383 35.37602 30.46993
#
# Velocity S-wave (km/s) = 3.37922 3.97519 3.68925
# Velocity P-wave (km/s) = 5.61868 6.84485 6.26185
#
# Compressibility (1/GPa) = 0.02733031
#
# Stress axis : x y z
#
# Youngs Moduli (GPa) = 89.85530 87.40037 53.07588
#
# Poissons Ratio (x) = 0.29045 0.05402
# Poissons Ratio (y) = 0.29861 0.14328
# Poissons Ratio (z) = 0.09146 0.23594
#
# Static dielectric constant tensor:
#      x y z
#    x 1.931190 -0.034830 0.013740 
#    y -0.034830 1.921310 -0.032630 
#    z 0.013740 -0.032630 1.854280 
# 
# From -- ./inp_files/397522.got.cif
#   From: 2010.05.17/outbox.cif.g08.bks.cpg/sg2_199_cif.got.tgz:397522.got - 2010.06.03 11:33:40.
