data_PCOD9103907
_publ_section_title
;
Structure prediction by ZEFSAII (Michael W. Deem and Ramdas Pophale) SiO2 
 PCOD9103907
Probable space group: P -1
;
_chemical_formula_sum "Si O2"
_cell_formula_units_Z 16
_cell_length_a 12.937804
_cell_length_b 8.461129
_cell_length_c 10.158350
_cell_angle_alpha 57.499373
_cell_angle_beta 128.902792
_cell_angle_gamma 110.521113
_cell_volume 729.708884
_symmetry_space_group_name_H-M "P -1"
_symmetry_group_IT_number 2
_symmetry_cell_setting 'triclinic'
loop_
_space_group_symop_operation_xyz
x,y,z
-x,-y,-z
loop_
_atom_site_type_symbol
_atom_site_label
_atom_site_fract_x
_atom_site_fract_y
_atom_site_fract_z
Si Si1 0.778049 0.685758 0.154558
Si Si2 0.739559 0.424711 0.995634
Si Si3 0.237479 0.405320 0.533225
Si Si4 0.003708 0.814577 0.676293
Si Si5 0.061199 0.960410 0.925161
Si Si6 0.445633 0.086800 0.778063
Si Si7 0.312168 0.693174 0.261463
Si Si8 0.485032 0.709801 0.950567
O O1 0.778396 0.585096 0.059019
O O2 0.782891 0.556035 0.345459
O O3 0.635928 0.781243 0.018932
O O4 0.892298 0.840377 0.185722
O O5 0.594186 0.348896 0.955193
O O6 0.847525 0.264222 0.171579
O O7 0.728252 0.458976 0.816473
O O8 0.096090 0.347027 0.383773
O O9 0.327039 0.222957 0.659808
O O10 0.312301 0.579194 0.447134
O O11 0.000000 0.000000 0.500000
O O12 0.975175 0.861670 0.785708
O O13 0.192450 0.838249 0.105372
O O14 0.000000 0.000000 0.000000
O O15 0.553948 0.200679 0.726237
O O16 0.405182 0.891869 0.757483
O O17 0.500000 0.000000 0.000000
O O18 0.500000 0.500000 0.000000
#
# Coordination Sequence:
#
# PCOD9103907 Si02
#       8
#     2   2   2   2   2   2   2   2
#     4  11  22  42  67  94 127 174 223 266 328 388
#     4  10  23  39  68  93 129 173 216 264 329 391
#     4  12  25  39  68 101 136 171 216 278 330 389
#     4  11  24  43  64  96 132 170 225 265 328 396
#     4  11  25  43  68  93 131 180 220 266 325 391
#     4  12  20  42  72  94 128 176 221 267 329 398
#     4  11  24  42  66 101 132 170 222 270 330 390
#     4  10  20  38  69  97 120 164 226 266 318 387
#
# _framework density 21.926552000000001
#
# number of rings (size 3 to 8) (size 9 to 14) (size 15 to 20)
#    0.000    1.000    5.000    1.125    3.500    2.500 
#    0.000    0.000    0.000    5.250    0.000    0.000 
#    0.000    0.000    0.000    0.000    0.000    0.000 
#
# Total GULP energy -89162.617950 kJ/mol
# GULP energy per Si atom -5572.663622 kJ/mol
# Density = 2.187665 g / cm^3
# Si number density = 21.926552 Si / 1000 Ang^3
#
#
#
# Elastic Constant Matrix: (Units=GPa)
#
#
# Indices 1 2 3 4 5 6 
#
# 1 91.7863 3.4511 12.6845 4.4461 -15.6360 -10.2518
# 2 3.4511 71.6776 0.2053 -0.8854 -17.0734 -5.8643
# 3 12.6845 0.2053 43.9842 -7.2237 -15.3994 -3.1759
# 4 4.4461 -0.8854 -7.2237 31.6067 3.7233 -5.5496
# 5 -15.6360 -17.0734 -15.3994 3.7233 28.1627 -1.7116
# 6 -10.2518 -5.8643 -3.1759 -5.5496 -1.7116 36.6340
#
#
#
# Elastic Compliance Matrix: (Units=1/GPa)
#
#
# Indices 1 2 3 4 5 6 
#
# 1 0.012890 0.001601 -0.000979 -0.002280 0.008125 0.003813
# 2 0.001601 0.017690 0.004940 0.000471 0.014523 0.004458
# 3 -0.000979 0.004940 0.030953 0.006002 0.018886 0.004992
# 4 -0.002280 0.000471 0.006002 0.034467 -0.001946 0.005088
# 5 0.008125 0.014523 0.018886 -0.001946 0.059939 0.008742
# 6 0.003813 0.004458 0.004992 0.005088 0.008742 0.030690
#
#
# Mechanical properties :
#
#
# Convention : Reuss Voigt Hill
#
# Bulk Modulus (GPa) = 13.76320 26.68107 20.22214
# Shear Modulus (GPa) = 25.03435 32.02116 28.52776
#
# Velocity S-wave (km/s) = 3.38263 3.82564 3.61093
# Velocity P-wave (km/s) = 4.64185 5.63106 5.16021
#
# Compressibility (1/GPa) = 0.07265751
#
# Stress axis : x y z
#
# Youngs Moduli (GPa) = 77.57658 56.52888 32.30676
#
# Poissons Ratio (x) = -0.09053 0.03164
# Poissons Ratio (y) = -0.12423 -0.15959
# Poissons Ratio (z) = 0.07597 -0.27923
#
# Static dielectric constant tensor:
#      x y z
#    x 1.797230 -0.039660 -0.013300 
#    y -0.039660 1.939410 0.062680 
#    z -0.013300 0.062680 1.830800 
# 
# From -- ./inp_files/242709.got.cif
#   From: 2010.05.17/outbox.cif.g08.bks.cpg/sg2_122_cif.got.tgz:242709.got - 2010.06.03 11:33:40.
