data_PCOD9103709
_publ_section_title
;
Structure prediction by ZEFSAII (Michael W. Deem and Ramdas Pophale) SiO2 
 PCOD9103709
Probable space group: P -1
;
_chemical_formula_sum "Si O2"
_cell_formula_units_Z 14
_cell_length_a 12.535618
_cell_length_b 7.019429
_cell_length_c 7.607320
_cell_angle_alpha 90.163221
_cell_angle_beta 54.117815
_cell_angle_gamma 89.123829
_cell_volume 542.234739
_symmetry_space_group_name_H-M "P -1"
_symmetry_group_IT_number 2
_symmetry_cell_setting 'triclinic'
loop_
_space_group_symop_operation_xyz
x,y,z
-x,-y,-z
loop_
_atom_site_type_symbol
_atom_site_label
_atom_site_fract_x
_atom_site_fract_y
_atom_site_fract_z
Si Si1 0.371822 0.132964 0.590484
Si Si2 0.362207 0.979190 0.227781
Si Si3 0.167765 0.827243 0.869651
Si Si4 0.974390 0.418654 0.219444
Si Si5 0.249200 0.578166 0.332407
Si Si6 0.724812 0.553693 0.052991
Si Si7 0.891378 0.097877 0.716430
O O1 0.500000 0.000000 0.500000
O O2 0.358246 0.130820 0.391365
O O3 0.251130 0.010030 0.768345
O O4 0.359100 0.317504 0.728608
O O5 0.337638 0.756962 0.314991
O O6 0.247088 0.001338 0.193039
O O7 0.500000 0.000000 0.000000
O O8 0.098932 0.774857 0.756902
O O9 0.256446 0.651338 0.864920
O O10 0.069086 0.871012 0.122877
O O11 0.849442 0.525741 0.436599
O O12 0.124580 0.377902 0.129356
O O13 0.000000 0.500000 0.000000
O O14 0.326627 0.472649 0.097824
O O15 0.133973 0.692688 0.336789
O O16 0.000000 0.000000 0.500000
#
# Coordination Sequence:
#
# PCOD9103709 Si02
#       7
#     2   2   2   2   2   2   2
#     4  12  26  43  69  96 130 180 236 275 335 406
#     4  10  22  44  67  93 136 181 227 278 336 412
#     4  10  21  43  62 100 136 169 221 280 340 408
#     4  10  20  38  67  98 136 171 220 275 347 407
#     4   9  20  42  66  94 140 173 218 281 345 401
#     4  10  24  41  67  98 135 176 216 285 342 402
#     4   9  20  35  67  96 135 172 218 280 343 393
#
# _framework density 25.819075000000002
#
# number of rings (size 3 to 8) (size 9 to 14) (size 15 to 20)
#    0.857    1.143    1.429    1.286    4.000    1.143 
#    0.000    3.571    0.000    0.000    0.000    0.000 
#    0.000    0.000    0.000    0.000    0.000    0.000 
#
# Total GULP energy -78039.234687 kJ/mol
# GULP energy per Si atom -5574.231049 kJ/mol
# Density = 2.576031 g / cm^3
# Si number density = 25.819075 Si / 1000 Ang^3
#
#
#
# Elastic Constant Matrix: (Units=GPa)
#
#
# Indices 1 2 3 4 5 6 
#
# 1 58.0729 2.7193 28.0610 15.1682 5.9133 11.3716
# 2 2.7193 53.0683 50.6720 19.3853 -4.0043 -6.9952
# 3 28.0610 50.6720 195.0065 32.3122 18.8931 10.0173
# 4 15.1682 19.3853 32.3122 60.7403 10.4729 2.5993
# 5 5.9133 -4.0043 18.8931 10.4729 40.2120 1.4001
# 6 11.3716 -6.9952 10.0173 2.5993 1.4001 26.3178
#
#
#
# Elastic Compliance Matrix: (Units=1/GPa)
#
#
# Indices 1 2 3 4 5 6 
#
# 1 0.020801 0.001665 -0.002330 -0.004094 -0.000480 -0.007229
# 2 0.001665 0.032188 -0.008706 -0.008057 0.008749 0.011480
# 3 -0.002330 -0.008706 0.008388 -0.000184 -0.004269 -0.004255
# 4 -0.004094 -0.008057 -0.000184 0.021204 -0.005563 -0.002101
# 5 -0.000480 0.008749 -0.004269 -0.005563 0.029155 0.003157
# 6 -0.007229 0.011480 -0.004255 -0.002101 0.003157 0.045831
#
#
# Mechanical properties :
#
#
# Convention : Reuss Voigt Hill
#
# Bulk Modulus (GPa) = 23.45416 52.11692 37.78554
# Shear Modulus (GPa) = 26.24393 40.43372 33.33882
#
# Velocity S-wave (km/s) = 3.19165 3.96162 3.59729
# Velocity P-wave (km/s) = 4.76297 6.41523 5.64983
#
# Compressibility (1/GPa) = 0.04263635
#
# Stress axis : x y z
#
# Youngs Moduli (GPa) = 48.07383 31.06781 119.21631
#
# Poissons Ratio (x) = -0.05173 0.27773
# Poissons Ratio (y) = -0.08005 1.03788
# Poissons Ratio (z) = 0.11199 0.27047
#
# Static dielectric constant tensor:
#      x y z
#    x 2.141890 -0.032450 0.119810 
#    y -0.032450 2.147750 -0.060620 
#    z 0.119810 -0.060620 2.193640 
# 
# From -- ./inp_files/299032.got.cif
#   From: 2010.05.17/outbox.cif.g08.bks.cpg/sg2_150_cif.got.tgz:299032.got - 2010.06.03 11:33:40.
