data_PCOD9103789
_publ_section_title
;
Structure prediction by ZEFSAII (Michael W. Deem and Ramdas Pophale) SiO2 
 PCOD9103789
Probable space group: P -1
;
_chemical_formula_sum "Si O2"
_cell_formula_units_Z 14
_cell_length_a 5.210275
_cell_length_b 19.518561
_cell_length_c 8.150205
_cell_angle_alpha 45.210600
_cell_angle_beta 96.779961
_cell_angle_gamma 101.644531
_cell_volume 575.782911
_symmetry_space_group_name_H-M "P -1"
_symmetry_group_IT_number 2
_symmetry_cell_setting 'triclinic'
loop_
_space_group_symop_operation_xyz
x,y,z
-x,-y,-z
loop_
_atom_site_type_symbol
_atom_site_label
_atom_site_fract_x
_atom_site_fract_y
_atom_site_fract_z
Si Si1 0.920778 0.807187 0.795674
Si Si2 0.090448 0.964873 0.312600
Si Si3 0.697617 0.436815 0.210383
Si Si4 0.275488 0.907434 0.110240
Si Si5 0.711969 0.433524 0.586588
Si Si6 0.898523 0.367736 0.035663
Si Si7 0.498192 0.855238 0.906813
O O1 0.890977 0.902473 0.527158
O O2 0.225336 0.836126 0.821969
O O3 0.716050 0.797833 0.944331
O O4 0.907359 0.708660 0.856027
O O5 0.356803 0.031356 0.282272
O O6 0.159046 0.885923 0.318170
O O7 0.947623 0.047357 0.079881
O O8 0.639813 0.395895 0.459587
O O9 0.947706 0.521571 0.121090
O O10 0.500000 0.500000 0.000000
O O11 0.748778 0.356252 0.217041
O O12 0.404560 0.837266 0.119323
O O13 0.500000 0.000000 0.000000
O O14 0.500000 0.500000 0.500000
O O15 0.726813 0.364743 0.861677
O O16 0.000000 0.500000 0.500000
#
# Coordination Sequence:
#
# PCOD9103789 Si02
#       7
#     2   2   2   2   2   2   2
#     4  12  26  38  65  93 133 160 212 274 318 377
#     4  10  21  41  64  92 123 173 219 257 316 381
#     4  10  20  41  71  89 126 170 215 257 324 397
#     4   9  20  38  65  87 122 170 224 256 307 385
#     4  10  20  38  68  94 121 163 210 258 315 391
#     4  10  24  42  62 101 129 167 216 268 327 384
#     4  11  23  41  62  92 122 173 212 259 317 376
#
# _framework density 24.314717000000002
#
# number of rings (size 3 to 8) (size 9 to 14) (size 15 to 20)
#    0.000    1.714    2.857    0.857    6.000    0.000 
#    2.571    0.000    6.286    0.000    0.000    0.000 
#    0.000    0.000    0.000    0.000    0.000    0.000 
#
# Total GULP energy -78071.527428 kJ/mol
# GULP energy per Si atom -5576.537673 kJ/mol
# Density = 2.425938 g / cm^3
# Si number density = 24.314717 Si / 1000 Ang^3
#
#
#
# Elastic Constant Matrix: (Units=GPa)
#
#
# Indices 1 2 3 4 5 6 
#
# 1 114.7589 43.9239 21.6166 11.3712 6.3267 -22.9797
# 2 43.9239 148.7204 66.9477 26.0029 -14.1385 -56.3910
# 3 21.6166 66.9477 61.8821 25.1045 2.3615 -5.5048
# 4 11.3712 26.0029 25.1045 44.9274 -2.1358 -6.3885
# 5 6.3267 -14.1385 2.3615 -2.1358 23.5539 8.1221
# 6 -22.9797 -56.3910 -5.5048 -6.3885 8.1221 55.6929
#
#
#
# Elastic Compliance Matrix: (Units=1/GPa)
#
#
# Indices 1 2 3 4 5 6 
#
# 1 0.010570 -0.002157 -0.000517 -0.000989 -0.005123 0.002760
# 2 -0.002157 0.039719 -0.042800 0.007058 0.017869 0.033300
# 3 -0.000517 -0.042800 0.068110 -0.019290 -0.021766 -0.035856
# 4 -0.000989 0.007058 -0.019290 0.030567 0.006668 0.007365
# 5 -0.005123 0.017869 -0.021766 0.006668 0.055083 0.006560
# 6 0.002760 0.033300 -0.035856 0.007365 0.006560 0.049157
#
#
# Mechanical properties :
#
#
# Convention : Reuss Voigt Hill
#
# Bulk Modulus (GPa) = 36.42628 65.59310 51.00969
# Shear Modulus (GPa) = 14.15212 37.69307 25.92260
#
# Velocity S-wave (km/s) = 2.41517 3.94155 3.26870
# Velocity P-wave (km/s) = 4.77400 6.91012 5.93889
#
# Compressibility (1/GPa) = 0.02745271
#
# Stress axis : x y z
#
# Youngs Moduli (GPa) = 94.60820 25.17665 14.68203
#
# Poissons Ratio (x) = 0.05430 0.00758
# Poissons Ratio (y) = 0.20405 0.62839
# Poissons Ratio (z) = 0.04887 1.07757
#
# Static dielectric constant tensor:
#      x y z
#    x 1.969750 -0.013340 -0.007660 
#    y -0.013340 2.010760 0.059660 
#    z -0.007660 0.059660 1.955160 
# 
# From -- ./inp_files/137381.got.cif
#   From: 2010.05.17/outbox.cif.g08.bks.cpg/sg2_69_cif.got.tgz:137381.got - 2010.06.03 11:33:40.
