data_PCOD9103994
_publ_section_title
;
Structure prediction by ZEFSAII (Michael W. Deem and Ramdas Pophale) SiO2 
 PCOD9103994
Probable space group: P -1
;
_chemical_formula_sum "Si O2"
_cell_formula_units_Z 16
_cell_length_a 17.131261
_cell_length_b 7.633970
_cell_length_c 16.451376
_cell_angle_alpha 42.538858
_cell_angle_beta 24.950739
_cell_angle_gamma 51.561979
_cell_volume 605.441324
_symmetry_space_group_name_H-M "P -1"
_symmetry_group_IT_number 2
_symmetry_cell_setting 'triclinic'
loop_
_space_group_symop_operation_xyz
x,y,z
-x,-y,-z
loop_
_atom_site_type_symbol
_atom_site_label
_atom_site_fract_x
_atom_site_fract_y
_atom_site_fract_z
Si Si1 0.812015 0.993071 0.733510
Si Si2 0.627356 0.273523 0.601216
Si Si3 0.086726 0.808306 0.145696
Si Si4 0.058204 0.422551 0.147983
Si Si5 0.557952 0.373113 0.818093
Si Si6 0.776703 0.075913 0.279353
Si Si7 0.413902 0.709630 0.955501
Si Si8 0.373250 0.201747 0.649128
O O1 0.829618 0.815201 0.856859
O O2 0.588616 0.377601 0.691667
O O3 0.630356 0.834855 0.912803
O O4 0.000000 0.000000 0.500000
O O5 0.590720 0.487057 0.497653
O O6 0.848113 0.277762 0.384820
O O7 0.507110 0.993290 0.798906
O O8 0.242177 0.061563 0.890588
O O9 0.189138 0.684249 0.165464
O O10 0.895427 0.928657 0.280459
O O11 0.073865 0.597584 0.156157
O O12 0.121646 0.633481 0.945238
O O13 0.500015 0.640086 0.811673
O O14 0.500000 0.500000 0.000000
O O15 0.741478 0.272241 0.716484
O O16 0.572384 0.111134 0.487940
O O17 0.745020 0.903314 0.285274
#
# Coordination Sequence:
#
# PCOD9103994 Si02
#       8
#     2   2   2   2   2   2   2   2
#     4  11  21  38  72 101 133 189 244 293 349 433
#     4  12  24  46  80 106 148 191 244 303 366 437
#     4  11  22  43  72 102 153 191 235 307 363 427
#     4  11  20  39  72 108 141 190 240 295 368 429
#     4  11  25  46  75 100 141 198 242 297 379 419
#     4  10  20  38  71 114 142 186 242 297 366 442
#     4  12  29  48  72 109 149 195 246 306 363 430
#     4  10  21  39  75 113 141 186 247 294 367 440
#
# _framework density 26.427002000000002
#
# number of rings (size 3 to 8) (size 9 to 14) (size 15 to 20)
#    0.000    1.000    5.000    3.000    3.500    0.500 
#    0.000    1.250   16.500    0.000    0.000    0.000 
#    0.000    0.000    0.000    0.000    0.000    0.000 
#
# Total GULP energy -89658.268673 kJ/mol
# GULP energy per Si atom -5603.641792 kJ/mol
# Density = 2.636685 g / cm^3
# Si number density = 26.427002 Si / 1000 Ang^3
#
#
#
# Elastic Constant Matrix: (Units=GPa)
#
#
# Indices 1 2 3 4 5 6 
#
# 1 85.4781 53.3409 17.6294 7.0878 -21.4272 -22.0975
# 2 53.3409 129.3114 27.7022 16.5493 -15.9114 -37.1247
# 3 17.6294 27.7022 109.4324 26.1022 -13.2573 -15.0942
# 4 7.0878 16.5493 26.1022 51.5587 -10.5163 -14.2728
# 5 -21.4272 -15.9114 -13.2573 -10.5163 23.4613 10.2264
# 6 -22.0975 -37.1247 -15.0942 -14.2728 10.2264 55.0631
#
#
#
# Elastic Compliance Matrix: (Units=1/GPa)
#
#
# Indices 1 2 3 4 5 6 
#
# 1 0.019173 -0.006008 -0.000319 0.002729 0.013732 0.001713
# 2 -0.006008 0.012010 -0.001174 -0.001153 -0.000795 0.005213
# 3 -0.000319 -0.001174 0.010951 -0.004413 0.002952 0.000390
# 4 0.002729 -0.001153 -0.004413 0.024424 0.008480 0.003864
# 5 0.013732 -0.000795 0.002952 0.008480 0.061603 -0.003459
# 6 0.001713 0.005213 0.000390 0.003864 -0.003459 0.024114
#
#
# Mechanical properties :
#
#
# Convention : Reuss Voigt Hill
#
# Bulk Modulus (GPa) = 36.85947 57.95187 47.40567
# Shear Modulus (GPa) = 28.35752 41.05326 34.70539
#
# Velocity S-wave (km/s) = 3.27930 3.94567 3.62782
# Velocity P-wave (km/s) = 5.32131 6.53715 5.96032
#
# Compressibility (1/GPa) = 0.02713007
#
# Stress axis : x y z
#
# Youngs Moduli (GPa) = 52.15694 83.26691 91.31768
#
# Poissons Ratio (x) = 0.50029 0.02912
# Poissons Ratio (y) = 0.31337 0.10725
# Poissons Ratio (z) = 0.01663 0.09779
#
# Static dielectric constant tensor:
#      x y z
#    x 2.236180 -0.026310 0.021110 
#    y -0.026310 2.091100 -0.032660 
#    z 0.021110 -0.032660 2.045810 
# 
# From -- ./inp_files/305870.got.cif
#   From: 2010.05.17/outbox.cif.g08.bks.cpg/sg2_153_cif.got.tgz:305870.got - 2010.06.03 11:33:40.
