data_PCOD9103298
_publ_section_title
;
Structure prediction by ZEFSAII (Michael W. Deem and Ramdas Pophale) SiO2 
 PCOD9103298
Probable space group: P -1
;
_chemical_formula_sum "Si O2"
_cell_formula_units_Z 16
_cell_length_a 5.324024
_cell_length_b 21.486163
_cell_length_c 19.235984
_cell_angle_alpha 159.036324
_cell_angle_beta 67.926974
_cell_angle_gamma 101.549381
_cell_volume 649.849465
_symmetry_space_group_name_H-M "P -1"
_symmetry_group_IT_number 2
_symmetry_cell_setting 'triclinic'
loop_
_space_group_symop_operation_xyz
x,y,z
-x,-y,-z
loop_
_atom_site_type_symbol
_atom_site_label
_atom_site_fract_x
_atom_site_fract_y
_atom_site_fract_z
Si Si1 0.486872 0.047836 0.174837
Si Si2 0.890722 0.877820 0.512983
Si Si3 0.784286 0.276713 0.312853
Si Si4 0.732299 0.275265 0.161152
Si Si5 0.106322 0.624042 0.455101
Si Si6 0.691401 0.818698 0.053467
Si Si7 0.776296 0.397445 0.918327
Si Si8 0.452751 0.676119 0.352803
O O1 0.690221 0.108497 0.167242
O O2 0.196153 0.257000 0.432502
O O3 0.599145 0.971278 0.159642
O O4 0.400720 0.880203 0.981534
O O5 0.710090 0.747854 0.403417
O O6 0.042162 0.817614 0.357861
O O7 0.163644 0.813490 0.475306
O O8 0.601158 0.090965 0.772418
O O9 0.884253 0.263793 0.209569
O O10 0.505492 0.496942 0.580165
O O11 0.987734 0.284663 0.363377
O O12 0.959946 0.215821 0.009148
O O13 0.342419 0.669566 0.434877
O O14 0.239463 0.394180 0.202014
O O15 0.500000 0.500000 0.000000
O O16 0.609994 0.461767 0.076926
O O17 0.000000 0.500000 0.000000
#
# Coordination Sequence:
#
# PCOD9103298 Si02
#       8
#     2   2   2   2   2   2   2   2
#     4  12  23  44  66  91 126 170 218 267 350 390
#     4  10  20  38  65  96 131 175 220 272 332 398
#     4  11  25  44  67  95 127 169 223 280 338 403
#     4  11  25  44  67  95 127 169 223 280 338 403
#     4  12  25  41  64  94 129 173 220 278 333 403
#     4  12  25  41  64  94 129 173 220 278 333 403
#     4   8  16  32  59  94 129 167 217 267 325 393
#     4  10  20  38  65  96 131 175 220 272 332 398
#
# _framework density 24.621089999999999
#
# number of rings (size 3 to 8) (size 9 to 14) (size 15 to 20)
#    0.000    1.250    3.750    2.625    0.000    3.500 
#    0.000    0.625    0.000    0.000    0.000   11.375 
#    0.000    0.000    0.000    0.000    0.000    0.000 
#
# Total GULP energy -89240.740720 kJ/mol
# GULP energy per Si atom -5577.546295 kJ/mol
# Density = 2.456505 g / cm^3
# Si number density = 24.621090 Si / 1000 Ang^3
#
#
#
# Elastic Constant Matrix: (Units=GPa)
#
#
# Indices 1 2 3 4 5 6 
#
# 1 76.3170 8.0769 23.5386 8.8969 -1.6403 6.7541
# 2 8.0769 28.8918 36.2043 15.9409 3.9761 -0.0316
# 3 23.5386 36.2043 159.6424 -7.2245 -3.0128 11.8344
# 4 8.8969 15.9409 -7.2245 45.7125 6.8092 -0.9835
# 5 -1.6403 3.9761 -3.0128 6.8092 42.5633 -2.6113
# 6 6.7541 -0.0316 11.8344 -0.9835 -2.6113 21.3598
#
#
#
# Elastic Compliance Matrix: (Units=1/GPa)
#
#
# Indices 1 2 3 4 5 6 
#
# 1 0.014436 0.000424 -0.002111 -0.003472 0.000710 -0.003468
# 2 0.000424 0.074200 -0.018878 -0.028278 -0.003191 0.008743
# 3 -0.002111 -0.018878 0.011656 0.008602 0.000804 -0.005324
# 4 -0.003472 -0.028278 0.008602 0.034090 -0.002487 -0.002444
# 5 0.000710 -0.003191 0.000804 -0.002487 0.024409 0.002195
# 6 -0.003468 0.008743 -0.005324 -0.002444 0.002195 0.051032
#
#
# Mechanical properties :
#
#
# Convention : Reuss Voigt Hill
#
# Bulk Modulus (GPa) = 16.90290 44.49897 30.70094
# Shear Modulus (GPa) = 18.47239 35.06255 26.76747
#
# Velocity S-wave (km/s) = 2.74207 3.77780 3.30081
# Velocity P-wave (km/s) = 4.11162 6.09441 5.19842
#
# Compressibility (1/GPa) = 0.05916144
#
# Stress axis : x y z
#
# Youngs Moduli (GPa) = 69.26912 13.47708 85.79560
#
# Poissons Ratio (x) = -0.00571 0.18115
# Poissons Ratio (y) = -0.02937 1.61964
# Poissons Ratio (z) = 0.14625 0.25442
#
# Static dielectric constant tensor:
#      x y z
#    x 2.069150 0.018940 -0.040600 
#    y 0.018940 1.910460 -0.057260 
#    z -0.040600 -0.057260 2.036060 
# 
# From -- ./inp_files/584413.got.cif
#   From: 2010.05.17/outbox.cif.g08.bks.cpg/sg2_293_cif.got.tgz:584413.got - 2010.06.03 11:33:40.
