data_PCOD9103067
_publ_section_title
;
Structure prediction by ZEFSAII (Michael W. Deem and Ramdas Pophale) SiO2 
 PCOD9103067
Probable space group: P -1
;
_chemical_formula_sum "Si O2"
_cell_formula_units_Z 11
_cell_length_a 9.676642
_cell_length_b 12.080973
_cell_length_c 8.172855
_cell_angle_alpha 141.312844
_cell_angle_beta 90.027947
_cell_angle_gamma 115.396558
_cell_volume 434.111726
_symmetry_space_group_name_H-M "P -1"
_symmetry_group_IT_number 2
_symmetry_cell_setting 'triclinic'
loop_
_space_group_symop_operation_xyz
x,y,z
-x,-y,-z
loop_
_atom_site_type_symbol
_atom_site_label
_atom_site_fract_x
_atom_site_fract_y
_atom_site_fract_z
Si Si1 0.866975 0.090467 0.801241
Si Si2 0.944354 0.826689 0.646707
Si Si3 0.480016 0.840677 0.608819
Si Si4 0.500000 0.500000 0.000000
Si Si5 0.175413 0.521265 0.498823
Si Si6 0.700409 0.973130 0.328744
O O1 0.836638 0.849620 0.535408
O O2 0.707447 0.032349 0.851135
O O3 0.826737 0.130214 0.670531
O O4 0.076213 0.308034 0.114797
O O5 0.810280 0.563557 0.425319
O O6 0.140286 0.927002 0.692018
O O7 0.000000 0.000000 0.000000
O O8 0.446650 0.638988 0.262323
O O9 0.369780 0.737062 0.660005
O O10 0.418711 0.963214 0.655026
O O11 0.583663 0.700428 0.076250
O O12 0.000000 0.500000 0.500000
#
# Coordination Sequence:
#
# PCOD9103067 Si02
#       6
#     2   2   2   1   2   2
#     4  10  23  41  67  98 130 179 228 275 339 389
#     4  10  21  41  65  93 137 176 219 278 330 399
#     4  11  24  44  70 101 137 174 226 281 331 405
#     4  10  20  38  64  98 132 166 216 276 330 378
#     4  11  23  45  65  97 136 178 222 277 337 400
#     4  11  22  44  68 100 139 175 227 280 332 406
#
# _framework density 25.339100999999999
#
# number of rings (size 3 to 8) (size 9 to 14) (size 15 to 20)
#    0.000    1.455    1.818    4.909    0.000    3.636 
#   13.091    0.000    0.000    0.000    0.000    0.000 
#    0.000    0.000    0.000    0.000    0.000    0.000 
#
# Total GULP energy -61293.691226 kJ/mol
# GULP energy per Si atom -5572.153748 kJ/mol
# Density = 2.528143 g / cm^3
# Si number density = 25.339101 Si / 1000 Ang^3
#
#
#
# Elastic Constant Matrix: (Units=GPa)
#
#
# Indices 1 2 3 4 5 6 
#
# 1 154.4501 62.5683 44.3129 18.5928 -17.8911 -2.8180
# 2 62.5683 153.6440 59.3245 28.3177 -5.6502 15.4368
# 3 44.3129 59.3245 66.0158 13.5147 -6.8406 9.2327
# 4 18.5928 28.3177 13.5147 30.2574 0.4504 -6.8133
# 5 -17.8911 -5.6502 -6.8406 0.4504 37.5635 -2.0942
# 6 -2.8180 15.4368 9.2327 -6.8133 -2.0942 69.6368
#
#
#
# Elastic Compliance Matrix: (Units=1/GPa)
#
#
# Indices 1 2 3 4 5 6 
#
# 1 0.008942 -0.001826 -0.003793 -0.001874 0.003382 0.001188
# 2 -0.001826 0.011670 -0.007567 -0.006941 -0.000541 -0.002353
# 3 -0.003793 -0.007567 0.025444 -0.002435 0.001604 -0.002040
# 4 -0.001874 -0.006941 -0.002435 0.043159 -0.002567 0.005931
# 5 0.003382 -0.000541 0.001604 -0.002567 0.028510 0.000650
# 6 0.001188 -0.002353 -0.002040 0.005931 0.000650 0.015800
#
#
# Mechanical properties :
#
#
# Convention : Reuss Voigt Hill
#
# Bulk Modulus (GPa) = 50.80529 78.50239 64.65384
# Shear Modulus (GPa) = 30.03746 41.35182 35.69464
#
# Velocity S-wave (km/s) = 3.44673 4.04411 3.75731
# Velocity P-wave (km/s) = 5.99446 7.27010 6.66288
#
# Compressibility (1/GPa) = 0.01968299
#
# Stress axis : x y z
#
# Youngs Moduli (GPa) = 111.83541 85.69001 39.30221
#
# Poissons Ratio (x) = 0.15651 0.14907
# Poissons Ratio (y) = 0.20426 0.29740
# Poissons Ratio (z) = 0.42417 0.64842
#
# Static dielectric constant tensor:
#      x y z
#    x 1.455750 -0.060210 -0.369130 
#    y -0.060210 2.100090 0.159940 
#    z -0.369130 0.159940 2.142650 
# 
# From -- ./inp_files/165280.got.cif
#   From: 2010.05.17/outbox.cif.g08.bks.cpg/sg2_83_cif.got.tgz:165280.got - 2010.06.03 11:33:40.
