data_PCOD9103984
_publ_section_title
;
Structure prediction by ZEFSAII (Michael W. Deem and Ramdas Pophale) SiO2 
 PCOD9103984
Probable space group: P -1
;
_chemical_formula_sum "Si O2"
_cell_formula_units_Z 14
_cell_length_a 7.515985
_cell_length_b 8.672203
_cell_length_c 10.679251
_cell_angle_alpha 91.884710
_cell_angle_beta 64.491098
_cell_angle_gamma 106.148202
_cell_volume 600.396129
_symmetry_space_group_name_H-M "P -1"
_symmetry_group_IT_number 2
_symmetry_cell_setting 'triclinic'
loop_
_space_group_symop_operation_xyz
x,y,z
-x,-y,-z
loop_
_atom_site_type_symbol
_atom_site_label
_atom_site_fract_x
_atom_site_fract_y
_atom_site_fract_z
Si Si1 0.021117 0.767529 0.242836
Si Si2 0.934776 0.660531 0.543279
Si Si3 0.834252 0.223583 0.275502
Si Si4 0.837722 0.504327 0.942220
Si Si5 0.798277 0.899802 0.137222
Si Si6 0.339086 0.093621 0.078444
Si Si7 0.511675 0.360725 0.232016
O O1 0.825417 0.755990 0.211816
O O2 0.963482 0.747656 0.403418
O O3 0.143557 0.641554 0.158744
O O4 0.140848 0.951846 0.179479
O O5 0.095124 0.765214 0.601046
O O6 0.000000 0.500000 0.500000
O O7 0.691366 0.605973 0.650149
O O8 0.673043 0.321613 0.282805
O O9 0.056654 0.325130 0.151241
O O10 0.752684 0.043444 0.237389
O O11 0.630086 0.471162 0.083672
O O12 0.000000 0.500000 0.000000
O O13 0.660652 0.828875 0.056830
O O14 0.000000 0.000000 0.000000
O O15 0.413116 0.199879 0.178837
O O16 0.500000 0.000000 0.000000
#
# Coordination Sequence:
#
# PCOD9103984 Si02
#       7
#     2   2   2   2   2   2   2
#     4  11  23  44  67  99 140 183 222 287 346 403
#     4  12  27  48  65  98 147 189 230 280 342 416
#     4  11  23  45  69 101 142 177 231 288 341 408
#     4  10  20  41  70  99 132 174 232 287 337 398
#     4  10  20  38  71 100 134 172 218 290 347 393
#     4  11  19  40  71 105 135 165 232 290 341 411
#     4  11  24  43  75 101 138 182 234 285 345 411
#
# _framework density 23.317937000000001
#
# number of rings (size 3 to 8) (size 9 to 14) (size 15 to 20)
#    0.000    1.143    4.286    4.286    0.000    3.429 
#    2.571    2.857    0.000    0.000    0.000    0.000 
#    0.000    0.000    0.000    0.000    0.000    0.000 
#
# Total GULP energy -78049.810797 kJ/mol
# GULP energy per Si atom -5574.986486 kJ/mol
# Density = 2.326486 g / cm^3
# Si number density = 23.317937 Si / 1000 Ang^3
#
#
#
# Elastic Constant Matrix: (Units=GPa)
#
#
# Indices 1 2 3 4 5 6 
#
# 1 133.7818 11.1368 78.3637 2.4258 17.5522 -18.5316
# 2 11.1368 79.7157 33.9860 8.1084 -2.4053 -7.7195
# 3 78.3637 33.9860 155.9763 3.0464 13.2279 -13.3154
# 4 2.4258 8.1084 3.0464 30.1494 -11.6431 0.2378
# 5 17.5522 -2.4053 13.2279 -11.6431 49.9530 -1.2748
# 6 -18.5316 -7.7195 -13.3154 0.2378 -1.2748 35.1150
#
#
#
# Elastic Compliance Matrix: (Units=1/GPa)
#
#
# Indices 1 2 3 4 5 6 
#
# 1 0.011547 0.001209 -0.005424 -0.001854 -0.002888 0.004211
# 2 0.001209 0.014489 -0.003519 -0.003481 0.000458 0.002529
# 3 -0.005424 -0.003519 0.009989 0.000025 -0.000900 0.000119
# 4 -0.001854 -0.003481 0.000025 0.037838 0.009254 -0.001655
# 5 -0.002888 0.000458 -0.000900 0.009254 0.023426 -0.000977
# 6 0.004211 0.002529 0.000119 -0.001655 -0.000977 0.031277
#
#
# Mechanical properties :
#
#
# Convention : Reuss Voigt Hill
#
# Bulk Modulus (GPa) = 48.64838 68.49408 58.57123
# Shear Modulus (GPa) = 33.13731 39.44264 36.28998
#
# Velocity S-wave (km/s) = 3.77385 4.11726 3.94929
# Velocity P-wave (km/s) = 6.31646 7.21389 6.78004
#
# Compressibility (1/GPa) = 0.02055567
#
# Stress axis : x y z
#
# Youngs Moduli (GPa) = 86.60067 69.01827 100.10851
#
# Poissons Ratio (x) = -0.08341 0.54301
# Poissons Ratio (y) = -0.10466 0.35230
# Poissons Ratio (z) = 0.46974 0.24289
#
# Static dielectric constant tensor:
#      x y z
#    x 2.149900 0.084010 -0.031820 
#    y 0.084010 2.013570 -0.046150 
#    z -0.031820 -0.046150 1.906160 
# 
# From -- ./inp_files/379405.got.cif
#   From: 2010.05.17/outbox.cif.g08.bks.cpg/sg2_190_cif.got.tgz:379405.got - 2010.06.03 11:33:40.
