data_PCOD9103853
_publ_section_title
;
Structure prediction by ZEFSAII (Michael W. Deem and Ramdas Pophale) SiO2 
 PCOD9103853
Probable space group: P -1
;
_chemical_formula_sum "Si O2"
_cell_formula_units_Z 16
_cell_length_a 19.512869
_cell_length_b 9.845970
_cell_length_c 8.532389
_cell_angle_alpha 83.104282
_cell_angle_beta 61.256152
_cell_angle_gamma 35.565303
_cell_volume 708.029179
_symmetry_space_group_name_H-M "P -1"
_symmetry_group_IT_number 2
_symmetry_cell_setting 'triclinic'
loop_
_space_group_symop_operation_xyz
x,y,z
-x,-y,-z
loop_
_atom_site_type_symbol
_atom_site_label
_atom_site_fract_x
_atom_site_fract_y
_atom_site_fract_z
Si Si1 0.242312 0.171331 0.321312
Si Si2 0.443362 0.239952 0.070883
Si Si3 0.833687 0.986717 0.441295
Si Si4 0.204718 0.079922 0.856239
Si Si5 0.457755 0.385248 0.341915
Si Si6 0.125917 0.477250 0.727623
Si Si7 0.649952 0.678029 0.336586
Si Si8 0.819064 0.472934 0.852649
O O1 0.193535 0.326946 0.508960
O O2 0.202006 0.335437 0.201780
O O3 0.158061 0.154191 0.429302
O O4 0.431258 0.861421 0.151420
O O5 0.467285 0.252024 0.219447
O O6 0.261178 0.507120 0.187180
O O7 0.500000 0.000000 0.000000
O O8 0.678525 0.307235 0.605058
O O9 0.811267 0.961748 0.293073
O O10 0.995141 0.825699 0.289303
O O11 0.179765 0.280496 0.823704
O O12 0.373663 0.804119 0.786669
O O13 0.061846 0.241349 0.095469
O O14 0.402777 0.395672 0.561047
O O15 0.206826 0.494687 0.684612
O O16 0.500000 0.000000 0.500000
O O17 0.717276 0.600047 0.101619
#
# Coordination Sequence:
#
# PCOD9103853 Si02
#       8
#     2   2   2   2   2   2   2   2
#     4  10  22  41  69  95 132 171 212 271 324 391
#     4  10  23  42  66  98 128 168 220 270 323 388
#     4  11  25  44  64  98 134 176 215 265 336 386
#     4  10  22  41  65  99 131 161 225 275 315 389
#     4  12  26  43  68  93 136 177 215 267 330 393
#     4  10  20  38  69 100 122 167 223 274 326 370
#     4  12  21  38  70  96 123 170 219 277 319 373
#     4  11  23  42  67  96 134 165 223 275 316 388
#
# _framework density 22.597940000000001
#
# number of rings (size 3 to 8) (size 9 to 14) (size 15 to 20)
#    0.000    1.250    2.500    4.500    1.750    2.500 
#    0.000    0.000    0.000    0.000    0.000    0.000 
#    0.000    0.000    0.000    0.000    0.000    0.000 
#
# Total GULP energy -89451.297037 kJ/mol
# GULP energy per Si atom -5590.706065 kJ/mol
# Density = 2.254651 g / cm^3
# Si number density = 22.597940 Si / 1000 Ang^3
#
#
#
# Elastic Constant Matrix: (Units=GPa)
#
#
# Indices 1 2 3 4 5 6 
#
# 1 56.9641 14.0244 32.2289 14.6027 -15.5862 -34.2397
# 2 14.0244 62.1342 40.2085 21.2902 -7.2761 -17.9253
# 3 32.2289 40.2085 134.5639 2.5082 -24.5291 -23.0058
# 4 14.6027 21.2902 2.5082 34.5444 -16.5817 -15.6619
# 5 -15.5862 -7.2761 -24.5291 -16.5817 35.7267 9.2599
# 6 -34.2397 -17.9253 -23.0058 -15.6619 9.2599 30.1099
#
#
#
# Elastic Compliance Matrix: (Units=1/GPa)
#
#
# Indices 1 2 3 4 5 6 
#
# 1 0.063932 0.007564 -0.002520 0.008808 0.012051 0.076154
# 2 0.007564 0.030401 -0.010560 -0.021295 -0.010432 0.010763
# 3 -0.002520 -0.010560 0.014020 0.014748 0.011766 0.005612
# 4 0.008808 -0.021295 0.014748 0.068379 0.032510 0.034176
# 5 0.012051 -0.010432 0.011766 0.032510 0.049587 0.018144
# 6 0.076154 0.010763 0.005612 0.034176 0.018144 0.142704
#
#
# Mechanical properties :
#
#
# Convention : Reuss Voigt Hill
#
# Bulk Modulus (GPa) = 10.27536 47.39841 28.83688
# Shear Modulus (GPa) = 12.12131 31.22287 21.67209
#
# Velocity S-wave (km/s) = 2.31852 3.72111 3.10018
# Velocity P-wave (km/s) = 3.42408 6.28351 5.05998
#
# Compressibility (1/GPa) = 0.09732020
#
# Stress axis : x y z
#
# Youngs Moduli (GPa) = 15.64150 32.89387 71.32742
#
# Poissons Ratio (x) = -0.24880 0.17974
# Poissons Ratio (y) = -0.11831 0.75324
# Poissons Ratio (z) = 0.03942 0.34737
#
# Static dielectric constant tensor:
#      x y z
#    x 1.844500 -0.032270 -0.016840 
#    y -0.032270 1.902830 0.005070 
#    z -0.016840 0.005070 1.858590 
# 
# From -- ./inp_files/353465.got.cif
#   From: 2010.05.17/outbox.cif.g08.bks.cpg/sg2_177_cif.got.tgz:353465.got - 2010.06.03 11:33:40.
