data_PCOD9103330
_publ_section_title
;
Structure prediction by ZEFSAII (Michael W. Deem and Ramdas Pophale) SiO2 
 PCOD9103330
Probable space group: P -1
;
_chemical_formula_sum "Si O2"
_cell_formula_units_Z 15
_cell_length_a 19.837007
_cell_length_b 6.212253
_cell_length_c 5.175440
_cell_angle_alpha 72.035275
_cell_angle_beta 111.597507
_cell_angle_gamma 102.122696
_cell_volume 560.728329
_symmetry_space_group_name_H-M "P -1"
_symmetry_group_IT_number 2
_symmetry_cell_setting 'triclinic'
loop_
_space_group_symop_operation_xyz
x,y,z
-x,-y,-z
loop_
_atom_site_type_symbol
_atom_site_label
_atom_site_fract_x
_atom_site_fract_y
_atom_site_fract_z
Si Si1 0.989738 0.281513 0.853743
Si Si2 0.416004 0.652949 0.349800
Si Si3 0.174164 0.876161 0.302118
Si Si4 0.500000 0.000000 0.000000
Si Si5 0.753665 0.781748 0.407220
Si Si6 0.398412 0.369107 0.936735
Si Si7 0.135101 0.319105 0.761937
Si Si8 0.743028 0.382284 0.909358
O O1 0.903670 0.256020 0.686071
O O2 0.052168 0.344352 0.704470
O O3 0.000000 0.500000 0.000000
O O4 0.000000 0.000000 0.000000
O O5 0.476679 0.848834 0.281612
O O6 0.409868 0.582842 0.668663
O O7 0.337925 0.731054 0.116328
O O8 0.423815 0.453333 0.224367
O O9 0.218044 0.745917 0.209458
O O10 0.230409 0.961265 0.575545
O O11 0.154251 0.101555 0.036987
O O12 0.556863 0.816008 0.058623
O O13 0.688052 0.722127 0.139008
O O14 0.836106 0.735446 0.459992
O O15 0.727153 0.620801 0.663904
O O16 0.193100 0.529900 0.838681
#
# Coordination Sequence:
#
# PCOD9103330 Si02
#       8
#     2   2   2   1   2   2   2   2
#     4  10  20  38  65  98 140 188 241 305 375 443
#     4  11  26  46  72 107 146 189 244 310 369 457
#     4  10  22  38  64  96 134 178 240 291 361 439
#     4  12  28  46  80 104 148 190 244 294 400 440
#     4  10  23  40  63  96 133 176 240 300 358 437
#     4  11  26  48  71 106 147 189 246 308 369 457
#     4  10  20  39  64  89 132 181 230 292 359 433
#     4  10  21  40  64  91 132 179 231 294 361 432
#
# _framework density 26.750921999999999
#
# number of rings (size 3 to 8) (size 9 to 14) (size 15 to 20)
#    0.000    1.600    2.667    0.800    1.867    5.867 
#    0.000    0.667    0.000    0.000    0.000    0.000 
#    0.000    0.000    0.000    0.000    0.000    0.000 
#
# Total GULP energy -83508.739339 kJ/mol
# GULP energy per Si atom -5567.249289 kJ/mol
# Density = 2.669004 g / cm^3
# Si number density = 26.750922 Si / 1000 Ang^3
#
#
#
# Elastic Constant Matrix: (Units=GPa)
#
#
# Indices 1 2 3 4 5 6 
#
# 1 168.6713 29.6386 24.1540 -7.3210 -24.7122 -17.0188
# 2 29.6386 110.5081 32.3228 -9.7054 -10.6589 7.9799
# 3 24.1540 32.3228 86.4395 -3.3702 -9.4095 6.4551
# 4 -7.3210 -9.7054 -3.3702 38.0658 -3.3679 -7.0786
# 5 -24.7122 -10.6589 -9.4095 -3.3679 40.1333 1.8762
# 6 -17.0188 7.9799 6.4551 -7.0786 1.8762 40.9841
#
#
#
# Elastic Compliance Matrix: (Units=1/GPa)
#
#
# Indices 1 2 3 4 5 6 
#
# 1 0.007379 -0.001301 -0.001352 0.001998 0.003876 0.003698
# 2 -0.001301 0.010823 -0.003297 0.002010 0.001555 -0.001852
# 3 -0.001352 -0.003297 0.013501 -0.000168 0.001544 -0.002145
# 4 0.001998 0.002010 -0.000168 0.028462 0.003870 0.005203
# 5 0.003876 0.001555 0.001544 0.003870 0.028383 0.000433
# 6 0.003698 -0.001852 -0.002145 0.005203 0.000433 0.027513
#
#
# Mechanical properties :
#
#
# Convention : Reuss Voigt Hill
#
# Bulk Modulus (GPa) = 50.49980 59.76108 55.13044
# Shear Modulus (GPa) = 37.15752 42.47020 39.81386
#
# Velocity S-wave (km/s) = 3.73100 3.98881 3.86206
# Velocity P-wave (km/s) = 6.12203 6.60322 6.36717
#
# Compressibility (1/GPa) = 0.01980206
#
# Stress axis : x y z
#
# Youngs Moduli (GPa) = 135.52727 92.39625 74.06756
#
# Poissons Ratio (x) = 0.12024 0.10011
# Poissons Ratio (y) = 0.17637 0.24423
# Poissons Ratio (z) = 0.18317 0.30467
#
# Static dielectric constant tensor:
#      x y z
#    x 2.148230 -0.084900 -0.001400 
#    y -0.084900 2.285700 0.029480 
#    z -0.001400 0.029480 2.198390 
# 
# From -- ./inp_files/9469.got.cif
#   From: 2010.05.17/outbox.cif.g08.bks.cpg/sg2_5_cif.got.tgz:9469.got - 2010.06.03 11:33:40.
