data_PCOD9103307
_publ_section_title
;
Structure prediction by ZEFSAII (Michael W. Deem and Ramdas Pophale) SiO2 
 PCOD9103307
Probable space group: P -1
;
_chemical_formula_sum "Si O2"
_cell_formula_units_Z 15
_cell_length_a 17.399912
_cell_length_b 10.327156
_cell_length_c 8.294363
_cell_angle_alpha 137.835155
_cell_angle_beta 131.740479
_cell_angle_gamma 39.294425
_cell_volume 618.547636
_symmetry_space_group_name_H-M "P -1"
_symmetry_group_IT_number 2
_symmetry_cell_setting 'triclinic'
loop_
_space_group_symop_operation_xyz
x,y,z
-x,-y,-z
loop_
_atom_site_type_symbol
_atom_site_label
_atom_site_fract_x
_atom_site_fract_y
_atom_site_fract_z
Si Si1 0.247558 0.898971 0.384747
Si Si2 0.627047 0.622544 0.335295
Si Si3 0.119924 0.029146 0.793297
Si Si4 0.740337 0.416230 0.634745
Si Si5 0.110196 0.361779 0.843908
Si Si6 0.351390 0.941995 0.238966
Si Si7 0.000000 0.500000 0.500000
Si Si8 0.123446 0.779582 0.854424
O O1 0.326025 0.901267 0.348934
O O2 0.190477 0.137534 0.626271
O O3 0.308148 0.670846 0.370070
O O4 0.137602 0.902232 0.140832
O O5 0.643053 0.554193 0.483020
O O6 0.649188 0.827221 0.544655
O O7 0.735161 0.407919 0.186552
O O8 0.487821 0.730639 0.181662
O O9 0.066207 0.263875 0.833657
O O10 0.156078 0.826511 0.528768
O O11 0.061116 0.968366 0.799317
O O12 0.246116 0.983189 0.006819
O O13 0.802562 0.552087 0.901768
O O14 0.072442 0.625045 0.680934
O O15 0.002000 0.543766 0.741623
#
# Coordination Sequence:
#
# PCOD9103307 Si02
#       8
#     2   2   2   2   2   2   1   2
#     4  10  22  39  65  90 129 159 206 252 307 358
#     4  10  21  39  66  90 130 162 210 245 306 366
#     4   9  21  40  65  90 128 159 209 249 305 365
#     4  10  20  39  62  90 128 164 196 261 301 356
#     4  11  22  42  63  91 129 160 202 264 300 369
#     4  10  20  38  65  97 120 172 201 248 304 369
#     4  12  24  40  70  88 122 164 206 254 328 350
#     4  10  22  41  62  95 119 165 207 259 300 368
#
# _framework density 24.250357000000001
#
# number of rings (size 3 to 8) (size 9 to 14) (size 15 to 20)
#    0.000    1.867    2.667    0.800    0.000    6.400 
#    0.000    4.667    0.000    0.000    0.000    0.000 
#    0.000    0.000    0.000    0.000    0.000    0.000 
#
# Total GULP energy -83715.965456 kJ/mol
# GULP energy per Si atom -5581.064364 kJ/mol
# Density = 2.419516 g / cm^3
# Si number density = 24.250357 Si / 1000 Ang^3
#
#
#
# Elastic Constant Matrix: (Units=GPa)
#
#
# Indices 1 2 3 4 5 6 
#
# 1 96.1629 54.2061 18.9053 -2.0853 -9.2729 22.2999
# 2 54.2061 108.1442 36.4145 2.2976 -5.9395 29.3851
# 3 18.9053 36.4145 115.1127 8.7553 -6.4216 -4.0751
# 4 -2.0853 2.2976 8.7553 52.4274 6.1507 -2.5304
# 5 -9.2729 -5.9395 -6.4216 6.1507 25.2371 -6.4597
# 6 22.2999 29.3851 -4.0751 -2.5304 -6.4597 50.8631
#
#
#
# Elastic Compliance Matrix: (Units=1/GPa)
#
#
# Indices 1 2 3 4 5 6 
#
# 1 0.015069 -0.006637 -0.000317 0.000456 0.003176 -0.002371
# 2 -0.006637 0.015734 -0.004172 -0.000415 -0.001415 -0.006715
# 3 -0.000317 -0.004172 0.010486 -0.001748 0.002937 0.003675
# 4 0.000456 -0.000415 -0.001748 0.020023 -0.005194 0.000236
# 5 0.003176 -0.001415 0.002937 -0.005194 0.043740 0.004957
# 6 -0.002371 -0.006715 0.003675 0.000236 0.004957 0.025515
#
#
# Mechanical properties :
#
#
# Convention : Reuss Voigt Hill
#
# Bulk Modulus (GPa) = 52.53110 59.83018 56.18064
# Shear Modulus (GPa) = 31.41379 39.69844 35.55611
#
# Velocity S-wave (km/s) = 3.60306 4.05041 3.83327
# Velocity P-wave (km/s) = 6.24647 6.82641 6.54287
#
# Compressibility (1/GPa) = 0.01903634
#
# Stress axis : x y z
#
# Youngs Moduli (GPa) = 66.36259 63.55498 95.36597
#
# Poissons Ratio (x) = 0.42184 0.03019
# Poissons Ratio (y) = 0.44047 0.39791
# Poissons Ratio (z) = 0.02101 0.26518
#
# Static dielectric constant tensor:
#      x y z
#    x 1.962370 -0.039540 -0.023220 
#    y -0.039540 2.113140 0.011910 
#    z -0.023220 0.011910 1.961980 
# 
# From -- ./inp_files/342269.got.cif
#   From: 2010.05.17/outbox.cif.g08.bks.cpg/sg2_172_cif.got.tgz:342269.got - 2010.06.03 11:33:40.
