data_PCOD9103915
_publ_section_title
;
Structure prediction by ZEFSAII (Michael W. Deem and Ramdas Pophale) SiO2 
 PCOD9103915
Probable space group: P -1
;
_chemical_formula_sum "Si O2"
_cell_formula_units_Z 16
_cell_length_a 16.661555
_cell_length_b 13.383144
_cell_length_c 17.201614
_cell_angle_alpha 154.819799
_cell_angle_beta 25.097453
_cell_angle_gamma 147.634992
_cell_volume 685.469362
_symmetry_space_group_name_H-M "P -1"
_symmetry_group_IT_number 2
_symmetry_cell_setting 'triclinic'
loop_
_space_group_symop_operation_xyz
x,y,z
-x,-y,-z
loop_
_atom_site_type_symbol
_atom_site_label
_atom_site_fract_x
_atom_site_fract_y
_atom_site_fract_z
Si Si1 0.538405 0.127953 0.696036
Si Si2 0.402592 0.833212 0.872312
Si Si3 0.766390 0.709020 0.147057
Si Si4 0.834892 0.192567 0.218910
Si Si5 0.810607 0.462045 0.588053
Si Si6 0.923511 0.374134 0.898697
Si Si7 0.496495 0.275918 0.007982
Si Si8 0.703931 0.507368 0.421512
O O1 0.636712 0.348066 0.715153
O O2 0.649564 0.914915 0.421028
O O3 0.313192 0.049080 0.823271
O O4 0.567484 0.175429 0.794856
O O5 0.495611 0.912850 0.063703
O O6 0.534200 0.661556 0.676319
O O7 0.336489 0.698328 0.753983
O O8 0.226811 0.840751 0.090017
O O9 0.626719 0.519087 0.086504
O O10 0.830271 0.564867 0.063479
O O11 0.957846 0.810182 0.002827
O O12 0.845407 0.293002 0.367026
O O13 0.737529 0.377242 0.380313
O O14 0.724732 0.685615 0.784104
O O15 0.000000 0.500000 0.500000
O O16 0.104325 0.326840 0.656914
O O17 0.000000 0.500000 0.000000
#
# Coordination Sequence:
#
# PCOD9103915 Si02
#       8
#     2   2   2   2   2   2   2   2
#     4  12  26  49  79 100 147 192 241 302 368 425
#     4  10  20  38  69  98 147 185 227 291 351 420
#     4  11  26  47  73 110 147 192 241 296 361 430
#     4  11  23  48  76 107 144 192 244 294 359 442
#     4  12  29  50  74 109 143 189 247 313 367 427
#     4   9  20  37  67 102 143 187 240 281 344 436
#     4  12  27  48  72 111 147 186 249 302 362 433
#     4   9  19  39  66 105 137 187 235 279 355 430
#
# _framework density 23.341670000000001
#
# number of rings (size 3 to 8) (size 9 to 14) (size 15 to 20)
#    0.000    1.250    2.500    2.250    5.250    1.000 
#    2.250    1.250    0.000    0.000    0.000    0.000 
#    0.000    0.000    0.000    0.000    0.000    0.000 
#
# Total GULP energy -89620.422764 kJ/mol
# GULP energy per Si atom -5601.276423 kJ/mol
# Density = 2.328854 g / cm^3
# Si number density = 23.341670 Si / 1000 Ang^3
#
#
#
# Elastic Constant Matrix: (Units=GPa)
#
#
# Indices 1 2 3 4 5 6 
#
# 1 117.3296 42.1713 16.3822 -6.9988 1.9228 12.2628
# 2 42.1713 85.9251 39.8978 -19.4391 8.0569 -2.9198
# 3 16.3822 39.8978 66.4927 -8.6744 2.0596 1.2830
# 4 -6.9988 -19.4391 -8.6744 32.9485 5.0681 10.2609
# 5 1.9228 8.0569 2.0596 5.0681 25.2594 -9.6929
# 6 12.2628 -2.9198 1.2830 10.2609 -9.6929 28.9698
#
#
#
# Elastic Compliance Matrix: (Units=1/GPa)
#
#
# Indices 1 2 3 4 5 6 
#
# 1 0.011239 -0.005641 0.001032 0.001721 -0.002043 -0.006665
# 2 -0.005641 0.022549 -0.010349 0.011337 -0.008915 -0.001880
# 3 0.001032 -0.010349 0.021062 0.000302 0.000548 -0.002336
# 4 0.001721 0.011337 0.000302 0.048642 -0.022933 -0.024501
# 5 -0.002043 -0.008915 0.000548 -0.022933 0.057640 0.027351
# 6 -0.006665 -0.001880 -0.002336 -0.024501 0.027351 0.055083
#
#
# Mechanical properties :
#
#
# Convention : Reuss Voigt Hill
#
# Bulk Modulus (GPa) = 40.10450 51.84999 45.97725
# Shear Modulus (GPa) = 19.65081 28.85528 24.25305
#
# Velocity S-wave (km/s) = 2.90466 3.51980 3.22692
# Velocity P-wave (km/s) = 5.33556 6.22739 5.79864
#
# Compressibility (1/GPa) = 0.02493486
#
# Stress axis : x y z
#
# Youngs Moduli (GPa) = 88.97530 44.34848 47.47869
#
# Poissons Ratio (x) = 0.25016 -0.04900
# Poissons Ratio (y) = 0.50189 0.49134
# Poissons Ratio (z) = -0.09183 0.45895
#
# Static dielectric constant tensor:
#      x y z
#    x 1.878400 0.016300 -0.027830 
#    y 0.016300 1.897020 -0.004770 
#    z -0.027830 -0.004770 1.861650 
# 
# From -- ./inp_files/533885.got.cif
#   From: 2010.05.17/outbox.cif.g08.bks.cpg/sg2_267_cif.got.tgz:533885.got - 2010.06.03 11:33:40.
