data_PCOD9103318
_publ_section_title
;
Structure prediction by ZEFSAII (Michael W. Deem and Ramdas Pophale) SiO2 
 PCOD9103318
Probable space group: P -1
;
_chemical_formula_sum "Si O2"
_cell_formula_units_Z 14
_cell_length_a 13.648051
_cell_length_b 8.554551
_cell_length_c 7.010824
_cell_angle_alpha 106.411029
_cell_angle_beta 45.607894
_cell_angle_gamma 95.241245
_cell_volume 554.283059
_symmetry_space_group_name_H-M "P -1"
_symmetry_group_IT_number 2
_symmetry_cell_setting 'triclinic'
loop_
_space_group_symop_operation_xyz
x,y,z
-x,-y,-z
loop_
_atom_site_type_symbol
_atom_site_label
_atom_site_fract_x
_atom_site_fract_y
_atom_site_fract_z
Si Si1 0.567510 0.128306 0.586434
Si Si2 0.151899 0.433228 0.041366
Si Si3 0.638858 0.318280 0.191310
Si Si4 0.839111 0.995774 0.743228
Si Si5 0.148370 0.064642 0.849018
Si Si6 0.861848 0.638430 0.510325
Si Si7 0.571294 0.633236 0.836989
O O1 0.603578 0.264596 0.433305
O O2 0.500000 0.000000 0.500000
O O3 0.461997 0.208541 0.920641
O O4 0.711891 0.044447 0.459817
O O5 0.145160 0.259233 0.888230
O O6 0.142756 0.396421 0.267790
O O7 0.015386 0.560801 0.214224
O O8 0.285403 0.522067 0.864023
O O9 0.503982 0.332897 0.248960
O O10 0.746024 0.169956 0.897846
O O11 0.819710 0.959125 0.978206
O O12 0.822755 0.833051 0.594278
O O13 0.000000 0.000000 0.500000
O O14 0.000000 0.000000 0.000000
O O15 0.733566 0.565482 0.573701
O O16 0.500000 0.500000 0.000000
#
# Coordination Sequence:
#
# PCOD9103318 Si02
#       7
#     2   2   2   2   2   2   2
#     4  11  27  49  69 103 151 189 231 291 362 429
#     4  10  20  41  72  99 136 184 233 297 354 405
#     4  11  24  45  74 103 140 189 239 294 357 417
#     4  10  20  38  65  97 132 177 226 285 354 410
#     4  10  24  42  67  97 138 182 233 290 351 413
#     4  10  21  39  68 101 135 178 233 290 350 415
#     4  12  26  44  74 105 139 186 243 290 353 430
#
# _framework density 25.257852
#
# number of rings (size 3 to 8) (size 9 to 14) (size 15 to 20)
#    0.000    1.429    2.857    2.571    4.000    2.857 
#    0.000    2.857    0.000    0.000    0.000    0.000 
#    0.000    0.000    0.000    0.000    0.000    0.000 
#
# Total GULP energy -78428.131745 kJ/mol
# GULP energy per Si atom -5602.009410 kJ/mol
# Density = 2.520036 g / cm^3
# Si number density = 25.257852 Si / 1000 Ang^3
#
#
#
# Elastic Constant Matrix: (Units=GPa)
#
#
# Indices 1 2 3 4 5 6 
#
# 1 135.9683 31.5540 47.4954 18.2942 -15.5570 12.6834
# 2 31.5540 107.3845 13.9008 10.9398 1.2756 18.4181
# 3 47.4954 13.9008 106.0010 15.4535 -11.4755 1.1631
# 4 18.2942 10.9398 15.4535 36.7161 -0.6483 -10.0675
# 5 -15.5570 1.2756 -11.4755 -0.6483 54.1534 0.7464
# 6 12.6834 18.4181 1.1631 -10.0675 0.7464 40.3000
#
#
#
# Elastic Compliance Matrix: (Units=1/GPa)
#
#
# Indices 1 2 3 4 5 6 
#
# 1 0.010010 -0.001538 -0.003431 -0.003974 0.002184 -0.003382
# 2 -0.001538 0.011172 -0.000205 -0.004026 -0.000719 -0.005608
# 3 -0.003431 -0.000205 0.011602 -0.003075 0.001440 0.000044
# 4 -0.003974 -0.004026 -0.003075 0.034958 -0.001445 0.011939
# 5 0.002184 -0.000719 0.001440 -0.001445 0.019414 -0.001121
# 6 -0.003382 -0.005608 0.000044 0.011939 -0.001121 0.031443
#
#
# Mechanical properties :
#
#
# Convention : Reuss Voigt Hill
#
# Bulk Modulus (GPa) = 44.57285 59.47267 52.02276
# Shear Modulus (GPa) = 36.65019 43.32748 39.98883
#
# Velocity S-wave (km/s) = 3.81339 4.14624 3.98329
# Velocity P-wave (km/s) = 6.08890 6.82049 6.46505
#
# Compressibility (1/GPa) = 0.02243518
#
# Stress axis : x y z
#
# Youngs Moduli (GPa) = 99.90020 89.51340 86.19472
#
# Poissons Ratio (x) = 0.13771 0.29569
# Poissons Ratio (y) = 0.15368 0.01768
# Poissons Ratio (z) = 0.34271 0.01836
#
# Static dielectric constant tensor:
#      x y z
#    x 1.979390 0.033230 0.023110 
#    y 0.033230 2.055190 0.034790 
#    z 0.023110 0.034790 1.898640 
# 
# From -- ./inp_files/295922.got.cif
#   From: 2010.05.17/outbox.cif.g08.bks.cpg/sg2_148_cif.got.tgz:295922.got - 2010.06.03 11:33:40.
