data_PCOD9103549
_publ_section_title
;
Structure prediction by ZEFSAII (Michael W. Deem and Ramdas Pophale) SiO2 
 PCOD9103549
Probable space group: P -1
;
_chemical_formula_sum "Si O2"
_cell_formula_units_Z 13
_cell_length_a 11.374939
_cell_length_b 11.892725
_cell_length_c 4.921489
_cell_angle_alpha 101.461207
_cell_angle_beta 106.220936
_cell_angle_gamma 113.048325
_cell_volume 551.325451
_symmetry_space_group_name_H-M "P -1"
_symmetry_group_IT_number 2
_symmetry_cell_setting 'triclinic'
loop_
_space_group_symop_operation_xyz
x,y,z
-x,-y,-z
loop_
_atom_site_type_symbol
_atom_site_label
_atom_site_fract_x
_atom_site_fract_y
_atom_site_fract_z
Si Si1 0.832385 0.427449 0.393279
Si Si2 0.718420 0.128471 0.149344
Si Si3 0.626055 0.890889 0.331668
Si Si4 0.500000 0.000000 0.500000
Si Si5 0.326973 0.534217 0.207121
Si Si6 0.842713 0.961742 0.879097
Si Si7 0.395591 0.305550 0.186617
O O1 0.789245 0.276413 0.361345
O O2 0.782112 0.488246 0.631619
O O3 0.000000 0.500000 0.500000
O O4 0.743847 0.432070 0.076672
O O5 0.626694 0.025613 0.283694
O O6 0.619581 0.116721 0.831356
O O7 0.816408 0.070442 0.070734
O O8 0.786761 0.944844 0.525841
O O9 0.559715 0.896762 0.577575
O O10 0.562739 0.762687 0.060032
O O11 0.351283 0.410487 0.099267
O O12 0.478579 0.629850 0.486303
O O13 0.744886 0.816310 0.854672
O O14 0.000000 0.000000 0.000000
#
# Coordination Sequence:
#
# PCOD9103549 Si02
#       7
#     2   2   2   1   2   2   2
#     4  12  29  47  72 105 146 195 238 292 362 429
#     4  10  24  39  65  99 135 175 230 288 356 416
#     4  10  22  39  67 100 134 174 228 289 361 411
#     4  10  20  38  66  98 132 168 222 290 352 418
#     4  11  28  47  75 102 145 192 243 296 345 436
#     4  10  24  41  69 100 137 179 229 296 356 424
#     4  10  25  45  70 105 135 186 243 297 359 413
#
# _framework density 23.579536999999998
#
# number of rings (size 3 to 8) (size 9 to 14) (size 15 to 20)
#    0.000    1.538    0.000    1.846   17.231    4.923 
#    0.000    0.000    0.000    0.000    0.000    0.000 
#    0.000    0.000    0.000    0.000    0.000    0.000 
#
# Total GULP energy -72402.978743 kJ/mol
# GULP energy per Si atom -5569.459903 kJ/mol
# Density = 2.352587 g / cm^3
# Si number density = 23.579537 Si / 1000 Ang^3
#
#
#
# Elastic Constant Matrix: (Units=GPa)
#
#
# Indices 1 2 3 4 5 6 
#
# 1 151.3094 60.3156 52.2863 14.6884 16.8345 -12.2960
# 2 60.3156 135.2153 44.7267 21.8407 3.3908 -33.2163
# 3 52.2863 44.7267 104.9941 1.3587 -0.0038 -16.4521
# 4 14.6884 21.8407 1.3587 44.5025 -4.9493 -8.8466
# 5 16.8345 3.3908 -0.0038 -4.9493 51.7625 5.5834
# 6 -12.2960 -33.2163 -16.4521 -8.8466 5.5834 34.1849
#
#
#
# Elastic Compliance Matrix: (Units=1/GPa)
#
#
# Indices 1 2 3 4 5 6 
#
# 1 0.009462 -0.002896 -0.003645 -0.002167 -0.002961 -0.001242
# 2 -0.002896 0.012244 -0.002309 -0.003307 -0.001156 0.009077
# 3 -0.003645 -0.002309 0.012771 0.002700 0.001263 0.003085
# 4 -0.002167 -0.003307 0.002700 0.025753 0.003008 0.003480
# 5 -0.002961 -0.001156 0.001263 0.003008 0.021104 -0.004249
# 6 -0.001242 0.009077 0.003085 0.003480 -0.004249 0.040705
#
#
# Mechanical properties :
#
#
# Convention : Reuss Voigt Hill
#
# Bulk Modulus (GPa) = 59.60013 78.46403 69.03208
# Shear Modulus (GPa) = 34.40442 41.70266 38.05354
#
# Velocity S-wave (km/s) = 3.82393 4.21003 4.02162
# Velocity P-wave (km/s) = 6.69535 7.54858 7.13473
#
# Compressibility (1/GPa) = 0.01677849
#
# Stress axis : x y z
#
# Youngs Moduli (GPa) = 105.68962 81.67256 78.29989
#
# Poissons Ratio (x) = 0.23650 0.28540
# Poissons Ratio (y) = 0.30605 0.18077
# Poissons Ratio (z) = 0.38523 0.18856
#
# Static dielectric constant tensor:
#      x y z
#    x 2.751730 0.099340 -0.305810 
#    y 0.099340 2.001810 -0.139430 
#    z -0.305810 -0.139430 2.129160 
# 
# From -- ./inp_files/63366.got.cif
#   From: 2010.05.17/outbox.cif.g08.bks.cpg/sg2_32_cif.got.tgz:63366.got - 2010.06.03 11:33:40.
