data_PCOD9103648
_publ_section_title
;
Structure prediction by ZEFSAII (Michael W. Deem and Ramdas Pophale) SiO2 
 PCOD9103648
Probable space group: P -1
;
_chemical_formula_sum "Si O2"
_cell_formula_units_Z 14
_cell_length_a 5.205763
_cell_length_b 8.156212
_cell_length_c 14.679086
_cell_angle_alpha 96.343387
_cell_angle_beta 108.400090
_cell_angle_gamma 83.783761
_cell_volume 585.995688
_symmetry_space_group_name_H-M "P -1"
_symmetry_group_IT_number 2
_symmetry_cell_setting 'triclinic'
loop_
_space_group_symop_operation_xyz
x,y,z
-x,-y,-z
loop_
_atom_site_type_symbol
_atom_site_label
_atom_site_fract_x
_atom_site_fract_y
_atom_site_fract_z
Si Si1 0.170159 0.883615 0.938522
Si Si2 0.346654 0.169252 0.871767
Si Si3 0.815193 0.486258 0.066998
Si Si4 0.756771 0.412859 0.420709
Si Si5 0.519465 0.749268 0.460479
Si Si6 0.501353 0.028280 0.699756
Si Si7 0.966089 0.848001 0.653943
O O1 0.456488 0.840561 0.019331
O O2 0.094298 0.697737 0.896712
O O3 0.194920 0.002706 0.862311
O O4 0.000000 0.000000 0.000000
O O5 0.172256 0.344901 0.862596
O O6 0.520765 0.139523 0.798228
O O7 0.500000 0.500000 0.000000
O O8 0.000000 0.500000 0.000000
O O9 0.537863 0.568506 0.403631
O O10 0.663550 0.278582 0.473881
O O11 0.000000 0.500000 0.500000
O O12 0.847430 0.325704 0.331931
O O13 0.439172 0.875117 0.379784
O O14 0.788238 0.814167 0.541121
O O15 0.739730 0.881864 0.708758
O O16 0.190729 0.977813 0.666958
#
# Coordination Sequence:
#
# PCOD9103648 Si02
#       7
#     2   2   2   2   2   2   2
#     4  10  20  41  71  90 126 172 212 260 330 393
#     4  10  24  42  60 100 131 164 218 269 321 388
#     4  10  20  38  67  93 121 162 208 257 317 390
#     4   9  20  38  65  88 122 167 222 260 311 383
#     4  10  21  41  63  92 124 175 214 260 320 380
#     4  12  26  38  63  92 131 163 214 271 315 374
#     4  11  23  41  62  91 123 171 214 258 318 379
#
# _framework density 23.89096
#
# number of rings (size 3 to 8) (size 9 to 14) (size 15 to 20)
#    0.000    1.714    2.857    0.857    6.000    0.000 
#    2.571    0.000    0.000    1.714    0.000    0.000 
#    0.000    0.000    0.000    0.000    0.000    0.000 
#
# Total GULP energy -78004.498356 kJ/mol
# GULP energy per Si atom -5571.749883 kJ/mol
# Density = 2.383658 g / cm^3
# Si number density = 23.890960 Si / 1000 Ang^3
#
#
#
# Elastic Constant Matrix: (Units=GPa)
#
#
# Indices 1 2 3 4 5 6 
#
# 1 118.4780 39.4196 25.4323 1.3745 -29.8375 7.4193
# 2 39.4196 171.6359 53.7340 11.4599 -33.2599 -6.9057
# 3 25.4323 53.7340 66.5222 11.2555 -22.1295 -12.5791
# 4 1.3745 11.4599 11.2555 21.7704 -17.4880 -13.7166
# 5 -29.8375 -33.2599 -22.1295 -17.4880 38.2145 22.3563
# 6 7.4193 -6.9057 -12.5791 -13.7166 22.3563 37.4246
#
#
#
# Elastic Compliance Matrix: (Units=1/GPa)
#
#
# Indices 1 2 3 4 5 6 
#
# 1 0.016042 0.000869 -0.003119 0.010947 0.025392 -0.015224
# 2 0.000869 0.008837 -0.005820 0.002397 0.009029 -0.005013
# 3 -0.003119 -0.005820 0.022898 -0.004949 0.000490 0.005134
# 4 0.010947 0.002397 -0.004949 0.083356 0.046155 -0.000412
# 5 0.025392 0.009029 0.000490 0.046155 0.103355 -0.048028
# 6 -0.015224 -0.005013 0.005134 -0.000412 -0.048028 0.059078
#
#
# Mechanical properties :
#
#
# Convention : Reuss Voigt Hill
#
# Bulk Modulus (GPa) = 31.60986 65.97865 48.79425
# Shear Modulus (GPa) = 15.61275 35.35190 25.48233
#
# Velocity S-wave (km/s) = 2.55914 3.85088 3.26944
# Velocity P-wave (km/s) = 4.68955 6.88832 5.89240
#
# Compressibility (1/GPa) = 0.03163570
#
# Stress axis : x y z
#
# Youngs Moduli (GPa) = 62.33724 113.16471 43.67247
#
# Poissons Ratio (x) = -0.09837 0.13623
# Poissons Ratio (y) = -0.05418 0.25418
# Poissons Ratio (z) = 0.19445 0.65863
#
# Static dielectric constant tensor:
#      x y z
#    x 1.979930 -0.043760 0.041500 
#    y -0.043760 2.064450 0.055920 
#    z 0.041500 0.055920 1.963450 
# 
# From -- ./inp_files/479226.got.cif
#   From: 2010.05.17/outbox.cif.g08.bks.cpg/sg2_240_cif.got.tgz:479226.got - 2010.06.03 11:33:40.
