data_PCOD9103409
_publ_section_title
;
Structure prediction by ZEFSAII (Michael W. Deem and Ramdas Pophale) SiO2 
 PCOD9103409
Probable space group: P -1
;
_chemical_formula_sum "Si O2"
_cell_formula_units_Z 12
_cell_length_a 20.351777
_cell_length_b 10.813082
_cell_length_c 7.114661
_cell_angle_alpha 117.941484
_cell_angle_beta 38.675407
_cell_angle_gamma 146.169478
_cell_volume 466.198077
_symmetry_space_group_name_H-M "P -1"
_symmetry_group_IT_number 2
_symmetry_cell_setting 'triclinic'
loop_
_space_group_symop_operation_xyz
x,y,z
-x,-y,-z
loop_
_atom_site_type_symbol
_atom_site_label
_atom_site_fract_x
_atom_site_fract_y
_atom_site_fract_z
Si Si1 0.592567 0.866388 0.651272
Si Si2 0.566076 0.405814 0.550897
Si Si3 0.699661 0.265210 0.131227
Si Si4 0.726649 0.317530 0.649311
Si Si5 0.148817 0.046012 0.644718
Si Si6 0.875250 0.180516 0.796102
O O1 0.455449 0.620892 0.647407
O O2 0.772808 0.979035 0.399036
O O3 0.679954 0.107876 0.536112
O O4 0.445500 0.764195 0.065390
O O5 0.710458 0.438069 0.295071
O O6 0.653554 0.642969 0.609590
O O7 0.341792 0.117740 0.890166
O O8 0.500000 0.000000 0.500000
O O9 0.712360 0.285814 0.888638
O O10 0.850221 0.313796 0.884964
O O11 0.939784 0.609508 0.329431
O O12 0.067644 0.862905 0.526817
O O13 0.000000 0.000000 0.000000
#
# Coordination Sequence:
#
# PCOD9103409 Si02
#       6
#     2   2   2   2   2   2
#     4  10  22  40  62  88 123 161 203 252 300 365
#     4  10  23  40  59  93 127 159 200 251 309 361
#     4   9  18  35  61  90 118 153 202 253 289 347
#     4  10  20  38  66  90 119 162 207 246 308 353
#     4  12  24  40  64  90 121 164 205 249 308 362
#     4  11  22  39  64  90 123 161 207 252 296 362
#
# _framework density 25.740130000000001
#
# number of rings (size 3 to 8) (size 9 to 14) (size 15 to 20)
#    0.000    1.667    1.667    3.500    2.333    0.667 
#    0.000    5.000    0.000    0.000    0.000    0.000 
#    0.000    0.000    0.000    0.000    0.000    0.000 
#
# Total GULP energy -66965.736765 kJ/mol
# GULP energy per Si atom -5580.478064 kJ/mol
# Density = 2.568154 g / cm^3
# Si number density = 25.740130 Si / 1000 Ang^3
#
#
#
# Elastic Constant Matrix: (Units=GPa)
#
#
# Indices 1 2 3 4 5 6 
#
# 1 46.9922 18.0462 36.9738 14.9661 -12.7072 -5.3719
# 2 18.0462 150.5255 37.0304 -7.6622 -14.1865 -1.3845
# 3 36.9738 37.0304 156.6691 -2.4403 -29.3841 -8.6585
# 4 14.9661 -7.6622 -2.4403 47.9541 -3.8251 -4.1239
# 5 -12.7072 -14.1865 -29.3841 -3.8251 45.1166 4.1937
# 6 -5.3719 -1.3845 -8.6585 -4.1239 4.1937 24.8919
#
#
#
# Elastic Compliance Matrix: (Units=1/GPa)
#
#
# Indices 1 2 3 4 5 6 
#
# 1 0.031464 -0.002433 -0.006337 -0.010103 0.002900 0.002288
# 2 -0.002433 0.007375 -0.000926 0.001961 0.001227 -0.000319
# 3 -0.006337 -0.000926 0.008943 0.002720 0.003840 0.001495
# 4 -0.010103 0.001961 0.002720 0.024805 0.001390 0.002750
# 5 0.002900 0.001227 0.003840 0.001390 0.026186 -0.002152
# 6 0.002288 -0.000319 0.001495 0.002750 -0.002152 0.041988
#
#
# Mechanical properties :
#
#
# Convention : Reuss Voigt Hill
#
# Bulk Modulus (GPa) = 35.22482 59.80974 47.51728
# Shear Modulus (GPa) = 29.47810 41.06829 35.27320
#
# Velocity S-wave (km/s) = 3.38778 3.99870 3.70585
# Velocity P-wave (km/s) = 5.38677 6.67877 6.06725
#
# Compressibility (1/GPa) = 0.02838908
#
# Stress axis : x y z
#
# Youngs Moduli (GPa) = 31.78222 135.58588 111.82503
#
# Poissons Ratio (x) = 0.32988 0.70868
# Poissons Ratio (y) = 0.07733 0.10356
# Poissons Ratio (z) = 0.20142 0.12556
#
# Static dielectric constant tensor:
#      x y z
#    x 2.125950 0.017630 0.076780 
#    y 0.017630 1.993980 -0.058280 
#    z 0.076780 -0.058280 2.150800 
# 
# From -- ./inp_files/146036.got.cif
#   From: 2010.05.17/outbox.cif.g08.bks.cpg/sg2_74_cif.got.tgz:146036.got - 2010.06.03 11:33:40.
