data_PCOD9103349
_publ_section_title
;
Structure prediction by ZEFSAII (Michael W. Deem and Ramdas Pophale) SiO2 
 PCOD9103349
Probable space group: P -1
;
_chemical_formula_sum "Si O2"
_cell_formula_units_Z 16
_cell_length_a 13.890249
_cell_length_b 12.239055
_cell_length_c 8.695293
_cell_angle_alpha 75.587604
_cell_angle_beta 134.233138
_cell_angle_gamma 133.106290
_cell_volume 696.114346
_symmetry_space_group_name_H-M "P -1"
_symmetry_group_IT_number 2
_symmetry_cell_setting 'triclinic'
loop_
_space_group_symop_operation_xyz
x,y,z
-x,-y,-z
loop_
_atom_site_type_symbol
_atom_site_label
_atom_site_fract_x
_atom_site_fract_y
_atom_site_fract_z
Si Si1 0.486784 0.667365 0.826655
Si Si2 0.097009 0.718595 0.051377
Si Si3 0.219983 0.169863 0.638241
Si Si4 0.729444 0.035527 0.351061
Si Si5 0.431167 0.026980 0.147057
Si Si6 0.958821 0.479167 0.216045
Si Si7 0.877920 0.594434 0.323297
Si Si8 0.335254 0.448006 0.451988
O O1 0.326078 0.495643 0.801750
O O2 0.451196 0.609530 0.632456
O O3 0.461404 0.786559 0.780357
O O4 0.681311 0.764561 0.106671
O O5 0.869909 0.624617 0.819388
O O6 0.127660 0.646565 0.974088
O O7 0.116653 0.659562 0.248979
O O8 0.268115 0.913354 0.139198
O O9 0.252712 0.299740 0.525888
O O10 0.300286 0.116058 0.640770
O O11 0.000000 0.000000 0.500000
O O12 0.953118 0.209607 0.582166
O O13 0.582638 0.016741 0.300951
O O14 0.685599 0.044476 0.121723
O O15 0.825872 0.485504 0.157221
O O16 0.035502 0.437385 0.439806
O O17 0.500000 0.500000 0.500000
#
# Coordination Sequence:
#
# PCOD9103349 Si02
#       8
#     2   2   2   2   2   2   2   2
#     4  11  23  43  74  95 135 178 235 287 338 403
#     4  11  23  43  63  96 144 178 219 282 356 397
#     4  11  25  46  71  99 137 190 236 277 328 408
#     4  10  21  37  67 100 133 171 225 281 334 407
#     4  10  20  38  66 101 133 171 214 289 358 389
#     4  10  22  36  72  95 135 174 213 285 347 407
#     4  11  20  41  66 107 127 169 227 280 343 408
#     4  12  27  47  67  99 140 190 237 279 334 413
#
# _framework density 22.984729999999999
#
# number of rings (size 3 to 8) (size 9 to 14) (size 15 to 20)
#    0.000    1.250    2.500    4.125    5.250    1.000 
#    2.250    2.500    0.000    0.000    0.000    0.000 
#    0.000    0.000    0.000    0.000    0.000    0.000 
#
# Total GULP energy -89329.083389 kJ/mol
# GULP energy per Si atom -5583.067712 kJ/mol
# Density = 2.293242 g / cm^3
# Si number density = 22.984730 Si / 1000 Ang^3
#
#
#
# Elastic Constant Matrix: (Units=GPa)
#
#
# Indices 1 2 3 4 5 6 
#
# 1 116.7546 26.0260 24.9704 18.7168 -6.1859 -10.1235
# 2 26.0260 96.8180 23.0823 4.8369 6.6684 -6.9977
# 3 24.9704 23.0823 64.5657 16.6900 10.9573 -7.3755
# 4 18.7168 4.8369 16.6900 39.6955 7.2345 1.7942
# 5 -6.1859 6.6684 10.9573 7.2345 22.9808 0.0883
# 6 -10.1235 -6.9977 -7.3755 1.7942 0.0883 37.4395
#
#
#
# Elastic Compliance Matrix: (Units=1/GPa)
#
#
# Indices 1 2 3 4 5 6 
#
# 1 0.011070 -0.002300 -0.003056 -0.004967 0.006659 0.002184
# 2 -0.002300 0.011894 -0.003117 0.001459 -0.003047 0.000924
# 3 -0.003056 -0.003117 0.020971 -0.005648 -0.008151 0.003012
# 4 -0.004967 0.001459 -0.005648 0.031533 -0.008980 -0.003673
# 5 0.006659 -0.003047 -0.008151 -0.008980 0.052905 -0.000069
# 6 0.002184 0.000924 0.003012 -0.003673 -0.000069 0.028243
#
#
# Mechanical properties :
#
#
# Convention : Reuss Voigt Hill
#
# Bulk Modulus (GPa) = 37.05139 47.36620 42.20880
# Shear Modulus (GPa) = 27.38870 33.62714 30.50792
#
# Velocity S-wave (km/s) = 3.45571 3.82910 3.64718
# Velocity P-wave (km/s) = 5.66370 6.34048 6.01162
#
# Compressibility (1/GPa) = 0.02698954
#
# Stress axis : x y z
#
# Youngs Moduli (GPa) = 90.33817 84.07737 47.68384
#
# Poissons Ratio (x) = 0.19336 0.14570
# Poissons Ratio (y) = 0.20776 0.14864
# Poissons Ratio (z) = 0.27604 0.26208
#
# Static dielectric constant tensor:
#      x y z
#    x 1.919310 0.003040 0.035440 
#    y 0.003040 1.886490 0.012630 
#    z 0.035440 0.012630 1.882150 
# 
# From -- ./inp_files/307173.got.cif
#   From: 2010.05.17/outbox.cif.g08.bks.cpg/sg2_154_cif.got.tgz:307173.got - 2010.06.03 11:33:40.
