data_PCOD9103305
_publ_section_title
;
Structure prediction by ZEFSAII (Michael W. Deem and Ramdas Pophale) SiO2 
 PCOD9103305
Probable space group: P -1
;
_chemical_formula_sum "Si O2"
_cell_formula_units_Z 16
_cell_length_a 8.655451
_cell_length_b 17.044825
_cell_length_c 14.469653
_cell_angle_alpha 152.786808
_cell_angle_beta 49.495135
_cell_angle_gamma 132.846301
_cell_volume 709.335741
_symmetry_space_group_name_H-M "P -1"
_symmetry_group_IT_number 2
_symmetry_cell_setting 'triclinic'
loop_
_space_group_symop_operation_xyz
x,y,z
-x,-y,-z
loop_
_atom_site_type_symbol
_atom_site_label
_atom_site_fract_x
_atom_site_fract_y
_atom_site_fract_z
Si Si1 0.151380 0.090202 0.365925
Si Si2 0.784378 0.698167 0.621961
Si Si3 0.234264 0.633641 0.044931
Si Si4 0.166760 0.900932 0.803105
Si Si5 0.323879 0.013846 0.511074
Si Si6 0.232120 0.602754 0.556343
Si Si7 0.448054 0.840895 0.017006
Si Si8 0.587882 0.669601 0.329908
O O1 0.205139 0.240083 0.422157
O O2 0.218527 0.200288 0.549859
O O3 0.902235 0.983599 0.354171
O O4 0.299702 0.957395 0.159409
O O5 0.721593 0.494357 0.472099
O O6 0.029955 0.776629 0.646210
O O7 0.612489 0.782657 0.825753
O O8 0.259713 0.825903 0.282130
O O9 0.302603 0.671747 0.951353
O O10 0.374628 0.515523 0.909879
O O11 0.000000 0.500000 0.000000
O O12 0.217919 0.803535 0.773823
O O13 0.392996 0.039698 0.840923
O O14 0.000000 0.000000 0.000000
O O15 0.500000 0.000000 0.500000
O O16 0.426170 0.196911 0.606206
O O17 0.397007 0.614828 0.421332
O O18 0.000000 0.500000 0.500000
#
# Coordination Sequence:
#
# PCOD9103305 Si02
#       8
#     2   2   2   2   2   2   2   2
#     4  12  24  42  70 102 142 190 233 295 357 425
#     4  10  23  38  65 109 139 178 240 285 358 422
#     4  12  24  45  76 104 138 186 246 289 358 429
#     4   9  19  37  63  92 133 186 226 278 347 416
#     4  12  29  49  77 103 140 190 246 303 354 426
#     4  10  20  38  65  96 136 182 226 287 352 418
#     4  11  21  42  68 100 140 190 231 292 357 428
#     4  12  24  47  74 100 141 192 238 291 364 423
#
# _framework density 22.556315999999999
#
# number of rings (size 3 to 8) (size 9 to 14) (size 15 to 20)
#    0.000    1.000    5.000    1.500    5.250    1.000 
#    0.000    0.000    0.000    0.000    0.000    0.000 
#    0.000    0.000    0.000    0.000    0.000    0.000 
#
# Total GULP energy -89254.001622 kJ/mol
# GULP energy per Si atom -5578.375101 kJ/mol
# Density = 2.250498 g / cm^3
# Si number density = 22.556316 Si / 1000 Ang^3
#
#
#
# Elastic Constant Matrix: (Units=GPa)
#
#
# Indices 1 2 3 4 5 6 
#
# 1 99.9993 48.5969 13.9715 -1.4508 -30.9374 3.4203
# 2 48.5969 130.9110 15.9620 17.6204 -22.3716 0.5255
# 3 13.9715 15.9620 86.9986 17.6963 -42.1304 -11.6090
# 4 -1.4508 17.6204 17.6963 30.6769 -2.9743 -12.7808
# 5 -30.9374 -22.3716 -42.1304 -2.9743 39.8479 8.4494
# 6 3.4203 0.5255 -11.6090 -12.7808 8.4494 53.3508
#
#
#
# Elastic Compliance Matrix: (Units=1/GPa)
#
#
# Indices 1 2 3 4 5 6 
#
# 1 0.016683 -0.003863 0.006516 -0.000029 0.018201 -0.002503
# 2 -0.003863 0.010918 0.003062 -0.008545 0.006201 -0.002223
# 3 0.006516 0.003062 0.032963 -0.018207 0.041151 -0.004154
# 4 -0.000029 -0.008545 -0.018207 0.050752 -0.022803 0.011894
# 5 0.018201 0.006201 0.041151 -0.022803 0.086955 -0.011508
# 6 -0.002503 -0.002223 -0.004154 0.011894 -0.011508 0.022694
#
#
# Mechanical properties :
#
#
# Convention : Reuss Voigt Hill
#
# Bulk Modulus (GPa) = 13.89015 52.77443 33.33229
# Shear Modulus (GPa) = 21.40999 40.73368 31.07184
#
# Velocity S-wave (km/s) = 3.08422 4.25416 3.71553
# Velocity P-wave (km/s) = 4.34218 6.89768 5.76336
#
# Compressibility (1/GPa) = 0.07199345
#
# Stress axis : x y z
#
# Youngs Moduli (GPa) = 59.93947 91.58859 30.33661
#
# Poissons Ratio (x) = 0.35384 -0.19766
# Poissons Ratio (y) = 0.23156 -0.09288
# Poissons Ratio (z) = -0.39055 -0.28041
#
# Static dielectric constant tensor:
#      x y z
#    x 1.838480 0.042280 0.001260 
#    y 0.042280 1.643310 -0.072710 
#    z 0.001260 -0.072710 1.886590 
# 
# From -- ./inp_files/505693.got.cif
#   From: 2010.05.17/outbox.cif.g08.bks.cpg/sg2_253_cif.got.tgz:505693.got - 2010.06.03 11:33:40.
