data_PCOD9103369
_publ_section_title
;
Structure prediction by ZEFSAII (Michael W. Deem and Ramdas Pophale) SiO2 
 PCOD9103369
Probable space group: P -1
;
_chemical_formula_sum "Si O2"
_cell_formula_units_Z 15
_cell_length_a 7.909938
_cell_length_b 7.238902
_cell_length_c 13.816127
_cell_angle_alpha 41.432458
_cell_angle_beta 85.744856
_cell_angle_gamma 90.613624
_cell_volume 519.413210
_symmetry_space_group_name_H-M "P -1"
_symmetry_group_IT_number 2
_symmetry_cell_setting 'triclinic'
loop_
_space_group_symop_operation_xyz
x,y,z
-x,-y,-z
loop_
_atom_site_type_symbol
_atom_site_label
_atom_site_fract_x
_atom_site_fract_y
_atom_site_fract_z
Si Si1 0.584308 0.956777 0.739079
Si Si2 0.751982 0.843934 0.056946
Si Si3 0.578787 0.539473 0.339858
Si Si4 0.240540 0.649183 0.904691
Si Si5 0.939182 0.379278 0.755558
Si Si6 0.930786 0.745569 0.783482
Si Si7 0.732816 0.547535 0.534426
Si Si8 0.500000 0.000000 0.500000
O O1 0.430016 0.778429 0.868660
O O2 0.783503 0.928669 0.749033
O O3 0.544724 0.896092 0.654140
O O4 0.578775 0.277193 0.652811
O O5 0.591863 0.763502 0.164018
O O6 0.752351 0.620667 0.057799
O O7 0.903424 0.780245 0.150601
O O8 0.785634 0.148145 0.887618
O O9 0.711029 0.603259 0.401645
O O10 0.392579 0.296808 0.450421
O O11 0.661951 0.269014 0.396074
O O12 0.117438 0.845518 0.776546
O O13 0.136121 0.547254 0.044439
O O14 0.936257 0.662152 0.705992
O O15 0.897456 0.474965 0.610918
#
# Coordination Sequence:
#
# PCOD9103369 Si02
#       8
#     2   2   2   2   2   2   2   1
#     4  11  21  39  62  87 119 163 200 251 300 358
#     4  10  21  39  62  88 122 157 198 250 310 352
#     4  10  21  40  62  87 118 160 199 250 300 361
#     4  10  21  39  60  89 121 156 201 250 301 360
#     4  10  22  38  60  90 124 157 195 252 302 365
#     4  10  22  38  62  89 124 155 204 250 301 362
#     4  10  23  39  60  88 123 157 202 241 307 360
#     4  10  20  38  66  82 118 158 204 258 292 354
#
# _framework density 28.878741000000002
#
# number of rings (size 3 to 8) (size 9 to 14) (size 15 to 20)
#    0.000    1.867    1.333    2.000    1.867    2.133 
#    0.000    0.667    8.800    0.000    0.000    0.000 
#    0.000    0.000    0.000    0.000    0.000    0.000 
#
# Total GULP energy -83630.819938 kJ/mol
# GULP energy per Si atom -5575.387996 kJ/mol
# Density = 2.881301 g / cm^3
# Si number density = 28.878741 Si / 1000 Ang^3
#
#
#
# Elastic Constant Matrix: (Units=GPa)
#
#
# Indices 1 2 3 4 5 6 
#
# 1 130.6779 41.4788 3.3227 -1.1961 21.8124 -3.2840
# 2 41.4788 187.1700 34.4616 7.2431 8.6945 -3.1434
# 3 3.3227 34.4616 64.2407 20.2646 -6.4310 -3.6776
# 4 -1.1961 7.2431 20.2646 51.6288 4.9246 -0.5087
# 5 21.8124 8.6945 -6.4310 4.9246 56.1317 6.5590
# 6 -3.2840 -3.1434 -3.6776 -0.5087 6.5590 26.0505
#
#
#
# Elastic Compliance Matrix: (Units=1/GPa)
#
#
# Indices 1 2 3 4 5 6 
#
# 1 0.008851 -0.001806 0.000018 0.000797 -0.003436 0.001781
# 2 -0.001806 0.006423 -0.003587 0.000542 -0.000781 0.000248
# 3 0.000018 -0.003587 0.020374 -0.007803 0.003400 0.001437
# 4 0.000797 0.000542 -0.007803 0.022694 -0.003319 0.000343
# 5 -0.003436 -0.000781 0.003400 -0.003319 0.020570 -0.005291
# 6 0.001781 0.000248 0.001437 0.000343 -0.005291 0.040183
#
#
# Mechanical properties :
#
#
# Convention : Reuss Voigt Hill
#
# Bulk Modulus (GPa) = 40.16546 60.06831 50.11688
# Shear Modulus (GPa) = 36.19398 46.95057 41.57228
#
# Velocity S-wave (km/s) = 3.54405 4.03647 3.79825
# Velocity P-wave (km/s) = 5.53946 6.52453 6.05207
#
# Compressibility (1/GPa) = 0.02489701
#
# Stress axis : x y z
#
# Youngs Moduli (GPa) = 112.98546 155.69411 49.08237
#
# Poissons Ratio (x) = 0.28118 -0.00087
# Poissons Ratio (y) = 0.20405 0.17606
# Poissons Ratio (z) = -0.00201 0.55847
#
# Static dielectric constant tensor:
#      x y z
#    x 2.336560 -0.101280 -0.018930 
#    y -0.101280 2.439100 -0.199670 
#    z -0.018930 -0.199670 2.382690 
# 
# From -- ./inp_files/198347.got.cif
#   From: 2010.05.17/outbox.cif.g08.bks.cpg/sg2_100_cif.got.tgz:198347.got - 2010.06.03 11:33:40.
