data_PCOD9103480
_publ_section_title
;
Structure prediction by ZEFSAII (Michael W. Deem and Ramdas Pophale) SiO2 
 PCOD9103480
Probable space group: P -1
;
_chemical_formula_sum "Si O2"
_cell_formula_units_Z 14
_cell_length_a 11.917552
_cell_length_b 7.961323
_cell_length_c 12.129662
_cell_angle_alpha 57.770551
_cell_angle_beta 134.651197
_cell_angle_gamma 124.871744
_cell_volume 654.433394
_symmetry_space_group_name_H-M "P -1"
_symmetry_group_IT_number 2
_symmetry_cell_setting 'triclinic'
loop_
_space_group_symop_operation_xyz
x,y,z
-x,-y,-z
loop_
_atom_site_type_symbol
_atom_site_label
_atom_site_fract_x
_atom_site_fract_y
_atom_site_fract_z
Si Si1 0.888509 0.715423 0.075622
Si Si2 0.695099 0.030792 0.339222
Si Si3 0.527358 0.681786 0.858731
Si Si4 0.691109 0.235281 0.043929
Si Si5 0.009618 0.122500 0.678026
Si Si6 0.928486 0.247732 0.029451
Si Si7 0.363033 0.305138 0.735887
O O1 0.795088 0.474350 0.062528
O O2 0.973574 0.747874 0.242130
O O3 0.725849 0.789963 0.947095
O O4 0.021402 0.802321 0.040132
O O5 0.564471 0.148889 0.240106
O O6 0.747177 0.114370 0.222042
O O7 0.850154 0.106239 0.501108
O O8 0.641751 0.780903 0.362535
O O9 0.447703 0.550628 0.739275
O O10 0.500000 0.500000 0.000000
O O11 0.743914 0.190316 0.973891
O O12 0.496886 0.211360 0.919479
O O13 0.180973 0.232139 0.691325
O O14 0.994403 0.887111 0.789389
O O15 0.000000 0.500000 0.000000
#
# Coordination Sequence:
#
# PCOD9103480 Si02
#       7
#     2   2   2   2   2   2   2
#     4  10  21  41  63  87 124 161 214 241 294 381
#     4  12  23  37  62  99 129 152 198 266 315 355
#     4  11  21  40  64  94 123 161 205 254 299 367
#     4  10  20  38  66  94 116 164 204 251 304 361
#     4  12  23  38  61  96 123 159 200 262 314 348
#     4  10  23  40  62  86 121 168 211 245 293 376
#     4  11  22  38  64  94 125 158 207 250 306 366
#
# _framework density 21.392551000000001
#
# number of rings (size 3 to 8) (size 9 to 14) (size 15 to 20)
#    0.000    1.143    5.714    1.286    2.000    2.286 
#    2.571    0.714    0.000    2.571    0.000    0.000 
#    0.000    0.000    0.000    0.000    0.000    0.000 
#
# Total GULP energy -78024.360944 kJ/mol
# GULP energy per Si atom -5573.168639 kJ/mol
# Density = 2.134386 g / cm^3
# Si number density = 21.392551 Si / 1000 Ang^3
#
#
#
# Elastic Constant Matrix: (Units=GPa)
#
#
# Indices 1 2 3 4 5 6 
#
# 1 139.4324 43.3698 49.9800 24.5201 -2.2846 -28.8712
# 2 43.3698 98.9895 40.7531 27.9582 -1.1066 -13.3259
# 3 49.9800 40.7531 109.2527 43.4695 0.4742 -4.8180
# 4 24.5201 27.9582 43.4695 33.7441 -3.4917 -7.5313
# 5 -2.2846 -1.1066 0.4742 -3.4917 6.4708 3.9738
# 6 -28.8712 -13.3259 -4.8180 -7.5313 3.9738 40.0105
#
#
#
# Elastic Compliance Matrix: (Units=1/GPa)
#
#
# Indices 1 2 3 4 5 6 
#
# 1 0.010527 -0.002345 -0.004036 0.000956 0.000139 0.006496
# 2 -0.002345 0.014173 -0.000154 -0.009976 -0.004761 0.001605
# 3 -0.004036 -0.000154 0.022009 -0.027800 -0.015611 -0.003995
# 4 0.000956 -0.009976 -0.027800 0.078216 0.039941 0.004776
# 5 0.000139 -0.004761 -0.015611 0.039941 0.185217 -0.014243
# 6 0.006496 0.001605 -0.003995 0.004776 -0.014243 0.032048
#
#
# Mechanical properties :
#
#
# Convention : Reuss Voigt Hill
#
# Bulk Modulus (GPa) = 29.72573 68.43114 49.07843
# Shear Modulus (GPa) = 13.64361 30.28319 21.96340
#
# Velocity S-wave (km/s) = 2.52816 3.76652 3.20767
# Velocity P-wave (km/s) = 4.73789 7.13956 6.05892
#
# Compressibility (1/GPa) = 0.03364089
#
# Stress axis : x y z
#
# Youngs Moduli (GPa) = 94.99402 70.55716 45.43550
#
# Poissons Ratio (x) = 0.16544 0.18337
# Poissons Ratio (y) = 0.22274 0.00697
# Poissons Ratio (z) = 0.38338 0.01083
#
# Static dielectric constant tensor:
#      x y z
#    x 1.837520 -0.062300 0.003460 
#    y -0.062300 1.935060 -0.015400 
#    z 0.003460 -0.015400 1.727070 
# 
# From -- ./inp_files/218894.got.cif
#   From: 2010.05.17/outbox.cif.g08.bks.cpg/sg2_110_cif.got.tgz:218894.got - 2010.06.03 11:33:40.
