data_PCOD9103316
_publ_section_title
;
Structure prediction by ZEFSAII (Michael W. Deem and Ramdas Pophale) SiO2 
 PCOD9103316
Probable space group: P -1
;
_chemical_formula_sum "Si O2"
_cell_formula_units_Z 14
_cell_length_a 11.567564
_cell_length_b 8.692595
_cell_length_c 6.157595
_cell_angle_alpha 108.293809
_cell_angle_beta 103.449661
_cell_angle_gamma 107.163535
_cell_volume 524.352093
_symmetry_space_group_name_H-M "P -1"
_symmetry_group_IT_number 2
_symmetry_cell_setting 'triclinic'
loop_
_space_group_symop_operation_xyz
x,y,z
-x,-y,-z
loop_
_atom_site_type_symbol
_atom_site_label
_atom_site_fract_x
_atom_site_fract_y
_atom_site_fract_z
Si Si1 0.207925 0.166404 0.006216
Si Si2 0.117209 0.683724 0.077009
Si Si3 0.015385 0.174134 0.279865
Si Si4 0.206315 0.442959 0.779946
Si Si5 0.462179 0.146207 0.298640
Si Si6 0.676550 0.048433 0.450974
Si Si7 0.419771 0.360408 0.722885
O O1 0.345153 0.154415 0.108462
O O2 0.136913 0.153825 0.203703
O O3 0.221079 0.339202 0.955381
O O4 0.316314 0.443226 0.661621
O O5 0.096777 0.004033 0.759510
O O6 0.213607 0.626890 0.949562
O O7 0.185432 0.799115 0.367103
O O8 0.000000 0.500000 0.000000
O O9 0.943083 0.221318 0.070772
O O10 0.073940 0.327192 0.548677
O O11 0.590951 0.114605 0.282290
O O12 0.498752 0.321395 0.544760
O O13 0.388126 0.978807 0.348680
O O14 0.658396 0.844559 0.321203
O O15 0.500000 0.500000 0.000000
#
# Coordination Sequence:
#
# PCOD9103316 Si02
#       7
#     2   2   2   2   2   2   2
#     4  11  22  40  68  98 130 181 220 276 333 391
#     4  12  24  42  65  99 138 178 220 269 338 402
#     4  11  22  43  63  94 139 177 220 276 333 384
#     4  12  25  38  65 102 130 171 232 270 325 397
#     4   9  18  40  68  89 130 176 214 263 344 381
#     4   9  20  40  69  93 130 183 211 269 342 389
#     4  10  20  38  65  97 130 168 222 278 324 389
#
# _framework density 26.699618000000001
#
# number of rings (size 3 to 8) (size 9 to 14) (size 15 to 20)
#    0.857    0.571    4.286    1.714    2.000    1.143 
#    0.000    5.000    0.000    0.000    0.000    0.000 
#    0.000    0.000    0.000    0.000    0.000    0.000 
#
# Total GULP energy -78169.821584 kJ/mol
# GULP energy per Si atom -5583.558685 kJ/mol
# Density = 2.663885 g / cm^3
# Si number density = 26.699618 Si / 1000 Ang^3
#
#
#
# Elastic Constant Matrix: (Units=GPa)
#
#
# Indices 1 2 3 4 5 6 
#
# 1 88.5176 41.6386 46.0392 7.6753 -0.0266 -25.6588
# 2 41.6386 82.5103 34.4743 7.8834 4.8242 -15.0024
# 3 46.0392 34.4743 165.8274 29.5617 26.7856 -15.5411
# 4 7.6753 7.8834 29.5617 59.6973 -10.9545 0.0900
# 5 -0.0266 4.8242 26.7856 -10.9545 35.9917 1.6964
# 6 -25.6588 -15.0024 -15.5411 0.0900 1.6964 50.6485
#
#
#
# Elastic Compliance Matrix: (Units=1/GPa)
#
#
# Indices 1 2 3 4 5 6 
#
# 1 0.018119 -0.006791 -0.003929 0.001228 0.003947 0.005828
# 2 -0.006791 0.016360 -0.000863 -0.001226 -0.001986 0.001210
# 3 -0.003929 -0.000863 0.009958 -0.005997 -0.009176 0.001127
# 4 0.001228 -0.001226 -0.005997 0.021813 0.011362 -0.002001
# 5 0.003947 -0.001986 -0.009176 0.011362 0.038468 -0.002713
# 6 0.005828 0.001210 0.001127 -0.002001 -0.002713 0.023495
#
#
# Mechanical properties :
#
#
# Convention : Reuss Voigt Hill
#
# Bulk Modulus (GPa) = 47.01125 64.57330 55.79228
# Shear Modulus (GPa) = 31.55177 43.58104 37.56640
#
# Velocity S-wave (km/s) = 3.44136 4.04452 3.75507
# Velocity P-wave (km/s) = 5.78241 6.78590 6.30416
#
# Compressibility (1/GPa) = 0.02127150
#
# Stress axis : x y z
#
# Youngs Moduli (GPa) = 55.19056 61.12311 100.42511
#
# Poissons Ratio (x) = 0.41506 0.39457
# Poissons Ratio (y) = 0.37478 0.08669
# Poissons Ratio (z) = 0.21684 0.05276
#
# Static dielectric constant tensor:
#      x y z
#    x 2.296290 0.041330 0.015480 
#    y 0.041330 2.090270 0.033480 
#    z 0.015480 0.033480 2.142960 
# 
# From -- ./inp_files/296249.got.cif
#   From: 2010.05.17/outbox.cif.g08.bks.cpg/sg2_149_cif.got.tgz:296249.got - 2010.06.03 11:33:40.
