data_PCOD9103295
_publ_section_title
;
Structure prediction by ZEFSAII (Michael W. Deem and Ramdas Pophale) SiO2 
 PCOD9103295
Probable space group: P -1
;
_chemical_formula_sum "Si O2"
_cell_formula_units_Z 14
_cell_length_a 12.493331
_cell_length_b 8.326448
_cell_length_c 8.434321
_cell_angle_alpha 118.552911
_cell_angle_beta 130.490914
_cell_angle_gamma 65.777423
_cell_volume 579.507581
_symmetry_space_group_name_H-M "P -1"
_symmetry_group_IT_number 2
_symmetry_cell_setting 'triclinic'
loop_
_space_group_symop_operation_xyz
x,y,z
-x,-y,-z
loop_
_atom_site_type_symbol
_atom_site_label
_atom_site_fract_x
_atom_site_fract_y
_atom_site_fract_z
Si Si1 0.405421 0.108310 0.610115
Si Si2 0.328168 0.070274 0.036487
Si Si3 0.693691 0.508685 0.125982
Si Si4 0.012221 0.476918 0.689997
Si Si5 0.867796 0.886207 0.820878
Si Si6 0.496740 0.399411 0.285236
Si Si7 0.790545 0.229952 0.359537
O O1 0.344109 0.322628 0.705307
O O2 0.250051 0.047245 0.398153
O O3 0.500000 0.000000 0.500000
O O4 0.522591 0.060292 0.838026
O O5 0.227018 0.097129 0.104389
O O6 0.394036 0.247491 0.132840
O O7 0.231817 0.981212 0.775395
O O8 0.749777 0.323056 0.190705
O O9 0.819832 0.543087 0.143347
O O10 0.564016 0.486831 0.874226
O O11 0.932426 0.669585 0.770287
O O12 0.934286 0.304435 0.581687
O O13 0.000000 0.500000 0.500000
O O14 0.000000 0.000000 0.000000
O O15 0.500000 0.500000 0.500000
O O16 0.659828 0.317389 0.380091
#
# Coordination Sequence:
#
# PCOD9103295 Si02
#       7
#     2   2   2   2   2   2   2
#     4  10  22  38  66  98 134 164 225 269 326 381
#     4  11  25  41  64  97 136 166 220 272 332 381
#     4  11  23  43  70  98 131 177 226 266 328 394
#     4  10  20  38  65  96 129 165 219 272 324 380
#     4  11  21  39  65 100 132 169 219 272 325 396
#     4  12  27  43  65  96 139 176 216 275 337 386
#     4  11  22  43  71  94 129 175 226 273 320 396
#
# _framework density 24.158442000000001
#
# number of rings (size 3 to 8) (size 9 to 14) (size 15 to 20)
#    0.000    1.143    4.286    3.429    2.000    2.286 
#    0.000    5.000    0.000    0.000    0.000    0.000 
#    0.000    0.000    0.000    0.000    0.000    0.000 
#
# Total GULP energy -78048.463906 kJ/mol
# GULP energy per Si atom -5574.890279 kJ/mol
# Density = 2.410346 g / cm^3
# Si number density = 24.158442 Si / 1000 Ang^3
#
#
#
# Elastic Constant Matrix: (Units=GPa)
#
#
# Indices 1 2 3 4 5 6 
#
# 1 152.3404 27.8073 59.3972 22.8712 38.0131 -11.8864
# 2 27.8073 52.1641 26.0966 7.0347 22.5910 -15.3363
# 3 59.3972 26.0966 101.3904 19.5915 29.0651 -12.7768
# 4 22.8712 7.0347 19.5915 23.8071 -0.3754 2.8618
# 5 38.0131 22.5910 29.0651 -0.3754 58.3122 7.4973
# 6 -11.8864 -15.3363 -12.7768 2.8618 7.4973 35.2204
#
#
#
# Elastic Compliance Matrix: (Units=1/GPa)
#
#
# Indices 1 2 3 4 5 6 
#
# 1 0.010952 0.001669 -0.001833 -0.010380 -0.007743 0.006250
# 2 0.001669 0.033139 0.000712 -0.014660 -0.016954 0.020052
# 3 -0.001833 0.000712 0.017032 -0.013669 -0.008797 0.008853
# 4 -0.010380 -0.014660 -0.013669 0.070985 0.022996 -0.025508
# 5 -0.007743 -0.016954 -0.008797 0.022996 0.036225 -0.022766
# 6 0.006250 0.020052 0.008853 -0.025508 -0.022766 0.049364
#
#
# Mechanical properties :
#
#
# Convention : Reuss Voigt Hill
#
# Bulk Modulus (GPa) = 16.07194 59.16638 37.61916
# Shear Modulus (GPa) = 21.06687 36.30752 28.68719
#
# Velocity S-wave (km/s) = 2.95622 3.88092 3.44969
# Velocity P-wave (km/s) = 4.28012 6.68028 5.61007
#
# Compressibility (1/GPa) = 0.06222023
#
# Stress axis : x y z
#
# Youngs Moduli (GPa) = 91.30451 30.17630 58.71368
#
# Poissons Ratio (x) = -0.05037 0.10761
# Poissons Ratio (y) = -0.15241 -0.04182
# Poissons Ratio (z) = 0.16734 -0.02149
#
# Static dielectric constant tensor:
#      x y z
#    x 2.237710 -0.092110 0.001770 
#    y -0.092110 1.951300 0.008400 
#    z 0.001770 0.008400 1.993200 
# 
# From -- ./inp_files/245714.got.cif
#   From: 2010.05.17/outbox.cif.g08.bks.cpg/sg2_123_cif.got.tgz:245714.got - 2010.06.03 11:33:40.
