data_PCOD9103826
_publ_section_title
;
Structure prediction by ZEFSAII (Michael W. Deem and Ramdas Pophale) SiO2 
 PCOD9103826
Probable space group: P -1
;
_chemical_formula_sum "Si O2"
_cell_formula_units_Z 16
_cell_length_a 10.588004
_cell_length_b 10.509995
_cell_length_c 8.894272
_cell_angle_alpha 77.721446
_cell_angle_beta 58.008675
_cell_angle_gamma 56.840074
_cell_volume 698.575375
_symmetry_space_group_name_H-M "P -1"
_symmetry_group_IT_number 2
_symmetry_cell_setting 'triclinic'
loop_
_space_group_symop_operation_xyz
x,y,z
-x,-y,-z
loop_
_atom_site_type_symbol
_atom_site_label
_atom_site_fract_x
_atom_site_fract_y
_atom_site_fract_z
Si Si1 0.452031 0.862728 0.170054
Si Si2 0.841815 0.983661 0.163060
Si Si3 0.568329 0.338688 0.288561
Si Si4 0.982734 0.429702 0.285814
Si Si5 0.668803 0.913662 0.526402
Si Si6 0.783571 0.883222 0.920917
Si Si7 0.657921 0.562543 0.285293
Si Si8 0.752912 0.582605 0.675286
O O1 0.527481 0.694215 0.222533
O O2 0.383369 0.975547 0.327147
O O3 0.291542 0.945404 0.135969
O O4 0.623337 0.857758 0.002106
O O5 0.834455 0.902972 0.340729
O O6 0.684122 0.158240 0.240268
O O7 0.811206 0.891896 0.075815
O O8 0.000000 0.000000 0.000000
O O9 0.686730 0.408714 0.232418
O O10 0.446763 0.389629 0.502228
O O11 0.431246 0.406942 0.220165
O O12 0.843659 0.540141 0.220444
O O13 0.880506 0.462212 0.499913
O O14 0.056437 0.257089 0.228372
O O15 0.143118 0.449915 0.226171
O O16 0.709796 0.748994 0.598213
O O17 0.500000 0.000000 0.500000
#
# Coordination Sequence:
#
# PCOD9103826 Si02
#       8
#     2   2   2   2   2   2   2   2
#     4  11  22  41  68  97 122 181 228 264 322 405
#     4  12  25  41  64 101 140 171 215 286 340 384
#     4  10  20  39  66  92 130 175 220 266 329 406
#     4  10  21  38  61 100 135 159 218 284 330 373
#     4  12  19  41  71  93 123 179 235 256 319 418
#     4  11  24  40  66  97 137 165 221 289 328 372
#     4  10  21  40  66  93 128 180 221 264 331 407
#     4  10  20  38  68  97 122 177 224 273 323 398
#
# _framework density 22.903755
#
# number of rings (size 3 to 8) (size 9 to 14) (size 15 to 20)
#    0.000    1.250    5.000    1.500    1.750    0.500 
#    2.250    6.250    0.000    0.000    0.000    0.000 
#    0.000    0.000    0.000    0.000    0.000    0.000 
#
# Total GULP energy -89309.496712 kJ/mol
# GULP energy per Si atom -5581.843545 kJ/mol
# Density = 2.285162 g / cm^3
# Si number density = 22.903755 Si / 1000 Ang^3
#
#
#
# Elastic Constant Matrix: (Units=GPa)
#
#
# Indices 1 2 3 4 5 6 
#
# 1 72.5403 15.2045 19.3744 9.3470 -3.9792 -3.2449
# 2 15.2045 80.9971 22.3348 25.2528 11.8813 3.0745
# 3 19.3744 22.3348 66.7910 13.7117 1.9857 4.2150
# 4 9.3470 25.2528 13.7117 32.3969 6.3897 6.5739
# 5 -3.9792 11.8813 1.9857 6.3897 20.9456 4.4623
# 6 -3.2449 3.0745 4.2150 6.5739 4.4623 24.6399
#
#
#
# Elastic Compliance Matrix: (Units=1/GPa)
#
#
# Indices 1 2 3 4 5 6 
#
# 1 0.015950 -0.001791 -0.003704 -0.003170 0.004737 0.002946
# 2 -0.001791 0.018044 -0.003136 -0.011254 -0.007353 0.002383
# 3 -0.003704 -0.003136 0.017999 -0.003835 0.001037 -0.002340
# 4 -0.003170 -0.011254 -0.003835 0.045196 -0.005641 -0.009394
# 5 0.004737 -0.007353 0.001037 -0.005641 0.055985 -0.007270
# 6 0.002946 0.002383 -0.002340 -0.009394 -0.007270 0.044898
#
#
# Mechanical properties :
#
#
# Convention : Reuss Voigt Hill
#
# Bulk Modulus (GPa) = 28.79171 37.12841 32.96006
# Shear Modulus (GPa) = 22.03509 26.49079 24.26294
#
# Velocity S-wave (km/s) = 3.10510 3.40459 3.25829
# Velocity P-wave (km/s) = 5.04515 5.63035 5.34576
#
# Compressibility (1/GPa) = 0.03473223
#
# Stress axis : x y z
#
# Youngs Moduli (GPa) = 62.69535 55.42030 55.55825
#
# Poissons Ratio (x) = 0.09926 0.20577
# Poissons Ratio (y) = 0.11229 0.17421
# Poissons Ratio (z) = 0.23221 0.17378
#
# Static dielectric constant tensor:
#      x y z
#    x 1.903420 -0.044800 -0.011500 
#    y -0.044800 1.909870 -0.053400 
#    z -0.011500 -0.053400 1.865070 
# 
# From -- ./inp_files/262375.got.cif
#   From: 2010.05.17/outbox.cif.g08.bks.cpg/sg2_132_cif.got.tgz:262375.got - 2010.06.03 11:33:40.
