data_PCOD9103986
_publ_section_title
;
Structure prediction by ZEFSAII (Michael W. Deem and Ramdas Pophale) SiO2 
 PCOD9103986
Probable space group: P -1
;
_chemical_formula_sum "Si O2"
_cell_formula_units_Z 14
_cell_length_a 15.646285
_cell_length_b 7.420923
_cell_length_c 7.610936
_cell_angle_alpha 115.312209
_cell_angle_beta 46.467669
_cell_angle_gamma 109.096850
_cell_volume 578.442683
_symmetry_space_group_name_H-M "P -1"
_symmetry_group_IT_number 2
_symmetry_cell_setting 'triclinic'
loop_
_space_group_symop_operation_xyz
x,y,z
-x,-y,-z
loop_
_atom_site_type_symbol
_atom_site_label
_atom_site_fract_x
_atom_site_fract_y
_atom_site_fract_z
Si Si1 0.159115 0.848087 0.135414
Si Si2 0.613068 0.900741 0.030686
Si Si3 0.478199 0.225958 0.252681
Si Si4 0.741535 0.576105 0.237545
Si Si5 0.977752 0.730712 0.075292
Si Si6 0.322290 0.487998 0.074167
Si Si7 0.092121 0.665417 0.523444
O O1 0.127733 0.801720 0.362906
O O2 0.044380 0.863387 0.183451
O O3 0.256877 0.025271 0.065370
O O4 0.221241 0.650833 0.891525
O O5 0.598169 0.889167 0.837013
O O6 0.597288 0.675208 0.023679
O O7 0.520091 0.069385 0.273698
O O8 0.391557 0.390352 0.508257
O O9 0.593871 0.332648 0.045979
O O10 0.836607 0.725941 0.258562
O O11 0.744583 0.611892 0.039897
O O12 0.000000 0.500000 0.000000
O O13 0.033889 0.761706 0.815504
O O14 0.214353 0.568426 0.372681
O O15 0.000000 0.500000 0.500000
#
# Coordination Sequence:
#
# PCOD9103986 Si02
#       7
#     2   2   2   2   2   2   2
#     4  10  22  43  67 101 137 176 227 280 335 399
#     4  11  25  44  65 102 133 173 232 277 338 398
#     4  11  24  46  66  96 139 174 224 282 333 410
#     4  10  21  42  69  95 135 176 221 277 338 400
#     4  10  20  38  71 101 131 182 225 269 342 408
#     4  11  23  42  71  97 131 183 221 271 353 400
#     4  11  19  40  70  96 137 176 222 277 330 404
#
# _framework density 24.202915999999998
#
# number of rings (size 3 to 8) (size 9 to 14) (size 15 to 20)
#    0.000    1.429    7.143    0.857    4.000    0.571 
#    2.571    3.571    0.000    0.000    0.000    0.000 
#    0.000    0.000    0.000    0.000    0.000    0.000 
#
# Total GULP energy -78247.268994 kJ/mol
# GULP energy per Si atom -5589.090642 kJ/mol
# Density = 2.414783 g / cm^3
# Si number density = 24.202916 Si / 1000 Ang^3
#
#
#
# Elastic Constant Matrix: (Units=GPa)
#
#
# Indices 1 2 3 4 5 6 
#
# 1 122.4047 40.1654 10.5788 -1.6265 -11.8117 19.0671
# 2 40.1654 85.2207 31.3686 8.9047 -12.3119 -3.2968
# 3 10.5788 31.3686 81.1027 -1.1814 -31.0036 -4.6613
# 4 -1.6265 8.9047 -1.1814 18.5014 -2.3925 -10.6856
# 5 -11.8117 -12.3119 -31.0036 -2.3925 39.7986 0.9708
# 6 19.0671 -3.2968 -4.6613 -10.6856 0.9708 38.1436
#
#
#
# Elastic Compliance Matrix: (Units=1/GPa)
#
#
# Indices 1 2 3 4 5 6 
#
# 1 0.011078 -0.005689 0.001570 0.000929 0.002944 -0.005652
# 2 -0.005689 0.017676 -0.007044 -0.009176 -0.002283 0.000998
# 3 0.001570 -0.007044 0.020897 0.008653 0.015008 0.003202
# 4 0.000929 -0.009176 0.008653 0.071464 0.007995 0.019617
# 5 0.002944 -0.002283 0.015008 0.007995 0.037430 0.001452
# 6 -0.005652 0.000998 0.003202 0.019617 0.001452 0.034978
#
#
# Mechanical properties :
#
#
# Convention : Reuss Voigt Hill
#
# Bulk Modulus (GPa) = 36.59785 50.32818 43.46302
# Shear Modulus (GPa) = 22.22643 33.06306 27.64475
#
# Velocity S-wave (km/s) = 3.03370 3.70006 3.38332
# Velocity P-wave (km/s) = 5.23690 6.25246 5.76708
#
# Compressibility (1/GPa) = 0.02732401
#
# Stress axis : x y z
#
# Youngs Moduli (GPa) = 90.27177 56.57455 47.85402
#
# Poissons Ratio (x) = 0.32186 -0.07511
# Poissons Ratio (y) = 0.51357 0.33707
# Poissons Ratio (z) = -0.14170 0.39850
#
# Static dielectric constant tensor:
#      x y z
#    x 1.956380 -0.023020 -0.019060 
#    y -0.023020 1.971430 0.105030 
#    z -0.019060 0.105030 2.024260 
# 
# From -- ./inp_files/326556.got.cif
#   From: 2010.05.17/outbox.cif.g08.bks.cpg/sg2_164_cif.got.tgz:326556.got - 2010.06.03 11:33:40.
