data_PCOD9103519
_publ_section_title
;
Structure prediction by ZEFSAII (Michael W. Deem and Ramdas Pophale) SiO2 
 PCOD9103519
Probable space group: P -1
;
_chemical_formula_sum "Si O2"
_cell_formula_units_Z 14
_cell_length_a 14.132269
_cell_length_b 9.102394
_cell_length_c 8.833625
_cell_angle_alpha 133.238877
_cell_angle_beta 42.605918
_cell_angle_gamma 114.855133
_cell_volume 552.231441
_symmetry_space_group_name_H-M "P -1"
_symmetry_group_IT_number 2
_symmetry_cell_setting 'triclinic'
loop_
_space_group_symop_operation_xyz
x,y,z
-x,-y,-z
loop_
_atom_site_type_symbol
_atom_site_label
_atom_site_fract_x
_atom_site_fract_y
_atom_site_fract_z
Si Si1 0.054791 0.530394 0.621817
Si Si2 0.990689 0.280669 0.773169
Si Si3 0.177450 0.146567 0.701157
Si Si4 0.331050 0.043933 0.738478
Si Si5 0.580873 0.703825 0.681253
Si Si6 0.677478 0.237207 0.167487
Si Si7 0.359046 0.412083 0.146908
O O1 0.057423 0.319278 0.562091
O O2 0.216021 0.569560 0.466251
O O3 0.000000 0.500000 0.500000
O O4 0.940088 0.704265 0.956736
O O5 0.079697 0.101652 0.643136
O O6 0.000000 0.500000 0.000000
O O7 0.827670 0.266317 0.945784
O O8 0.260030 0.006342 0.635481
O O9 0.299132 0.240694 0.534070
O O10 0.500000 0.000000 0.500000
O O11 0.293070 0.916099 0.835478
O O12 0.307014 0.283441 0.980083
O O13 0.597105 0.456138 0.479488
O O14 0.428930 0.810427 0.872281
O O15 0.603744 0.733397 0.852984
O O16 0.500000 0.500000 0.000000
#
# Coordination Sequence:
#
# PCOD9103519 Si02
#       7
#     2   2   2   2   2   2   2
#     4  11  21  39  69  98 133 171 233 280 325 400
#     4  10  20  38  66  96 125 174 232 268 327 406
#     4  11  21  43  71  97 134 185 226 277 340 404
#     4  12  26  44  65 103 147 173 223 291 347 395
#     4  11  22  43  75  96 132 186 237 268 335 422
#     4  11  23  40  71  99 135 182 226 278 344 400
#     4  12  27  43  70 106 134 179 235 280 337 412
#
# _framework density 25.351690000000001
#
# number of rings (size 3 to 8) (size 9 to 14) (size 15 to 20)
#    0.000    0.857    7.143    1.714    4.000    1.143 
#    0.000    0.714    0.000    0.000    0.000    0.000 
#    0.000    0.000    0.000    0.000    0.000    0.000 
#
# Total GULP energy -78293.294580 kJ/mol
# GULP energy per Si atom -5592.378184 kJ/mol
# Density = 2.529399 g / cm^3
# Si number density = 25.351690 Si / 1000 Ang^3
#
#
#
# Elastic Constant Matrix: (Units=GPa)
#
#
# Indices 1 2 3 4 5 6 
#
# 1 155.4234 43.3449 56.6584 -17.4403 -36.3041 -44.5881
# 2 43.3449 101.3516 47.0077 -21.4179 -8.9475 -17.2339
# 3 56.6584 47.0077 119.7547 -32.7671 -36.9702 0.2069
# 4 -17.4403 -21.4179 -32.7671 38.7700 5.1718 3.9929
# 5 -36.3041 -8.9475 -36.9702 5.1718 58.9658 -3.8214
# 6 -44.5881 -17.2339 0.2069 3.9929 -3.8214 48.8428
#
#
#
# Elastic Compliance Matrix: (Units=1/GPa)
#
#
# Indices 1 2 3 4 5 6 
#
# 1 0.013060 -0.001250 -0.003808 -0.000103 0.006250 0.011995
# 2 -0.001250 0.013483 -0.004320 0.003098 -0.001492 0.003265
# 3 -0.003808 -0.004320 0.016303 0.009425 0.006047 -0.005367
# 4 -0.000103 0.003098 0.009425 0.035180 0.003122 -0.001672
# 5 0.006250 -0.001492 0.006047 0.003122 0.024540 0.006818
# 6 0.011995 0.003265 -0.005367 -0.001672 0.006818 0.033269
#
#
# Mechanical properties :
#
#
# Convention : Reuss Voigt Hill
#
# Bulk Modulus (GPa) = 41.50896 74.50574 58.00735
# Shear Modulus (GPa) = 30.74661 44.61697 37.68179
#
# Velocity S-wave (km/s) = 3.48631 4.19969 3.85952
# Velocity P-wave (km/s) = 5.71092 7.27800 6.54155
#
# Compressibility (1/GPa) = 0.02409118
#
# Stress axis : x y z
#
# Youngs Moduli (GPa) = 76.56807 74.16888 61.33986
#
# Poissons Ratio (x) = 0.09268 0.23357
# Poissons Ratio (y) = 0.09568 0.26498
# Poissons Ratio (z) = 0.29156 0.32039
#
# Static dielectric constant tensor:
#      x y z
#    x 2.023830 -0.081370 0.042450 
#    y -0.081370 1.637750 0.031620 
#    z 0.042450 0.031620 2.060630 
# 
# From -- ./inp_files/295915.got.cif
#   From: 2010.05.17/outbox.cif.g08.bks.cpg/sg2_148_cif.got.tgz:295915.got - 2010.06.03 11:33:40.
