data_PCOD9103820
_publ_section_title
;
Structure prediction by ZEFSAII (Michael W. Deem and Ramdas Pophale) SiO2 
 PCOD9103820
Probable space group: P -1
;
_chemical_formula_sum "Si O2"
_cell_formula_units_Z 16
_cell_length_a 14.283827
_cell_length_b 11.114748
_cell_length_c 10.725316
_cell_angle_alpha 117.885318
_cell_angle_beta 43.382394
_cell_angle_gamma 137.848625
_cell_volume 775.488993
_symmetry_space_group_name_H-M "P -1"
_symmetry_group_IT_number 2
_symmetry_cell_setting 'triclinic'
loop_
_space_group_symop_operation_xyz
x,y,z
-x,-y,-z
loop_
_atom_site_type_symbol
_atom_site_label
_atom_site_fract_x
_atom_site_fract_y
_atom_site_fract_z
Si Si1 0.692346 0.271930 0.212742
Si Si2 0.958332 0.681884 0.170975
Si Si3 0.286561 0.356408 0.130971
Si Si4 0.684310 0.088611 0.665019
Si Si5 0.109247 0.988551 0.989958
Si Si6 0.013515 0.162417 0.517653
Si Si7 0.230899 0.799341 0.651690
Si Si8 0.879202 0.473466 0.722458
O O1 0.776478 0.477289 0.218415
O O2 0.657852 0.218711 0.367833
O O3 0.513056 0.110628 0.232831
O O4 0.861162 0.286599 0.019041
O O5 0.972339 0.732147 0.325392
O O6 0.976936 0.827366 0.138050
O O7 0.192188 0.297670 0.327917
O O8 0.208528 0.438353 0.177014
O O9 0.229628 0.177594 0.036196
O O10 0.500000 0.500000 0.000000
O O11 0.707973 0.144582 0.523009
O O12 0.726533 0.256704 0.780483
O O13 0.842843 0.092882 0.562178
O O14 0.216912 0.939618 0.792673
O O15 0.000000 0.000000 0.000000
O O16 0.000000 0.000000 0.500000
O O17 0.028678 0.598163 0.744656
O O18 0.000000 0.500000 0.500000
#
# Coordination Sequence:
#
# PCOD9103820 Si02
#       8
#     2   2   2   2   2   2   2   2
#     4  10  23  42  64 102 131 170 223 283 335 406
#     4  10  24  42  66  92 138 177 218 275 349 397
#     4  12  26  43  68 104 135 177 234 279 336 404
#     4  11  23  40  70  99 133 172 233 277 338 401
#     4  11  21  43  65  91 132 179 223 275 330 405
#     4  12  24  46  68  91 141 184 219 282 346 404
#     4  10  20  38  68  96 132 173 218 276 341 396
#     4  10  20  39  66  99 131 171 221 275 334 396
#
# _framework density 20.632144
#
# number of rings (size 3 to 8) (size 9 to 14) (size 15 to 20)
#    0.000    1.250    5.000    1.125    5.250    1.500 
#    2.250    0.625    0.000    0.000    0.000    0.000 
#    0.000    0.000    0.000    0.000    0.000    0.000 
#
# Total GULP energy -89387.664098 kJ/mol
# GULP energy per Si atom -5586.729006 kJ/mol
# Density = 2.058518 g / cm^3
# Si number density = 20.632144 Si / 1000 Ang^3
#
#
#
# Elastic Constant Matrix: (Units=GPa)
#
#
# Indices 1 2 3 4 5 6 
#
# 1 81.6974 66.6870 22.9682 -20.3889 0.6233 0.1352
# 2 66.6870 199.6178 47.6239 -13.3287 -9.6531 8.2422
# 3 22.9682 47.6239 58.0274 -7.6477 6.4980 14.0716
# 4 -20.3889 -13.3287 -7.6477 37.0969 5.4131 -4.0437
# 5 0.6233 -9.6531 6.4980 5.4131 23.0034 6.6222
# 6 0.1352 8.2422 14.0716 -4.0437 6.6222 30.4081
#
#
#
# Elastic Compliance Matrix: (Units=1/GPa)
#
#
# Indices 1 2 3 4 5 6 
#
# 1 0.020460 -0.006140 -0.002319 0.010081 -0.006397 0.005380
# 2 -0.006140 0.008500 -0.005190 -0.002470 0.006230 -0.001560
# 3 -0.002319 -0.005190 0.025610 0.002299 -0.007441 -0.008508
# 4 0.010081 -0.002470 0.002299 0.034581 -0.012050 0.006784
# 5 -0.006397 0.006230 -0.007441 -0.012050 0.054566 -0.011702
# 6 0.005380 -0.001560 -0.008508 0.006784 -0.011702 0.040672
#
#
# Mechanical properties :
#
#
# Convention : Reuss Voigt Hill
#
# Bulk Modulus (GPa) = 36.66842 68.21117 52.43979
# Shear Modulus (GPa) = 22.64704 31.57258 27.10981
#
# Velocity S-wave (km/s) = 3.31669 3.91610 3.62879
# Velocity P-wave (km/s) = 5.69897 7.31985 6.55967
#
# Compressibility (1/GPa) = 0.02727143
#
# Stress axis : x y z
#
# Youngs Moduli (GPa) = 48.87562 117.64736 39.04676
#
# Poissons Ratio (x) = 0.72240 0.09053
# Poissons Ratio (y) = 0.30012 0.20267
# Poissons Ratio (z) = 0.11332 0.61064
#
# Static dielectric constant tensor:
#      x y z
#    x 1.803770 -0.018860 -0.011780 
#    y -0.018860 1.726790 -0.042320 
#    z -0.011780 -0.042320 1.741690 
# 
# From -- ./inp_files/452550.got.cif
#   From: 2010.05.17/outbox.cif.g08.bks.cpg/sg2_227_cif.got.tgz:452550.got - 2010.06.03 11:33:40.
