data_PCOD9103142
_publ_section_title
;
Structure prediction by ZEFSAII (Michael W. Deem and Ramdas Pophale) SiO2 
 PCOD9103142
Probable space group: P -1
;
_chemical_formula_sum "Si O2"
_cell_formula_units_Z 14
_cell_length_a 8.187460
_cell_length_b 10.639173
_cell_length_c 9.941809
_cell_angle_alpha 115.529247
_cell_angle_beta 48.192657
_cell_angle_gamma 124.188272
_cell_volume 531.729914
_symmetry_space_group_name_H-M "P -1"
_symmetry_group_IT_number 2
_symmetry_cell_setting 'triclinic'
loop_
_space_group_symop_operation_xyz
x,y,z
-x,-y,-z
loop_
_atom_site_type_symbol
_atom_site_label
_atom_site_fract_x
_atom_site_fract_y
_atom_site_fract_z
Si Si1 0.088964 0.418047 0.529367
Si Si2 0.658829 0.177011 0.978158
Si Si3 0.589629 0.201413 0.741277
Si Si4 0.403433 0.388909 0.728808
Si Si5 0.944814 0.361920 0.136015
Si Si6 0.098399 0.100423 0.625668
Si Si7 0.143047 0.933580 0.792048
O O1 0.869956 0.253766 0.580308
O O2 0.000000 0.500000 0.500000
O O3 0.366251 0.458447 0.366330
O O4 0.074216 0.497295 0.714402
O O5 0.559990 0.230449 0.927635
O O6 0.905560 0.167520 0.798922
O O7 0.717241 0.273992 0.125150
O O8 0.500000 0.000000 0.000000
O O9 0.493894 0.303786 0.753638
O O10 0.425000 0.026475 0.715849
O O11 0.333089 0.261934 0.587725
O O12 0.181215 0.408607 0.933382
O O13 0.941472 0.241385 0.198389
O O14 0.104596 0.991480 0.694500
O O15 0.000000 0.000000 0.500000
O O16 0.000000 0.000000 0.000000
#
# Coordination Sequence:
#
# PCOD9103142 Si02
#       7
#     2   2   2   2   2   2   2
#     4  10  24  42  62  94 130 169 216 265 316 392
#     4  11  21  36  62  95 124 163 217 262 325 380
#     4  10  20  38  65  89 129 163 212 266 312 386
#     4   9  21  42  62  89 134 163 219 258 318 392
#     4  11  22  40  70  90 127 177 209 265 330 378
#     4  10  22  35  60  94 131 161 211 278 322 374
#     4  11  18  41  66  93 125 172 217 266 327 388
#
# _framework density 26.329156000000001
#
# number of rings (size 3 to 8) (size 9 to 14) (size 15 to 20)
#    0.000    1.714    5.714    0.000    2.000    5.143 
#    0.000    7.857    3.143    0.000    0.000    0.000 
#    0.000    0.000    0.000    0.000    0.000    0.000 
#
# Total GULP energy -78339.985588 kJ/mol
# GULP energy per Si atom -5595.713256 kJ/mol
# Density = 2.626923 g / cm^3
# Si number density = 26.329156 Si / 1000 Ang^3
#
#
#
# Elastic Constant Matrix: (Units=GPa)
#
#
# Indices 1 2 3 4 5 6 
#
# 1 106.9311 47.6000 55.9584 -5.2835 25.1840 24.7445
# 2 47.6000 96.2678 52.6282 -13.8499 -4.1803 5.9017
# 3 55.9584 52.6282 129.1375 2.2334 10.9056 21.6442
# 4 -5.2835 -13.8499 2.2334 51.4645 10.4328 -2.4729
# 5 25.1840 -4.1803 10.9056 10.4328 53.0245 -5.2053
# 6 24.7445 5.9017 21.6442 -2.4729 -5.2053 39.2413
#
#
#
# Elastic Compliance Matrix: (Units=1/GPa)
#
#
# Indices 1 2 3 4 5 6 
#
# 1 0.019148 -0.007665 -0.002491 0.001633 -0.010573 -0.010847
# 2 -0.007665 0.017486 -0.005416 0.003213 0.006110 0.006204
# 3 -0.002491 -0.005416 0.011983 -0.002100 -0.001746 -0.004588
# 4 0.001633 0.003213 -0.002100 0.021440 -0.004267 0.000430
# 5 -0.010573 0.006110 -0.001746 -0.004267 0.026539 0.009962
# 6 -0.010847 0.006204 -0.004588 0.000430 0.009962 0.035269
#
#
# Mechanical properties :
#
#
# Convention : Reuss Voigt Hill
#
# Bulk Modulus (GPa) = 57.23150 71.63439 64.43295
# Shear Modulus (GPa) = 29.61478 40.48938 35.05208
#
# Velocity S-wave (km/s) = 3.35743 3.92575 3.65266
# Velocity P-wave (km/s) = 6.06744 6.91484 6.50496
#
# Compressibility (1/GPa) = 0.01747290
#
# Stress axis : x y z
#
# Youngs Moduli (GPa) = 52.22361 57.18859 83.45188
#
# Poissons Ratio (x) = 0.43838 0.20787
# Poissons Ratio (y) = 0.40032 0.45197
# Poissons Ratio (z) = 0.13008 0.30973
#
# Static dielectric constant tensor:
#      x y z
#    x 2.131020 0.054600 0.031370 
#    y 0.054600 1.995920 -0.001650 
#    z 0.031370 -0.001650 2.053680 
# 
# From -- ./inp_files/188307.got.cif
#   From: 2010.05.17/outbox.cif.g08.bks.cpg/sg2_95_cif.got.tgz:188307.got - 2010.06.03 11:33:40.
