data_PCOD9103090
_publ_section_title
;
Structure prediction by ZEFSAII (Michael W. Deem and Ramdas Pophale) SiO2 
 PCOD9103090
Probable space group: P -1
;
_chemical_formula_sum "Si O2"
_cell_formula_units_Z 16
_cell_length_a 19.790479
_cell_length_b 10.286442
_cell_length_c 5.292145
_cell_angle_alpha 109.598430
_cell_angle_beta 110.759855
_cell_angle_gamma 38.024420
_cell_volume 617.590385
_symmetry_space_group_name_H-M "P -1"
_symmetry_group_IT_number 2
_symmetry_cell_setting 'triclinic'
loop_
_space_group_symop_operation_xyz
x,y,z
-x,-y,-z
loop_
_atom_site_type_symbol
_atom_site_label
_atom_site_fract_x
_atom_site_fract_y
_atom_site_fract_z
Si Si1 0.103722 0.837892 0.732917
Si Si2 0.908618 0.837512 0.178204
Si Si3 0.544187 0.308265 0.094082
Si Si4 0.668783 0.984442 0.659017
Si Si5 0.091773 0.421493 0.364004
Si Si6 0.729313 0.153191 0.568999
Si Si7 0.215831 0.610448 0.233494
Si Si8 0.455029 0.204247 0.190350
O O1 0.190389 0.652473 0.526092
O O2 0.114318 0.988659 0.889361
O O3 0.121364 0.733781 0.961117
O O4 0.000000 0.000000 0.500000
O O5 0.033935 0.643654 0.327554
O O6 0.826308 0.956322 0.385181
O O7 0.903950 0.705522 0.923062
O O8 0.630911 0.064281 0.947689
O O9 0.500000 0.500000 0.000000
O O10 0.612635 0.293809 0.376902
O O11 0.449123 0.344884 0.088319
O O12 0.775369 0.747467 0.535610
O O13 0.710833 0.080912 0.731181
O O14 0.551759 0.111683 0.456489
O O15 0.000000 0.500000 0.500000
O O16 0.750757 0.280628 0.703372
O O17 0.327747 0.359933 0.198597
O O18 0.500000 0.000000 0.000000
#
# Coordination Sequence:
#
# PCOD9103090 Si02
#       8
#     2   2   2   2   2   2   2   2
#     4  11  26  48  72 104 135 185 247 296 352 429
#     4  10  22  36  64  97 136 177 228 296 360 423
#     4  11  23  40  73 101 134 176 247 297 351 420
#     4  11  22  40  66  99 137 185 238 292 353 442
#     4  11  21  38  63  98 140 181 227 289 374 421
#     4  10  20  38  65 102 133 171 231 304 360 411
#     4  11  25  46  76 100 140 187 234 305 363 426
#     4  11  28  47  64 103 147 194 236 293 368 436
#
# _framework density 25.907138
#
# number of rings (size 3 to 8) (size 9 to 14) (size 15 to 20)
#    0.000    1.250    2.500    2.625    8.750    3.500 
#    4.500    0.000    0.000    0.000    0.000    0.000 
#    0.000    0.000    0.000    0.000    0.000    0.000 
#
# Total GULP energy -89094.156483 kJ/mol
# GULP energy per Si atom -5568.384780 kJ/mol
# Density = 2.584817 g / cm^3
# Si number density = 25.907138 Si / 1000 Ang^3
#
#
#
# Elastic Constant Matrix: (Units=GPa)
#
#
# Indices 1 2 3 4 5 6 
#
# 1 34.9778 12.5313 8.7659 3.7988 6.1464 1.1185
# 2 12.5313 142.3771 31.3272 21.6352 -11.8549 -17.6951
# 3 8.7659 31.3272 66.1064 12.6111 5.7347 -1.6505
# 4 3.7988 21.6352 12.6111 35.7272 -6.8236 -7.8575
# 5 6.1464 -11.8549 5.7347 -6.8236 40.0288 6.8535
# 6 1.1185 -17.6951 -1.6505 -7.8575 6.8535 37.7511
#
#
#
# Elastic Compliance Matrix: (Units=1/GPa)
#
#
# Indices 1 2 3 4 5 6 
#
# 1 0.031303 -0.002607 -0.002022 -0.002457 -0.005405 -0.001768
# 2 -0.002607 0.009062 -0.003567 -0.002771 0.002588 0.003123
# 3 -0.002022 -0.003567 0.018391 -0.005143 -0.004062 -0.001141
# 4 -0.002457 -0.002771 -0.005143 0.033765 0.005258 0.004623
# 5 -0.005405 0.002588 -0.004062 0.005258 0.028552 -0.002893
# 6 -0.001768 0.003123 -0.001141 0.004623 -0.002893 0.029443
#
#
# Mechanical properties :
#
#
# Convention : Reuss Voigt Hill
#
# Bulk Modulus (GPa) = 23.60435 38.74556 31.17495
# Shear Modulus (GPa) = 27.61975 35.42390 31.52183
#
# Velocity S-wave (km/s) = 3.26867 3.70177 3.49194
# Velocity P-wave (km/s) = 4.83493 5.76705 5.32143
#
# Compressibility (1/GPa) = 0.04236508
#
# Stress axis : x y z
#
# Youngs Moduli (GPa) = 31.94545 110.34518 54.37533
#
# Poissons Ratio (x) = 0.28763 0.10995
# Poissons Ratio (y) = 0.08327 0.19396
# Poissons Ratio (z) = 0.06460 0.39360
#
# Static dielectric constant tensor:
#      x y z
#    x 2.229180 0.012290 -0.174850 
#    y 0.012290 2.466940 -0.335120 
#    z -0.174850 -0.335120 2.393470 
# 
# From -- ./inp_files/123812.got.cif
#   From: 2010.05.17/outbox.cif.g08.bks.cpg/sg2_62_cif.got.tgz:123812.got - 2010.06.03 11:33:40.
