data_PCOD9103661
_publ_section_title
;
Structure prediction by ZEFSAII (Michael W. Deem and Ramdas Pophale) SiO2 
 PCOD9103661
Probable space group: P -1
;
_chemical_formula_sum "Si O2"
_cell_formula_units_Z 14
_cell_length_a 11.471637
_cell_length_b 9.313297
_cell_length_c 21.584345
_cell_angle_alpha 151.922118
_cell_angle_beta 138.986766
_cell_angle_gamma 57.905180
_cell_volume 641.267430
_symmetry_space_group_name_H-M "P -1"
_symmetry_group_IT_number 2
_symmetry_cell_setting 'triclinic'
loop_
_space_group_symop_operation_xyz
x,y,z
-x,-y,-z
loop_
_atom_site_type_symbol
_atom_site_label
_atom_site_fract_x
_atom_site_fract_y
_atom_site_fract_z
Si Si1 0.338271 0.834673 0.445985
Si Si2 0.544612 0.891461 0.162949
Si Si3 0.801093 0.928210 0.929388
Si Si4 0.217321 0.876300 0.286532
Si Si5 0.780250 0.967561 0.404306
Si Si6 0.441434 0.209372 0.006668
Si Si7 0.912064 0.867836 0.081167
O O1 0.321976 0.476796 0.279122
O O2 0.248287 0.975690 0.408851
O O3 0.570219 0.062883 0.630681
O O4 0.232258 0.811077 0.458841
O O5 0.700829 0.062476 0.345344
O O6 0.338827 0.919364 0.097635
O O7 0.500000 0.500000 0.000000
O O8 0.610628 0.985269 0.154116
O O9 0.856586 0.035519 0.064187
O O10 0.000000 0.000000 0.000000
O O11 0.117835 0.051195 0.269418
O O12 0.086483 0.470914 0.077056
O O13 0.622090 0.580359 0.209840
O O14 0.000000 0.000000 0.500000
O O15 0.252932 0.231892 0.969970
O O16 0.500000 0.000000 0.000000
#
# Coordination Sequence:
#
# PCOD9103661 Si02
#       7
#     2   2   2   2   2   2   2
#     4  10  22  40  65  90 136 165 218 278 330 393
#     4  10  25  44  65  92 133 181 223 266 338 403
#     4  11  25  41  66  98 132 172 227 277 336 400
#     4   9  20  38  64  96 123 164 209 273 338 384
#     4  11  26  43  66  96 138 181 222 272 346 393
#     4  11  22  43  70  91 131 173 229 270 318 404
#     4  10  20  38  67  94 123 169 221 269 328 393
#
# _framework density 21.831765000000001
#
# number of rings (size 3 to 8) (size 9 to 14) (size 15 to 20)
#    0.000    1.714    2.857    0.000    8.000    2.857 
#    2.571    0.714    0.000    0.000    0.000    0.000 
#    0.000    0.000    0.000    0.000    0.000    0.000 
#
# Total GULP energy -78144.931927 kJ/mol
# GULP energy per Si atom -5581.780852 kJ/mol
# Density = 2.178208 g / cm^3
# Si number density = 21.831765 Si / 1000 Ang^3
#
#
#
# Elastic Constant Matrix: (Units=GPa)
#
#
# Indices 1 2 3 4 5 6 
#
# 1 134.7152 52.1948 31.2114 -41.5846 -8.6774 11.5030
# 2 52.1948 146.2483 46.9384 -48.8453 -5.2154 -1.3958
# 3 31.2114 46.9384 49.0384 -30.9022 2.8240 -0.9320
# 4 -41.5846 -48.8453 -30.9022 50.5668 1.4009 0.1582
# 5 -8.6774 -5.2154 2.8240 1.4009 25.6230 -1.0361
# 6 11.5030 -1.3958 -0.9320 0.1582 -1.0361 29.6587
#
#
#
# Elastic Compliance Matrix: (Units=1/GPa)
#
#
# Indices 1 2 3 4 5 6 
#
# 1 0.010910 -0.000890 -0.002102 0.006752 0.003204 -0.004263
# 2 -0.000890 0.011444 -0.006592 0.006224 0.002444 0.000729
# 3 -0.002102 -0.006592 0.038203 0.015441 -0.007053 0.001377
# 4 0.006752 0.006224 0.015441 0.040795 -0.000463 -0.002074
# 5 0.003204 0.002444 -0.007053 -0.000463 0.041416 0.000100
# 6 -0.004263 0.000729 0.001377 -0.002074 0.000100 0.035463
#
#
# Mechanical properties :
#
#
# Convention : Reuss Voigt Hill
#
# Bulk Modulus (GPa) = 24.16255 65.63235 44.89745
# Shear Modulus (GPa) = 23.67474 34.48017 29.07746
#
# Velocity S-wave (km/s) = 3.29662 3.97843 3.65346
# Velocity P-wave (km/s) = 5.05786 7.15764 6.19733
#
# Compressibility (1/GPa) = 0.04138637
#
# Stress axis : x y z
#
# Youngs Moduli (GPa) = 91.66248 87.38285 26.17616
#
# Poissons Ratio (x) = 0.07780 0.05503
# Poissons Ratio (y) = 0.08161 0.17256
# Poissons Ratio (z) = 0.19271 0.57605
#
# Static dielectric constant tensor:
#      x y z
#    x 1.793660 0.032130 -0.017310 
#    y 0.032130 1.868680 0.002160 
#    z -0.017310 0.002160 1.884470 
# 
# From -- ./inp_files/169471.got.cif
#   From: 2010.05.17/outbox.cif.g08.bks.cpg/sg2_85_cif.got.tgz:169471.got - 2010.06.03 11:33:40.
