data_PCOD9103628
_publ_section_title
;
Structure prediction by ZEFSAII (Michael W. Deem and Ramdas Pophale) SiO2 
 PCOD9103628
Probable space group: P -1
;
_chemical_formula_sum "Si O2"
_cell_formula_units_Z 14
_cell_length_a 7.925722
_cell_length_b 15.716527
_cell_length_c 7.860687
_cell_angle_alpha 115.453477
_cell_angle_beta 82.569296
_cell_angle_gamma 48.352246
_cell_volume 520.954297
_symmetry_space_group_name_H-M "P -1"
_symmetry_group_IT_number 2
_symmetry_cell_setting 'triclinic'
loop_
_space_group_symop_operation_xyz
x,y,z
-x,-y,-z
loop_
_atom_site_type_symbol
_atom_site_label
_atom_site_fract_x
_atom_site_fract_y
_atom_site_fract_z
Si Si1 0.460577 0.754400 0.335292
Si Si2 0.246983 0.813535 0.068647
Si Si3 0.061672 0.639962 0.738956
Si Si4 0.686912 0.274958 0.360579
Si Si5 0.301275 0.510546 0.114306
Si Si6 0.280576 0.089041 0.759689
Si Si7 0.723402 0.783101 0.591256
O O1 0.325054 0.843172 0.246477
O O2 0.240396 0.794442 0.519728
O O3 0.585805 0.770797 0.467127
O O4 0.707540 0.572562 0.084765
O O5 0.956183 0.887181 0.213992
O O6 0.251146 0.831949 0.883573
O O7 0.506294 0.620623 0.874455
O O8 0.351218 0.453348 0.566524
O O9 0.147636 0.704354 0.702646
O O10 0.839359 0.694833 0.680422
O O11 0.896078 0.739599 0.019177
O O12 0.012346 0.681437 0.366682
O O13 0.500000 0.500000 0.000000
O O14 0.500000 0.000000 0.500000
O O15 0.485134 0.969544 0.788070
#
# Coordination Sequence:
#
# PCOD9103628 Si02
#       7
#     2   2   2   2   2   2   2
#     4  10  24  38  68  96 132 170 205 274 332 371
#     4   9  22  42  62  96 125 164 222 256 314 388
#     4  10  22  41  64  96 123 166 226 270 303 395
#     4  10  20  40  71  93 122 167 222 266 320 374
#     4  10  20  38  67  91 123 169 217 261 308 376
#     4  11  25  40  65  95 128 175 213 267 324 379
#     4  12  23  42  61  98 137 160 214 275 323 381
#
# _framework density 26.873757000000001
#
# number of rings (size 3 to 8) (size 9 to 14) (size 15 to 20)
#    0.857    0.857    1.429    2.571    8.000    1.143 
#    2.571    2.857    0.000    0.000    0.000    0.000 
#    0.000    0.000    0.000    0.000    0.000    0.000 
#
# Total GULP energy -78267.688695 kJ/mol
# GULP energy per Si atom -5590.549193 kJ/mol
# Density = 2.681259 g / cm^3
# Si number density = 26.873757 Si / 1000 Ang^3
#
#
#
# Elastic Constant Matrix: (Units=GPa)
#
#
# Indices 1 2 3 4 5 6 
#
# 1 80.7898 12.4026 42.3046 -2.0599 4.6804 -27.9201
# 2 12.4026 106.6787 40.1253 10.4670 10.1734 -19.9866
# 3 42.3046 40.1253 163.8220 -11.7537 11.8138 -26.5152
# 4 -2.0599 10.4670 -11.7537 48.5575 -15.9333 3.0280
# 5 4.6804 10.1734 11.8138 -15.9333 39.3060 -7.5727
# 6 -27.9201 -19.9866 -26.5152 3.0280 -7.5727 31.1492
#
#
#
# Elastic Compliance Matrix: (Units=1/GPa)
#
#
# Indices 1 2 3 4 5 6 
#
# 1 0.019141 0.001942 -0.002929 -0.001068 0.000788 0.016204
# 2 0.001942 0.012151 -0.002423 -0.004598 -0.003132 0.007160
# 3 -0.002929 -0.002423 0.008004 0.002155 -0.000094 0.002401
# 4 -0.001068 -0.004598 0.002155 0.025698 0.010707 -0.001968
# 5 0.000788 -0.003132 -0.000094 0.010707 0.031537 0.005243
# 6 0.016204 0.007160 0.002401 -0.001968 0.005243 0.054732
#
#
# Mechanical properties :
#
#
# Convention : Reuss Voigt Hill
#
# Bulk Modulus (GPa) = 30.79213 60.10617 45.44915
# Shear Modulus (GPa) = 29.60215 40.89975 35.25095
#
# Velocity S-wave (km/s) = 3.32253 3.90541 3.62570
# Velocity P-wave (km/s) = 5.11877 6.53843 5.87166
#
# Compressibility (1/GPa) = 0.03247583
#
# Stress axis : x y z
#
# Youngs Moduli (GPa) = 52.24469 82.29977 124.93830
#
# Poissons Ratio (x) = -0.15983 0.36596
# Poissons Ratio (y) = -0.10146 0.30268
# Poissons Ratio (z) = 0.15303 0.19938
#
# Static dielectric constant tensor:
#      x y z
#    x 2.182400 0.032950 0.057140 
#    y 0.032950 2.183090 -0.054970 
#    z 0.057140 -0.054970 2.092430 
# 
# From -- ./inp_files/223796.got.cif
#   From: 2010.05.17/outbox.cif.g08.bks.cpg/sg2_112_cif.got.tgz:223796.got - 2010.06.03 11:33:40.
