data_PCOD9103183
_publ_section_title
;
Structure prediction by ZEFSAII (Michael W. Deem and Ramdas Pophale) SiO2 
 PCOD9103183
Probable space group: P -1
;
_chemical_formula_sum "Si O2"
_cell_formula_units_Z 15
_cell_length_a 5.314317
_cell_length_b 16.047180
_cell_length_c 8.129926
_cell_angle_alpha 87.433839
_cell_angle_beta 59.133749
_cell_angle_gamma 78.453056
_cell_volume 581.692666
_symmetry_space_group_name_H-M "P -1"
_symmetry_group_IT_number 2
_symmetry_cell_setting 'triclinic'
loop_
_space_group_symop_operation_xyz
x,y,z
-x,-y,-z
loop_
_atom_site_type_symbol
_atom_site_label
_atom_site_fract_x
_atom_site_fract_y
_atom_site_fract_z
Si Si1 0.185410 0.458106 0.742697
Si Si2 0.131136 0.745984 0.968615
Si Si3 0.500000 0.500000 0.000000
Si Si4 0.122780 0.986589 0.686355
Si Si5 0.499965 0.394638 0.331035
Si Si6 0.516256 0.304301 0.809982
Si Si7 0.742401 0.924093 0.050587
Si Si8 0.224982 0.861695 0.388954
O O1 0.248914 0.405757 0.555373
O O2 0.266799 0.549790 0.683008
O O3 0.442282 0.405871 0.789049
O O4 0.857850 0.458868 0.918290
O O5 0.333323 0.700888 0.756285
O O6 0.034977 0.847723 0.983602
O O7 0.315243 0.717861 0.074404
O O8 0.817810 0.714046 0.079255
O O9 0.394384 0.439468 0.189665
O O10 0.807485 0.963806 0.852454
O O11 0.283464 0.905664 0.535741
O O12 0.066498 0.072456 0.587057
O O13 0.264416 0.009448 0.805306
O O14 0.728045 0.239989 0.618265
O O15 0.472070 0.877054 0.172485
#
# Coordination Sequence:
#
# PCOD9103183 Si02
#       8
#     2   2   1   2   2   2   2   2
#     4  11  26  43  70 103 136 180 234 281 343 415
#     4  11  24  43  70  97 141 180 224 282 345 398
#     4  12  22  46  72  98 136 180 222 288 344 408
#     4  10  20  38  65  91 128 176 222 276 331 401
#     4  11  25  43  70 100 136 179 230 282 342 414
#     4  11  24  45  68  99 140 181 223 283 343 404
#     4  10  21  38  62  95 130 172 224 277 329 403
#     4  10  21  38  64  92 132 170 226 272 337 393
#
# _framework density 25.786812000000001
#
# number of rings (size 3 to 8) (size 9 to 14) (size 15 to 20)
#    0.000    1.333    2.667    2.400    3.733    0.000 
#    0.000    0.000    0.000    0.000    0.000    0.000 
#    0.000    0.000    0.000    0.000    0.000    0.000 
#
# Total GULP energy -83691.218366 kJ/mol
# GULP energy per Si atom -5579.414558 kJ/mol
# Density = 2.572812 g / cm^3
# Si number density = 25.786812 Si / 1000 Ang^3
#
#
#
# Elastic Constant Matrix: (Units=GPa)
#
#
# Indices 1 2 3 4 5 6 
#
# 1 106.0085 16.7951 16.9840 4.8006 1.7693 -9.8079
# 2 16.7951 121.7151 25.4107 42.5057 6.6413 -9.4842
# 3 16.9840 25.4107 116.9382 25.0357 3.4705 -6.8604
# 4 4.8006 42.5057 25.0357 54.8319 3.5379 3.9521
# 5 1.7693 6.6413 3.4705 3.5379 29.6102 -8.7897
# 6 -9.8079 -9.4842 -6.8604 3.9521 -8.7897 34.7323
#
#
#
# Elastic Compliance Matrix: (Units=1/GPa)
#
#
# Indices 1 2 3 4 5 6 
#
# 1 0.009988 -0.001076 -0.001151 0.000285 0.000452 0.002381
# 2 -0.001076 0.012006 -0.000205 -0.009382 -0.000320 0.003921
# 3 -0.001151 -0.000205 0.009820 -0.004382 0.000106 0.002084
# 4 0.000285 -0.009382 -0.004382 0.028201 -0.002935 -0.007299
# 5 0.000452 -0.000320 0.000106 -0.002935 0.037056 0.009773
# 6 0.002381 0.003921 0.002084 -0.007299 0.009773 0.034250
#
#
# Mechanical properties :
#
#
# Convention : Reuss Voigt Hill
#
# Bulk Modulus (GPa) = 37.10603 51.44904 44.27753
# Shear Modulus (GPa) = 34.44215 42.86635 38.65425
#
# Velocity S-wave (km/s) = 3.65862 4.08160 3.87588
# Velocity P-wave (km/s) = 5.68050 6.49674 6.10228
#
# Compressibility (1/GPa) = 0.02694980
#
# Stress axis : x y z
#
# Youngs Moduli (GPa) = 100.11927 83.28893 101.82874
#
# Poissons Ratio (x) = 0.08966 0.11725
# Poissons Ratio (y) = 0.10778 0.02083
# Poissons Ratio (z) = 0.11529 0.01704
#
# Static dielectric constant tensor:
#      x y z
#    x 1.752290 -0.210100 -0.248580 
#    y -0.210100 2.036640 -0.096350 
#    z -0.248580 -0.096350 1.828320 
# 
# From -- ./inp_files/137676.got.cif
#   From: 2010.05.17/outbox.cif.g08.bks.cpg/sg2_69_cif.got.tgz:137676.got - 2010.06.03 11:33:40.
