data_PCOD9103885
_publ_section_title
;
Structure prediction by ZEFSAII (Michael W. Deem and Ramdas Pophale) SiO2 
 PCOD9103885
Probable space group: P -1
;
_chemical_formula_sum "Si O2"
_cell_formula_units_Z 16
_cell_length_a 17.127516
_cell_length_b 11.052546
_cell_length_c 22.453669
_cell_angle_alpha 31.584205
_cell_angle_beta 158.335791
_cell_angle_gamma 146.742428
_cell_volume 799.768728
_symmetry_space_group_name_H-M "P -1"
_symmetry_group_IT_number 2
_symmetry_cell_setting 'triclinic'
loop_
_space_group_symop_operation_xyz
x,y,z
-x,-y,-z
loop_
_atom_site_type_symbol
_atom_site_label
_atom_site_fract_x
_atom_site_fract_y
_atom_site_fract_z
Si Si1 0.243563 0.231997 0.904942
Si Si2 0.561134 0.984288 0.449724
Si Si3 0.063144 0.070091 0.423438
Si Si4 0.372443 0.740449 0.740540
Si Si5 0.681678 0.755824 0.346997
Si Si6 0.712643 0.581477 0.655683
Si Si7 0.204016 0.740421 0.386064
Si Si8 0.201471 0.720465 0.061759
O O1 0.302601 0.454956 0.808809
O O2 0.052066 0.283220 0.788858
O O3 0.448737 0.213517 0.099095
O O4 0.159690 0.980459 0.918926
O O5 0.548444 0.137686 0.317341
O O6 0.712571 0.132717 0.545659
O O7 0.653809 0.757750 0.590032
O O8 0.331890 0.889519 0.359707
O O9 0.174196 0.858738 0.569188
O O10 0.817619 0.964435 0.314277
O O11 0.207232 0.185360 0.533922
O O12 0.096788 0.264925 0.313677
O O13 0.733407 0.511346 0.465293
O O14 0.423940 0.727428 0.180906
O O15 0.500000 0.500000 0.500000
O O16 0.751906 0.341345 0.811345
O O17 0.000000 0.500000 0.000000
#
# Coordination Sequence:
#
# PCOD9103885 Si02
#       8
#     2   2   2   2   2   2   2   2
#     4  11  23  39  62  93 127 163 199 261 326 364
#     4  10  22  38  63  90 123 161 211 254 300 379
#     4  10  20  38  69  93 117 158 225 262 296 366
#     4  10  21  41  62  95 124 159 209 261 317 366
#     4  11  21  40  64  93 120 166 208 259 303 373
#     4  11  19  40  66  93 116 165 219 257 299 371
#     4  11  22  39  62  92 124 162 205 250 315 371
#     4  12  24  40  62  91 131 167 200 254 322 377
#
# _framework density 20.005783999999998
#
# number of rings (size 3 to 8) (size 9 to 14) (size 15 to 20)
#    0.000    1.250    5.000    1.500    1.750    1.000 
#    2.250    1.875    0.000    0.000    0.000    0.000 
#    0.000    0.000    0.000    0.000    0.000    0.000 
#
# Total GULP energy -89326.520103 kJ/mol
# GULP energy per Si atom -5582.907506 kJ/mol
# Density = 1.996025 g / cm^3
# Si number density = 20.005784 Si / 1000 Ang^3
#
#
#
# Elastic Constant Matrix: (Units=GPa)
#
#
# Indices 1 2 3 4 5 6 
#
# 1 76.5794 27.6802 2.2778 -1.7275 11.6611 11.8573
# 2 27.6802 121.7449 16.1929 -9.8305 15.3152 1.4378
# 3 2.2778 16.1929 34.8537 1.8556 23.1366 10.3822
# 4 -1.7275 -9.8305 1.8556 35.4296 4.6585 8.3392
# 5 11.6611 15.3152 23.1366 4.6585 28.0846 2.6244
# 6 11.8573 1.4378 10.3822 8.3392 2.6244 43.0372
#
#
#
# Elastic Compliance Matrix: (Units=1/GPa)
#
#
# Indices 1 2 3 4 5 6 
#
# 1 0.017592 -0.003384 0.013253 0.003131 -0.016191 -0.007550
# 2 -0.003384 0.009875 -0.004062 0.002676 -0.001184 0.001136
# 3 0.013253 -0.004062 0.082459 0.009437 -0.070830 -0.020917
# 4 0.003131 0.002676 0.009437 0.032649 -0.015143 -0.008631
# 5 -0.016191 -0.001184 -0.070830 -0.015143 0.102129 0.018294
# 6 -0.007550 0.001136 -0.020917 -0.008631 0.018294 0.030881
#
#
# Mechanical properties :
#
#
# Convention : Reuss Voigt Hill
#
# Bulk Modulus (GPa) = 8.22762 36.16442 22.19602
# Shear Modulus (GPa) = 16.42118 33.77875 25.09996
#
# Velocity S-wave (km/s) = 2.86811 4.11353 3.54593
# Velocity P-wave (km/s) = 3.88453 6.37791 5.28050
#
# Compressibility (1/GPa) = 0.12154187
#
# Stress axis : x y z
#
# Youngs Moduli (GPa) = 56.84263 101.26485 12.12718
#
# Poissons Ratio (x) = 0.34266 -0.16072
# Poissons Ratio (y) = 0.19234 0.04925
# Poissons Ratio (z) = -0.75332 0.41129
#
# Static dielectric constant tensor:
#      x y z
#    x 1.708140 0.000530 -0.005060 
#    y 0.000530 1.746940 0.019490 
#    z -0.005060 0.019490 1.607890 
# 
# From -- ./inp_files/436324.got.cif
#   From: 2010.05.17/outbox.cif.g08.bks.cpg/sg2_219_cif.got.tgz:436324.got - 2010.06.03 11:33:40.
