data_PCOD9103117
_publ_section_title
;
Structure prediction by ZEFSAII (Michael W. Deem and Ramdas Pophale) SiO2 
 PCOD9103117
Probable space group: P -1
;
_chemical_formula_sum "Si O2"
_cell_formula_units_Z 16
_cell_length_a 13.576687
_cell_length_b 12.908168
_cell_length_c 8.145326
_cell_angle_alpha 58.302318
_cell_angle_beta 89.646497
_cell_angle_gamma 136.642947
_cell_volume 623.044885
_symmetry_space_group_name_H-M "P -1"
_symmetry_group_IT_number 2
_symmetry_cell_setting 'triclinic'
loop_
_space_group_symop_operation_xyz
x,y,z
-x,-y,-z
loop_
_atom_site_type_symbol
_atom_site_label
_atom_site_fract_x
_atom_site_fract_y
_atom_site_fract_z
Si Si1 0.782702 0.273615 0.897697
Si Si2 0.473841 0.545829 0.192757
Si Si3 0.478257 0.815517 0.486731
Si Si4 0.270566 0.054959 0.361269
Si Si5 0.735377 0.827658 0.247483
Si Si6 0.137543 0.307315 0.745678
Si Si7 0.149974 0.390123 0.297860
Si Si8 0.770653 0.244229 0.543898
O O1 0.768083 0.386813 0.898552
O O2 0.725913 0.228524 0.745733
O O3 0.009524 0.486804 0.717752
O O4 0.650662 0.033472 0.181107
O O5 0.576495 0.707898 0.222163
O O6 0.363033 0.311201 0.462871
O O7 0.310907 0.462700 0.196638
O O8 0.642563 0.732201 0.901849
O O9 0.579274 0.846289 0.600333
O O10 0.309331 0.558689 0.620857
O O11 0.368329 0.826127 0.511698
O O12 0.248348 0.919940 0.343486
O O13 0.051722 0.840835 0.600404
O O14 0.797141 0.763449 0.217630
O O15 0.937642 0.109581 0.009556
O O16 0.106006 0.321294 0.549356
#
# Coordination Sequence:
#
# PCOD9103117 Si02
#       8
#     2   2   2   2   2   2   2   2
#     4  10  22  38  61  94 121 164 208 244 291 351
#     4  10  20  38  66  88 115 157 207 248 313 359
#     4  12  24  39  61  93 130 164 196 249 308 360
#     4  11  24  38  61  94 129 161 198 246 310 365
#     4   9  20  38  66  92 109 157 211 263 298 358
#     4  10  20  39  63  90 120 152 209 257 298 357
#     4  10  20  38  65  87 122 161 203 251 289 370
#     4  10  22  39  61  91 127 163 205 248 281 370
#
# _framework density 25.680334999999999
#
# number of rings (size 3 to 8) (size 9 to 14) (size 15 to 20)
#    0.000    1.750    2.500    1.500    3.500    3.000 
#    2.250    1.250    0.000    0.000    0.000    0.000 
#    0.000    0.000    0.000    0.000    0.000    0.000 
#
# Total GULP energy -89606.027800 kJ/mol
# GULP energy per Si atom -5600.376737 kJ/mol
# Density = 2.562189 g / cm^3
# Si number density = 25.680335 Si / 1000 Ang^3
#
#
#
# Elastic Constant Matrix: (Units=GPa)
#
#
# Indices 1 2 3 4 5 6 
#
# 1 79.8229 24.9906 11.4045 -1.6099 -8.5411 17.9487
# 2 24.9906 92.6747 49.3922 -23.8666 2.6407 36.1654
# 3 11.4045 49.3922 160.4751 -33.6358 1.1189 12.0922
# 4 -1.6099 -23.8666 -33.6358 33.5918 6.7453 6.9756
# 5 -8.5411 2.6407 1.1189 6.7453 25.0372 -5.4884
# 6 17.9487 36.1654 12.0922 6.9756 -5.4884 43.4958
#
#
#
# Elastic Compliance Matrix: (Units=1/GPa)
#
#
# Indices 1 2 3 4 5 6 
#
# 1 0.014875 -0.005173 -0.000537 -0.004892 0.006956 -0.000026
# 2 -0.005173 0.039396 0.000211 0.041625 -0.026053 -0.040643
# 3 -0.000537 0.000211 0.008886 0.010932 -0.004590 -0.004757
# 4 -0.004892 0.041625 0.010932 0.090226 -0.043028 -0.055529
# 5 0.006956 -0.026053 -0.004590 -0.043028 0.064556 0.035114
# 6 -0.000026 -0.040643 -0.004757 -0.055529 0.035114 0.071453
#
#
# Mechanical properties :
#
#
# Convention : Reuss Voigt Hill
#
# Bulk Modulus (GPa) = 19.17197 56.06082 37.61640
# Shear Modulus (GPa) = 15.73430 36.90399 26.31915
#
# Velocity S-wave (km/s) = 2.47796 3.79496 3.20484
# Velocity P-wave (km/s) = 3.95839 6.40936 5.32676
#
# Compressibility (1/GPa) = 0.05215948
#
# Stress axis : x y z
#
# Youngs Moduli (GPa) = 67.22485 25.38360 112.53050
#
# Poissons Ratio (x) = 0.13131 0.06040
# Poissons Ratio (y) = 0.34777 -0.02374
# Poissons Ratio (z) = 0.03608 -0.00536
#
# Static dielectric constant tensor:
#      x y z
#    x 2.030950 -0.029300 0.000140 
#    y -0.029300 2.012860 -0.000200 
#    z 0.000140 -0.000200 2.005920 
# 
# From -- ./inp_files/314682.got.cif
#   From: 2010.05.17/outbox.cif.g08.bks.cpg/sg2_158_cif.got.tgz:314682.got - 2010.06.03 11:33:40.
