data_PCOD9103868
_publ_section_title
;
Structure prediction by ZEFSAII (Michael W. Deem and Ramdas Pophale) SiO2 
 PCOD9103868
Probable space group: P -1
;
_chemical_formula_sum "Si O2"
_cell_formula_units_Z 16
_cell_length_a 5.951975
_cell_length_b 22.852545
_cell_length_c 17.306539
_cell_angle_alpha 22.877414
_cell_angle_beta 86.095354
_cell_angle_gamma 98.109873
_cell_volume 776.801172
_symmetry_space_group_name_H-M "P -1"
_symmetry_group_IT_number 2
_symmetry_cell_setting 'triclinic'
loop_
_space_group_symop_operation_xyz
x,y,z
-x,-y,-z
loop_
_atom_site_type_symbol
_atom_site_label
_atom_site_fract_x
_atom_site_fract_y
_atom_site_fract_z
Si Si1 0.502124 0.668456 0.496653
Si Si2 0.192424 0.409030 0.314437
Si Si3 0.301527 0.070515 0.943970
Si Si4 0.630554 0.077615 0.725486
Si Si5 0.070848 0.873758 0.606296
Si Si6 0.367974 0.322875 0.266756
Si Si7 0.554514 0.993496 0.350459
Si Si8 0.015455 0.665198 0.009457
O O1 0.739899 0.640109 0.545911
O O2 0.527515 0.726900 0.336258
O O3 0.534730 0.841713 0.329818
O O4 0.240583 0.490990 0.749842
O O5 0.367072 0.384593 0.277929
O O6 0.216787 0.595019 0.088360
O O7 0.899908 0.260161 0.478403
O O8 0.500000 0.000000 0.000000
O O9 0.293260 0.026910 0.088173
O O10 0.000000 0.000000 0.000000
O O11 0.511412 0.977737 0.769783
O O12 0.371685 0.986165 0.433641
O O13 0.911088 0.798496 0.622060
O O14 0.992332 0.713836 0.862633
O O15 0.000000 0.000000 0.500000
O O16 0.491720 0.201792 0.410147
O O17 0.500000 0.500000 0.000000
O O18 0.850088 0.150355 0.172486
#
# Coordination Sequence:
#
# PCOD9103868 Si02
#       8
#     2   2   2   2   2   2   2   2
#     4  10  21  40  65  95 127 168 214 269 329 393
#     4  11  21  39  63  91 127 161 213 270 327 382
#     4  10  20  38  69 103 134 169 221 280 339 399
#     4  10  21  39  64  97 123 167 217 270 322 394
#     4  12  26  42  60  88 126 174 218 261 332 393
#     4  12  25  38  64  91 123 166 217 277 320 379
#     4  12  25  43  61  92 130 171 218 263 330 396
#     4  11  26  39  62  91 130 172 217 265 330 402
#
# _framework density 20.597290999999998
#
# number of rings (size 3 to 8) (size 9 to 14) (size 15 to 20)
#    0.000    1.000    5.000    1.875    5.250    1.000 
#    0.000    0.625    0.000    0.750    0.000    0.000 
#    0.000    0.000    0.000    0.000    0.000    0.000 
#
# Total GULP energy -89089.852860 kJ/mol
# GULP energy per Si atom -5568.115804 kJ/mol
# Density = 2.055041 g / cm^3
# Si number density = 20.597291 Si / 1000 Ang^3
#
#
#
# Elastic Constant Matrix: (Units=GPa)
#
#
# Indices 1 2 3 4 5 6 
#
# 1 68.0008 15.8886 24.7010 4.9701 14.7770 6.4773
# 2 15.8886 63.3326 35.1416 15.2933 9.4336 13.6006
# 3 24.7010 35.1416 107.2997 20.4312 13.8819 6.1836
# 4 4.9701 15.2933 20.4312 30.6059 7.7935 8.5405
# 5 14.7770 9.4336 13.8819 7.7935 43.6722 2.2894
# 6 6.4773 13.6006 6.1836 8.5405 2.2894 33.7471
#
#
#
# Elastic Compliance Matrix: (Units=1/GPa)
#
#
# Indices 1 2 3 4 5 6 
#
# 1 0.017344 -0.002012 -0.002975 0.001980 -0.004729 -0.002153
# 2 -0.002012 0.021925 -0.005239 -0.005132 -0.001154 -0.006113
# 3 -0.002975 -0.005239 0.012835 -0.005724 -0.001017 0.001848
# 4 0.001980 -0.005132 -0.005724 0.042091 -0.004855 -0.007586
# 5 -0.004729 -0.001154 -0.001017 -0.004855 0.025883 0.001032
# 6 -0.002153 -0.006113 0.001848 -0.007586 0.001032 0.034020
#
#
# Mechanical properties :
#
#
# Convention : Reuss Voigt Hill
#
# Bulk Modulus (GPa) = 31.59178 43.34395 37.46787
# Shear Modulus (GPa) = 27.01228 32.46517 29.73873
#
# Velocity S-wave (km/s) = 3.62532 3.97443 3.80388
# Velocity P-wave (km/s) = 5.73542 6.49235 6.12559
#
# Compressibility (1/GPa) = 0.03165380
#
# Stress axis : x y z
#
# Youngs Moduli (GPa) = 57.65532 45.60979 77.90998
#
# Poissons Ratio (x) = 0.09176 0.23178
# Poissons Ratio (y) = 0.11599 0.40815
# Poissons Ratio (z) = 0.17152 0.23894
#
# Static dielectric constant tensor:
#      x y z
#    x 1.888870 -0.025790 -0.064590 
#    y -0.025790 1.790310 0.066830 
#    z -0.064590 0.066830 1.815730 
# 
# From -- ./inp_files/38894.got.cif
#   From: 2010.05.17/outbox.cif.g08.bks.cpg/sg2_20_cif.got.tgz:38894.got - 2010.06.03 11:33:40.
