data_PCOD9103617
_publ_section_title
;
Structure prediction by ZEFSAII (Michael W. Deem and Ramdas Pophale) SiO2 
 PCOD9103617
Probable space group: P -1
;
_chemical_formula_sum "Si O2"
_cell_formula_units_Z 16
_cell_length_a 14.073782
_cell_length_b 15.044004
_cell_length_c 11.102385
_cell_angle_alpha 151.323585
_cell_angle_beta 66.984675
_cell_angle_gamma 132.288822
_cell_volume 690.429544
_symmetry_space_group_name_H-M "P -1"
_symmetry_group_IT_number 2
_symmetry_cell_setting 'triclinic'
loop_
_space_group_symop_operation_xyz
x,y,z
-x,-y,-z
loop_
_atom_site_type_symbol
_atom_site_label
_atom_site_fract_x
_atom_site_fract_y
_atom_site_fract_z
Si Si1 0.836072 0.842345 0.058999
Si Si2 0.024540 0.471384 0.697052
Si Si3 0.167039 0.419114 0.041355
Si Si4 0.448512 0.948079 0.656207
Si Si5 0.811396 0.497582 0.144107
Si Si6 0.307743 0.367715 0.466129
Si Si7 0.396995 0.292211 0.119927
Si Si8 0.263281 0.602869 0.575693
O O1 0.865435 0.808466 0.137249
O O2 0.654327 0.640052 0.879419
O O3 0.861384 0.703509 0.791073
O O4 0.917578 0.144661 0.348697
O O5 0.931821 0.537700 0.808400
O O6 0.092919 0.531793 0.869167
O O7 0.167330 0.633559 0.727062
O O8 0.349243 0.699238 0.314168
O O9 0.138113 0.378011 0.865634
O O10 0.376379 0.816116 0.667499
O O11 0.633454 0.186696 0.851646
O O12 0.403182 0.098827 0.833045
O O13 0.809835 0.678845 0.446197
O O14 0.278964 0.171124 0.147272
O O15 0.437900 0.465700 0.608197
O O16 0.351303 0.596568 0.625370
#
# Coordination Sequence:
#
# PCOD9103617 Si02
#       8
#     2   2   2   2   2   2   2   2
#     4  10  21  38  62  88 125 158 205 254 294 366
#     4  11  22  41  63  89 124 162 201 254 305 355
#     4  11  23  41  65  88 122 168 208 240 300 366
#     4  10  20  38  67  90 123 156 203 258 305 359
#     4  10  22  39  62  89 125 165 201 248 301 363
#     4   8  17  33  58  83 122 155 191 251 303 348
#     4   9  16  34  58  86 119 153 194 252 305 345
#     4   9  20  37  63  96 118 156 202 255 315 356
#
# _framework density 23.173978999999999
#
# number of rings (size 3 to 8) (size 9 to 14) (size 15 to 20)
#    0.000    2.250    1.250    1.125    0.000    7.000 
#    6.750    2.500   24.750    0.000    0.000    0.000 
#    0.000    0.000    0.000    0.000    0.000    0.000 
#
# Total GULP energy -89207.351599 kJ/mol
# GULP energy per Si atom -5575.459475 kJ/mol
# Density = 2.312123 g / cm^3
# Si number density = 23.173979 Si / 1000 Ang^3
#
#
#
# Elastic Constant Matrix: (Units=GPa)
#
#
# Indices 1 2 3 4 5 6 
#
# 1 123.1721 30.8779 3.8393 11.0081 6.8662 -20.0568
# 2 30.8779 66.2735 -0.6223 -3.3138 1.5386 -25.4242
# 3 3.8393 -0.6223 28.8136 1.0789 9.2279 -0.5674
# 4 11.0081 -3.3138 1.0789 21.2078 -1.2126 4.2591
# 5 6.8662 1.5386 9.2279 -1.2126 31.3312 -4.3074
# 6 -20.0568 -25.4242 -0.5674 4.2591 -4.3074 32.2781
#
#
#
# Elastic Compliance Matrix: (Units=1/GPa)
#
#
# Indices 1 2 3 4 5 6 
#
# 1 0.010438 -0.003475 -0.000609 -0.006912 -0.001595 0.004437
# 2 -0.003475 0.022837 0.000634 0.002271 0.001709 0.015768
# 3 -0.000609 0.000634 0.038517 -0.002106 -0.011384 -0.000443
# 4 -0.006912 0.002271 -0.002106 0.053209 0.002820 -0.009188
# 5 -0.001595 0.001709 -0.011384 0.002820 0.036281 0.004624
# 6 0.004437 0.015768 -0.000443 -0.009188 0.004624 0.047979
#
#
# Mechanical properties :
#
#
# Convention : Reuss Voigt Hill
#
# Bulk Modulus (GPa) = 15.41019 31.82769 23.61894
# Shear Modulus (GPa) = 21.02685 29.24103 25.13394
#
# Velocity S-wave (km/s) = 3.01549 3.55604 3.29686
# Velocity P-wave (km/s) = 4.33456 5.53395 4.97057
#
# Compressibility (1/GPa) = 0.06489212
#
# Stress axis : x y z
#
# Youngs Moduli (GPa) = 95.80228 43.78858 25.96270
#
# Poissons Ratio (x) = 0.15219 0.01581
# Poissons Ratio (y) = 0.33296 -0.01647
# Poissons Ratio (z) = 0.05833 -0.02778
#
# Static dielectric constant tensor:
#      x y z
#    x 1.887080 0.016630 0.035480 
#    y 0.016630 1.885570 0.003600 
#    z 0.035480 0.003600 1.946890 
# 
# From -- ./inp_files/455242.got.cif
#   From: 2010.05.17/outbox.cif.g08.bks.cpg/sg2_228_cif.got.tgz:455242.got - 2010.06.03 11:33:40.
