data_PCOD9103863
_publ_section_title
;
Structure prediction by ZEFSAII (Michael W. Deem and Ramdas Pophale) SiO2 
 PCOD9103863
Probable space group: P -1
;
_chemical_formula_sum "Si O2"
_cell_formula_units_Z 15
_cell_length_a 12.273213
_cell_length_b 11.173710
_cell_length_c 8.087225
_cell_angle_alpha 68.282158
_cell_angle_beta 131.856989
_cell_angle_gamma 135.686618
_cell_volume 564.627251
_symmetry_space_group_name_H-M "P -1"
_symmetry_group_IT_number 2
_symmetry_cell_setting 'triclinic'
loop_
_space_group_symop_operation_xyz
x,y,z
-x,-y,-z
loop_
_atom_site_type_symbol
_atom_site_label
_atom_site_fract_x
_atom_site_fract_y
_atom_site_fract_z
Si Si1 0.500000 0.000000 0.500000
Si Si2 0.009631 0.357004 0.151285
Si Si3 0.981500 0.932091 0.202134
Si Si4 0.393208 0.250371 0.586045
Si Si5 0.421334 0.187545 0.109804
Si Si6 0.023641 0.692958 0.217334
Si Si7 0.590350 0.488522 0.352938
Si Si8 0.701053 0.280515 0.064109
O O1 0.585059 0.912424 0.689298
O O2 0.261256 0.810614 0.401825
O O3 0.815306 0.226390 0.134237
O O4 0.198345 0.437060 0.409008
O O5 0.016918 0.285424 0.024345
O O6 0.000000 0.500000 0.000000
O O7 0.955091 0.763628 0.234921
O O8 0.798355 0.898084 0.113151
O O9 0.177417 0.065052 0.441185
O O10 0.000000 0.000000 0.000000
O O11 0.435618 0.349972 0.407977
O O12 0.411717 0.360038 0.701481
O O13 0.570283 0.255232 0.790850
O O14 0.532330 0.383038 0.181794
O O15 0.541951 0.180548 0.098410
O O16 0.877790 0.482741 0.198343
#
# Coordination Sequence:
#
# PCOD9103863 Si02
#       8
#     1   2   2   2   2   2   2   2
#     4  12  26  42  76 104 138 182 234 286 366 430
#     4  10  20  38  69 101 136 183 232 285 336 419
#     4  12  23  41  72 104 142 184 241 289 351 416
#     4  11  23  40  70 106 138 188 236 292 342 420
#     4  12  27  46  71 106 141 186 234 299 359 421
#     4  11  23  42  75 104 139 188 234 286 349 427
#     4  11  21  39  71 102 135 185 246 275 344 430
#     4  11  26  46  70 104 147 183 239 296 348 416
#
# _framework density 26.566199000000001
#
# number of rings (size 3 to 8) (size 9 to 14) (size 15 to 20)
#    0.000    0.800    5.333    3.200    1.867    4.800 
#    0.000    0.667    0.000    0.000    0.000    0.000 
#    0.000    0.000    0.000    0.000    0.000    0.000 
#
# Total GULP energy -83811.211108 kJ/mol
# GULP energy per Si atom -5587.414074 kJ/mol
# Density = 2.650573 g / cm^3
# Si number density = 26.566199 Si / 1000 Ang^3
#
#
#
# Elastic Constant Matrix: (Units=GPa)
#
#
# Indices 1 2 3 4 5 6 
#
# 1 124.3841 25.0345 25.2925 12.8763 18.2433 10.9723
# 2 25.0345 76.1635 27.2168 28.0268 4.7956 2.8173
# 3 25.2925 27.2168 110.5863 28.7490 37.5793 13.1122
# 4 12.8763 28.0268 28.7490 32.1352 10.7626 5.9383
# 5 18.2433 4.7956 37.5793 10.7626 58.1878 4.7164
# 6 10.9723 2.8173 13.1122 5.9383 4.7164 25.0163
#
#
#
# Elastic Compliance Matrix: (Units=1/GPa)
#
#
# Indices 1 2 3 4 5 6 
#
# 1 0.009250 -0.002797 -0.000401 0.000432 -0.002230 -0.003214
# 2 -0.002797 0.020543 -0.001329 -0.017178 0.002966 0.003129
# 3 -0.000401 -0.001329 0.014653 -0.008612 -0.007316 -0.003931
# 4 0.000432 -0.017178 -0.008612 0.055812 -0.002960 -0.006432
# 5 -0.002230 0.002966 -0.007316 -0.002960 0.022842 0.000875
# 6 -0.003214 0.003129 -0.003931 -0.006432 0.000875 0.044454
#
#
# Mechanical properties :
#
#
# Convention : Reuss Voigt Hill
#
# Bulk Modulus (GPa) = 28.25527 51.80237 40.02882
# Shear Modulus (GPa) = 26.53876 38.64053 32.58965
#
# Velocity S-wave (km/s) = 3.16407 3.81793 3.50628
# Velocity P-wave (km/s) = 4.89973 6.24317 5.61179
#
# Compressibility (1/GPa) = 0.03539163
#
# Stress axis : x y z
#
# Youngs Moduli (GPa) = 108.10905 48.67894 68.24679
#
# Poissons Ratio (x) = 0.13616 0.02734
# Poissons Ratio (y) = 0.30238 0.09072
# Poissons Ratio (z) = 0.04331 0.06471
#
# Static dielectric constant tensor:
#      x y z
#    x 2.097730 0.059120 -0.070220 
#    y 0.059120 2.142220 -0.005730 
#    z -0.070220 -0.005730 2.019200 
# 
# From -- ./inp_files/258293.got.cif
#   From: 2010.05.17/outbox.cif.g08.bks.cpg/sg2_130_cif.got.tgz:258293.got - 2010.06.03 11:33:40.
