data_PCOD9103798
_publ_section_title
;
Structure prediction by ZEFSAII (Michael W. Deem and Ramdas Pophale) SiO2 
 PCOD9103798
Probable space group: P -1
;
_chemical_formula_sum "Si O2"
_cell_formula_units_Z 15
_cell_length_a 14.775599
_cell_length_b 11.237489
_cell_length_c 9.787592
_cell_angle_alpha 70.629363
_cell_angle_beta 98.345222
_cell_angle_gamma 149.111848
_cell_volume 753.703321
_symmetry_space_group_name_H-M "P -1"
_symmetry_group_IT_number 2
_symmetry_cell_setting 'triclinic'
loop_
_space_group_symop_operation_xyz
x,y,z
-x,-y,-z
loop_
_atom_site_type_symbol
_atom_site_label
_atom_site_fract_x
_atom_site_fract_y
_atom_site_fract_z
Si Si1 0.255805 0.521434 0.310126
Si Si2 0.435168 0.280878 0.276830
Si Si3 0.433376 0.299528 0.745768
Si Si4 0.356206 0.713974 0.567630
Si Si5 0.162813 0.928606 0.585179
Si Si6 0.500000 0.000000 0.000000
Si Si7 0.044149 0.511808 0.661560
Si Si8 0.666595 0.970265 0.916118
O O1 0.369493 0.529294 0.306367
O O2 0.304058 0.626654 0.432689
O O3 0.338963 0.721034 0.145860
O O4 0.035708 0.249809 0.359848
O O5 0.536843 0.530249 0.244157
O O6 0.551212 0.300319 0.348263
O O7 0.242003 0.048298 0.405825
O O8 0.401336 0.214652 0.135881
O O9 0.315897 0.161263 0.634669
O O10 0.327102 0.081428 0.911865
O O11 0.178550 0.553380 0.668756
O O12 0.500000 0.000000 0.500000
O O13 0.138750 0.747811 0.660067
O O14 0.469719 0.074980 0.080870
O O15 0.000000 0.500000 0.500000
O O16 0.859668 0.254223 0.797059
#
# Coordination Sequence:
#
# PCOD9103798 Si02
#       8
#     2   2   2   2   2   1   2   2
#     4  11  22  41  65  99 132 176 219 273 344 388
#     4  12  24  45  69  93 139 180 228 273 325 407
#     4  11  27  46  62  99 139 185 222 270 334 403
#     4  12  21  37  67 100 129 167 225 280 334 386
#     4  12  23  42  72  97 135 172 226 281 325 400
#     4  10  20  38  68  94 136 162 212 274 348 392
#     4  12  20  40  67 102 129 164 226 280 340 390
#     4  11  23  44  69  94 135 176 219 280 341 395
#
# _framework density 19.901729
#
# number of rings (size 3 to 8) (size 9 to 14) (size 15 to 20)
#    0.000    0.533    6.667    1.600    0.000    2.133 
#    9.600    0.667    0.000    0.000    0.000    0.000 
#    0.000    0.000    0.000    0.000    0.000    0.000 
#
# Total GULP energy -83586.134176 kJ/mol
# GULP energy per Si atom -5572.408945 kJ/mol
# Density = 1.985643 g / cm^3
# Si number density = 19.901729 Si / 1000 Ang^3
#
#
#
# Elastic Constant Matrix: (Units=GPa)
#
#
# Indices 1 2 3 4 5 6 
#
# 1 103.6927 36.8825 15.2403 -1.3316 -20.7778 -2.2892
# 2 36.8825 51.5019 1.8869 -0.5732 -12.2362 -6.5052
# 3 15.2403 1.8869 57.5498 -6.2379 -24.6889 15.6802
# 4 -1.3316 -0.5732 -6.2379 22.2920 -4.2525 -9.3448
# 5 -20.7778 -12.2362 -24.6889 -4.2525 30.6618 -0.0331
# 6 -2.2892 -6.5052 15.6802 -9.3448 -0.0331 45.2013
#
#
#
# Elastic Compliance Matrix: (Units=1/GPa)
#
#
# Indices 1 2 3 4 5 6 
#
# 1 0.013972 -0.008649 -0.000948 0.001425 0.005451 0.000090
# 2 -0.008649 0.028371 0.005841 0.005039 0.010866 0.002669
# 3 -0.000948 0.005841 0.034418 0.012029 0.031061 -0.008637
# 4 0.001425 0.005039 0.012029 0.055755 0.020403 0.008166
# 5 0.005451 0.010866 0.031061 0.020403 0.068478 -0.004667
# 6 0.000090 0.002669 -0.008637 0.008166 -0.004667 0.027193
#
#
# Mechanical properties :
#
#
# Convention : Reuss Voigt Hill
#
# Bulk Modulus (GPa) = 14.44080 35.64041 25.04061
# Shear Modulus (GPa) = 19.32110 30.21332 24.76721
#
# Velocity S-wave (km/s) = 3.11919 3.90054 3.53154
# Velocity P-wave (km/s) = 4.49936 6.18326 5.40726
#
# Compressibility (1/GPa) = 0.06924825
#
# Stress axis : x y z
#
# Youngs Moduli (GPa) = 71.57124 35.24687 29.05436
#
# Poissons Ratio (x) = 0.30485 0.02756
# Poissons Ratio (y) = 0.61902 -0.16970
# Poissons Ratio (z) = 0.06788 -0.20587
#
# Static dielectric constant tensor:
#      x y z
#    x 1.722430 0.019520 0.016860 
#    y 0.019520 1.685250 -0.001890 
#    z 0.016860 -0.001890 1.684020 
# 
# From -- ./inp_files/181233.got.cif
#   From: 2010.05.17/outbox.cif.g08.bks.cpg/sg2_91_cif.got.tgz:181233.got - 2010.06.03 11:33:40.
