data_PCOD9103080
_publ_section_title
;
Structure prediction by ZEFSAII (Michael W. Deem and Ramdas Pophale) SiO2 
 PCOD9103080
Probable space group: P -1
;
_chemical_formula_sum "Si O2"
_cell_formula_units_Z 16
_cell_length_a 16.643994
_cell_length_b 10.363276
_cell_length_c 14.114196
_cell_angle_alpha 45.888443
_cell_angle_beta 150.287998
_cell_angle_gamma 147.601149
_cell_volume 640.129687
_symmetry_space_group_name_H-M "P -1"
_symmetry_group_IT_number 2
_symmetry_cell_setting 'triclinic'
loop_
_space_group_symop_operation_xyz
x,y,z
-x,-y,-z
loop_
_atom_site_type_symbol
_atom_site_label
_atom_site_fract_x
_atom_site_fract_y
_atom_site_fract_z
Si Si1 0.142301 0.928315 0.212385
Si Si2 0.253840 0.179198 0.693578
Si Si3 0.932812 0.155910 0.165653
Si Si4 0.009501 0.561683 0.103344
Si Si5 0.262080 0.695263 0.659284
Si Si6 0.489695 0.713380 0.716623
Si Si7 0.500286 0.883030 0.156889
Si Si8 0.864812 0.778492 0.177056
O O1 0.057838 0.847906 0.272893
O O2 0.395770 0.144941 0.336630
O O3 0.069382 0.706885 0.186315
O O4 0.000000 0.000000 0.000000
O O5 0.332855 0.429371 0.682689
O O6 0.385770 0.210736 0.721118
O O7 0.261833 0.042238 0.859526
O O8 0.000000 0.000000 0.500000
O O9 0.905576 0.256979 0.991026
O O10 0.986862 0.996565 0.266574
O O11 0.083397 0.408895 0.248942
O O12 0.743832 0.349797 0.939355
O O13 0.372461 0.778110 0.625983
O O14 0.290766 0.503764 0.811612
O O15 0.000000 0.500000 0.500000
O O16 0.365578 0.912816 0.728096
O O17 0.697460 0.789242 0.948585
O O18 0.500000 0.000000 0.000000
#
# Coordination Sequence:
#
# PCOD9103080 Si02
#       8
#     2   2   2   2   2   2   2   2
#     4  10  20  38  65 100 127 158 210 281 322 381
#     4  12  26  44  62  93 136 175 214 269 334 394
#     4  11  23  39  65  93 135 163 208 272 331 376
#     4  11  22  40  63 103 130 161 220 280 326 379
#     4  12  26  43  64  97 135 173 219 274 328 394
#     4  11  22  42  71  93 122 172 225 265 323 392
#     4  12  24  41  68  98 129 174 224 273 327 388
#     4  11  22  41  69  97 127 163 221 268 328 383
#
# _framework density 24.994935000000002
#
# number of rings (size 3 to 8) (size 9 to 14) (size 15 to 20)
#    0.000    0.750    5.000    4.875    1.750    0.000 
#    0.000    2.500    0.000    0.000    0.000    0.000 
#    0.000    0.000    0.000    0.000    0.000    0.000 
#
# Total GULP energy -89366.948905 kJ/mol
# GULP energy per Si atom -5585.434307 kJ/mol
# Density = 2.493805 g / cm^3
# Si number density = 24.994935 Si / 1000 Ang^3
#
#
#
# Elastic Constant Matrix: (Units=GPa)
#
#
# Indices 1 2 3 4 5 6 
#
# 1 222.7097 71.5446 30.2294 16.0750 10.7895 -13.8025
# 2 71.5446 166.9683 13.9662 23.6640 -19.6161 -21.4278
# 3 30.2294 13.9662 67.5726 19.3686 8.3833 3.3411
# 4 16.0750 23.6640 19.3686 38.9935 4.9787 -4.6918
# 5 10.7895 -19.6161 8.3833 4.9787 31.9322 4.3858
# 6 -13.8025 -21.4278 3.3411 -4.6918 4.3858 70.5395
#
#
#
# Elastic Compliance Matrix: (Units=1/GPa)
#
#
# Indices 1 2 3 4 5 6 
#
# 1 0.005766 -0.002725 -0.001832 0.000690 -0.003337 0.000641
# 2 -0.002725 0.008864 -0.000141 -0.004907 0.006975 0.001406
# 3 -0.001832 -0.000141 0.018411 -0.008143 -0.002806 -0.001640
# 4 0.000690 -0.004907 -0.008143 0.033420 -0.006548 0.001660
# 5 -0.003337 0.006975 -0.002806 -0.006548 0.038657 -0.001240
# 6 0.000641 0.001406 -0.001640 0.001660 -0.001240 0.014994
#
#
# Mechanical properties :
#
#
# Convention : Reuss Voigt Hill
#
# Bulk Modulus (GPa) = 42.29225 76.52567 59.40896
# Shear Modulus (GPa) = 36.39327 51.06042 43.72684
#
# Velocity S-wave (km/s) = 3.81993 4.52467 4.18715
# Velocity P-wave (km/s) = 6.03431 7.61445 6.86996
#
# Compressibility (1/GPa) = 0.02364499
#
# Stress axis : x y z
#
# Youngs Moduli (GPa) = 173.43979 112.81647 54.31571
#
# Poissons Ratio (x) = 0.30741 0.09948
# Poissons Ratio (y) = 0.47261 0.00768
# Poissons Ratio (z) = 0.31766 0.01594
#
# Static dielectric constant tensor:
#      x y z
#    x 2.008290 -0.006450 -0.027190 
#    y -0.006450 1.977500 -0.100750 
#    z -0.027190 -0.100750 2.100500 
# 
# From -- ./inp_files/528308.got.cif
#   From: 2010.05.17/outbox.cif.g08.bks.cpg/sg2_265_cif.got.tgz:528308.got - 2010.06.03 11:33:40.
