data_PCOD9103123
_publ_section_title
;
Structure prediction by ZEFSAII (Michael W. Deem and Ramdas Pophale) SiO2 
 PCOD9103123
Probable space group: P -1
;
_chemical_formula_sum "Si O2"
_cell_formula_units_Z 14
_cell_length_a 8.510241
_cell_length_b 7.635712
_cell_length_c 9.272304
_cell_angle_alpha 98.192658
_cell_angle_beta 90.864555
_cell_angle_gamma 78.850738
_cell_volume 585.077554
_symmetry_space_group_name_H-M "P -1"
_symmetry_group_IT_number 2
_symmetry_cell_setting 'triclinic'
loop_
_space_group_symop_operation_xyz
x,y,z
-x,-y,-z
loop_
_atom_site_type_symbol
_atom_site_label
_atom_site_fract_x
_atom_site_fract_y
_atom_site_fract_z
Si Si1 0.593324 0.086057 0.297691
Si Si2 0.305735 0.625389 0.475798
Si Si3 0.294321 0.368071 0.214171
Si Si4 0.923730 0.993911 0.156944
Si Si5 0.153546 0.385976 0.915382
Si Si6 0.689489 0.695114 0.364818
Si Si7 0.051508 0.243318 0.398556
O O1 0.639219 0.193883 0.450684
O O2 0.428655 0.201151 0.249954
O O3 0.738142 0.093113 0.187336
O O4 0.590374 0.878377 0.313303
O O5 0.322843 0.556891 0.303077
O O6 0.376208 0.444444 0.548884
O O7 0.116984 0.662593 0.524585
O O8 0.126664 0.345718 0.283196
O O9 0.281497 0.356734 0.042190
O O10 0.908435 0.790600 0.155999
O O11 0.022462 0.065493 0.294128
O O12 0.000000 0.000000 0.000000
O O13 0.233519 0.437813 0.778406
O O14 0.000000 0.500000 0.000000
O O15 0.818099 0.770940 0.475160
#
# Coordination Sequence:
#
# PCOD9103123 Si02
#       7
#     2   2   2   2   2   2   2
#     4  10  24  39  63  86 128 156 205 248 301 361
#     4  10  21  40  65  86 124 158 202 250 299 355
#     4  11  21  39  62  91 120 164 192 249 313 349
#     4  10  21  39  60  88 116 162 198 246 298 355
#     4  11  22  36  62  91 121 151 206 249 299 359
#     4  10  22  38  59  92 118 160 200 249 298 358
#     4  10  20  38  65  88 120 158 207 246 299 356
#
# _framework density 23.928450000000002
#
# number of rings (size 3 to 8) (size 9 to 14) (size 15 to 20)
#    0.000    1.714    1.429    3.857    2.000   10.857 
#    0.000    2.143    0.000    0.000    0.000    0.000 
#    0.000    0.000    0.000    0.000    0.000    0.000 
#
# Total GULP energy -78213.983645 kJ/mol
# GULP energy per Si atom -5586.713117 kJ/mol
# Density = 2.387399 g / cm^3
# Si number density = 23.928450 Si / 1000 Ang^3
#
#
#
# Elastic Constant Matrix: (Units=GPa)
#
#
# Indices 1 2 3 4 5 6 
#
# 1 70.9548 25.0525 38.5836 1.2125 -3.1981 -2.0513
# 2 25.0525 77.4191 37.3409 19.8537 3.1650 -5.6645
# 3 38.5836 37.3409 175.6604 7.1345 0.0428 3.7599
# 4 1.2125 19.8537 7.1345 44.4748 3.1737 1.5777
# 5 -3.1981 3.1650 0.0428 3.1737 48.2332 6.1139
# 6 -2.0513 -5.6645 3.7599 1.5777 6.1139 31.3729
#
#
#
# Elastic Compliance Matrix: (Units=1/GPa)
#
#
# Indices 1 2 3 4 5 6 
#
# 1 0.017386 -0.004785 -0.002890 0.002023 0.001303 0.000263
# 2 -0.004785 0.017967 -0.002546 -0.007513 -0.001495 0.003905
# 3 -0.002890 -0.002546 0.006895 0.000152 0.000151 -0.001512
# 4 0.002023 -0.007513 0.000152 0.025899 -0.000774 -0.002394
# 5 0.001303 -0.001495 0.000151 -0.000774 0.021520 -0.004358
# 6 0.000263 0.003905 -0.001512 -0.002394 -0.004358 0.033748
#
#
# Mechanical properties :
#
#
# Convention : Reuss Voigt Hill
#
# Bulk Modulus (GPa) = 45.85986 58.44314 52.15150
# Shear Modulus (GPa) = 33.08490 39.68666 36.38578
#
# Velocity S-wave (km/s) = 3.72245 4.07695 3.90373
# Velocity P-wave (km/s) = 6.13861 6.82929 6.49314
#
# Compressibility (1/GPa) = 0.02180556
#
# Stress axis : x y z
#
# Youngs Moduli (GPa) = 57.51698 55.65786 145.03322
#
# Poissons Ratio (x) = 0.26633 0.41912
# Poissons Ratio (y) = 0.27523 0.36930
# Poissons Ratio (z) = 0.16621 0.14172
#
# Static dielectric constant tensor:
#      x y z
#    x 2.137880 -0.052280 -0.161610 
#    y -0.052280 1.944840 0.023570 
#    z -0.161610 0.023570 2.076200 
# 
# From -- ./inp_files/159742.got.cif
#   From: 2010.05.17/outbox.cif.g08.bks.cpg/sg2_80_cif.got.tgz:159742.got - 2010.06.03 11:33:40.
