data_PCOD9103504
_publ_section_title
;
Structure prediction by ZEFSAII (Michael W. Deem and Ramdas Pophale) SiO2 
 PCOD9103504
Probable space group: P -1
;
_chemical_formula_sum "Si O2"
_cell_formula_units_Z 16
_cell_length_a 5.380199
_cell_length_b 9.373555
_cell_length_c 15.526855
_cell_angle_alpha 78.845803
_cell_angle_beta 79.849922
_cell_angle_gamma 100.805129
_cell_volume 736.058968
_symmetry_space_group_name_H-M "P -1"
_symmetry_group_IT_number 2
_symmetry_cell_setting 'triclinic'
loop_
_space_group_symop_operation_xyz
x,y,z
-x,-y,-z
loop_
_atom_site_type_symbol
_atom_site_label
_atom_site_fract_x
_atom_site_fract_y
_atom_site_fract_z
Si Si1 0.713247 0.399347 0.008973
Si Si2 0.567612 0.577467 0.688838
Si Si3 0.229349 0.724392 0.802347
Si Si4 0.687452 0.977076 0.580365
Si Si5 0.191692 0.580347 0.182831
Si Si6 0.934659 0.738677 0.522525
Si Si7 0.849030 0.662941 0.342829
Si Si8 0.850485 0.997218 0.311540
O O1 0.661907 0.289893 0.106813
O O2 0.500000 0.500000 0.000000
O O3 0.735289 0.331964 0.920486
O O4 0.000000 0.500000 0.000000
O O5 0.450405 0.707600 0.721628
O O6 0.566779 0.467359 0.782117
O O7 0.851395 0.631587 0.621898
O O8 0.385333 0.479623 0.641108
O O9 0.120914 0.871783 0.776456
O O10 0.003416 0.577203 0.812584
O O11 0.804247 0.134822 0.507069
O O12 0.721761 0.839954 0.534553
O O13 0.406916 0.982465 0.627650
O O14 0.894260 0.979778 0.646289
O O15 0.063024 0.652648 0.259300
O O16 0.923566 0.663749 0.438872
O O17 0.787454 0.823826 0.309214
#
# Coordination Sequence:
#
# PCOD9103504 Si02
#       8
#     2   2   2   2   2   2   2   2
#     4  10  20  38  66  95 121 151 200 256 310 353
#     4  11  20  39  61  87 125 159 211 248 305 361
#     4  10  21  38  67  94 116 157 208 259 297 364
#     4  10  23  40  62  87 125 161 210 260 295 349
#     4  10  22  40  60  93 123 160 198 257 311 363
#     4  10  21  39  58  91 117 169 207 255 297 359
#     4  10  25  38  56  87 129 171 195 251 310 365
#     4  11  23  43  63  89 124 164 207 251 307 356
#
# _framework density 21.737389
#
# number of rings (size 3 to 8) (size 9 to 14) (size 15 to 20)
#    0.000    1.750    2.500    1.125    3.500    5.000 
#    9.000    0.625    0.000    0.750    0.000    0.000 
#    0.000    0.000    0.000    0.000    0.000    0.000 
#
# Total GULP energy -89274.210649 kJ/mol
# GULP energy per Si atom -5579.638166 kJ/mol
# Density = 2.168791 g / cm^3
# Si number density = 21.737389 Si / 1000 Ang^3
#
#
#
# Elastic Constant Matrix: (Units=GPa)
#
#
# Indices 1 2 3 4 5 6 
#
# 1 83.4563 11.3672 16.5856 -5.6123 4.4665 -17.0635
# 2 11.3672 74.4707 40.8858 -6.3296 5.9537 -15.1326
# 3 16.5856 40.8858 136.5988 -2.2300 16.7557 -7.7465
# 4 -5.6123 -6.3296 -2.2300 26.8943 -7.0237 2.8089
# 5 4.4665 5.9537 16.7557 -7.0237 27.8604 -6.8622
# 6 -17.0635 -15.1326 -7.7465 2.8089 -6.8622 20.7402
#
#
#
# Elastic Compliance Matrix: (Units=1/GPa)
#
#
# Indices 1 2 3 4 5 6 
#
# 1 0.014830 0.001327 -0.001690 0.002483 0.002163 0.012917
# 2 0.001327 0.019004 -0.005422 0.003740 0.003256 0.013503
# 3 -0.001690 -0.005422 0.009623 -0.001963 -0.005682 -0.003366
# 4 0.002483 0.003740 -0.001963 0.041032 0.010837 0.002067
# 5 0.002163 0.003256 -0.005682 0.010837 0.044789 0.015384
# 6 0.012917 0.013503 -0.003366 0.002067 0.015384 0.072248
#
#
# Mechanical properties :
#
#
# Convention : Reuss Voigt Hill
#
# Bulk Modulus (GPa) = 31.36096 48.02258 39.69177
# Shear Modulus (GPa) = 22.34901 30.14479 26.24690
#
# Velocity S-wave (km/s) = 3.20994 3.72798 3.47861
# Velocity P-wave (km/s) = 5.31006 6.37735 5.86802
#
# Compressibility (1/GPa) = 0.03188678
#
# Stress axis : x y z
#
# Youngs Moduli (GPa) = 67.43219 52.62173 103.92096
#
# Poissons Ratio (x) = -0.06984 0.17564
# Poissons Ratio (y) = -0.08950 0.56343
# Poissons Ratio (z) = 0.11397 0.28530
#
# Static dielectric constant tensor:
#      x y z
#    x 1.843480 -0.003650 -0.007330 
#    y -0.003650 1.849390 -0.063770 
#    z -0.007330 -0.063770 1.877330 
# 
# From -- ./inp_files/47459.got.cif
#   From: 2010.05.17/outbox.cif.g08.bks.cpg/sg2_24_cif.got.tgz:47459.got - 2010.06.03 11:33:40.
