data_PCOD9103634
_publ_section_title
;
Structure prediction by ZEFSAII (Michael W. Deem and Ramdas Pophale) SiO2 
 PCOD9103634
Probable space group: P -1
;
_chemical_formula_sum "Si O2"
_cell_formula_units_Z 16
_cell_length_a 9.500349
_cell_length_b 15.690820
_cell_length_c 9.589934
_cell_angle_alpha 47.937915
_cell_angle_beta 69.698166
_cell_angle_gamma 97.935343
_cell_volume 842.784631
_symmetry_space_group_name_H-M "P -1"
_symmetry_group_IT_number 2
_symmetry_cell_setting 'triclinic'
loop_
_space_group_symop_operation_xyz
x,y,z
-x,-y,-z
loop_
_atom_site_type_symbol
_atom_site_label
_atom_site_fract_x
_atom_site_fract_y
_atom_site_fract_z
Si Si1 0.682849 0.217669 0.129450
Si Si2 0.803686 0.914002 0.089102
Si Si3 0.458634 0.070676 0.623185
Si Si4 0.699601 0.622277 0.324506
Si Si5 0.177452 0.520409 0.348680
Si Si6 0.037737 0.631405 0.666230
Si Si7 0.941658 0.620733 0.019274
Si Si8 0.687585 0.073500 0.777351
O O1 0.533553 0.165207 0.357762
O O2 0.871966 0.298088 0.052897
O O3 0.659542 0.085201 0.211472
O O4 0.685432 0.321032 0.902852
O O5 0.657490 0.897058 0.271262
O O6 0.744530 0.765609 0.214484
O O7 0.784544 0.996754 0.876144
O O8 0.000000 0.000000 0.000000
O O9 0.627185 0.080659 0.633240
O O10 0.500000 0.500000 0.500000
O O11 0.765756 0.556304 0.485625
O O12 0.806675 0.646653 0.117505
O O13 0.000000 0.500000 0.500000
O O14 0.123547 0.448503 0.296172
O O15 0.185074 0.770887 0.393566
O O16 0.973157 0.656928 0.806612
O O17 0.115845 0.536655 0.775200
O O18 0.500000 0.000000 0.000000
#
# Coordination Sequence:
#
# PCOD9103634 Si02
#       8
#     2   2   2   2   2   2   2   2
#     4  10  20  39  67  97 117 158 220 268 307 353
#     4  11  25  42  62  90 135 173 202 251 328 384
#     4  10  22  38  68  93 126 157 216 263 304 373
#     4  12  27  41  61  97 134 166 208 262 320 379
#     4  11  23  39  69  90 122 164 219 257 305 380
#     4  10  20  38  67  92 116 160 220 256 312 357
#     4  10  21  39  65  91 128 161 202 268 315 371
#     4  10  22  35  65  92 118 159 215 256 297 373
#
# _framework density 18.984683
#
# number of rings (size 3 to 8) (size 9 to 14) (size 15 to 20)
#    0.000    1.500    3.750    1.500    8.750    0.000 
#    0.000    4.375    0.000    0.000    0.000    0.000 
#    0.000    0.000    0.000    0.000    0.000    0.000 
#
# Total GULP energy -89243.523404 kJ/mol
# GULP energy per Si atom -5577.720213 kJ/mol
# Density = 1.894147 g / cm^3
# Si number density = 18.984683 Si / 1000 Ang^3
#
#
#
# Elastic Constant Matrix: (Units=GPa)
#
#
# Indices 1 2 3 4 5 6 
#
# 1 94.2800 41.6289 24.5452 -10.2194 4.4529 -2.9232
# 2 41.6289 122.9352 48.4941 -2.3996 -16.0592 -16.6783
# 3 24.5452 48.4941 109.2828 -20.3784 1.0471 -21.3021
# 4 -10.2194 -2.3996 -20.3784 38.9634 2.7751 -1.8620
# 5 4.4529 -16.0592 1.0471 2.7751 24.8005 0.9565
# 6 -2.9232 -16.6783 -21.3021 -1.8620 0.9565 22.9254
#
#
#
# Elastic Compliance Matrix: (Units=1/GPa)
#
#
# Indices 1 2 3 4 5 6 
#
# 1 0.013766 -0.005585 -0.000305 0.003464 -0.006384 -0.002043
# 2 -0.005585 0.013777 -0.004857 -0.003702 0.010387 0.004064
# 3 -0.000305 -0.004857 0.015254 0.008515 -0.005131 0.011507
# 4 0.003464 -0.003702 0.008515 0.031724 -0.007258 0.008539
# 5 -0.006384 0.010387 -0.005131 -0.007258 0.049248 -0.000670
# 6 -0.002043 0.004064 0.011507 0.008539 -0.000670 0.057730
#
#
# Mechanical properties :
#
#
# Convention : Reuss Voigt Hill
#
# Bulk Modulus (GPa) = 46.93872 61.75938 54.34905
# Shear Modulus (GPa) = 23.79894 31.45985 27.62939
#
# Velocity S-wave (km/s) = 3.54444 4.07519 3.81905
# Velocity P-wave (km/s) = 6.44430 7.39896 6.93807
#
# Compressibility (1/GPa) = 0.02130437
#
# Stress axis : x y z
#
# Youngs Moduli (GPa) = 72.64496 72.58316 65.55514
#
# Poissons Ratio (x) = 0.40535 0.01997
# Poissons Ratio (y) = 0.40570 0.31841
# Poissons Ratio (z) = 0.02213 0.35254
#
# Static dielectric constant tensor:
#      x y z
#    x 1.684990 0.033900 -0.016500 
#    y 0.033900 1.689480 -0.014400 
#    z -0.016500 -0.014400 1.691830 
# 
# From -- ./inp_files/205529.got.cif
#   From: 2010.05.17/outbox.cif.g08.bks.cpg/sg2_103_cif.got.tgz:205529.got - 2010.06.03 11:33:40.
