data_PCOD9103644
_publ_section_title
;
Structure prediction by ZEFSAII (Michael W. Deem and Ramdas Pophale) SiO2 
 PCOD9103644
Probable space group: P -1
;
_chemical_formula_sum "Si O2"
_cell_formula_units_Z 14
_cell_length_a 16.158137
_cell_length_b 15.995215
_cell_length_c 5.340995
_cell_angle_alpha 86.432747
_cell_angle_beta 98.618953
_cell_angle_gamma 155.342847
_cell_volume 560.147902
_symmetry_space_group_name_H-M "P -1"
_symmetry_group_IT_number 2
_symmetry_cell_setting 'triclinic'
loop_
_space_group_symop_operation_xyz
x,y,z
-x,-y,-z
loop_
_atom_site_type_symbol
_atom_site_label
_atom_site_fract_x
_atom_site_fract_y
_atom_site_fract_z
Si Si1 0.321734 0.254656 0.736757
Si Si2 0.497071 0.754659 0.247963
Si Si3 0.837807 0.130009 0.663326
Si Si4 0.940265 0.724674 0.763633
Si Si5 0.746272 0.239325 0.572610
Si Si6 0.769741 0.747952 0.801546
Si Si7 0.657511 0.221586 0.034277
O O1 0.376865 0.208151 0.814023
O O2 0.538140 0.500470 0.766634
O O3 0.225454 0.180631 0.433834
O O4 0.199264 0.183948 0.923626
O O5 0.276480 0.518405 0.258489
O O6 0.615694 0.894628 0.521773
O O7 0.465639 0.804719 0.041075
O O8 0.833602 0.226313 0.626660
O O9 0.976764 0.220796 0.483862
O O10 0.918843 0.178044 0.962141
O O11 0.898807 0.785071 0.773506
O O12 0.787129 0.327110 0.321816
O O13 0.500000 0.000000 0.500000
O O14 0.786197 0.329854 0.819729
O O15 0.500000 0.000000 0.000000
#
# Coordination Sequence:
#
# PCOD9103644 Si02
#       7
#     2   2   2   2   2   2   2
#     4   9  19  35  67  94 120 188 212 263 341 393
#     4  11  25  45  73  99 138 177 235 270 338 406
#     4  12  25  45  70  99 140 178 223 280 345 385
#     4  11  27  44  68 106 133 181 225 280 330 412
#     4  10  20  39  66  90 129 178 212 268 345 380
#     4   9  18  40  60  91 142 160 220 280 324 382
#     4  10  20  38  67  92 128 176 209 278 335 377
#
# _framework density 24.993400000000001
#
# number of rings (size 3 to 8) (size 9 to 14) (size 15 to 20)
#    0.000    1.714    2.857    1.714    2.000    8.000 
#    0.000    8.571    0.000    0.000    0.000    0.000 
#    0.000    0.000    0.000    0.000    0.000    0.000 
#
# Total GULP energy -78472.105264 kJ/mol
# GULP energy per Si atom -5605.150376 kJ/mol
# Density = 2.493651 g / cm^3
# Si number density = 24.993400 Si / 1000 Ang^3
#
#
#
# Elastic Constant Matrix: (Units=GPa)
#
#
# Indices 1 2 3 4 5 6 
#
# 1 195.1514 31.4134 62.7051 -32.4133 3.9296 -10.2113
# 2 31.4134 98.4359 26.2521 8.0596 5.7300 -9.8534
# 3 62.7051 26.2521 156.8213 -21.0245 -2.9779 5.8749
# 4 -32.4133 8.0596 -21.0245 38.4753 7.8301 -2.6299
# 5 3.9296 5.7300 -2.9779 7.8301 43.3085 -9.6828
# 6 -10.2113 -9.8534 5.8749 -2.6299 -9.6828 35.1198
#
#
#
# Elastic Compliance Matrix: (Units=1/GPa)
#
#
# Indices 1 2 3 4 5 6 
#
# 1 0.007117 -0.001996 -0.001831 0.005773 -0.001118 0.001940
# 2 -0.001996 0.012023 -0.002002 -0.005104 -0.000011 0.002742
# 3 -0.001831 -0.002002 0.007938 0.003078 -0.000074 -0.002212
# 4 0.005773 -0.005104 0.003078 0.034830 -0.005766 0.000750
# 5 -0.001118 -0.000011 -0.000074 -0.005766 0.025644 0.006323
# 6 0.001940 0.002742 -0.002212 0.000750 0.006323 0.031977
#
#
# Mechanical properties :
#
#
# Convention : Reuss Voigt Hill
#
# Bulk Modulus (GPa) = 64.85413 76.79443 70.82428
# Shear Modulus (GPa) = 36.67644 45.38326 41.02985
#
# Velocity S-wave (km/s) = 3.83488 4.26585 4.05610
# Velocity P-wave (km/s) = 6.75376 7.41997 7.09469
#
# Compressibility (1/GPa) = 0.01541922
#
# Stress axis : x y z
#
# Youngs Moduli (GPa) = 140.51096 83.17494 125.97311
#
# Poissons Ratio (x) = 0.16603 0.23071
# Poissons Ratio (y) = 0.28049 0.25216
# Poissons Ratio (z) = 0.25734 0.16649
#
# Static dielectric constant tensor:
#      x y z
#    x 1.917340 0.093780 -0.035810 
#    y 0.093780 1.928280 0.138110 
#    z -0.035810 0.138110 1.867870 
# 
# From -- ./inp_files/98171.got.cif
#   From: 2010.05.17/outbox.cif.g08.bks.cpg/sg2_50_cif.got.tgz:98171.got - 2010.06.03 11:33:40.
