data_PCOD9103205
_publ_section_title
;
Structure prediction by ZEFSAII (Michael W. Deem and Ramdas Pophale) SiO2 
 PCOD9103205
Probable space group: P -1
;
_chemical_formula_sum "Si O2"
_cell_formula_units_Z 16
_cell_length_a 8.674024
_cell_length_b 13.807447
_cell_length_c 9.258692
_cell_angle_alpha 126.855617
_cell_angle_beta 74.513615
_cell_angle_gamma 133.772741
_cell_volume 619.330919
_symmetry_space_group_name_H-M "P -1"
_symmetry_group_IT_number 2
_symmetry_cell_setting 'triclinic'
loop_
_space_group_symop_operation_xyz
x,y,z
-x,-y,-z
loop_
_atom_site_type_symbol
_atom_site_label
_atom_site_fract_x
_atom_site_fract_y
_atom_site_fract_z
Si Si1 0.632508 0.877521 0.486061
Si Si2 0.969547 0.670796 0.591249
Si Si3 0.523017 0.989482 0.156593
Si Si4 0.851679 0.464386 0.720773
Si Si5 0.715716 0.771106 0.643296
Si Si6 0.252550 0.404773 0.912058
Si Si7 0.136402 0.109188 0.812018
Si Si8 0.542796 0.321378 0.110307
O O1 0.606387 0.982226 0.684954
O O2 0.388291 0.716687 0.350230
O O3 0.682451 0.791532 0.504993
O O4 0.785717 0.956791 0.376810
O O5 0.215714 0.853390 0.729091
O O6 0.000297 0.572544 0.389340
O O7 0.867281 0.560909 0.664679
O O8 0.816085 0.694851 0.588361
O O9 0.500000 0.000000 0.000000
O O10 0.427707 0.805326 0.040884
O O11 0.885021 0.568501 0.939327
O O12 0.503091 0.685174 0.715459
O O13 0.906352 0.964190 0.814234
O O14 0.122030 0.213951 0.800357
O O15 0.298062 0.495572 0.832999
O O16 0.500000 0.500000 0.000000
O O17 0.313808 0.226214 0.995398
#
# Coordination Sequence:
#
# PCOD9103205 Si02
#       8
#     2   2   2   2   2   2   2   2
#     4  11  24  41  65  93 135 167 213 268 323 374
#     4  10  23  39  65  95 130 169 221 261 326 380
#     4  11  23  42  65  98 129 166 215 273 317 380
#     4  10  21  42  63  95 129 176 207 274 317 383
#     4  12  24  40  66  99 129 170 218 269 317 385
#     4  10  20  38  65  92 128 165 219 255 323 383
#     4  11  23  41  64  98 129 171 212 269 322 383
#     4  11  22  39  67  95 122 174 222 252 326 386
#
# _framework density 25.834332
#
# number of rings (size 3 to 8) (size 9 to 14) (size 15 to 20)
#    0.000    1.250    5.000    2.250    1.750    2.000 
#    0.000    0.000    0.000    2.250    0.000    0.000 
#    0.000    0.000    0.000    0.000    0.000    0.000 
#
# Total GULP energy -89590.553433 kJ/mol
# GULP energy per Si atom -5599.409590 kJ/mol
# Density = 2.577553 g / cm^3
# Si number density = 25.834332 Si / 1000 Ang^3
#
#
#
# Elastic Constant Matrix: (Units=GPa)
#
#
# Indices 1 2 3 4 5 6 
#
# 1 74.6516 28.7544 25.3103 9.4105 -10.7903 -2.9228
# 2 28.7544 141.3054 22.3388 2.7234 -15.0019 -16.8824
# 3 25.3103 22.3388 88.3760 -3.8781 -12.2436 -2.7561
# 4 9.4105 2.7234 -3.8781 40.6937 -12.3022 -8.7811
# 5 -10.7903 -15.0019 -12.2436 -12.3022 30.6094 2.9355
# 6 -2.9228 -16.8824 -2.7561 -8.7811 2.9355 41.7763
#
#
#
# Elastic Compliance Matrix: (Units=1/GPa)
#
#
# Indices 1 2 3 4 5 6 
#
# 1 0.016416 -0.002600 -0.004040 -0.003792 0.001475 -0.001069
# 2 -0.002600 0.008434 -0.000759 0.001663 0.003266 0.003297
# 3 -0.004040 -0.000759 0.013582 0.004013 0.005174 0.000787
# 4 -0.003792 0.001663 0.004013 0.030987 0.012936 0.006276
# 5 0.001475 0.003266 0.005174 0.012936 0.041911 0.001538
# 6 -0.001069 0.003297 0.000787 0.006276 0.001538 0.026457
#
#
# Mechanical properties :
#
#
# Convention : Reuss Voigt Hill
#
# Bulk Modulus (GPa) = 42.31070 50.79335 46.55203
# Shear Modulus (GPa) = 31.15980 37.81116 34.48548
#
# Velocity S-wave (km/s) = 3.47672 3.82985 3.65755
# Velocity P-wave (km/s) = 5.70351 6.26585 5.99128
#
# Compressibility (1/GPa) = 0.02363468
#
# Stress axis : x y z
#
# Youngs Moduli (GPa) = 60.91611 118.56093 73.62939
#
# Poissons Ratio (x) = 0.30825 0.29743
# Poissons Ratio (y) = 0.15838 0.05589
# Poissons Ratio (z) = 0.24608 0.09000
#
# Static dielectric constant tensor:
#      x y z
#    x 2.063110 0.006610 0.036200 
#    y 0.006610 1.959300 0.051860 
#    z 0.036200 0.051860 2.034220 
# 
# From -- ./inp_files/189997.got.cif
#   From: 2010.05.17/outbox.cif.g08.bks.cpg/sg2_95_cif.got.tgz:189997.got - 2010.06.03 11:33:40.
