data_PCOD9103852
_publ_section_title
;
Structure prediction by ZEFSAII (Michael W. Deem and Ramdas Pophale) SiO2 
 PCOD9103852
Probable space group: P -1
;
_chemical_formula_sum "Si O2"
_cell_formula_units_Z 16
_cell_length_a 12.501377
_cell_length_b 8.890341
_cell_length_c 18.840119
_cell_angle_alpha 46.942458
_cell_angle_beta 26.821941
_cell_angle_gamma 49.783691
_cell_volume 686.128375
_symmetry_space_group_name_H-M "P -1"
_symmetry_group_IT_number 2
_symmetry_cell_setting 'triclinic'
loop_
_space_group_symop_operation_xyz
x,y,z
-x,-y,-z
loop_
_atom_site_type_symbol
_atom_site_label
_atom_site_fract_x
_atom_site_fract_y
_atom_site_fract_z
Si Si1 0.635267 0.247544 0.771234
Si Si2 0.053476 0.735719 0.756805
Si Si3 0.934447 0.964701 0.131197
Si Si4 0.819134 0.433684 0.070027
Si Si5 0.580193 0.624208 0.479926
Si Si6 0.960852 0.452404 0.416536
Si Si7 0.187285 0.865901 0.151066
Si Si8 0.851082 0.876656 0.682668
O O1 0.429956 0.428524 0.817618
O O2 0.881855 0.330683 0.571429
O O3 0.619824 0.208459 0.877574
O O4 0.637242 0.035338 0.791729
O O5 0.323714 0.721071 0.628124
O O6 0.012428 0.810891 0.676593
O O7 0.907324 0.909378 0.835097
O O8 0.942028 0.518721 0.899389
O O9 0.812834 0.190869 0.153378
O O10 0.747203 0.797903 0.303721
O O11 0.159567 0.894851 0.072756
O O12 0.000000 0.000000 0.000000
O O13 0.000000 0.500000 0.000000
O O14 0.500000 0.500000 0.500000
O O15 0.730680 0.474803 0.493980
O O16 0.015949 0.684071 0.323361
O O17 0.175297 0.327367 0.283584
O O18 0.000000 0.000000 0.500000
#
# Coordination Sequence:
#
# PCOD9103852 Si02
#       8
#     2   2   2   2   2   2   2   2
#     4  10  23  42  67  97 133 181 224 274 350 397
#     4  11  22  41  66  94 139 172 228 276 334 404
#     4  11  26  46  67 100 142 177 227 283 340 406
#     4  12  25  46  69 100 139 180 223 283 338 406
#     4  11  22  40  72 102 133 180 225 278 345 395
#     4  10  20  38  68  99 137 169 228 280 334 398
#     4  10  23  41  66  97 134 176 224 283 332 401
#     4   9  20  40  62  97 130 174 224 277 327 399
#
# _framework density 23.319251999999999
#
# number of rings (size 3 to 8) (size 9 to 14) (size 15 to 20)
#    0.000    1.500    2.500    1.875    3.500    3.000 
#    0.000    0.625    0.000    0.000    0.000    0.000 
#    0.000    0.000    0.000    0.000    0.000    0.000 
#
# Total GULP energy -89267.681932 kJ/mol
# GULP energy per Si atom -5579.230121 kJ/mol
# Density = 2.326618 g / cm^3
# Si number density = 23.319252 Si / 1000 Ang^3
#
#
#
# Elastic Constant Matrix: (Units=GPa)
#
#
# Indices 1 2 3 4 5 6 
#
# 1 129.3458 37.8205 34.6888 -3.7036 22.9110 -4.2426
# 2 37.8205 103.6615 23.9585 -8.0326 -1.1177 -8.6943
# 3 34.6888 23.9585 68.6915 -14.6981 20.5745 4.7132
# 4 -3.7036 -8.0326 -14.6981 43.9545 -6.3153 -7.0989
# 5 22.9110 -1.1177 20.5745 -6.3153 42.2636 -8.6946
# 6 -4.2426 -8.6943 4.7132 -7.0989 -8.6946 30.1382
#
#
#
# Elastic Compliance Matrix: (Units=1/GPa)
#
#
# Indices 1 2 3 4 5 6 
#
# 1 0.010216 -0.003279 -0.002913 -0.001487 -0.004578 -0.000723
# 2 -0.003279 0.012627 -0.004419 0.002389 0.005881 0.006132
# 3 -0.002913 -0.004419 0.021872 0.003651 -0.010114 -0.007163
# 4 -0.001487 0.002389 0.003651 0.026120 0.004510 0.007362
# 5 -0.004578 0.005881 -0.010114 0.004510 0.034716 0.013711
# 6 -0.000723 0.006132 -0.007163 0.007362 0.013711 0.041657
#
#
# Mechanical properties :
#
#
# Convention : Reuss Voigt Hill
#
# Bulk Modulus (GPa) = 42.56638 54.95936 48.76287
# Shear Modulus (GPa) = 28.36687 36.95333 32.66010
#
# Velocity S-wave (km/s) = 3.49156 3.98511 3.74647
# Velocity P-wave (km/s) = 5.87776 6.69285 6.29850
#
# Compressibility (1/GPa) = 0.02349272
#
# Stress axis : x y z
#
# Youngs Moduli (GPa) = 97.88826 79.19261 45.72061
#
# Poissons Ratio (x) = 0.25969 0.13316
# Poissons Ratio (y) = 0.32100 0.20206
# Poissons Ratio (z) = 0.28510 0.34998
#
# Static dielectric constant tensor:
#      x y z
#    x 1.912820 0.005460 0.059350 
#    y 0.005460 1.940690 0.048060 
#    z 0.059350 0.048060 1.985440 
# 
# From -- ./inp_files/566487.got.cif
#   From: 2010.05.17/outbox.cif.g08.bks.cpg/sg2_284_cif.got.tgz:566487.got - 2010.06.03 11:33:40.
