data_PCOD9103434
_publ_section_title
;
Structure prediction by ZEFSAII (Michael W. Deem and Ramdas Pophale) SiO2 
 PCOD9103434
Probable space group: P -1
;
_chemical_formula_sum "Si O2"
_cell_formula_units_Z 14
_cell_length_a 9.011604
_cell_length_b 10.240783
_cell_length_c 12.128125
_cell_angle_alpha 147.014589
_cell_angle_beta 76.624594
_cell_angle_gamma 96.527140
_cell_volume 585.958039
_symmetry_space_group_name_H-M "P -1"
_symmetry_group_IT_number 2
_symmetry_cell_setting 'triclinic'
loop_
_space_group_symop_operation_xyz
x,y,z
-x,-y,-z
loop_
_atom_site_type_symbol
_atom_site_label
_atom_site_fract_x
_atom_site_fract_y
_atom_site_fract_z
Si Si1 0.782602 0.721330 0.488730
Si Si2 0.864047 0.235706 0.776506
Si Si3 0.522091 0.766035 0.719765
Si Si4 0.913332 0.451594 0.593483
Si Si5 0.813454 0.018874 0.402773
Si Si6 0.589703 0.718604 0.918570
Si Si7 0.368898 0.365003 0.776739
O O1 0.698364 0.747665 0.638939
O O2 0.681203 0.658866 0.359029
O O3 0.945484 0.550192 0.345731
O O4 0.817191 0.988899 0.654332
O O5 0.828397 0.206041 0.633101
O O6 0.755252 0.451964 0.004398
O O7 0.045333 0.198237 0.748288
O O8 0.500000 0.500000 0.500000
O O9 0.491969 0.767047 0.855861
O O10 0.433227 0.001873 0.838048
O O11 0.853883 0.185660 0.412950
O O12 0.763839 0.630623 0.787674
O O13 0.000000 0.500000 0.500000
O O14 0.657420 0.896836 0.350442
O O15 0.517763 0.509144 0.848807
#
# Coordination Sequence:
#
# PCOD9103434 Si02
#       7
#     2   2   2   2   2   2   2
#     4  10  20  38  66  91 125 165 207 261 309 365
#     4   9  18  38  62  94 122 162 214 259 300 376
#     4  11  21  40  63  93 125 165 217 256 301 385
#     4  11  23  43  63  92 137 166 201 266 321 373
#     4   9  21  36  63  92 128 164 205 260 316 362
#     4  11  24  38  66  95 126 170 207 258 324 366
#     4  11  20  37  69  95 120 165 221 252 308 377
#
# _framework density 23.892496000000001
#
# number of rings (size 3 to 8) (size 9 to 14) (size 15 to 20)
#    0.000    1.714    4.286    1.286    0.000    0.571 
#    0.000    5.714    0.000    0.000    0.000    0.000 
#    0.000    0.000    0.000    0.000    0.000    0.000 
#
# Total GULP energy -77987.044200 kJ/mol
# GULP energy per Si atom -5570.503157 kJ/mol
# Density = 2.383812 g / cm^3
# Si number density = 23.892496 Si / 1000 Ang^3
#
#
#
# Elastic Constant Matrix: (Units=GPa)
#
#
# Indices 1 2 3 4 5 6 
#
# 1 75.2289 46.6667 43.4919 19.2228 -22.9268 30.7307
# 2 46.6667 134.8534 30.0768 16.1041 0.5832 45.5722
# 3 43.4919 30.0768 96.2550 4.6999 -18.6898 18.3549
# 4 19.2228 16.1041 4.6999 32.0760 3.6667 -0.4156
# 5 -22.9268 0.5832 -18.6898 3.6667 29.7349 -6.5250
# 6 30.7307 45.5722 18.3549 -0.4156 -6.5250 35.7728
#
#
#
# Elastic Compliance Matrix: (Units=1/GPa)
#
#
# Indices 1 2 3 4 5 6 
#
# 1 0.047848 -0.000582 -0.008443 -0.030814 0.028554 -0.031180
# 2 -0.000582 0.015261 -0.001503 -0.006762 -0.005066 -0.019173
# 3 -0.008443 -0.001503 0.014627 0.003382 0.002781 0.002209
# 4 -0.030814 -0.006762 0.003382 0.055417 -0.021744 0.030028
# 5 0.028554 -0.005066 0.002781 -0.021744 0.058169 -0.009146
# 6 -0.031180 -0.019173 0.002209 0.030028 -0.009146 0.076712
#
#
# Mechanical properties :
#
#
# Convention : Reuss Voigt Hill
#
# Bulk Modulus (GPa) = 17.64291 60.75647 39.19969
# Shear Modulus (GPa) = 16.23475 31.92352 24.07914
#
# Velocity S-wave (km/s) = 2.60953 3.65928 3.17805
# Velocity P-wave (km/s) = 4.05954 6.58317 5.46891
#
# Compressibility (1/GPa) = 0.05668000
#
# Stress axis : x y z
#
# Youngs Moduli (GPa) = 20.89972 65.52790 68.36536
#
# Poissons Ratio (x) = 0.03811 0.57721
# Poissons Ratio (y) = 0.01215 0.10276
# Poissons Ratio (z) = 0.17646 0.09850
#
# Static dielectric constant tensor:
#      x y z
#    x 1.988560 -0.122130 0.027760 
#    y -0.122130 1.739990 0.122430 
#    z 0.027760 0.122430 1.966870 
# 
# From -- ./inp_files/501093.got.cif
#   From: 2010.05.17/outbox.cif.g08.bks.cpg/sg2_251_cif.got.tgz:501093.got - 2010.06.03 11:33:40.
