data_PCOD9103729
_publ_section_title
;
Structure prediction by ZEFSAII (Michael W. Deem and Ramdas Pophale) SiO2 
 PCOD9103729
Probable space group: P -1
;
_chemical_formula_sum "Si O2"
_cell_formula_units_Z 14
_cell_length_a 8.280621
_cell_length_b 9.325098
_cell_length_c 14.060606
_cell_angle_alpha 84.461908
_cell_angle_beta 41.971339
_cell_angle_gamma 62.749827
_cell_volume 588.680100
_symmetry_space_group_name_H-M "P -1"
_symmetry_group_IT_number 2
_symmetry_cell_setting 'triclinic'
loop_
_space_group_symop_operation_xyz
x,y,z
-x,-y,-z
loop_
_atom_site_type_symbol
_atom_site_label
_atom_site_fract_x
_atom_site_fract_y
_atom_site_fract_z
Si Si1 0.639411 0.795320 0.358453
Si Si2 0.035979 0.237773 0.461249
Si Si3 0.376724 0.849045 0.271485
Si Si4 0.715453 0.512034 0.833114
Si Si5 0.594447 0.606285 0.663548
Si Si6 0.517239 0.162764 0.976671
Si Si7 0.790451 0.068669 0.294111
O O1 0.576208 0.760255 0.283158
O O2 0.369809 0.843033 0.541569
O O3 0.947490 0.647197 0.282874
O O4 0.647957 0.965456 0.333274
O O5 0.892232 0.172077 0.601454
O O6 0.753240 0.432039 0.538732
O O7 0.223125 0.305398 0.418863
O O8 0.232455 0.060501 0.323564
O O9 0.557200 0.763475 0.102233
O O10 0.610592 0.540047 0.768047
O O11 0.500000 0.500000 0.000000
O O12 0.674753 0.691391 0.870455
O O13 0.281453 0.772005 0.753136
O O14 0.863064 0.079300 0.843159
O O15 0.500000 0.000000 0.000000
#
# Coordination Sequence:
#
# PCOD9103729 Si02
#       7
#     2   2   2   2   2   2   2
#     4  11  24  43  75 104 130 180 239 282 339 409
#     4  10  20  38  68 100 135 173 220 288 352 383
#     4  11  23  42  67 100 142 181 219 287 349 402
#     4  12  26  45  68 101 143 185 227 276 342 418
#     4  11  23  40  69 105 137 176 230 291 337 400
#     4  12  28  45  66 101 148 185 223 277 350 413
#     4  11  24  44  73 105 132 178 237 285 339 409
#
# _framework density 23.782015000000001
#
# number of rings (size 3 to 8) (size 9 to 14) (size 15 to 20)
#    0.000    0.857    2.857    5.143    4.000    3.429 
#    0.000    2.857    0.000    0.000    0.000    0.000 
#    0.000    0.000    0.000    0.000    0.000    0.000 
#
# Total GULP energy -78262.352173 kJ/mol
# GULP energy per Si atom -5590.168012 kJ/mol
# Density = 2.372789 g / cm^3
# Si number density = 23.782015 Si / 1000 Ang^3
#
#
#
# Elastic Constant Matrix: (Units=GPa)
#
#
# Indices 1 2 3 4 5 6 
#
# 1 71.3659 24.6074 15.1357 -2.7924 14.5322 -25.6179
# 2 24.6074 137.6435 16.0935 16.0466 -2.0495 -7.0640
# 3 15.1357 16.0935 49.8927 2.1504 9.1388 -18.1749
# 4 -2.7924 16.0466 2.1504 47.8480 4.1282 -4.2040
# 5 14.5322 -2.0495 9.1388 4.1282 24.9174 -3.3834
# 6 -25.6179 -7.0640 -18.1749 -4.2040 -3.3834 56.2499
#
#
#
# Elastic Compliance Matrix: (Units=1/GPa)
#
#
# Indices 1 2 3 4 5 6 
#
# 1 0.021213 -0.004056 0.000135 0.004425 -0.012295 0.008787
# 2 -0.004056 0.008722 -0.002862 -0.003568 0.004497 -0.001673
# 3 0.000135 -0.002862 0.025170 0.001242 -0.008746 0.007402
# 4 0.004425 -0.003568 0.001242 0.023168 -0.006721 0.003296
# 5 -0.012295 0.004497 -0.008746 -0.006721 0.051278 -0.005279
# 6 0.008787 -0.001673 0.007402 0.003296 -0.005279 0.023890
#
#
# Mechanical properties :
#
#
# Convention : Reuss Voigt Hill
#
# Bulk Modulus (GPa) = 24.07393 41.17503 32.62448
# Shear Modulus (GPa) = 27.64671 39.34076 33.49373
#
# Velocity S-wave (km/s) = 3.41325 4.07163 3.75689
# Velocity P-wave (km/s) = 5.06739 6.28134 5.70674
#
# Compressibility (1/GPa) = 0.04153871
#
# Stress axis : x y z
#
# Youngs Moduli (GPa) = 47.14067 114.65213 39.72977
#
# Poissons Ratio (x) = 0.46506 -0.00537
# Poissons Ratio (y) = 0.19121 0.11372
# Poissons Ratio (z) = -0.00637 0.32816
#
# Static dielectric constant tensor:
#      x y z
#    x 1.981980 0.007350 -0.023570 
#    y 0.007350 1.929870 -0.001960 
#    z -0.023570 -0.001960 1.908770 
# 
# From -- ./inp_files/184781.got.cif
#   From: 2010.05.17/outbox.cif.g08.bks.cpg/sg2_93_cif.got.tgz:184781.got - 2010.06.03 11:33:40.
