data_PCOD9103645
_publ_section_title
;
Structure prediction by ZEFSAII (Michael W. Deem and Ramdas Pophale) SiO2 
 PCOD9103645
Probable space group: P -1
;
_chemical_formula_sum "Si O2"
_cell_formula_units_Z 13
_cell_length_a 11.690090
_cell_length_b 9.697403
_cell_length_c 7.840606
_cell_angle_alpha 87.840940
_cell_angle_beta 73.765183
_cell_angle_gamma 140.661203
_cell_volume 491.650565
_symmetry_space_group_name_H-M "P -1"
_symmetry_group_IT_number 2
_symmetry_cell_setting 'triclinic'
loop_
_space_group_symop_operation_xyz
x,y,z
-x,-y,-z
loop_
_atom_site_type_symbol
_atom_site_label
_atom_site_fract_x
_atom_site_fract_y
_atom_site_fract_z
Si Si1 0.008979 0.171347 0.033382
Si Si2 0.264718 0.890739 0.049217
Si Si3 0.812052 0.598160 0.500850
Si Si4 0.764773 0.983060 0.493735
Si Si5 0.500000 0.500000 0.500000
Si Si6 0.639650 0.154801 0.660142
Si Si7 0.579728 0.421193 0.961119
O O1 0.850590 0.044222 0.263086
O O2 0.229879 0.418574 0.002345
O O3 0.931839 0.209294 0.925398
O O4 0.000000 0.000000 0.000000
O O5 0.239007 0.751983 0.212409
O O6 0.407409 0.967782 0.832224
O O7 0.406528 0.142378 0.066851
O O8 0.718950 0.616603 0.405347
O O9 0.754159 0.384800 0.501169
O O10 0.660555 0.479646 0.732088
O O11 0.040924 0.841978 0.465770
O O12 0.662854 0.035860 0.553767
O O13 0.601577 0.706059 0.584642
O O14 0.500000 0.500000 0.000000
#
# Coordination Sequence:
#
# PCOD9103645 Si02
#       7
#     2   2   2   2   1   2   2
#     4  11  23  39  66  99 133 171 222 273 331 399
#     4  10  22  42  67 100 129 177 229 269 332 400
#     4  10  24  45  65  97 134 175 226 276 336 397
#     4  11  25  44  68  98 137 177 220 279 339 394
#     4  12  26  40  68 100 130 174 226 278 334 400
#     4  10  23  46  70  92 141 183 218 279 335 400
#     4  10  20  38  67  92 135 171 211 278 336 383
#
# _framework density 26.441544
#
# number of rings (size 3 to 8) (size 9 to 14) (size 15 to 20)
#    0.000    1.538    1.538    2.769    2.154    3.692 
#    0.000   13.846    0.000    0.000    0.000    0.000 
#    0.000    0.000    0.000    0.000    0.000    0.000 
#
# Total GULP energy -72659.759430 kJ/mol
# GULP energy per Si atom -5589.212264 kJ/mol
# Density = 2.638136 g / cm^3
# Si number density = 26.441544 Si / 1000 Ang^3
#
#
#
# Elastic Constant Matrix: (Units=GPa)
#
#
# Indices 1 2 3 4 5 6 
#
# 1 171.8720 52.5128 13.6359 1.2391 -25.8400 -18.5476
# 2 52.5128 108.6040 13.0595 11.8557 -5.4836 -23.8280
# 3 13.6359 13.0595 92.0048 0.5904 -15.8998 -21.5203
# 4 1.2391 11.8557 0.5904 30.6314 -13.2027 -9.4829
# 5 -25.8400 -5.4836 -15.8998 -13.2027 48.9702 11.8849
# 6 -18.5476 -23.8280 -21.5203 -9.4829 11.8849 40.9699
#
#
#
# Elastic Compliance Matrix: (Units=1/GPa)
#
#
# Indices 1 2 3 4 5 6 
#
# 1 0.007654 -0.003661 0.000361 0.003308 0.004391 0.001018
# 2 -0.003661 0.012514 -0.000528 -0.004429 -0.003167 0.005237
# 3 0.000361 -0.000528 0.013020 0.003547 0.003755 0.006427
# 4 0.003308 -0.004429 0.003547 0.041426 0.011889 0.006924
# 5 0.004391 -0.003167 0.003755 0.011889 0.027566 -0.003126
# 6 0.001018 0.005237 0.006427 0.006924 -0.003126 0.033800
#
#
# Mechanical properties :
#
#
# Convention : Reuss Voigt Hill
#
# Bulk Modulus (GPa) = 39.16441 58.98857 49.07649
# Shear Modulus (GPa) = 32.86303 43.66581 38.26442
#
# Velocity S-wave (km/s) = 3.52924 4.06816 3.80825
# Velocity P-wave (km/s) = 5.60814 6.66514 6.15935
#
# Compressibility (1/GPa) = 0.02553338
#
# Stress axis : x y z
#
# Youngs Moduli (GPa) = 130.64730 79.91185 76.80539
#
# Poissons Ratio (x) = 0.29252 -0.02771
# Poissons Ratio (y) = 0.47824 0.04052
# Poissons Ratio (z) = -0.04714 0.04216
#
# Static dielectric constant tensor:
#      x y z
#    x 2.114250 -0.034590 0.067760 
#    y -0.034590 1.990550 -0.051920 
#    z 0.067760 -0.051920 2.343940 
# 
# From -- ./inp_files/239661.got.cif
#   From: 2010.05.17/outbox.cif.g08.bks.cpg/sg2_120_cif.got.tgz:239661.got - 2010.06.03 11:33:40.
