data_PCOD9103521
_publ_section_title
;
Structure prediction by ZEFSAII (Michael W. Deem and Ramdas Pophale) SiO2 
 PCOD9103521
Probable space group: P -1
;
_chemical_formula_sum "Si O2"
_cell_formula_units_Z 16
_cell_length_a 10.825073
_cell_length_b 9.293752
_cell_length_c 14.121855
_cell_angle_alpha 117.130380
_cell_angle_beta 32.196917
_cell_angle_gamma 102.452427
_cell_volume 628.794612
_symmetry_space_group_name_H-M "P -1"
_symmetry_group_IT_number 2
_symmetry_cell_setting 'triclinic'
loop_
_space_group_symop_operation_xyz
x,y,z
-x,-y,-z
loop_
_atom_site_type_symbol
_atom_site_label
_atom_site_fract_x
_atom_site_fract_y
_atom_site_fract_z
Si Si1 0.006533 0.842467 0.768820
Si Si2 0.499484 0.246852 0.486636
Si Si3 0.370914 0.837509 0.982319
Si Si4 0.312677 0.345836 0.983797
Si Si5 0.600990 0.358072 0.269710
Si Si6 0.134352 0.302394 0.888917
Si Si7 0.064260 0.293930 0.410321
Si Si8 0.805281 0.264135 0.754948
O O1 0.903415 0.708221 0.846204
O O2 0.089135 0.763498 0.587033
O O3 0.227007 0.869308 0.692071
O O4 0.770033 0.014960 0.956227
O O5 0.467382 0.267922 0.401251
O O6 0.480550 0.440183 0.590586
O O7 0.289121 0.206074 0.668822
O O8 0.433230 0.665444 0.825565
O O9 0.645696 0.813175 0.831575
O O10 0.186735 0.852571 0.193977
O O11 0.250686 0.548197 0.104786
O O12 0.310653 0.298283 0.861121
O O13 0.570729 0.259107 0.844819
O O14 0.895910 0.265724 0.068642
O O15 0.000000 0.500000 0.000000
O O16 0.000000 0.500000 0.500000
O O17 0.010303 0.246120 0.536918
#
# Coordination Sequence:
#
# PCOD9103521 Si02
#       8
#     2   2   2   2   2   2   2   2
#     4  12  24  44  66  95 141 170 209 272 342 383
#     4  10  21  40  68  93 122 176 223 268 315 391
#     4  12  27  43  62 102 139 169 212 275 328 387
#     4  11  21  41  68  98 129 173 214 271 325 381
#     4  10  22  40  66  93 127 171 227 269 314 378
#     4  10  20  38  66  96 126 162 222 274 311 373
#     4  12  23  43  72  95 124 176 223 265 317 392
#     4  11  23  41  69  96 130 169 224 263 316 395
#
# _framework density 25.445509999999999
#
# number of rings (size 3 to 8) (size 9 to 14) (size 15 to 20)
#    0.000    1.000    3.750    4.125    0.000    2.000 
#    2.250    0.625    0.000    0.000    0.000    0.000 
#    0.000    0.000    0.000    0.000    0.000    0.000 
#
# Total GULP energy -89514.887518 kJ/mol
# GULP energy per Si atom -5594.680470 kJ/mol
# Density = 2.538760 g / cm^3
# Si number density = 25.445510 Si / 1000 Ang^3
#
#
#
# Elastic Constant Matrix: (Units=GPa)
#
#
# Indices 1 2 3 4 5 6 
#
# 1 77.6027 18.1074 13.5397 -13.4076 12.3624 -15.6836
# 2 18.1074 46.5149 28.4666 -14.3280 2.3866 -14.2054
# 3 13.5397 28.4666 98.6347 -19.1568 6.5050 -21.5322
# 4 -13.4076 -14.3280 -19.1568 39.7221 -14.9639 8.6921
# 5 12.3624 2.3866 6.5050 -14.9639 51.7816 -4.8775
# 6 -15.6836 -14.2054 -21.5322 8.6921 -4.8775 24.5907
#
#
#
# Elastic Compliance Matrix: (Units=1/GPa)
#
#
# Indices 1 2 3 4 5 6 
#
# 1 0.015864 -0.003790 0.001145 0.001909 -0.002473 0.007766
# 2 -0.003790 0.030816 -0.005361 0.006350 0.002842 0.009010
# 3 0.001145 -0.005361 0.014095 0.003322 -0.000008 0.008800
# 4 0.001909 0.006350 0.003322 0.033333 0.008245 -0.002352
# 5 -0.002473 0.002842 -0.000008 0.008245 0.022303 0.001566
# 6 0.007766 0.009010 0.008800 -0.002352 0.001566 0.059671
#
#
# Mechanical properties :
#
#
# Convention : Reuss Voigt Hill
#
# Bulk Modulus (GPa) = 22.33910 38.10887 30.22398
# Shear Modulus (GPa) = 24.15299 34.06147 29.10723
#
# Velocity S-wave (km/s) = 3.08426 3.66266 3.38583
# Velocity P-wave (km/s) = 4.63484 5.73550 5.21430
#
# Compressibility (1/GPa) = 0.04476456
#
# Stress axis : x y z
#
# Youngs Moduli (GPa) = 63.03593 32.45043 70.94654
#
# Poissons Ratio (x) = 0.12298 -0.08126
# Poissons Ratio (y) = 0.23890 0.38033
# Poissons Ratio (z) = -0.07220 0.17396
#
# Static dielectric constant tensor:
#      x y z
#    x 2.020580 0.061380 0.021460 
#    y 0.061380 2.056890 0.004930 
#    z 0.021460 0.004930 2.020730 
# 
# From -- ./inp_files/515831.got.cif
#   From: 2010.05.17/outbox.cif.g08.bks.cpg/sg2_258_cif.got.tgz:515831.got - 2010.06.03 11:33:40.
