data_PCOD9103494
_publ_section_title
;
Structure prediction by ZEFSAII (Michael W. Deem and Ramdas Pophale) SiO2 
 PCOD9103494
Probable space group: P -1
;
_chemical_formula_sum "Si O2"
_cell_formula_units_Z 16
_cell_length_a 12.235414
_cell_length_b 8.519184
_cell_length_c 20.348992
_cell_angle_alpha 48.820182
_cell_angle_beta 29.943628
_cell_angle_gamma 45.985213
_cell_volume 751.969621
_symmetry_space_group_name_H-M "P -1"
_symmetry_group_IT_number 2
_symmetry_cell_setting 'triclinic'
loop_
_space_group_symop_operation_xyz
x,y,z
-x,-y,-z
loop_
_atom_site_type_symbol
_atom_site_label
_atom_site_fract_x
_atom_site_fract_y
_atom_site_fract_z
Si Si1 0.396976 0.182794 0.601257
Si Si2 0.375495 0.832315 0.133611
Si Si3 0.351509 0.557467 0.994398
Si Si4 0.751729 0.097101 0.676261
Si Si5 0.145590 0.098632 0.624697
Si Si6 0.473438 0.923633 0.761146
Si Si7 0.988448 0.406177 0.297344
Si Si8 0.054794 0.409695 0.409773
O O1 0.264189 0.111206 0.629530
O O2 0.280435 0.446432 0.598384
O O3 0.665537 0.083403 0.466961
O O4 0.353173 0.078242 0.721221
O O5 0.502706 0.609168 0.090622
O O6 0.392058 0.804391 0.210998
O O7 0.103045 0.930475 0.230534
O O8 0.500000 0.000000 0.000000
O O9 0.329569 0.801173 0.912523
O O10 0.500000 0.500000 0.000000
O O11 0.120023 0.498752 0.147896
O O12 0.891832 0.258279 0.538810
O O13 0.596310 0.048497 0.712740
O O14 0.931391 0.858420 0.670997
O O15 0.068416 0.346644 0.564522
O O16 0.686422 0.734414 0.667041
O O17 0.083632 0.454068 0.305112
#
# Coordination Sequence:
#
# PCOD9103494 Si02
#       8
#     2   2   2   2   2   2   2   2
#     4  10  23  40  65  97 140 179 212 265 334 413
#     4  12  23  41  70 100 126 168 226 285 326 375
#     4  12  20  39  68  93 126 173 222 272 322 386
#     4  11  23  38  65 100 130 164 230 283 325 371
#     4  10  22  43  65 100 132 180 219 268 338 393
#     4  11  21  38  64 100 124 175 222 275 326 390
#     4  10  20  40  59  91 130 173 213 258 330 393
#     4  10  20  38  66  94 128 166 227 284 314 375
#
# _framework density 21.277456999999998
#
# number of rings (size 3 to 8) (size 9 to 14) (size 15 to 20)
#    0.000    1.250    5.000    3.000    1.750    1.500 
#    0.000   11.250    0.000    1.500    0.000    0.000 
#    0.000    0.000    0.000    0.000    0.000    0.000 
#
# Total GULP energy -89342.870598 kJ/mol
# GULP energy per Si atom -5583.929412 kJ/mol
# Density = 2.122903 g / cm^3
# Si number density = 21.277457 Si / 1000 Ang^3
#
#
#
# Elastic Constant Matrix: (Units=GPa)
#
#
# Indices 1 2 3 4 5 6 
#
# 1 74.3588 21.5679 22.5923 0.8336 9.5434 2.3422
# 2 21.5679 107.7726 37.0770 9.8861 0.1639 4.1802
# 3 22.5923 37.0770 141.3936 -10.9014 -1.2563 9.9050
# 4 0.8336 9.8861 -10.9014 43.7005 4.9103 6.4149
# 5 9.5434 0.1639 -1.2563 4.9103 39.0518 2.0052
# 6 2.3422 4.1802 9.9050 6.4149 2.0052 35.2406
#
#
#
# Elastic Compliance Matrix: (Units=1/GPa)
#
#
# Indices 1 2 3 4 5 6 
#
# 1 0.015186 -0.002435 -0.001800 0.000244 -0.003787 -0.000044
# 2 -0.002435 0.011003 -0.002751 -0.003251 0.000860 0.000173
# 3 -0.001800 -0.002751 0.008502 0.003097 0.000466 -0.002534
# 4 0.000244 -0.003251 0.003097 0.025440 -0.002890 -0.004968
# 5 -0.003787 0.000860 0.000466 -0.002890 0.026958 -0.000989
# 6 -0.000044 0.000173 -0.002534 -0.004968 -0.000989 0.030032
#
#
# Mechanical properties :
#
#
# Convention : Reuss Voigt Hill
#
# Bulk Modulus (GPa) = 48.26493 53.99992 51.13243
# Shear Modulus (GPa) = 36.23216 39.75109 37.99162
#
# Velocity S-wave (km/s) = 4.13103 4.32699 4.23014
# Velocity P-wave (km/s) = 6.74438 7.09914 6.92403
#
# Compressibility (1/GPa) = 0.02071898
#
# Stress axis : x y z
#
# Youngs Moduli (GPa) = 65.84981 90.88597 117.62042
#
# Poissons Ratio (x) = 0.22129 0.21169
# Poissons Ratio (y) = 0.16034 0.32361
# Poissons Ratio (z) = 0.11851 0.25005
#
# Static dielectric constant tensor:
#      x y z
#    x 1.791630 0.022770 0.011730 
#    y 0.022770 1.822970 0.011580 
#    z 0.011730 0.011580 1.792410 
# 
# From -- ./inp_files/594025.got.cif
#   From: 2010.05.17/outbox.cif.g08.bks.cpg/sg2_298_cif.got.tgz:594025.got - 2010.06.03 11:33:40.
