data_PCOD9103583
_publ_section_title
;
Structure prediction by ZEFSAII (Michael W. Deem and Ramdas Pophale) SiO2 
 PCOD9103583
Probable space group: P -1
;
_chemical_formula_sum "Si O2"
_cell_formula_units_Z 16
_cell_length_a 13.188212
_cell_length_b 8.869582
_cell_length_c 7.591463
_cell_angle_alpha 87.391216
_cell_angle_beta 130.538397
_cell_angle_gamma 72.856444
_cell_volume 609.532280
_symmetry_space_group_name_H-M "P -1"
_symmetry_group_IT_number 2
_symmetry_cell_setting 'triclinic'
loop_
_space_group_symop_operation_xyz
x,y,z
-x,-y,-z
loop_
_atom_site_type_symbol
_atom_site_label
_atom_site_fract_x
_atom_site_fract_y
_atom_site_fract_z
Si Si1 0.809426 0.000923 0.255791
Si Si2 0.024060 0.177815 0.225545
Si Si3 0.218601 0.619585 0.300460
Si Si4 0.602695 0.315197 0.196751
Si Si5 0.259738 0.011048 0.208231
Si Si6 0.581250 0.765594 0.519294
Si Si7 0.914450 0.523292 0.583472
Si Si8 0.622359 0.793425 0.156074
O O1 0.829195 0.971651 0.073110
O O2 0.947275 0.905933 0.546027
O O3 0.723951 0.194637 0.202044
O O4 0.700168 0.910974 0.185766
O O5 0.135852 0.748693 0.046829
O O6 0.149946 0.050084 0.247074
O O7 0.056328 0.340312 0.279323
O O8 0.315674 0.669181 0.539629
O O9 0.323809 0.434045 0.358230
O O10 0.086038 0.612760 0.272470
O O11 0.500000 0.500000 0.000000
O O12 0.498280 0.218797 0.107460
O O13 0.325264 0.150498 0.281801
O O14 0.411894 0.842079 0.384620
O O15 0.569398 0.823396 0.297359
O O16 0.748191 0.606942 0.321288
O O17 0.000000 0.500000 0.500000
#
# Coordination Sequence:
#
# PCOD9103583 Si02
#       8
#     2   2   2   2   2   2   2   2
#     4  11  24  41  71 105 136 186 236 292 346 424
#     4  11  25  42  67 107 139 186 237 288 355 418
#     4  11  23  42  68 103 150 185 230 301 351 423
#     4  12  22  42  73 102 142 190 233 291 364 417
#     4  11  21  39  72 103 141 176 236 296 350 408
#     4  10  20  38  67 104 133 177 232 290 349 404
#     4  10  21  39  71 104 141 182 236 290 352 417
#     4  10  20  41  67 106 135 176 241 289 343 415
#
# _framework density 26.249632999999999
#
# number of rings (size 3 to 8) (size 9 to 14) (size 15 to 20)
#    0.000    1.250    7.500    0.750    3.500    0.500 
#    0.000    0.625    2.750    6.000    0.000    0.000 
#    0.000    0.000    0.000    0.000    0.000    0.000 
#
# Total GULP energy -89667.782096 kJ/mol
# GULP energy per Si atom -5604.236381 kJ/mol
# Density = 2.618989 g / cm^3
# Si number density = 26.249633 Si / 1000 Ang^3
#
#
#
# Elastic Constant Matrix: (Units=GPa)
#
#
# Indices 1 2 3 4 5 6 
#
# 1 94.7243 48.1653 60.9587 -1.3962 -17.5066 0.0527
# 2 48.1653 137.3997 71.6949 -1.9353 -3.5030 -9.7371
# 3 60.9587 71.6949 226.8650 8.7325 12.0643 -0.3430
# 4 -1.3962 -1.9353 8.7325 42.3983 3.6270 0.2195
# 5 -17.5066 -3.5030 12.0643 3.6270 44.9764 -4.0067
# 6 0.0527 -9.7371 -0.3430 0.2195 -4.0067 43.1258
#
#
#
# Elastic Compliance Matrix: (Units=1/GPa)
#
#
# Indices 1 2 3 4 5 6 
#
# 1 0.015907 -0.003571 -0.003527 0.000507 0.006798 -0.000225
# 2 -0.003571 0.009838 -0.002180 0.000761 0.000097 0.002213
# 3 -0.003527 -0.002180 0.006260 -0.001229 -0.003188 -0.000728
# 4 0.000507 0.000761 -0.001229 0.024007 -0.001358 -0.000087
# 5 0.006798 0.000097 -0.003188 -0.001358 0.026068 0.002417
# 6 -0.000225 0.002213 -0.000728 -0.000087 0.002417 0.023907
#
#
# Mechanical properties :
#
#
# Convention : Reuss Voigt Hill
#
# Bulk Modulus (GPa) = 74.36284 91.18076 82.77180
# Shear Modulus (GPa) = 38.75192 44.64478 41.69835
#
# Velocity S-wave (km/s) = 3.84641 4.12852 3.98996
# Velocity P-wave (km/s) = 6.93665 7.58536 7.26825
#
# Compressibility (1/GPa) = 0.01344758
#
# Stress axis : x y z
#
# Youngs Moduli (GPa) = 62.86705 101.64972 159.73478
#
# Poissons Ratio (x) = 0.36301 0.56337
# Poissons Ratio (y) = 0.22451 0.34830
# Poissons Ratio (z) = 0.22173 0.22164
#
# Static dielectric constant tensor:
#      x y z
#    x 2.142530 0.021700 -0.021080 
#    y 0.021700 2.059040 -0.035780 
#    z -0.021080 -0.035780 2.062890 
# 
# From -- ./inp_files/292794.got.cif
#   From: 2010.05.17/outbox.cif.g08.bks.cpg/sg2_147_cif.got.tgz:292794.got - 2010.06.03 11:33:40.
