data_PCOD9103635
_publ_section_title
;
Structure prediction by ZEFSAII (Michael W. Deem and Ramdas Pophale) SiO2 
 PCOD9103635
Probable space group: P -1
;
_chemical_formula_sum "Si O2"
_cell_formula_units_Z 14
_cell_length_a 15.031900
_cell_length_b 11.595875
_cell_length_c 9.861215
_cell_angle_alpha 66.912253
_cell_angle_beta 49.111475
_cell_angle_gamma 32.475401
_cell_volume 641.172640
_symmetry_space_group_name_H-M "P -1"
_symmetry_group_IT_number 2
_symmetry_cell_setting 'triclinic'
loop_
_space_group_symop_operation_xyz
x,y,z
-x,-y,-z
loop_
_atom_site_type_symbol
_atom_site_label
_atom_site_fract_x
_atom_site_fract_y
_atom_site_fract_z
Si Si1 0.282072 0.645425 0.022489
Si Si2 0.423626 0.398228 0.259886
Si Si3 0.286902 0.863034 0.317150
Si Si4 0.595660 0.981681 0.282677
Si Si5 0.436346 0.160107 0.879003
Si Si6 0.055451 0.695142 0.020592
Si Si7 0.865349 0.257810 0.370325
O O1 0.344115 0.735984 0.912619
O O2 0.500491 0.384625 0.858722
O O3 0.276897 0.603871 0.201287
O O4 0.081423 0.774365 0.076681
O O5 0.312573 0.511512 0.464635
O O6 0.447583 0.233320 0.271009
O O7 0.368272 0.913404 0.289367
O O8 0.199077 0.830785 0.515313
O O9 0.099269 0.061989 0.302629
O O10 0.612694 0.867549 0.197931
O O11 0.823276 0.840814 0.161768
O O12 0.500000 0.000000 0.500000
O O13 0.223362 0.431347 0.007328
O O14 0.500000 0.000000 0.000000
O O15 0.131189 0.691847 0.806439
#
# Coordination Sequence:
#
# PCOD9103635 Si02
#       7
#     2   2   2   2   2   2   2
#     4   9  20  39  64  87 118 153 195 248 295 343
#     4  10  21  39  59  89 123 155 190 239 301 350
#     4   9  20  38  63  92 118 157 201 241 292 345
#     4  12  26  40  57  86 124 156 193 244 297 356
#     4  11  23  41  63  85 120 164 200 235 286 360
#     4  11  23  41  63  87 113 156 206 248 292 342
#     4  10  20  38  67  92 117 149 200 255 292 342
#
# _framework density 21.834993000000001
#
# number of rings (size 3 to 8) (size 9 to 14) (size 15 to 20)
#    0.000    1.714    0.000    4.714    0.000   10.286 
#    0.000    2.143    0.000    0.000    0.000    0.000 
#    0.000    0.000    0.000    0.000    0.000    0.000 
#
# Total GULP energy -78346.610585 kJ/mol
# GULP energy per Si atom -5596.186470 kJ/mol
# Density = 2.178530 g / cm^3
# Si number density = 21.834993 Si / 1000 Ang^3
#
#
#
# Elastic Constant Matrix: (Units=GPa)
#
#
# Indices 1 2 3 4 5 6 
#
# 1 146.4550 -0.4210 30.3280 -3.8300 -17.9296 -5.2503
# 2 -0.4210 56.2878 4.2097 -11.5467 -12.5212 2.8100
# 3 30.3280 4.2097 78.1956 -15.5456 -0.4213 -10.5531
# 4 -3.8300 -11.5467 -15.5456 22.9054 -2.1237 0.9753
# 5 -17.9296 -12.5212 -0.4213 -2.1237 26.7659 -3.2554
# 6 -5.2503 2.8100 -10.5531 0.9753 -3.2554 36.3372
#
#
#
# Elastic Compliance Matrix: (Units=1/GPa)
#
#
# Indices 1 2 3 4 5 6 
#
# 1 0.008311 0.001890 -0.003016 0.000872 0.006563 0.000743
# 2 0.001890 0.023591 0.000785 0.014002 0.013364 -0.000502
# 3 -0.003016 0.000785 0.016652 0.011018 -0.000025 0.004042
# 4 0.000872 0.014002 0.011018 0.059400 0.012233 0.001745
# 5 0.006563 0.013364 -0.000025 0.012233 0.049467 0.004011
# 6 0.000743 -0.000502 0.004042 0.001745 0.004011 0.029153
#
#
# Mechanical properties :
#
#
# Convention : Reuss Voigt Hill
#
# Bulk Modulus (GPa) = 20.88956 38.79689 29.84323
# Shear Modulus (GPa) = 24.60464 33.65648 29.13056
#
# Velocity S-wave (km/s) = 3.36049 3.93033 3.65653
# Velocity P-wave (km/s) = 4.96437 6.19705 5.61464
#
# Compressibility (1/GPa) = 0.04787079
#
# Stress axis : x y z
#
# Youngs Moduli (GPa) = 120.32250 42.38840 60.05386
#
# Poissons Ratio (x) = -0.08009 0.18113
# Poissons Ratio (y) = -0.22735 -0.04714
# Poissons Ratio (z) = 0.36290 -0.03327
#
# Static dielectric constant tensor:
#      x y z
#    x 1.815610 0.014520 -0.010510 
#    y 0.014520 1.821810 0.019480 
#    z -0.010510 0.019480 1.769130 
# 
# From -- ./inp_files/185546.got.cif
#   From: 2010.05.17/outbox.cif.g08.bks.cpg/sg2_93_cif.got.tgz:185546.got - 2010.06.03 11:33:40.
