data_PCOD9103639
_publ_section_title
;
Structure prediction by ZEFSAII (Michael W. Deem and Ramdas Pophale) SiO2 
 PCOD9103639
Probable space group: P -1
;
_chemical_formula_sum "Si O2"
_cell_formula_units_Z 16
_cell_length_a 8.310565
_cell_length_b 8.114423
_cell_length_c 12.771005
_cell_angle_alpha 57.327760
_cell_angle_beta 79.988207
_cell_angle_gamma 92.922717
_cell_volume 702.928378
_symmetry_space_group_name_H-M "P -1"
_symmetry_group_IT_number 2
_symmetry_cell_setting 'triclinic'
loop_
_space_group_symop_operation_xyz
x,y,z
-x,-y,-z
loop_
_atom_site_type_symbol
_atom_site_label
_atom_site_fract_x
_atom_site_fract_y
_atom_site_fract_z
Si Si1 0.433704 0.591608 0.236329
Si Si2 0.789710 0.839988 0.057137
Si Si3 0.350654 0.985429 0.184313
Si Si4 0.085139 0.817722 0.908301
Si Si5 0.625412 0.356852 0.999323
Si Si6 0.475068 0.305954 0.498694
Si Si7 0.203457 0.892614 0.440098
Si Si8 0.875743 0.941692 0.382365
O O1 0.621905 0.689867 0.151847
O O2 0.434975 0.383489 0.361914
O O3 0.372035 0.756452 0.259935
O O4 0.329495 0.581349 0.145654
O O5 0.845651 0.979414 0.102207
O O6 0.759543 0.980829 0.914401
O O7 0.929079 0.731097 0.028566
O O8 0.520235 0.133431 0.090042
O O9 0.286399 0.036737 0.287365
O O10 0.214007 0.666193 0.946027
O O11 0.058508 0.891370 0.769031
O O12 0.500000 0.500000 0.000000
O O13 0.500000 0.500000 0.500000
O O14 0.647057 0.225333 0.510332
O O15 0.305619 0.164216 0.600869
O O16 0.022403 0.812863 0.433350
O O17 0.160676 0.974277 0.528858
#
# Coordination Sequence:
#
# PCOD9103639 Si02
#       8
#     2   2   2   2   2   2   2   2
#     4  11  22  42  60  97 133 171 219 271 336 406
#     4  10  20  38  67  92 122 169 221 274 328 391
#     4  11  19  44  66  89 131 174 224 267 333 404
#     4  11  20  39  66  96 124 169 223 273 333 392
#     4  11  24  37  64  99 129 168 216 281 339 398
#     4  12  25  43  69 101 136 179 227 283 334 391
#     4  11  25  46  68  99 137 185 226 275 336 410
#     4  11  26  45  70  99 137 183 228 273 339 410
#
# _framework density 22.76192
#
# number of rings (size 3 to 8) (size 9 to 14) (size 15 to 20)
#    0.000    1.000    5.000    2.625    3.500    0.500 
#    2.250    2.500    0.000    0.000    0.000    0.000 
#    0.000    0.000    0.000    0.000    0.000    0.000 
#
# Total GULP energy -89267.498903 kJ/mol
# GULP energy per Si atom -5579.218681 kJ/mol
# Density = 2.271011 g / cm^3
# Si number density = 22.761920 Si / 1000 Ang^3
#
#
#
# Elastic Constant Matrix: (Units=GPa)
#
#
# Indices 1 2 3 4 5 6 
#
# 1 114.2437 31.3254 2.2999 -5.0041 17.4824 -32.1669
# 2 31.3254 41.8991 8.4976 5.8866 10.6322 -8.9288
# 3 2.2999 8.4976 122.9703 18.6272 14.8484 -9.3005
# 4 -5.0041 5.8866 18.6272 30.6216 -6.8868 9.4826
# 5 17.4824 10.6322 14.8484 -6.8868 32.8121 -0.7004
# 6 -32.1669 -8.9288 -9.3005 9.4826 -0.7004 26.1551
#
#
#
# Elastic Compliance Matrix: (Units=1/GPa)
#
#
# Indices 1 2 3 4 5 6 
#
# 1 0.019000 -0.004980 0.005024 -0.010055 -0.012322 0.026769
# 2 -0.004980 0.035174 0.002540 -0.015802 -0.012951 0.012168
# 3 0.005024 0.002540 0.012995 -0.015599 -0.012292 0.016993
# 4 -0.010055 -0.015802 -0.015599 0.064521 0.030099 -0.045894
# 5 -0.012322 -0.012951 -0.012292 0.030099 0.052404 -0.033456
# 6 0.026769 0.012168 0.016993 -0.045894 -0.033456 0.097095
#
#
# Mechanical properties :
#
#
# Convention : Reuss Voigt Hill
#
# Bulk Modulus (GPa) = 13.82395 40.37321 27.09858
# Shear Modulus (GPa) = 16.65924 33.71710 25.18817
#
# Velocity S-wave (km/s) = 2.70828 3.85293 3.33016
# Velocity P-wave (km/s) = 3.98324 6.12937 5.16891
#
# Compressibility (1/GPa) = 0.07233823
#
# Stress axis : x y z
#
# Youngs Moduli (GPa) = 52.63144 28.42975 76.95327
#
# Poissons Ratio (x) = 0.14158 -0.38664
# Poissons Ratio (y) = 0.26211 -0.19547
# Poissons Ratio (z) = -0.26444 -0.07222
#
# Static dielectric constant tensor:
#      x y z
#    x 1.938170 -0.021880 0.026580 
#    y -0.021880 1.867180 0.028600 
#    z 0.026580 0.028600 1.876920 
# 
# From -- ./inp_files/377928.got.cif
#   From: 2010.05.17/outbox.cif.g08.bks.cpg/sg2_189_cif.got.tgz:377928.got - 2010.06.03 11:33:40.
