data_PCOD9103415
_publ_section_title
;
Structure prediction by ZEFSAII (Michael W. Deem and Ramdas Pophale) SiO2 
 PCOD9103415
Probable space group: P -1
;
_chemical_formula_sum "Si O2"
_cell_formula_units_Z 16
_cell_length_a 5.552400
_cell_length_b 20.622449
_cell_length_c 8.602386
_cell_angle_alpha 126.050113
_cell_angle_beta 57.695041
_cell_angle_gamma 102.349290
_cell_volume 665.775418
_symmetry_space_group_name_H-M "P -1"
_symmetry_group_IT_number 2
_symmetry_cell_setting 'triclinic'
loop_
_space_group_symop_operation_xyz
x,y,z
-x,-y,-z
loop_
_atom_site_type_symbol
_atom_site_label
_atom_site_fract_x
_atom_site_fract_y
_atom_site_fract_z
Si Si1 0.202314 0.880149 0.677079
Si Si2 0.595636 0.950775 0.092699
Si Si3 0.552013 0.695753 0.814531
Si Si4 0.638181 0.825891 0.191392
Si Si5 0.916333 0.383202 0.948553
Si Si6 0.229948 0.841100 0.956748
Si Si7 0.439371 0.595019 0.204337
Si Si8 0.381923 0.449113 0.602145
O O1 0.371389 0.833988 0.411265
O O2 0.365705 0.958679 0.752005
O O3 0.208797 0.829791 0.763849
O O4 0.863595 0.914391 0.838372
O O5 0.593524 0.897131 0.175735
O O6 0.313891 0.930374 0.075769
O O7 0.269442 0.662615 0.932707
O O8 0.728492 0.623237 0.555442
O O9 0.687291 0.737832 0.969870
O O10 0.468055 0.770252 0.832892
O O11 0.954316 0.836899 0.154982
O O12 0.837794 0.479755 0.145335
O O13 0.782831 0.367952 0.801605
O O14 0.259516 0.366142 0.837257
O O15 0.389074 0.588699 0.399488
O O16 0.500000 0.500000 0.000000
O O17 0.500000 0.500000 0.500000
#
# Coordination Sequence:
#
# PCOD9103415 Si02
#       8
#     2   2   2   2   2   2   2   2
#     4  10  20  38  66  90 123 167 210 267 333 384
#     4   9  20  39  62  94 122 160 216 269 322 396
#     4  10  23  42  54  86 128 167 213 262 334 392
#     4  10  22  39  59  89 131 168 211 269 325 401
#     4  10  22  41  66  92 124 166 223 278 325 392
#     4  10  22  39  58  90 130 162 218 266 323 403
#     4  10  20  40  64  95 122 153 220 278 331 396
#     4   9  19  40  62  87 119 165 205 271 326 375
#
# _framework density 24.032129999999999
#
# number of rings (size 3 to 8) (size 9 to 14) (size 15 to 20)
#    0.000    2.250    0.000    2.250    1.750    3.500 
#   13.500    8.750    0.000    0.000    0.000    0.000 
#    0.000    0.000    0.000    0.000    0.000    0.000 
#
# Total GULP energy -89162.966791 kJ/mol
# GULP energy per Si atom -5572.685424 kJ/mol
# Density = 2.397743 g / cm^3
# Si number density = 24.032130 Si / 1000 Ang^3
#
#
#
# Elastic Constant Matrix: (Units=GPa)
#
#
# Indices 1 2 3 4 5 6 
#
# 1 77.9530 22.7070 26.5442 -5.4510 8.5731 15.9926
# 2 22.7070 89.0335 27.3743 -10.0720 2.0703 8.3929
# 3 26.5442 27.3743 95.4743 -17.8349 12.6177 6.0341
# 4 -5.4510 -10.0720 -17.8349 43.2831 4.9670 3.5217
# 5 8.5731 2.0703 12.6177 4.9670 16.4432 -0.5986
# 6 15.9926 8.3929 6.0341 3.5217 -0.5986 34.9621
#
#
#
# Elastic Compliance Matrix: (Units=1/GPa)
#
#
# Indices 1 2 3 4 5 6 
#
# 1 0.016707 -0.002548 -0.002056 0.002120 -0.007708 -0.007021
# 2 -0.002548 0.013042 -0.002819 0.001531 0.001328 -0.001610
# 3 -0.002056 -0.002819 0.014815 0.006719 -0.012038 -0.001823
# 4 0.002120 0.001531 0.006719 0.028715 -0.015334 -0.005652
# 5 -0.007708 0.001328 -0.012038 -0.015334 0.078834 0.008179
# 6 -0.007021 -0.001610 -0.001823 -0.005652 0.008179 0.033225
#
#
# Mechanical properties :
#
#
# Convention : Reuss Voigt Hill
#
# Bulk Modulus (GPa) = 33.64849 46.19020 39.91935
# Shear Modulus (GPa) = 23.79938 31.32670 27.56304
#
# Velocity S-wave (km/s) = 3.15034 3.61437 3.39030
# Velocity P-wave (km/s) = 5.22156 6.05641 5.65442
#
# Compressibility (1/GPa) = 0.02971901
#
# Stress axis : x y z
#
# Youngs Moduli (GPa) = 59.85542 76.67329 67.49864
#
# Poissons Ratio (x) = 0.19535 0.13878
# Poissons Ratio (y) = 0.15250 0.19027
# Poissons Ratio (z) = 0.12306 0.21613
#
# Static dielectric constant tensor:
#      x y z
#    x 1.952800 0.105610 0.107950 
#    y 0.105610 1.829760 -0.107160 
#    z 0.107950 -0.107160 1.876990 
# 
# From -- ./inp_files/142649.got.cif
#   From: 2010.05.17/outbox.cif.g08.bks.cpg/sg2_72_cif.got.tgz:142649.got - 2010.06.03 11:33:40.
