data_PCOD9103441
_publ_section_title
;
Structure prediction by ZEFSAII (Michael W. Deem and Ramdas Pophale) SiO2 
 PCOD9103441
Probable space group: P -1
;
_chemical_formula_sum "Si O2"
_cell_formula_units_Z 16
_cell_length_a 13.746439
_cell_length_b 5.540230
_cell_length_c 12.726865
_cell_angle_alpha 100.573455
_cell_angle_beta 115.467392
_cell_angle_gamma 120.382747
_cell_volume 647.164150
_symmetry_space_group_name_H-M "P -1"
_symmetry_group_IT_number 2
_symmetry_cell_setting 'triclinic'
loop_
_space_group_symop_operation_xyz
x,y,z
-x,-y,-z
loop_
_atom_site_type_symbol
_atom_site_label
_atom_site_fract_x
_atom_site_fract_y
_atom_site_fract_z
Si Si1 0.967732 0.670922 0.417364
Si Si2 0.328119 0.819744 0.029135
Si Si3 0.759184 0.825723 0.516103
Si Si4 0.765226 0.592175 0.707795
Si Si5 0.343966 0.691366 0.728308
Si Si6 0.377055 0.367468 0.018350
Si Si7 0.518347 0.764795 0.334793
Si Si8 0.154605 0.722537 0.141353
O O1 0.798565 0.413252 0.295743
O O2 0.000000 0.500000 0.500000
O O3 0.000000 0.000000 0.500000
O O4 0.086228 0.819963 0.393873
O O5 0.292179 0.486463 0.958361
O O6 0.268962 0.788904 0.115007
O O7 0.503395 0.085348 0.125471
O O8 0.281908 0.983701 0.954025
O O9 0.772315 0.628494 0.589459
O O10 0.706771 0.648898 0.363547
O O11 0.622993 0.791320 0.469700
O O12 0.607526 0.318478 0.659633
O O13 0.850541 0.491370 0.787026
O O14 0.806984 0.937316 0.786429
O O15 0.384953 0.906104 0.661017
O O16 0.439501 0.508440 0.177519
O O17 0.500000 0.500000 0.000000
O O18 0.000000 0.500000 0.000000
#
# Coordination Sequence:
#
# PCOD9103441 Si02
#       8
#     2   2   2   2   2   2   2   2
#     4  10  21  36  60  85 131 181 213 262 326 401
#     4  11  21  43  67  95 127 173 220 283 342 392
#     4  11  23  39  65 102 142 176 226 271 341 417
#     4  12  26  42  70 104 134 181 231 283 338 419
#     4  10  20  38  66  91 135 179 213 267 345 398
#     4  11  22  39  66  97 130 169 229 276 329 395
#     4  11  21  40  67  98 143 177 216 281 344 396
#     4  12  25  48  71  91 136 186 228 286 351 398
#
# _framework density 24.723248999999999
#
# number of rings (size 3 to 8) (size 9 to 14) (size 15 to 20)
#    0.000    1.000    6.250    1.125    1.750    0.500 
#    0.000    5.000    0.000    0.000    0.000    0.000 
#    0.000    0.000    0.000    0.000    0.000    0.000 
#
# Total GULP energy -89294.016304 kJ/mol
# GULP energy per Si atom -5580.876019 kJ/mol
# Density = 2.466698 g / cm^3
# Si number density = 24.723249 Si / 1000 Ang^3
#
#
#
# Elastic Constant Matrix: (Units=GPa)
#
#
# Indices 1 2 3 4 5 6 
#
# 1 82.5701 40.5896 44.7913 5.7844 13.4014 -10.6357
# 2 40.5896 165.3866 37.2322 -24.2631 3.7775 -24.0146
# 3 44.7913 37.2322 66.6583 4.4994 15.8918 6.5779
# 4 5.7844 -24.2631 4.4994 36.3912 -7.4689 -1.4037
# 5 13.4014 3.7775 15.8918 -7.4689 45.5435 4.1743
# 6 -10.6357 -24.0146 6.5779 -1.4037 4.1743 55.6318
#
#
#
# Elastic Compliance Matrix: (Units=1/GPa)
#
#
# Indices 1 2 3 4 5 6 
#
# 1 0.021400 -0.002157 -0.012758 -0.003632 -0.002700 0.004780
# 2 -0.002157 0.009592 -0.005536 0.008147 0.002705 0.004385
# 3 -0.012758 -0.005536 0.029469 -0.006944 -0.006475 -0.008002
# 4 -0.003632 0.008147 -0.006944 0.036222 0.008396 0.003927
# 5 -0.002700 0.002705 -0.006475 0.008396 0.026194 -0.000337
# 6 0.004780 0.004385 -0.008002 0.003927 -0.000337 0.021853
#
#
# Mechanical properties :
#
#
# Convention : Reuss Voigt Hill
#
# Bulk Modulus (GPa) = 51.12583 62.20456 56.66520
# Shear Modulus (GPa) = 26.02106 40.31343 33.16725
#
# Velocity S-wave (km/s) = 3.24774 4.04243 3.66668
# Velocity P-wave (km/s) = 5.89812 6.85590 6.39497
#
# Compressibility (1/GPa) = 0.01955958
#
# Stress axis : x y z
#
# Youngs Moduli (GPa) = 46.72803 104.24964 33.93440
#
# Poissons Ratio (x) = 0.22490 0.43293
# Poissons Ratio (y) = 0.10081 0.18785
# Poissons Ratio (z) = 0.59615 0.57711
#
# Static dielectric constant tensor:
#      x y z
#    x 2.103330 -0.085800 -0.076510 
#    y -0.085800 2.019160 0.004810 
#    z -0.076510 0.004810 2.015370 
# 
# From -- ./inp_files/525862.got.cif
#   From: 2010.05.17/outbox.cif.g08.bks.cpg/sg2_263_cif.got.tgz:525862.got - 2010.06.03 11:33:40.
