data_PCOD9103667
_publ_section_title
;
Structure prediction by ZEFSAII (Michael W. Deem and Ramdas Pophale) SiO2 
 PCOD9103667
Probable space group: P -1
;
_chemical_formula_sum "Si O2"
_cell_formula_units_Z 12
_cell_length_a 8.538566
_cell_length_b 7.491905
_cell_length_c 15.553862
_cell_angle_alpha 65.150553
_cell_angle_beta 142.545435
_cell_angle_gamma 122.420927
_cell_volume 510.740249
_symmetry_space_group_name_H-M "P -1"
_symmetry_group_IT_number 2
_symmetry_cell_setting 'triclinic'
loop_
_space_group_symop_operation_xyz
x,y,z
-x,-y,-z
loop_
_atom_site_type_symbol
_atom_site_label
_atom_site_fract_x
_atom_site_fract_y
_atom_site_fract_z
Si Si1 0.310097 0.490514 0.654829
Si Si2 0.443543 0.839807 0.425228
Si Si3 0.302550 0.061670 0.658067
Si Si4 0.828171 0.769969 0.722407
Si Si5 0.619127 0.177341 0.090245
Si Si6 0.850658 0.728998 0.195961
O O1 0.355470 0.296705 0.665429
O O2 0.585827 0.680305 0.705366
O O3 0.305534 0.426786 0.764695
O O4 0.000000 0.500000 0.500000
O O5 0.516461 0.947524 0.343016
O O6 0.662683 0.734094 0.567713
O O7 0.128834 0.683005 0.312346
O O8 0.500000 0.000000 0.500000
O O9 0.336986 0.923768 0.780554
O O10 0.000000 0.000000 0.500000
O O11 0.076322 0.682056 0.841586
O O12 0.998437 0.022821 0.759107
O O13 0.377332 0.271150 0.972266
O O14 0.500000 0.000000 0.000000
#
# Coordination Sequence:
#
# PCOD9103667 Si02
#       6
#     2   2   2   2   2   2
#     4  12  24  39  71 105 129 175 228 276 332 398
#     4  10  20  39  66  96 131 172 221 274 318 390
#     4  12  23  41  72 100 129 184 227 262 340 405
#     4  10  20  38  67  94 133 177 215 273 332 389
#     4  10  20  42  67  99 135 179 213 279 336 398
#     4  10  21  42  64  95 141 172 217 277 337 389
#
# _framework density 23.495307
#
# number of rings (size 3 to 8) (size 9 to 14) (size 15 to 20)
#    0.000    1.333    6.667    1.000    2.333    2.000 
#    0.000    0.000    0.000    2.000    0.000    0.000 
#    0.000    0.000    0.000    0.000    0.000    0.000 
#
# Total GULP energy -66848.861315 kJ/mol
# GULP energy per Si atom -5570.738443 kJ/mol
# Density = 2.344183 g / cm^3
# Si number density = 23.495307 Si / 1000 Ang^3
#
#
#
# Elastic Constant Matrix: (Units=GPa)
#
#
# Indices 1 2 3 4 5 6 
#
# 1 123.6063 42.9003 72.4978 6.2941 -1.3413 43.0764
# 2 42.9003 75.6053 48.0968 -5.3308 -3.3378 20.9361
# 3 72.4978 48.0968 194.4740 -10.4631 26.8959 26.2764
# 4 6.2941 -5.3308 -10.4631 20.1847 12.5976 -8.3491
# 5 -1.3413 -3.3378 26.8959 12.5976 56.2339 -0.0849
# 6 43.0764 20.9361 26.2764 -8.3491 -0.0849 58.0854
#
#
#
# Elastic Compliance Matrix: (Units=1/GPa)
#
#
# Indices 1 2 3 4 5 6 
#
# 1 0.018780 -0.004199 -0.006463 -0.020328 0.007825 -0.012401
# 2 -0.004199 0.018120 -0.002748 0.002928 0.001631 -0.001751
# 3 -0.006463 -0.002748 0.009509 0.012315 -0.007619 0.003240
# 4 -0.020328 0.002928 0.012315 0.087879 -0.025856 0.021043
# 5 0.007825 0.001631 -0.007619 -0.025856 0.027493 -0.006620
# 6 -0.012401 -0.001751 0.003240 0.021043 -0.006620 0.028593
#
#
# Mechanical properties :
#
#
# Convention : Reuss Voigt Hill
#
# Bulk Modulus (GPa) = 51.04358 80.07506 65.55932
# Shear Modulus (GPa) = 22.34912 42.24686 32.29799
#
# Velocity S-wave (km/s) = 3.08753 4.24500 3.71166
# Velocity P-wave (km/s) = 5.87219 7.62771 6.80678
#
# Compressibility (1/GPa) = 0.01959110
#
# Stress axis : x y z
#
# Youngs Moduli (GPa) = 53.24942 55.18662 105.15951
#
# Poissons Ratio (x) = 0.23171 0.67963
# Poissons Ratio (y) = 0.22357 0.28894
# Poissons Ratio (z) = 0.34414 0.15163
#
# Static dielectric constant tensor:
#      x y z
#    x 2.218170 -0.251750 0.122460 
#    y -0.251750 2.189140 -0.065960 
#    z 0.122460 -0.065960 1.900370 
# 
# From -- ./inp_files/492380.got.cif
#   From: 2010.05.17/outbox.cif.g08.bks.cpg/sg2_247_cif.got.tgz:492380.got - 2010.06.03 11:33:40.
