data_PCOD9103565
_publ_section_title
;
Structure prediction by ZEFSAII (Michael W. Deem and Ramdas Pophale) SiO2 
 PCOD9103565
Probable space group: P -1
;
_chemical_formula_sum "Si O2"
_cell_formula_units_Z 16
_cell_length_a 18.468605
_cell_length_b 15.259149
_cell_length_c 11.081267
_cell_angle_alpha 149.868205
_cell_angle_beta 137.116812
_cell_angle_gamma 24.643034
_cell_volume 632.056075
_symmetry_space_group_name_H-M "P -1"
_symmetry_group_IT_number 2
_symmetry_cell_setting 'triclinic'
loop_
_space_group_symop_operation_xyz
x,y,z
-x,-y,-z
loop_
_atom_site_type_symbol
_atom_site_label
_atom_site_fract_x
_atom_site_fract_y
_atom_site_fract_z
Si Si1 0.495416 0.928594 0.546396
Si Si2 0.504959 0.742356 0.884341
Si Si3 0.196015 0.682822 0.904621
Si Si4 0.659415 0.542672 0.567708
Si Si5 0.670120 0.226607 0.643900
Si Si6 0.107886 0.460929 0.686968
Si Si7 0.977506 0.336397 0.728716
Si Si8 0.874140 0.928550 0.163951
O O1 0.673989 0.574876 0.343188
O O2 0.500000 0.000000 0.500000
O O3 0.294372 0.116192 0.531274
O O4 0.496520 0.085634 0.829002
O O5 0.593689 0.653286 0.757200
O O6 0.607816 0.452487 0.736543
O O7 0.304621 0.936117 0.852723
O O8 0.157669 0.585362 0.842382
O O9 0.308490 0.692121 0.111219
O O10 0.000000 0.000000 0.000000
O O11 0.481049 0.723250 0.492694
O O12 0.780895 0.548911 0.695239
O O13 0.798033 0.196812 0.320046
O O14 0.867699 0.903975 0.464159
O O15 0.000000 0.500000 0.500000
O O16 0.990006 0.654426 0.890764
O O17 0.016004 0.173884 0.703670
O O18 0.000000 0.500000 0.000000
#
# Coordination Sequence:
#
# PCOD9103565 Si02
#       8
#     2   2   2   2   2   2   2   2
#     4  10  20  38  66  99 134 180 237 293 335 419
#     4  11  19  40  72 103 132 177 243 296 336 412
#     4  11  25  46  71 100 146 189 235 302 366 415
#     4  11  23  40  74 102 132 185 239 288 353 419
#     4  11  22  44  68 104 140 180 238 292 349 426
#     4  11  23  39  71 104 132 186 250 290 347 422
#     4  12  26  41  66 103 147 183 224 292 367 430
#     4  11  21  40  69 101 136 178 240 288 342 428
#
# _framework density 25.314209999999999
#
# number of rings (size 3 to 8) (size 9 to 14) (size 15 to 20)
#    0.000    1.000    5.000    4.125    1.750    2.500 
#    0.000    0.625   11.000    0.000    0.000    0.000 
#    0.000    0.000    0.000    0.000    0.000    0.000 
#
# Total GULP energy -89731.091904 kJ/mol
# GULP energy per Si atom -5608.193244 kJ/mol
# Density = 2.525659 g / cm^3
# Si number density = 25.314210 Si / 1000 Ang^3
#
#
#
# Elastic Constant Matrix: (Units=GPa)
#
#
# Indices 1 2 3 4 5 6 
#
# 1 67.6162 48.7721 34.0629 8.3041 2.3412 -19.7011
# 2 48.7721 188.6862 66.4457 -6.9486 -1.4029 -20.6604
# 3 34.0629 66.4457 156.3225 -0.2122 -13.9821 -25.4301
# 4 8.3041 -6.9486 -0.2122 60.3386 -11.2616 2.7337
# 5 2.3412 -1.4029 -13.9821 -11.2616 49.8260 2.1699
# 6 -19.7011 -20.6604 -25.4301 2.7337 2.1699 51.1930
#
#
#
# Elastic Compliance Matrix: (Units=1/GPa)
#
#
# Indices 1 2 3 4 5 6 
#
# 1 0.021255 -0.004289 -0.002143 -0.004233 -0.002927 0.005734
# 2 -0.004289 0.007215 -0.002096 0.001433 0.000134 0.000138
# 3 -0.002143 -0.002096 0.008351 0.000420 0.002378 0.002355
# 4 -0.004233 0.001433 0.000420 0.018267 0.004573 -0.002011
# 5 -0.002927 0.000134 0.002378 0.004573 0.021958 -0.001066
# 6 0.005734 0.000138 0.002355 -0.002011 -0.001066 0.023119
#
#
# Mechanical properties :
#
#
# Convention : Reuss Voigt Hill
#
# Bulk Modulus (GPa) = 50.59427 79.02070 64.80749
# Shear Modulus (GPa) = 40.38457 49.82778 45.10617
#
# Velocity S-wave (km/s) = 3.99849 4.44145 4.22578
# Velocity P-wave (km/s) = 6.43018 7.58852 7.03324
#
# Compressibility (1/GPa) = 0.01976508
#
# Stress axis : x y z
#
# Youngs Moduli (GPa) = 47.04856 138.59245 119.74361
#
# Poissons Ratio (x) = 0.59443 0.25662
# Poissons Ratio (y) = 0.20179 0.25098
# Poissons Ratio (z) = 0.10083 0.29048
#
# Static dielectric constant tensor:
#      x y z
#    x 2.085760 0.071360 0.053710 
#    y 0.071360 1.993540 0.021590 
#    z 0.053710 0.021590 1.938940 
# 
# From -- ./inp_files/472511.got.cif
#   From: 2010.05.17/outbox.cif.g08.bks.cpg/sg2_237_cif.got.tgz:472511.got - 2010.06.03 11:33:40.
