data_PCOD9103296
_publ_section_title
;
Structure prediction by ZEFSAII (Michael W. Deem and Ramdas Pophale) SiO2 
 PCOD9103296
Probable space group: P -1
;
_chemical_formula_sum "Si O2"
_cell_formula_units_Z 16
_cell_length_a 11.467030
_cell_length_b 12.412850
_cell_length_c 7.350954
_cell_angle_alpha 52.327326
_cell_angle_beta 111.529854
_cell_angle_gamma 83.515006
_cell_volume 684.841891
_symmetry_space_group_name_H-M "P -1"
_symmetry_group_IT_number 2
_symmetry_cell_setting 'triclinic'
loop_
_space_group_symop_operation_xyz
x,y,z
-x,-y,-z
loop_
_atom_site_type_symbol
_atom_site_label
_atom_site_fract_x
_atom_site_fract_y
_atom_site_fract_z
Si Si1 0.661240 0.375626 0.747784
Si Si2 0.042429 0.341591 0.290179
Si Si3 0.419926 0.859534 0.112168
Si Si4 0.752707 0.484499 0.160556
Si Si5 0.324398 0.755613 0.707874
Si Si6 0.432784 0.201857 0.375979
Si Si7 0.728242 0.621921 0.391345
Si Si8 0.764067 0.936830 0.533373
O O1 0.500000 0.500000 0.500000
O O2 0.670532 0.229646 0.795708
O O3 0.752181 0.459463 0.658662
O O4 0.678284 0.317249 0.023728
O O5 0.168287 0.320365 0.520360
O O6 0.097730 0.206105 0.314766
O O7 0.906091 0.367259 0.299427
O O8 0.000000 0.500000 0.000000
O O9 0.472312 0.890537 0.302513
O O10 0.567975 0.746424 0.215487
O O11 0.325161 0.984109 0.783177
O O12 0.679974 0.377061 0.281643
O O13 0.755577 0.581466 0.236487
O O14 0.672073 0.618552 0.826431
O O15 0.463740 0.774973 0.729115
O O16 0.212749 0.934711 0.475826
O O17 0.333858 0.123573 0.353197
#
# Coordination Sequence:
#
# PCOD9103296 Si02
#       8
#     2   2   2   2   2   2   2   2
#     4   9  17  34  58  90 127 160 197 257 316 370
#     4  12  24  45  66  90 126 174 219 254 312 385
#     4  10  20  38  65  96 130 164 210 266 325 368
#     4  12  24  41  65  96 129 172 214 259 307 387
#     4  11  24  39  64  99 129 161 213 268 324 369
#     4  12  21  40  68  99 130 165 212 266 320 378
#     4  11  22  40  66  96 128 165 217 263 314 374
#     4  11  24  42  64  97 129 170 206 265 325 375
#
# _framework density 23.363057000000001
#
# number of rings (size 3 to 8) (size 9 to 14) (size 15 to 20)
#    0.000    1.000    2.500    6.750    0.000    0.500 
#    0.000    0.000    0.000    4.500    0.000    0.000 
#    0.000    0.000    0.000    0.000    0.000    0.000 
#
# Total GULP energy -89341.661134 kJ/mol
# GULP energy per Si atom -5583.853821 kJ/mol
# Density = 2.330988 g / cm^3
# Si number density = 23.363057 Si / 1000 Ang^3
#
#
#
# Elastic Constant Matrix: (Units=GPa)
#
#
# Indices 1 2 3 4 5 6 
#
# 1 66.0186 -11.6553 12.9566 -9.0126 -9.6722 1.5708
# 2 -11.6553 71.8644 6.2313 -16.1627 5.1201 11.8077
# 3 12.9566 6.2313 64.9926 -18.5218 -6.1540 1.0675
# 4 -9.0126 -16.1627 -18.5218 41.3987 -0.4662 -6.3812
# 5 -9.6722 5.1201 -6.1540 -0.4662 33.8109 -12.2435
# 6 1.5708 11.8077 1.0675 -6.3812 -12.2435 34.5463
#
#
#
# Elastic Compliance Matrix: (Units=1/GPa)
#
#
# Indices 1 2 3 4 5 6 
#
# 1 0.017420 0.003635 -0.002195 0.004327 0.004210 0.000325
# 2 0.003635 0.017276 -0.000909 0.006113 -0.003942 -0.006310
# 3 -0.002195 -0.000909 0.018494 0.007903 0.003964 0.002704
# 4 0.004327 0.006113 0.007903 0.031792 0.003900 0.004724
# 5 0.004210 -0.003942 0.003964 0.003900 0.037616 0.015085
# 6 0.000325 -0.006310 0.002704 0.004724 0.015085 0.037224
#
#
# Mechanical properties :
#
#
# Convention : Reuss Voigt Hill
#
# Bulk Modulus (GPa) = 18.43199 24.21566 21.32383
# Shear Modulus (GPa) = 28.27382 34.97404 31.62393
#
# Velocity S-wave (km/s) = 3.48256 3.87328 3.68310
# Velocity P-wave (km/s) = 4.90688 5.51276 5.21862
#
# Compressibility (1/GPa) = 0.05425350
#
# Stress axis : x y z
#
# Youngs Moduli (GPa) = 57.40641 57.88407 54.07100
#
# Poissons Ratio (x) = -0.21043 0.11867
# Poissons Ratio (y) = -0.20869 0.04914
# Poissons Ratio (z) = 0.12599 0.05260
#
# Static dielectric constant tensor:
#      x y z
#    x 1.911510 0.013690 -0.000200 
#    y 0.013690 2.032020 0.011490 
#    z -0.000200 0.011490 1.910250 
# 
# From -- ./inp_files/269631.got.cif
#   From: 2010.05.17/outbox.cif.g08.bks.cpg/sg2_135_cif.got.tgz:269631.got - 2010.06.03 11:33:40.
