data_PCOD9103566
_publ_section_title
;
Structure prediction by ZEFSAII (Michael W. Deem and Ramdas Pophale) SiO2 
 PCOD9103566
Probable space group: P -1
;
_chemical_formula_sum "Si O2"
_cell_formula_units_Z 16
_cell_length_a 11.968738
_cell_length_b 18.057785
_cell_length_c 8.608110
_cell_angle_alpha 99.577296
_cell_angle_beta 139.310238
_cell_angle_gamma 51.477683
_cell_volume 759.412733
_symmetry_space_group_name_H-M "P -1"
_symmetry_group_IT_number 2
_symmetry_cell_setting 'triclinic'
loop_
_space_group_symop_operation_xyz
x,y,z
-x,-y,-z
loop_
_atom_site_type_symbol
_atom_site_label
_atom_site_fract_x
_atom_site_fract_y
_atom_site_fract_z
Si Si1 0.681081 0.833298 0.744246
Si Si2 0.744979 0.123852 0.857138
Si Si3 0.630765 0.943754 0.288919
Si Si4 0.917650 0.646697 0.184056
Si Si5 0.046434 0.524292 0.725729
Si Si6 0.595961 0.779793 0.211701
Si Si7 0.493003 0.495040 0.174518
Si Si8 0.886442 0.237967 0.049213
O O1 0.479199 0.857989 0.429590
O O2 0.900454 0.804781 0.867566
O O3 0.523025 0.946497 0.723296
O O4 0.796234 0.727932 0.935928
O O5 0.692422 0.147307 0.996628
O O6 0.740123 0.211897 0.830188
O O7 0.000000 0.000000 0.000000
O O8 0.582823 0.872781 0.239873
O O9 0.944741 0.840583 0.642694
O O10 0.500000 0.000000 0.000000
O O11 0.979604 0.536464 0.205109
O O12 0.708031 0.725251 0.136667
O O13 0.196265 0.598376 0.485040
O O14 0.000000 0.500000 0.500000
O O15 0.815944 0.665585 0.517547
O O16 0.327489 0.474253 0.027226
O O17 0.500000 0.500000 0.000000
O O18 0.320718 0.624163 0.097080
#
# Coordination Sequence:
#
# PCOD9103566 Si02
#       8
#     2   2   2   2   2   2   2   2
#     4  12  26  47  70 102 152 183 229 294 357 422
#     4  12  25  44  72 101 137 193 238 275 358 437
#     4  12  22  43  74 102 135 181 234 293 350 406
#     4  11  25  43  69 107 139 182 235 293 348 414
#     4  10  20  38  66  99 136 177 225 288 343 405
#     4  11  21  44  68 100 138 179 233 288 351 404
#     4  12  22  41  72 102 137 187 238 284 351 424
#     4  12  26  46  74 102 143 194 229 287 358 423
#
# _framework density 21.068912000000001
#
# number of rings (size 3 to 8) (size 9 to 14) (size 15 to 20)
#    0.000    0.500    7.500    1.875    1.750    1.500 
#    0.000    8.125    0.000    0.000    0.000    0.000 
#    0.000    0.000    0.000    0.000    0.000    0.000 
#
# Total GULP energy -89142.385384 kJ/mol
# GULP energy per Si atom -5571.399087 kJ/mol
# Density = 2.102096 g / cm^3
# Si number density = 21.068912 Si / 1000 Ang^3
#
#
#
# Elastic Constant Matrix: (Units=GPa)
#
#
# Indices 1 2 3 4 5 6 
#
# 1 68.6812 78.8552 12.1415 1.0354 11.0993 6.1078
# 2 78.8552 97.9480 36.3645 9.9370 5.7640 23.3108
# 3 12.1415 36.3645 -3.3539 -14.6427 -4.2763 -17.8280
# 4 1.0354 9.9370 -14.6427 20.5630 11.1316 1.4548
# 5 11.0993 5.7640 -4.2763 11.1316 38.6465 -3.6324
# 6 6.1078 23.3108 -17.8280 1.4548 -3.6324 47.6123
#
#
#
# Elastic Compliance Matrix: (Units=1/GPa)
#
#
# Indices 1 2 3 4 5 6 
#
# 1 0.061133 -0.031772 -0.038045 -0.005537 -0.016147 -0.007595
# 2 -0.031772 0.021172 0.031807 0.009676 0.007252 0.005877
# 3 -0.038045 0.031807 0.004383 -0.015397 0.010370 -0.007789
# 4 -0.005537 0.009676 -0.015397 0.042174 -0.014852 -0.012214
# 5 -0.016147 0.007252 0.010370 -0.014852 0.035379 0.005557
# 6 -0.007595 0.005877 -0.007789 -0.012214 0.005557 0.016980
#
#
# Mechanical properties :
#
#
# Convention : Reuss Voigt Hill
#
# Bulk Modulus (GPa) = 93.73362 46.44422 70.08892
# Shear Modulus (GPa) = 19.17199 23.75862 21.46530
#
# Velocity S-wave (km/s) = 3.01984 3.36171 3.19535
# Velocity P-wave (km/s) = 7.53292 6.09590 6.85218
#
# Compressibility (1/GPa) = 0.01066853
#
# Stress axis : x y z
#
# Youngs Moduli (GPa) = 16.35788 47.23163 228.15275
#
# Poissons Ratio (x) = 1.50064 8.68002
# Poissons Ratio (y) = 0.51972 -7.25688
# Poissons Ratio (z) = 0.62233 -1.50230
#
# Static dielectric constant tensor:
#      x y z
#    x 1.689750 -0.022160 -0.027140 
#    y -0.022160 1.838670 0.098120 
#    z -0.027140 0.098120 1.935920 
# 
# From -- ./inp_files/279579.got.cif
#   From: 2010.05.17/outbox.cif.g08.bks.cpg/sg2_140_cif.got.tgz:279579.got - 2010.06.03 11:33:40.
