data_PCOD9103629
_publ_section_title
;
Structure prediction by ZEFSAII (Michael W. Deem and Ramdas Pophale) SiO2 
 PCOD9103629
Probable space group: P -1
;
_chemical_formula_sum "Si O2"
_cell_formula_units_Z 12
_cell_length_a 9.869318
_cell_length_b 11.881811
_cell_length_c 8.883666
_cell_angle_alpha 48.037974
_cell_angle_beta 103.204625
_cell_angle_gamma 68.012850
_cell_volume 516.899629
_symmetry_space_group_name_H-M "P -1"
_symmetry_group_IT_number 2
_symmetry_cell_setting 'triclinic'
loop_
_space_group_symop_operation_xyz
x,y,z
-x,-y,-z
loop_
_atom_site_type_symbol
_atom_site_label
_atom_site_fract_x
_atom_site_fract_y
_atom_site_fract_z
Si Si1 0.481868 0.439948 0.330565
Si Si2 0.937525 0.065370 0.255287
Si Si3 0.680635 0.040745 0.560361
Si Si4 0.689711 0.647020 0.391538
Si Si5 0.919466 0.217568 0.704103
Si Si6 0.446453 0.992688 0.751137
O O1 0.444617 0.364442 0.534147
O O2 0.685656 0.370739 0.467424
O O3 0.519907 0.302103 0.320222
O O4 0.285846 0.695741 0.033094
O O5 0.102223 0.061764 0.247987
O O6 0.000000 0.000000 0.500000
O O7 0.961391 0.891308 0.324215
O O8 0.609647 0.964592 0.722790
O O9 0.667756 0.002484 0.417707
O O10 0.897525 0.393879 0.626599
O O11 0.697231 0.783029 0.386585
O O12 0.570716 0.795872 0.079714
O O13 0.000000 0.000000 0.000000
#
# Coordination Sequence:
#
# PCOD9103629 Si02
#       6
#     2   2   2   2   2   2
#     4  10  22  40  64  92 129 161 206 271 310 369
#     4  11  25  39  63  97 125 167 213 257 321 373
#     4   9  21  42  65  88 127 162 216 257 312 369
#     4  10  20  38  67  91 125 164 208 256 321 367
#     4  11  23  39  66  95 128 162 206 267 321 367
#     4   9  20  40  67  92 123 172 208 259 306 376
#
# _framework density 23.215337999999999
#
# number of rings (size 3 to 8) (size 9 to 14) (size 15 to 20)
#    0.000    2.000    1.667    0.500    4.667    1.333 
#    0.000    8.333    7.333    0.000    0.000    0.000 
#    0.000    0.000    0.000    0.000    0.000    0.000 
#
# Total GULP energy -67047.044999 kJ/mol
# GULP energy per Si atom -5587.253750 kJ/mol
# Density = 2.316250 g / cm^3
# Si number density = 23.215338 Si / 1000 Ang^3
#
#
#
# Elastic Constant Matrix: (Units=GPa)
#
#
# Indices 1 2 3 4 5 6 
#
# 1 62.9011 16.1939 39.4446 -5.9446 5.5666 4.3620
# 2 16.1939 214.4237 112.4428 -14.0121 -12.0654 9.7771
# 3 39.4446 112.4428 132.4038 -22.8559 8.7600 -2.1956
# 4 -5.9446 -14.0121 -22.8559 46.9571 -6.0483 -0.3136
# 5 5.5666 -12.0654 8.7600 -6.0483 31.6946 -0.6585
# 6 4.3620 9.7771 -2.1956 -0.3136 -0.6585 26.2866
#
#
#
# Elastic Compliance Matrix: (Units=1/GPa)
#
#
# Indices 1 2 3 4 5 6 
#
# 1 0.021391 0.003733 -0.009813 -0.000984 0.000068 -0.005768
# 2 0.003733 0.010491 -0.010652 -0.000843 0.006012 -0.005271
# 3 -0.009813 -0.010652 0.020957 0.004922 -0.007035 0.007223
# 4 -0.000984 -0.000843 0.004922 0.023716 0.003043 0.001247
# 5 0.000068 0.006012 -0.007035 0.003043 0.036314 -0.001889
# 6 -0.005768 -0.005271 0.007223 0.001247 -0.001889 0.041531
#
#
# Mechanical properties :
#
#
# Convention : Reuss Voigt Hill
#
# Bulk Modulus (GPa) = 51.61224 82.87681 67.24453
# Shear Modulus (GPa) = 25.73028 37.09747 31.41388
#
# Velocity S-wave (km/s) = 3.33277 4.00180 3.68251
# Velocity P-wave (km/s) = 6.09016 7.55839 6.86365
#
# Compressibility (1/GPa) = 0.01937525
#
# Stress axis : x y z
#
# Youngs Moduli (GPa) = 46.74775 95.31636 47.71606
#
# Poissons Ratio (x) = -0.35580 0.46823
# Poissons Ratio (y) = -0.17450 0.50829
# Poissons Ratio (z) = 0.45873 1.01535
#
# Static dielectric constant tensor:
#      x y z
#    x 1.934630 -0.009170 -0.060130 
#    y -0.009170 1.985990 -0.013510 
#    z -0.060130 -0.013510 1.816130 
# 
# From -- ./inp_files/34119.got.cif
#   From: 2010.05.17/outbox.cif.g08.bks.cpg/sg2_18_cif.got.tgz:34119.got - 2010.06.03 11:33:40.
