data_PCOD9103003
_publ_section_title
;
Structure prediction by ZEFSAII (Michael W. Deem and Ramdas Pophale) SiO2 
 PCOD9103003
Probable space group: P -1
;
_chemical_formula_sum "Si O2"
_cell_formula_units_Z 16
_cell_length_a 16.544643
_cell_length_b 9.604541
_cell_length_c 12.688139
_cell_angle_alpha 116.704548
_cell_angle_beta 143.691153
_cell_angle_gamma 42.044506
_cell_volume 740.919350
_symmetry_space_group_name_H-M "P -1"
_symmetry_group_IT_number 2
_symmetry_cell_setting 'triclinic'
loop_
_space_group_symop_operation_xyz
x,y,z
-x,-y,-z
loop_
_atom_site_type_symbol
_atom_site_label
_atom_site_fract_x
_atom_site_fract_y
_atom_site_fract_z
Si Si1 0.477439 0.076518 0.123398
Si Si2 0.586428 0.564743 0.541951
Si Si3 0.461725 0.833099 0.311484
Si Si4 0.212237 0.311918 0.107850
Si Si5 0.791944 0.658229 0.460939
Si Si6 0.470443 0.501828 0.091041
Si Si7 0.927674 0.316586 0.313384
Si Si8 0.737000 0.173440 0.425665
O O1 0.265502 0.241066 0.015444
O O2 0.577813 0.164448 0.275559
O O3 0.614978 0.852626 0.262710
O O4 0.500000 0.000000 0.000000
O O5 0.500000 0.500000 0.500000
O O6 0.444781 0.791201 0.399885
O O7 0.698754 0.592599 0.741325
O O8 0.707276 0.362210 0.516872
O O9 0.685357 0.702266 0.472477
O O10 0.425995 0.705060 0.164791
O O11 0.323206 0.085229 0.213242
O O12 0.000000 0.500000 0.000000
O O13 0.891915 0.435311 0.426936
O O14 0.943666 0.676055 0.623312
O O15 0.671740 0.267392 0.270368
O O16 0.500000 0.500000 0.000000
O O17 0.276129 0.555538 0.914449
O O18 0.058215 0.062699 0.399437
#
# Coordination Sequence:
#
# PCOD9103003 Si02
#       8
#     2   2   2   2   2   2   2   2
#     4  10  20  40  70  98 138 180 228 285 355 412
#     4  11  23  48  68  88 133 187 235 284 350 427
#     4  10  23  44  67  94 132 187 231 285 359 409
#     4  11  25  46  68 104 137 181 237 290 348 420
#     4   9  19  39  60  96 135 179 228 280 348 421
#     4  11  22  39  62  95 141 181 225 290 358 415
#     4  10  20  38  64  95 138 179 230 276 350 416
#     4  10  23  40  66  98 129 184 233 281 348 411
#
# _framework density 21.594792000000002
#
# number of rings (size 3 to 8) (size 9 to 14) (size 15 to 20)
#    0.000    1.750    2.500    1.125    3.500    0.500 
#    9.000    0.625    0.000    0.000    0.000    0.000 
#    0.000    0.000    0.000    0.000    0.000    0.000 
#
# Total GULP energy -89218.820061 kJ/mol
# GULP energy per Si atom -5576.176254 kJ/mol
# Density = 2.154564 g / cm^3
# Si number density = 21.594792 Si / 1000 Ang^3
#
#
#
# Elastic Constant Matrix: (Units=GPa)
#
#
# Indices 1 2 3 4 5 6 
#
# 1 122.3446 21.2217 30.1314 0.2459 -0.3312 0.0202
# 2 21.2217 88.8687 9.9695 2.6163 0.9431 9.9305
# 3 30.1314 9.9695 53.2116 15.1190 4.2050 -4.2878
# 4 0.2459 2.6163 15.1190 27.3780 4.4735 -0.0979
# 5 -0.3312 0.9431 4.2050 4.4735 30.5053 0.4745
# 6 0.0202 9.9305 -4.2878 -0.0979 0.4745 33.4901
#
#
#
# Elastic Compliance Matrix: (Units=1/GPa)
#
#
# Indices 1 2 3 4 5 6 
#
# 1 0.010059 -0.001755 -0.006442 0.003546 0.000536 -0.000308
# 2 -0.001755 0.012281 -0.001519 -0.000319 -0.000083 -0.003835
# 3 -0.006442 -0.001519 0.027323 -0.014592 -0.001711 0.003934
# 4 0.003546 -0.000319 -0.014592 0.045323 -0.004562 -0.001579
# 5 0.000536 -0.000083 -0.001711 -0.004562 0.033705 -0.000686
# 6 -0.000308 -0.003835 0.003934 -0.001579 -0.000686 0.031506
#
#
# Mechanical properties :
#
#
# Convention : Reuss Voigt Hill
#
# Bulk Modulus (GPa) = 33.07769 43.00778 38.04274
# Shear Modulus (GPa) = 26.35668 31.81483 29.08576
#
# Velocity S-wave (km/s) = 3.49737 3.84248 3.67398
# Velocity P-wave (km/s) = 5.62668 6.29644 5.97096
#
# Compressibility (1/GPa) = 0.03023186
#
# Stress axis : x y z
#
# Youngs Moduli (GPa) = 99.41391 81.42771 36.59858
#
# Poissons Ratio (x) = 0.14291 0.23576
# Poissons Ratio (y) = 0.17448 0.05559
# Poissons Ratio (z) = 0.64041 0.12367
#
# Static dielectric constant tensor:
#      x y z
#    x 1.872620 -0.012420 -0.015310 
#    y -0.012420 1.800710 -0.013350 
#    z -0.015310 -0.013350 1.805640 
# 
# From -- ./inp_files/447914.got.cif
#   From: 2010.05.17/outbox.cif.g08.bks.cpg/sg2_224_cif.got.tgz:447914.got - 2010.06.03 11:33:40.
