data_PCOD9103880
_publ_section_title
;
Structure prediction by ZEFSAII (Michael W. Deem and Ramdas Pophale) SiO2 
 PCOD9103880
Probable space group: P -1
;
_chemical_formula_sum "Si O2"
_cell_formula_units_Z 16
_cell_length_a 10.649134
_cell_length_b 16.754510
_cell_length_c 9.437778
_cell_angle_alpha 121.199273
_cell_angle_beta 105.711384
_cell_angle_gamma 123.472700
_cell_volume 751.934119
_symmetry_space_group_name_H-M "P -1"
_symmetry_group_IT_number 2
_symmetry_cell_setting 'triclinic'
loop_
_space_group_symop_operation_xyz
x,y,z
-x,-y,-z
loop_
_atom_site_type_symbol
_atom_site_label
_atom_site_fract_x
_atom_site_fract_y
_atom_site_fract_z
Si Si1 0.916870 0.503972 0.121517
Si Si2 0.318870 0.567895 0.594329
Si Si3 0.085101 0.732057 0.625044
Si Si4 0.872279 0.067641 0.352126
Si Si5 0.262434 0.379517 0.223772
Si Si6 0.680453 0.254383 0.074273
Si Si7 0.704830 0.571402 0.042496
Si Si8 0.106692 0.091980 0.964443
O O1 0.801956 0.360409 0.063353
O O2 0.738232 0.481478 0.000523
O O3 0.101755 0.674726 0.437964
O O4 0.000000 0.500000 0.000000
O O5 0.191427 0.439769 0.308167
O O6 0.250553 0.629552 0.675328
O O7 0.601802 0.742080 0.808165
O O8 0.198498 0.440568 0.573534
O O9 0.147306 0.874403 0.734501
O O10 0.240412 0.791357 0.861608
O O11 0.050200 0.227438 0.657839
O O12 0.604110 0.903097 0.179378
O O13 0.974312 0.030217 0.292922
O O14 0.500000 0.500000 0.500000
O O15 0.074740 0.183036 0.009100
O O16 0.341353 0.436328 0.141198
O O17 0.500000 0.500000 0.000000
O O18 0.000000 0.000000 0.000000
#
# Coordination Sequence:
#
# PCOD9103880 Si02
#       8
#     2   2   2   2   2   2   2   2
#     4  10  23  42  66  99 132 168 224 269 321 394
#     4   9  19  34  63  91 121 158 221 255 310 378
#     4  10  20  38  69  92 124 175 218 263 324 389
#     4  10  23  41  61  94 136 162 219 269 336 386
#     4  10  23  39  65  89 128 167 228 257 318 392
#     4  10  21  40  69  93 127 172 213 274 325 381
#     4  11  27  42  67  94 132 181 211 269 342 388
#     4  10  21  36  59  92 128 166 207 274 319 375
#
# _framework density 21.278458000000001
#
# number of rings (size 3 to 8) (size 9 to 14) (size 15 to 20)
#    0.000    2.000    0.000    2.625   19.250    0.500 
#    0.000    2.500    2.750    0.000    0.000    0.000 
#    0.000    0.000    0.000    0.000    0.000    0.000 
#
# Total GULP energy -89088.451953 kJ/mol
# GULP energy per Si atom -5568.028247 kJ/mol
# Density = 2.123003 g / cm^3
# Si number density = 21.278458 Si / 1000 Ang^3
#
#
#
# Elastic Constant Matrix: (Units=GPa)
#
#
# Indices 1 2 3 4 5 6 
#
# 1 87.4268 41.5247 43.6394 -9.2526 -6.1027 16.2118
# 2 41.5247 112.3335 31.3108 -21.1043 -9.1165 7.8238
# 3 43.6394 31.3108 60.8572 -14.4014 -7.6810 3.9198
# 4 -9.2526 -21.1043 -14.4014 37.8994 0.7063 -2.0464
# 5 -6.1027 -9.1165 -7.6810 0.7063 30.2672 -3.5721
# 6 16.2118 7.8238 3.9198 -2.0464 -3.5721 39.3318
#
#
#
# Elastic Compliance Matrix: (Units=1/GPa)
#
#
# Indices 1 2 3 4 5 6 
#
# 1 0.020862 -0.004153 -0.013135 -0.002552 -0.001109 -0.006697
# 2 -0.004153 0.012047 -0.001757 0.004983 0.002223 -0.000048
# 3 -0.013135 -0.001757 0.028688 0.006832 0.004375 0.003657
# 4 -0.002552 0.004983 0.006832 0.031158 0.002134 0.001195
# 5 -0.001109 0.002223 0.004375 0.002134 0.034883 0.002858
# 6 -0.006697 -0.000048 0.003657 0.001195 0.002858 0.028152
#
#
# Mechanical properties :
#
#
# Convention : Reuss Voigt Hill
#
# Bulk Modulus (GPa) = 42.54257 54.84082 48.69169
# Shear Modulus (GPa) = 24.78737 31.10919 27.94828
#
# Velocity S-wave (km/s) = 3.41677 3.82776 3.62809
# Velocity P-wave (km/s) = 5.96678 6.73532 6.36267
#
# Compressibility (1/GPa) = 0.02350587
#
# Stress axis : x y z
#
# Youngs Moduli (GPa) = 47.93486 83.00795 34.85777
#
# Poissons Ratio (x) = 0.34477 0.45786
# Poissons Ratio (y) = 0.19910 0.06124
# Poissons Ratio (z) = 0.62962 0.14584
#
# Static dielectric constant tensor:
#      x y z
#    x 1.925280 -0.005280 -0.005890 
#    y -0.005280 1.779470 0.021260 
#    z -0.005890 0.021260 1.800790 
# 
# From -- ./inp_files/278276.got.cif
#   From: 2010.05.17/outbox.cif.g08.bks.cpg/sg2_140_cif.got.tgz:278276.got - 2010.06.03 11:33:40.
