data_PCOD9103799
_publ_section_title
;
Structure prediction by ZEFSAII (Michael W. Deem and Ramdas Pophale) SiO2 
 PCOD9103799
Probable space group: P -1
;
_chemical_formula_sum "Si O2"
_cell_formula_units_Z 15
_cell_length_a 22.869300
_cell_length_b 9.484980
_cell_length_c 5.275050
_cell_angle_alpha 62.765415
_cell_angle_beta 113.994776
_cell_angle_gamma 142.512514
_cell_volume 617.163298
_symmetry_space_group_name_H-M "P -1"
_symmetry_group_IT_number 2
_symmetry_cell_setting 'triclinic'
loop_
_space_group_symop_operation_xyz
x,y,z
-x,-y,-z
loop_
_atom_site_type_symbol
_atom_site_label
_atom_site_fract_x
_atom_site_fract_y
_atom_site_fract_z
Si Si1 0.885701 0.761759 0.047714
Si Si2 0.898862 0.905721 0.450014
Si Si3 0.788460 0.268415 0.287657
Si Si4 0.058436 0.655067 0.727676
Si Si5 0.500000 0.000000 0.500000
Si Si6 0.636438 0.800240 0.680751
Si Si7 0.535428 0.309409 0.767986
Si Si8 0.614675 0.001660 0.868791
O O1 0.852361 0.817535 0.163100
O O2 0.859577 0.537890 0.281158
O O3 0.843716 0.714074 0.734400
O O4 0.000000 0.000000 0.000000
O O5 0.918571 0.117846 0.405104
O O6 0.000000 0.000000 0.500000
O O7 0.844956 0.267877 0.185178
O O8 0.740566 0.061993 0.575269
O O9 0.699259 0.184005 0.058582
O O10 0.000000 0.500000 0.500000
O O11 0.000000 0.500000 0.000000
O O12 0.449538 0.776436 0.370337
O O13 0.608107 0.114750 0.539479
O O14 0.619478 0.585313 0.769933
O O15 0.556155 0.746023 0.416044
O O16 0.615253 0.825153 0.905672
O O17 0.493490 0.150367 0.087998
#
# Coordination Sequence:
#
# PCOD9103799 Si02
#       8
#     2   2   2   2   1   2   2   2
#     4  10  21  40  65  89 129 177 224 282 351 405
#     4  10  20  39  63  93 121 170 222 274 345 414
#     4  11  25  41  65  98 133 175 236 290 343 409
#     4  12  25  43  71  96 134 182 234 291 354 418
#     4  10  20  38  68  94 138 172 220 262 346 420
#     4   9  20  38  64  92 132 170 225 281 337 415
#     4   9  18  38  64  97 129 179 215 266 348 417
#     4  10  21  39  66  98 132 180 221 280 340 418
#
# _framework density 24.304751
#
# number of rings (size 3 to 8) (size 9 to 14) (size 15 to 20)
#    0.000    1.867    0.000    4.800    3.733    1.067 
#    2.400    0.000    0.000    0.000    0.000    0.000 
#    0.000    0.000    0.000    0.000    0.000    0.000 
#
# Total GULP energy -83546.171824 kJ/mol
# GULP energy per Si atom -5569.744788 kJ/mol
# Density = 2.424943 g / cm^3
# Si number density = 24.304751 Si / 1000 Ang^3
#
#
#
# Elastic Constant Matrix: (Units=GPa)
#
#
# Indices 1 2 3 4 5 6 
#
# 1 80.7617 49.1212 24.3714 3.2028 -16.8300 -27.1924
# 2 49.1212 164.5999 31.0733 -17.5650 -22.1176 -35.0119
# 3 24.3714 31.0733 100.7712 9.7772 -38.5552 -6.7197
# 4 3.2028 -17.5650 9.7772 35.3150 -6.6734 -1.5191
# 5 -16.8300 -22.1176 -38.5552 -6.6734 40.9088 12.9079
# 6 -27.1924 -35.0119 -6.7197 -1.5191 12.9079 43.7933
#
#
#
# Elastic Compliance Matrix: (Units=1/GPa)
#
#
# Indices 1 2 3 4 5 6 
#
# 1 0.018024 -0.003435 -0.002377 -0.002259 0.000467 0.007864
# 2 -0.003435 0.009264 -0.001740 0.005872 0.001399 0.004798
# 3 -0.002377 -0.001740 0.016658 -0.002660 0.014856 -0.004782
# 4 -0.002259 0.005872 -0.002660 0.033104 0.004263 0.002776
# 5 0.000467 0.001399 0.014856 0.004263 0.042866 -0.008798
# 6 0.007864 0.004798 -0.004782 0.002776 -0.008798 0.033509
#
#
# Mechanical properties :
#
#
# Convention : Reuss Voigt Hill
#
# Bulk Modulus (GPa) = 34.67405 61.69608 48.18506
# Shear Modulus (GPa) = 28.06719 40.10787 34.08753
#
# Velocity S-wave (km/s) = 3.40193 4.06668 3.74907
# Velocity P-wave (km/s) = 5.45235 6.89130 6.21362
#
# Compressibility (1/GPa) = 0.02884001
#
# Stress axis : x y z
#
# Youngs Moduli (GPa) = 55.48216 107.94159 60.03094
#
# Poissons Ratio (x) = 0.37083 0.14272
# Poissons Ratio (y) = 0.19061 0.10446
# Poissons Ratio (z) = 0.13190 0.18784
#
# Static dielectric constant tensor:
#      x y z
#    x 1.974660 0.038980 0.193170 
#    y 0.038980 1.991360 -0.088870 
#    z 0.193170 -0.088870 3.110650 
# 
# From -- ./inp_files/122204.got.cif
#   From: 2010.05.17/outbox.cif.g08.bks.cpg/sg2_62_cif.got.tgz:122204.got - 2010.06.03 11:33:40.
