data_PCOD9103176
_publ_section_title
;
Structure prediction by ZEFSAII (Michael W. Deem and Ramdas Pophale) SiO2 
 PCOD9103176
Probable space group: P -1
;
_chemical_formula_sum "Si O2"
_cell_formula_units_Z 11
_cell_length_a 5.947550
_cell_length_b 10.848659
_cell_length_c 12.133411
_cell_angle_alpha 145.287702
_cell_angle_beta 86.855200
_cell_angle_gamma 81.986789
_cell_volume 421.060962
_symmetry_space_group_name_H-M "P -1"
_symmetry_group_IT_number 2
_symmetry_cell_setting 'triclinic'
loop_
_space_group_symop_operation_xyz
x,y,z
-x,-y,-z
loop_
_atom_site_type_symbol
_atom_site_label
_atom_site_fract_x
_atom_site_fract_y
_atom_site_fract_z
Si Si1 0.588727 0.656234 0.000415
Si Si2 0.995136 0.408735 0.195987
Si Si3 0.247764 0.683683 0.657946
Si Si4 0.500000 0.000000 0.000000
Si Si5 0.649680 0.735387 0.284766
Si Si6 0.154426 0.006338 0.205311
O O1 0.750078 0.678568 0.115238
O O2 0.352900 0.872580 0.188779
O O3 0.519245 0.426781 0.825830
O O4 0.719842 0.666364 0.887784
O O5 0.903301 0.416040 0.327033
O O6 0.854693 0.636616 0.298425
O O7 0.914782 0.209915 0.995956
O O8 0.500000 0.500000 0.500000
O O9 0.308703 0.885603 0.867897
O O10 0.095256 0.791475 0.632503
O O11 0.683496 0.913692 0.826200
O O12 0.500000 0.000000 0.500000
#
# Coordination Sequence:
#
# PCOD9103176 Si02
#       6
#     2   2   2   1   2   2
#     4  10  21  42  66  91 128 167 204 260 320 367
#     4  10  21  40  66  92 124 168 212 254 310 377
#     4  11  24  41  63  96 129 164 212 258 309 376
#     4  10  20  40  62  86 126 166 202 252 312 366
#     4  10  23  41  64  95 125 162 213 261 312 376
#     4  10  20  38  65  91 125 167 205 253 315 377
#
# _framework density 26.124483000000001
#
# number of rings (size 3 to 8) (size 9 to 14) (size 15 to 20)
#    0.000    1.818    0.000    4.909    0.000    4.364 
#    0.000   12.727    0.000    0.000    0.000    0.000 
#    0.000    0.000    0.000    0.000    0.000    0.000 
#
# Total GULP energy -61244.278877 kJ/mol
# GULP energy per Si atom -5567.661716 kJ/mol
# Density = 2.606502 g / cm^3
# Si number density = 26.124483 Si / 1000 Ang^3
#
#
#
# Elastic Constant Matrix: (Units=GPa)
#
#
# Indices 1 2 3 4 5 6 
#
# 1 97.5556 42.5183 46.2117 19.4440 -21.7433 -13.0698
# 2 42.5183 88.0555 46.6835 18.9594 -24.2753 -15.2069
# 3 46.2117 46.6835 122.2074 29.0001 -12.4497 -16.2206
# 4 19.4440 18.9594 29.0001 33.5814 -17.0484 -14.2761
# 5 -21.7433 -24.2753 -12.4497 -17.0484 55.9748 14.6292
# 6 -13.0698 -15.2069 -16.2206 -14.2761 14.6292 64.2385
#
#
#
# Elastic Compliance Matrix: (Units=1/GPa)
#
#
# Indices 1 2 3 4 5 6 
#
# 1 0.014549 -0.004219 -0.003141 -0.002008 0.002470 0.000160
# 2 -0.004219 0.017175 -0.004144 -0.001088 0.004312 0.000937
# 3 -0.003141 -0.004144 0.012617 -0.007950 -0.002743 0.000424
# 4 -0.002008 -0.001088 -0.007950 0.045460 0.009446 0.005278
# 5 0.002470 0.004312 -0.002743 0.009446 0.023600 -0.002445
# 6 0.000160 0.000937 0.000424 0.005278 -0.002445 0.017658
#
#
# Mechanical properties :
#
#
# Convention : Reuss Voigt Hill
#
# Bulk Modulus (GPa) = 46.87317 64.29394 55.58356
# Shear Modulus (GPa) = 31.02144 42.25262 36.63703
#
# Velocity S-wave (km/s) = 3.44967 4.02600 3.74893
# Velocity P-wave (km/s) = 5.81792 6.80262 6.32945
#
# Compressibility (1/GPa) = 0.02133417
#
# Stress axis : x y z
#
# Youngs Moduli (GPa) = 68.73174 58.22257 79.26053
#
# Poissons Ratio (x) = 0.24567 0.24892
# Poissons Ratio (y) = 0.29001 0.32843
# Poissons Ratio (z) = 0.21585 0.24126
#
# Static dielectric constant tensor:
#      x y z
#    x 2.030440 -0.041680 -0.063390 
#    y -0.041680 3.109320 0.434510 
#    z -0.063390 0.434510 2.256730 
# 
# From -- ./inp_files/86713.got.cif
#   From: 2010.05.17/outbox.cif.g08.bks.cpg/sg2_44_cif.got.tgz:86713.got - 2010.06.03 11:33:40.
