data_PCOD9103825
_publ_section_title
;
Structure prediction by ZEFSAII (Michael W. Deem and Ramdas Pophale) SiO2 
 PCOD9103825
Probable space group: P -1
;
_chemical_formula_sum "Si O2"
_cell_formula_units_Z 16
_cell_length_a 9.353910
_cell_length_b 13.604288
_cell_length_c 13.983210
_cell_angle_alpha 131.649288
_cell_angle_beta 136.467922
_cell_angle_gamma 30.146853
_cell_volume 611.856708
_symmetry_space_group_name_H-M "P -1"
_symmetry_group_IT_number 2
_symmetry_cell_setting 'triclinic'
loop_
_space_group_symop_operation_xyz
x,y,z
-x,-y,-z
loop_
_atom_site_type_symbol
_atom_site_label
_atom_site_fract_x
_atom_site_fract_y
_atom_site_fract_z
Si Si1 0.784115 0.787920 0.950063
Si Si2 0.472514 0.224826 0.873273
Si Si3 0.193346 0.841326 0.191491
Si Si4 0.498653 0.352949 0.325802
Si Si5 0.289185 0.269316 0.512969
Si Si6 0.884438 0.796039 0.789848
Si Si7 0.372024 0.686011 0.830213
Si Si8 0.010406 0.274329 0.568519
O O1 0.647172 0.704637 0.835826
O O2 0.864423 0.737379 0.842860
O O3 0.060488 0.759047 0.094670
O O4 0.500000 0.000000 0.000000
O O5 0.577532 0.261276 0.856921
O O6 0.221449 0.233805 0.729426
O O7 0.770594 0.994975 0.890607
O O8 0.396084 0.343615 0.006862
O O9 0.408575 0.796320 0.350024
O O10 0.910647 0.079415 0.187259
O O11 0.508911 0.436941 0.288136
O O12 0.850601 0.206280 0.441495
O O13 0.289026 0.492898 0.403539
O O14 0.334108 0.164517 0.371127
O O15 0.000000 0.500000 0.500000
O O16 0.183941 0.227277 0.523906
O O17 0.207775 0.660133 0.804679
#
# Coordination Sequence:
#
# PCOD9103825 Si02
#       8
#     2   2   2   2   2   2   2   2
#     4  12  22  40  65  98 136 163 205 268 327 375
#     4  10  20  38  68  97 121 161 222 266 308 376
#     4  10  21  39  66  94 127 163 211 267 318 373
#     4  11  23  41  64  89 137 173 205 260 326 374
#     4  11  24  43  64  93 127 168 220 264 310 382
#     4  11  21  38  67  93 123 163 215 259 308 380
#     4  11  19  40  68  94 124 165 215 264 306 382
#     4  10  24  43  62  92 130 174 213 259 321 378
#
# _framework density 26.149913999999999
#
# number of rings (size 3 to 8) (size 9 to 14) (size 15 to 20)
#    0.000    1.250    5.000    1.500    1.750    2.000 
#    2.250   10.625    0.000    0.000    0.000    0.000 
#    0.000    0.000    0.000    0.000    0.000    0.000 
#
# Total GULP energy -89234.274106 kJ/mol
# GULP energy per Si atom -5577.142132 kJ/mol
# Density = 2.609040 g / cm^3
# Si number density = 26.149914 Si / 1000 Ang^3
#
#
#
# Elastic Constant Matrix: (Units=GPa)
#
#
# Indices 1 2 3 4 5 6 
#
# 1 84.9669 12.0337 43.6811 -2.9540 -1.0366 -30.2509
# 2 12.0337 63.2450 24.6880 7.1212 9.4178 -10.0324
# 3 43.6811 24.6880 231.2609 -13.8683 0.9102 -24.2237
# 4 -2.9540 7.1212 -13.8683 40.5407 -11.6345 -1.8532
# 5 -1.0366 9.4178 0.9102 -11.6345 51.3351 4.8885
# 6 -30.2509 -10.0324 -24.2237 -1.8532 4.8885 29.0997
#
#
#
# Elastic Compliance Matrix: (Units=1/GPa)
#
#
# Indices 1 2 3 4 5 6 
#
# 1 0.019442 -0.000054 -0.001568 0.001461 -0.001063 0.019159
# 2 -0.000054 0.018681 -0.001691 -0.005068 -0.005071 0.005505
# 3 -0.001568 -0.001691 0.005153 0.002181 0.000478 0.002135
# 4 0.001461 -0.005068 0.002181 0.028572 0.007187 0.002199
# 5 -0.001063 -0.005071 0.000478 0.007187 0.022560 -0.005788
# 6 0.019159 0.005505 0.002135 0.002199 -0.005788 0.059069
#
#
# Mechanical properties :
#
#
# Convention : Reuss Voigt Hill
#
# Bulk Modulus (GPa) = 27.28542 60.03094 43.65818
# Shear Modulus (GPa) = 29.01556 44.13309 36.57432
#
# Velocity S-wave (km/s) = 3.33466 4.11261 3.74390
# Velocity P-wave (km/s) = 5.02827 6.74965 5.95152
#
# Compressibility (1/GPa) = 0.03664961
#
# Stress axis : x y z
#
# Youngs Moduli (GPa) = 51.43513 53.53013 194.04753
#
# Poissons Ratio (x) = 0.00290 0.30424
# Poissons Ratio (y) = 0.00279 0.32819
# Poissons Ratio (z) = 0.08064 0.09054
#
# Static dielectric constant tensor:
#      x y z
#    x 2.097460 0.018080 0.038000 
#    y 0.018080 2.240250 -0.045570 
#    z 0.038000 -0.045570 2.115930 
# 
# From -- ./inp_files/504305.got.cif
#   From: 2010.05.17/outbox.cif.g08.bks.cpg/sg2_253_cif.got.tgz:504305.got - 2010.06.03 11:33:40.
