data_PCOD9103437
_publ_section_title
;
Structure prediction by ZEFSAII (Michael W. Deem and Ramdas Pophale) SiO2 
 PCOD9103437
Probable space group: P -1
;
_chemical_formula_sum "Si O2"
_cell_formula_units_Z 12
_cell_length_a 9.386436
_cell_length_b 12.250030
_cell_length_c 9.189607
_cell_angle_alpha 55.433032
_cell_angle_beta 131.845738
_cell_angle_gamma 92.757270
_cell_volume 546.135683
_symmetry_space_group_name_H-M "P -1"
_symmetry_group_IT_number 2
_symmetry_cell_setting 'triclinic'
loop_
_space_group_symop_operation_xyz
x,y,z
-x,-y,-z
loop_
_atom_site_type_symbol
_atom_site_label
_atom_site_fract_x
_atom_site_fract_y
_atom_site_fract_z
Si Si1 0.789501 0.673471 0.255157
Si Si2 0.675080 0.851487 0.627380
Si Si3 0.355786 0.405705 0.051891
Si Si4 0.488789 0.149389 0.804838
Si Si5 0.155953 0.720735 0.515465
Si Si6 0.018104 0.950007 0.717698
O O1 0.697834 0.709090 0.328704
O O2 0.000000 0.500000 0.500000
O O3 0.921938 0.761981 0.247489
O O4 0.603251 0.683555 0.010402
O O5 0.744399 0.682034 0.866051
O O6 0.562989 0.859222 0.390532
O O7 0.890323 0.862887 0.732193
O O8 0.500000 0.000000 0.500000
O O9 0.591851 0.365156 0.315843
O O10 0.205582 0.592099 0.774081
O O11 0.721149 0.141356 0.989461
O O12 0.500000 0.000000 0.000000
O O13 0.106657 0.885856 0.406973
O O14 0.000000 0.000000 0.500000
#
# Coordination Sequence:
#
# PCOD9103437 Si02
#       6
#     2   2   2   2   2   2
#     4  10  21  41  67  94 128 179 225 267 334 403
#     4  12  25  41  66 105 139 171 226 282 328 391
#     4  10  22  40  64  96 131 170 226 273 322 393
#     4  12  23  40  68  97 136 176 225 274 334 402
#     4  10  20  38  66  91 127 179 217 258 339 393
#     4  12  23  40  68  98 132 176 225 270 338 395
#
# _framework density 21.972562
#
# number of rings (size 3 to 8) (size 9 to 14) (size 15 to 20)
#    0.000    1.000    5.000    2.000    0.000    2.000 
#    0.000    7.500    0.000   14.000    0.000    0.000 
#    0.000    0.000    0.000    0.000    0.000    0.000 
#
# Total GULP energy -66892.400518 kJ/mol
# GULP energy per Si atom -5574.366710 kJ/mol
# Density = 2.192255 g / cm^3
# Si number density = 21.972562 Si / 1000 Ang^3
#
#
#
# Elastic Constant Matrix: (Units=GPa)
#
#
# Indices 1 2 3 4 5 6 
#
# 1 131.3102 47.9441 43.4612 6.6923 13.0448 32.3328
# 2 47.9441 72.9138 39.6295 15.4918 -0.2341 9.6947
# 3 43.4612 39.6295 52.5602 9.0549 20.1084 6.4495
# 4 6.6923 15.4918 9.0549 46.1673 11.9145 -1.8575
# 5 13.0448 -0.2341 20.1084 11.9145 50.5877 1.8130
# 6 32.3328 9.6947 6.4495 -1.8575 1.8130 60.3010
#
#
#
# Elastic Compliance Matrix: (Units=1/GPa)
#
#
# Indices 1 2 3 4 5 6 
#
# 1 0.012667 -0.004296 -0.006442 0.000842 -0.000731 -0.005364
# 2 -0.004296 0.031011 -0.023016 -0.008513 0.012436 -0.000857
# 3 -0.006442 -0.023016 0.047728 0.004180 -0.018500 0.002735
# 4 0.000842 -0.008513 0.004180 0.025707 -0.008027 0.001503
# 5 -0.000731 0.012436 -0.018500 -0.008027 0.029285 -0.000756
# 6 -0.005364 -0.000857 0.002735 0.001503 -0.000756 0.019374
#
#
# Mechanical properties :
#
#
# Convention : Reuss Voigt Hill
#
# Bulk Modulus (GPa) = 41.84271 57.65043 49.74657
# Shear Modulus (GPa) = 20.72574 39.79451 30.26013
#
# Velocity S-wave (km/s) = 3.07458 4.26032 3.71506
# Velocity P-wave (km/s) = 5.62926 7.10597 6.41028
#
# Compressibility (1/GPa) = 0.02389902
#
# Stress axis : x y z
#
# Youngs Moduli (GPa) = 78.94645 32.24624 20.95200
#
# Poissons Ratio (x) = 0.13852 0.13498
# Poissons Ratio (y) = 0.33912 0.48223
# Poissons Ratio (z) = 0.50858 0.74218
#
# Static dielectric constant tensor:
#      x y z
#    x 1.951450 0.032400 0.099650 
#    y 0.032400 1.836010 0.030170 
#    z 0.099650 0.030170 1.937920 
# 
# From -- ./inp_files/174700.got.cif
#   From: 2010.05.17/outbox.cif.g08.bks.cpg/sg2_88_cif.got.tgz:174700.got - 2010.06.03 11:33:40.
