data_PCOD9103828
_publ_section_title
;
Structure prediction by ZEFSAII (Michael W. Deem and Ramdas Pophale) SiO2 
 PCOD9103828
Probable space group: P -1
;
_chemical_formula_sum "Si O2"
_cell_formula_units_Z 14
_cell_length_a 12.295095
_cell_length_b 11.485392
_cell_length_c 8.290200
_cell_angle_alpha 135.516652
_cell_angle_beta 113.530586
_cell_angle_gamma 46.792993
_cell_volume 588.715450
_symmetry_space_group_name_H-M "P -1"
_symmetry_group_IT_number 2
_symmetry_cell_setting 'triclinic'
loop_
_space_group_symop_operation_xyz
x,y,z
-x,-y,-z
loop_
_atom_site_type_symbol
_atom_site_label
_atom_site_fract_x
_atom_site_fract_y
_atom_site_fract_z
Si Si1 0.122954 0.469599 0.669461
Si Si2 0.392726 0.437017 0.921192
Si Si3 0.311828 0.869567 0.778225
Si Si4 0.595010 0.769905 0.747743
Si Si5 0.209906 0.625606 0.337977
Si Si6 0.655428 0.969366 0.710560
Si Si7 0.942928 0.723011 0.116655
O O1 0.254480 0.502584 0.785596
O O2 0.216576 0.216263 0.517040
O O3 0.000000 0.500000 0.500000
O O4 0.010936 0.652161 0.909372
O O5 0.509788 0.180455 0.754375
O O6 0.500000 0.500000 0.000000
O O7 0.314020 0.534371 0.146952
O O8 0.481950 0.715866 0.656520
O O9 0.237392 0.757997 0.597602
O O10 0.226866 0.072025 0.807797
O O11 0.302753 0.940203 0.027792
O O12 0.745331 0.578999 0.737688
O O13 0.626029 0.826800 0.653599
O O14 0.500000 0.000000 0.000000
O O15 0.037183 0.771236 0.324530
O O16 0.000000 0.500000 0.000000
#
# Coordination Sequence:
#
# PCOD9103828 Si02
#       7
#     2   2   2   2   2   2   2
#     4  11  25  46  70  97 136 185 230 280 340 409
#     4  11  26  44  67  99 140 179 228 287 345 407
#     4  11  22  38  66 100 138 167 226 280 351 397
#     4  10  20  38  68  97 126 173 222 282 328 404
#     4  11  23  40  65 103 136 176 223 287 348 402
#     4  11  23  43  68 100 134 176 235 278 340 412
#     4  11  24  43  68  96 136 182 235 278 335 415
#
# _framework density 23.78059
#
# number of rings (size 3 to 8) (size 9 to 14) (size 15 to 20)
#    0.000    1.143    4.286    3.000    4.000    1.143 
#    0.000    0.714    0.000    0.000    0.000    0.000 
#    0.000    0.000    0.000    0.000    0.000    0.000 
#
# Total GULP energy -77969.077052 kJ/mol
# GULP energy per Si atom -5569.219789 kJ/mol
# Density = 2.372646 g / cm^3
# Si number density = 23.780590 Si / 1000 Ang^3
#
#
#
# Elastic Constant Matrix: (Units=GPa)
#
#
# Indices 1 2 3 4 5 6 
#
# 1 58.5666 26.7722 16.3252 -16.1875 28.1208 -8.8657
# 2 26.7722 131.3977 8.5346 -11.3894 22.7645 -22.4833
# 3 16.3252 8.5346 97.2802 -15.5521 28.2283 -7.9580
# 4 -16.1875 -11.3894 -15.5521 31.9719 -12.3565 10.7946
# 5 28.1208 22.7645 28.2283 -12.3565 34.6099 -4.1504
# 6 -8.8657 -22.4833 -7.9580 10.7946 -4.1504 41.4877
#
#
#
# Elastic Compliance Matrix: (Units=1/GPa)
#
#
# Indices 1 2 3 4 5 6 
#
# 1 0.030350 -0.001312 0.003143 0.006455 -0.023778 0.002319
# 2 -0.001312 0.009593 0.001435 -0.000465 -0.006015 0.004713
# 3 0.003143 0.001435 0.014288 0.003027 -0.013829 0.002019
# 4 0.006455 -0.000465 0.003027 0.041094 0.006261 -0.008358
# 5 -0.023778 -0.006015 -0.013829 0.006261 0.064949 -0.006125
# 6 0.002319 0.004713 0.002019 -0.008358 -0.006125 0.029102
#
#
# Mechanical properties :
#
#
# Convention : Reuss Voigt Hill
#
# Bulk Modulus (GPa) = 16.45721 43.38982 29.92351
# Shear Modulus (GPa) = 24.61857 37.32139 30.96998
#
# Velocity S-wave (km/s) = 3.22100 3.96587 3.61268
# Velocity P-wave (km/s) = 4.55726 6.26549 5.47836
#
# Compressibility (1/GPa) = 0.06076366
#
# Stress axis : x y z
#
# Youngs Moduli (GPa) = 32.94844 104.24518 69.98905
#
# Poissons Ratio (x) = 0.13679 -0.21999
# Poissons Ratio (y) = 0.04323 -0.10045
# Poissons Ratio (z) = -0.10357 -0.14961
#
# Static dielectric constant tensor:
#      x y z
#    x 1.730780 -0.126700 0.189620 
#    y -0.126700 1.763510 0.014350 
#    z 0.189620 0.014350 1.863570 
# 
# From -- ./inp_files/215282.got.cif
#   From: 2010.05.17/outbox.cif.g08.bks.cpg/sg2_108_cif.got.tgz:215282.got - 2010.06.03 11:33:40.
