data_PCOD9103452
_publ_section_title
;
Structure prediction by ZEFSAII (Michael W. Deem and Ramdas Pophale) SiO2 
 PCOD9103452
Probable space group: P -1
;
_chemical_formula_sum "Si O2"
_cell_formula_units_Z 16
_cell_length_a 8.375776
_cell_length_b 13.609726
_cell_length_c 9.333766
_cell_angle_alpha 56.212253
_cell_angle_beta 136.032635
_cell_angle_gamma 121.853445
_cell_volume 598.731706
_symmetry_space_group_name_H-M "P -1"
_symmetry_group_IT_number 2
_symmetry_cell_setting 'triclinic'
loop_
_space_group_symop_operation_xyz
x,y,z
-x,-y,-z
loop_
_atom_site_type_symbol
_atom_site_label
_atom_site_fract_x
_atom_site_fract_y
_atom_site_fract_z
Si Si1 0.816278 0.478985 0.765091
Si Si2 0.232233 0.937897 0.431171
Si Si3 0.551699 0.229300 0.917178
Si Si4 0.907604 0.095950 0.208872
Si Si5 0.445900 0.718387 0.808255
Si Si6 0.019911 0.174688 0.911362
Si Si7 0.239204 0.627443 0.477596
Si Si8 0.311980 0.271413 0.476406
O O1 0.702548 0.337721 0.831350
O O2 0.842951 0.477578 0.608597
O O3 0.684177 0.587403 0.614074
O O4 0.000000 0.500000 0.000000
O O5 0.267024 0.808162 0.610950
O O6 0.062473 0.913159 0.203412
O O7 0.500000 0.000000 0.500000
O O8 0.091567 0.005849 0.397005
O O9 0.324369 0.201313 0.690752
O O10 0.655195 0.109298 0.100392
O O11 0.532319 0.300058 0.993673
O O12 0.072552 0.213598 0.291092
O O13 0.871433 0.122248 0.996882
O O14 0.338141 0.610936 0.714641
O O15 0.710695 0.793629 0.886784
O O16 0.968433 0.301240 0.721102
O O17 0.469349 0.727265 0.488751
#
# Coordination Sequence:
#
# PCOD9103452 Si02
#       8
#     2   2   2   2   2   2   2   2
#     4  11  21  42  71  97 126 172 221 266 318 396
#     4  11  24  38  69 101 127 169 226 265 314 393
#     4  11  25  41  64  96 135 167 214 274 329 370
#     4  12  21  39  69  93 126 174 223 262 316 389
#     4  11  25  42  62  97 138 170 208 276 329 373
#     4  11  20  40  67  94 127 169 221 261 321 390
#     4  10  20  38  66  92 125 171 215 258 318 390
#     4  11  21  40  68  95 124 167 222 264 319 392
#
# _framework density 26.723153
#
# number of rings (size 3 to 8) (size 9 to 14) (size 15 to 20)
#    0.000    1.000    6.250    2.625    0.000    2.500 
#    0.000    4.375    0.000    0.000    0.000    0.000 
#    0.000    0.000    0.000    0.000    0.000    0.000 
#
# Total GULP energy -89199.090131 kJ/mol
# GULP energy per Si atom -5574.943133 kJ/mol
# Density = 2.666233 g / cm^3
# Si number density = 26.723153 Si / 1000 Ang^3
#
#
#
# Elastic Constant Matrix: (Units=GPa)
#
#
# Indices 1 2 3 4 5 6 
#
# 1 69.8118 23.3070 28.6246 11.1683 2.7313 -12.0898
# 2 23.3070 78.3832 15.9488 22.2224 17.6742 -18.9583
# 3 28.6246 15.9488 148.0359 25.3154 12.2187 -25.1277
# 4 11.1683 22.2224 25.3154 51.5627 -22.3449 -0.6273
# 5 2.7313 17.6742 12.2187 -22.3449 44.5292 0.0497
# 6 -12.0898 -18.9583 -25.1277 -0.6273 0.0497 41.4168
#
#
#
# Elastic Compliance Matrix: (Units=1/GPa)
#
#
# Indices 1 2 3 4 5 6 
#
# 1 0.017141 -0.004979 -0.002930 0.000808 0.002133 0.000956
# 2 -0.004979 0.031211 0.007670 -0.028224 -0.028369 0.017093
# 3 -0.002930 0.007670 0.011544 -0.013855 -0.012995 0.009465
# 4 0.000808 -0.028224 -0.013855 0.056775 0.043467 -0.020281
# 5 0.002133 -0.028369 -0.012995 0.043467 0.058986 -0.019660
# 6 0.000956 0.017093 0.009465 -0.020281 -0.019660 0.037707
#
#
# Mechanical properties :
#
#
# Convention : Reuss Voigt Hill
#
# Bulk Modulus (GPa) = 16.83045 47.99909 32.41477
# Shear Modulus (GPa) = 21.39978 42.72512 32.06245
#
# Velocity S-wave (km/s) = 2.83290 4.00284 3.46757
# Velocity P-wave (km/s) = 4.12459 6.27410 5.30926
#
# Compressibility (1/GPa) = 0.05941612
#
# Stress axis : x y z
#
# Youngs Moduli (GPa) = 58.34024 32.04046 86.62664
#
# Poissons Ratio (x) = 0.15954 0.25380
# Poissons Ratio (y) = 0.29050 -0.66440
# Poissons Ratio (z) = 0.17093 -0.24574
#
# Static dielectric constant tensor:
#      x y z
#    x 2.261080 0.031590 -0.055190 
#    y 0.031590 2.106330 0.004640 
#    z -0.055190 0.004640 2.151000 
# 
# From -- ./inp_files/201133.got.cif
#   From: 2010.05.17/outbox.cif.g08.bks.cpg/sg2_101_cif.got.tgz:201133.got - 2010.06.03 11:33:40.
