data_PCOD9103719
_publ_section_title
;
Structure prediction by ZEFSAII (Michael W. Deem and Ramdas Pophale) SiO2 
 PCOD9103719
Probable space group: P -1
;
_chemical_formula_sum "Si O2"
_cell_formula_units_Z 16
_cell_length_a 15.126219
_cell_length_b 7.293011
_cell_length_c 6.646435
_cell_angle_alpha 67.879502
_cell_angle_beta 84.127626
_cell_angle_gamma 81.645761
_cell_volume 671.123088
_symmetry_space_group_name_H-M "P -1"
_symmetry_group_IT_number 2
_symmetry_cell_setting 'triclinic'
loop_
_space_group_symop_operation_xyz
x,y,z
-x,-y,-z
loop_
_atom_site_type_symbol
_atom_site_label
_atom_site_fract_x
_atom_site_fract_y
_atom_site_fract_z
Si Si1 0.808914 0.703825 0.319998
Si Si2 0.223380 0.612062 0.201353
Si Si3 0.102277 0.445142 0.049196
Si Si4 0.901933 0.937329 0.505239
Si Si5 0.512550 0.774800 0.832035
Si Si6 0.720403 0.193773 0.536520
Si Si7 0.636672 0.504136 0.117798
Si Si8 0.621374 0.890342 0.422524
O O1 0.801568 0.528908 0.554723
O O2 0.879713 0.845439 0.331871
O O3 0.708712 0.819361 0.301021
O O4 0.842559 0.612913 0.140474
O O5 0.133627 0.636636 0.080275
O O6 0.271467 0.778860 0.236347
O O7 0.287914 0.500821 0.066970
O O8 0.112597 0.244655 0.265048
O O9 0.000000 0.500000 0.000000
O O10 0.822580 0.116873 0.482438
O O11 0.000000 0.000000 0.500000
O O12 0.575682 0.714858 0.031892
O O13 0.574722 0.734998 0.633846
O O14 0.459944 0.992197 0.729099
O O15 0.432063 0.641583 0.889434
O O16 0.660694 0.031881 0.526216
O O17 0.677930 0.398235 0.352826
#
# Coordination Sequence:
#
# PCOD9103719 Si02
#       8
#     2   2   2   2   2   2   2   2
#     4  10  22  43  68  96 133 178 218 271 332 397
#     4  11  23  41  68  94 136 176 222 271 329 394
#     4  11  27  45  71  97 127 178 228 269 329 406
#     4  10  25  42  65  98 135 164 216 282 336 392
#     4   9  18  36  69  99 135 170 228 277 318 402
#     4  10  23  40  65  95 135 177 218 271 337 392
#     4  10  20  38  67  99 132 178 224 266 329 392
#     4   9  18  40  67  98 141 173 216 282 334 377
#
# _framework density 23.840633
#
# number of rings (size 3 to 8) (size 9 to 14) (size 15 to 20)
#    0.000    2.000    1.250    0.750    5.250    4.500 
#    0.000    6.250    5.500    0.000    0.000    0.000 
#    0.000    0.000    0.000    0.000    0.000    0.000 
#
# Total GULP energy -89284.794194 kJ/mol
# GULP energy per Si atom -5580.299637 kJ/mol
# Density = 2.378637 g / cm^3
# Si number density = 23.840633 Si / 1000 Ang^3
#
#
#
# Elastic Constant Matrix: (Units=GPa)
#
#
# Indices 1 2 3 4 5 6 
#
# 1 132.1285 38.3860 44.2999 18.2202 18.1410 -5.7626
# 2 38.3860 55.9060 35.3607 17.3700 15.3425 2.5365
# 3 44.2999 35.3607 89.7853 14.6066 4.1802 0.5985
# 4 18.2202 17.3700 14.6066 41.2906 2.4913 7.3876
# 5 18.1410 15.3425 4.1802 2.4913 42.5445 -7.2441
# 6 -5.7626 2.5365 0.5985 7.3876 -7.2441 35.6120
#
#
#
# Elastic Compliance Matrix: (Units=1/GPa)
#
#
# Indices 1 2 3 4 5 6 
#
# 1 0.010475 -0.004043 -0.003155 -0.002028 -0.002239 0.002001
# 2 -0.004043 0.030776 -0.008552 -0.007082 -0.008629 -0.002989
# 3 -0.003155 -0.008552 0.016080 -0.000996 0.003019 0.000649
# 4 -0.002028 -0.007082 -0.000996 0.029424 0.000816 -0.005745
# 5 -0.002239 -0.008629 0.003019 0.000816 0.028209 0.005771
# 6 0.002001 -0.002989 0.000649 -0.005745 0.005771 0.030972
#
#
# Mechanical properties :
#
#
# Convention : Reuss Voigt Hill
#
# Bulk Modulus (GPa) = 38.71366 57.10144 47.90755
# Shear Modulus (GPa) = 26.87474 34.54100 30.70787
#
# Velocity S-wave (km/s) = 3.36112 3.81048 3.59283
# Velocity P-wave (km/s) = 5.59791 6.58506 6.11145
#
# Compressibility (1/GPa) = 0.02583068
#
# Stress axis : x y z
#
# Youngs Moduli (GPa) = 95.46304 32.49243 62.18901
#
# Poissons Ratio (x) = 0.13136 0.19623
# Poissons Ratio (y) = 0.38593 0.53186
# Poissons Ratio (z) = 0.30122 0.27789
#
# Static dielectric constant tensor:
#      x y z
#    x 1.964260 0.059660 0.034000 
#    y 0.059660 2.001760 -0.033990 
#    z 0.034000 -0.033990 1.938800 
# 
# From -- ./inp_files/89805.got.cif
#   From: 2010.05.17/outbox.cif.g08.bks.cpg/sg2_45_cif.got.tgz:89805.got - 2010.06.03 11:33:40.
