data_PCOD9103113
_publ_section_title
;
Structure prediction by ZEFSAII (Michael W. Deem and Ramdas Pophale) SiO2 
 PCOD9103113
Probable space group: P -1
;
_chemical_formula_sum "Si O2"
_cell_formula_units_Z 16
_cell_length_a 14.496743
_cell_length_b 9.057272
_cell_length_c 8.354094
_cell_angle_alpha 109.853285
_cell_angle_beta 96.776083
_cell_angle_gamma 44.707323
_cell_volume 713.061937
_symmetry_space_group_name_H-M "P -1"
_symmetry_group_IT_number 2
_symmetry_cell_setting 'triclinic'
loop_
_space_group_symop_operation_xyz
x,y,z
-x,-y,-z
loop_
_atom_site_type_symbol
_atom_site_label
_atom_site_fract_x
_atom_site_fract_y
_atom_site_fract_z
Si Si1 0.527408 0.790311 0.987670
Si Si2 0.362143 0.484030 0.418377
Si Si3 0.917377 0.251342 0.627247
Si Si4 0.746590 0.930129 0.043393
Si Si5 0.967006 0.861112 0.894618
Si Si6 0.645239 0.131857 0.451091
Si Si7 0.196243 0.481761 0.988017
Si Si8 0.906941 0.757462 0.527513
O O1 0.584147 0.629429 0.787201
O O2 0.653910 0.650051 0.077374
O O3 0.381586 0.903501 0.040299
O O4 0.500000 0.000000 0.000000
O O5 0.218505 0.576504 0.443121
O O6 0.485810 0.294980 0.491944
O O7 0.338973 0.698620 0.484564
O O8 0.866017 0.321535 0.823796
O O9 0.020909 0.264716 0.623943
O O10 0.000000 0.000000 0.500000
O O11 0.690438 0.025425 0.244362
O O12 0.854676 0.924476 0.010849
O O13 0.800254 0.687032 0.977067
O O14 0.921666 0.872255 0.710808
O O15 0.100142 0.599190 0.861660
O O16 0.000000 0.000000 0.000000
O O17 0.750450 0.927137 0.519287
O O18 0.000000 0.500000 0.500000
#
# Coordination Sequence:
#
# PCOD9103113 Si02
#       8
#     2   2   2   2   2   2   2   2
#     4   8  17  34  63  91 112 141 199 259 294 338
#     4   9  19  34  63  94 109 145 212 256 283 344
#     4  11  20  37  65  88 114 157 210 248 294 356
#     4  10  20  40  63  86 113 158 206 241 294 360
#     4  12  26  37  54  88 128 158 192 244 306 355
#     4  10  20  38  65  87 115 154 208 249 292 353
#     4  10  20  39  63  86 114 156 204 248 291 361
#     4  12  25  40  58  89 129 163 196 249 310 359
#
# _framework density 22.438441999999998
#
# number of rings (size 3 to 8) (size 9 to 14) (size 15 to 20)
#    0.000    1.750    1.250    3.375    3.500    0.000 
#    0.000    2.500    0.000    0.000    0.000    0.000 
#    0.000    0.000    0.000    0.000    0.000    0.000 
#
# Total GULP energy -89265.200543 kJ/mol
# GULP energy per Si atom -5579.075034 kJ/mol
# Density = 2.238737 g / cm^3
# Si number density = 22.438442 Si / 1000 Ang^3
#
#
#
# Elastic Constant Matrix: (Units=GPa)
#
#
# Indices 1 2 3 4 5 6 
#
# 1 92.9296 50.5181 -2.6844 -4.8343 11.0633 -29.8114
# 2 50.5181 120.8937 18.5356 5.4149 -5.3417 -36.5511
# 3 -2.6844 18.5356 64.5238 12.3035 11.6442 1.2176
# 4 -4.8343 5.4149 12.3035 34.6493 4.0544 17.3240
# 5 11.0633 -5.3417 11.6442 4.0544 15.0164 0.9487
# 6 -29.8114 -36.5511 1.2176 17.3240 0.9487 46.2516
#
#
#
# Elastic Compliance Matrix: (Units=1/GPa)
#
#
# Indices 1 2 3 4 5 6 
#
# 1 0.021226 -0.009561 0.007865 0.001820 -0.025993 0.005770
# 2 -0.009561 0.018499 -0.007969 -0.009902 0.021724 0.011930
# 3 0.007865 -0.007969 0.023332 -0.002768 -0.025957 -0.000274
# 4 0.001820 -0.009902 -0.002768 0.044736 -0.013338 -0.023062
# 5 -0.025993 0.021724 -0.025957 -0.013338 0.116967 0.003694
# 6 0.005770 0.011930 -0.000274 -0.023062 0.003694 0.043337
#
#
# Mechanical properties :
#
#
# Convention : Reuss Voigt Hill
#
# Bulk Modulus (GPa) = 22.87027 45.67620 34.27323
# Shear Modulus (GPa) = 16.55609 33.31532 24.93571
#
# Velocity S-wave (km/s) = 2.71928 3.85742 3.33722
# Velocity P-wave (km/s) = 4.48039 6.34350 5.49153
#
# Compressibility (1/GPa) = 0.04372489
#
# Stress axis : x y z
#
# Youngs Moduli (GPa) = 47.11302 54.05677 42.85983
#
# Poissons Ratio (x) = 0.51684 -0.33707
# Poissons Ratio (y) = 0.45045 0.34157
# Poissons Ratio (z) = -0.37052 0.43080
#
# Static dielectric constant tensor:
#      x y z
#    x 1.814980 -0.077660 0.016320 
#    y -0.077660 1.866520 -0.063850 
#    z 0.016320 -0.063850 1.816530 
# 
# From -- ./inp_files/299227.got.cif
#   From: 2010.05.17/outbox.cif.g08.bks.cpg/sg2_150_cif.got.tgz:299227.got - 2010.06.03 11:33:40.
