data_PCOD9103457
_publ_section_title
;
Structure prediction by ZEFSAII (Michael W. Deem and Ramdas Pophale) SiO2 
 PCOD9103457
Probable space group: P -1
;
_chemical_formula_sum "Si O2"
_cell_formula_units_Z 16
_cell_length_a 11.091698
_cell_length_b 10.892137
_cell_length_c 12.769560
_cell_angle_alpha 126.211149
_cell_angle_beta 104.021632
_cell_angle_gamma 120.331429
_cell_volume 677.222730
_symmetry_space_group_name_H-M "P -1"
_symmetry_group_IT_number 2
_symmetry_cell_setting 'triclinic'
loop_
_space_group_symop_operation_xyz
x,y,z
-x,-y,-z
loop_
_atom_site_type_symbol
_atom_site_label
_atom_site_fract_x
_atom_site_fract_y
_atom_site_fract_z
Si Si1 0.145382 0.930078 0.420462
Si Si2 0.332733 0.473997 0.442129
Si Si3 0.266888 0.748602 0.267134
Si Si4 0.585806 0.912860 0.867310
Si Si5 0.035571 0.258633 0.087701
Si Si6 0.669800 0.357360 0.117056
Si Si7 0.021128 0.036046 0.769817
Si Si8 0.439596 0.647777 0.123162
O O1 0.184154 0.837545 0.293490
O O2 0.106319 0.040122 0.399606
O O3 0.347959 0.147235 0.653723
O O4 0.921386 0.661550 0.299906
O O5 0.500000 0.500000 0.500000
O O6 0.477040 0.761876 0.657089
O O7 0.237097 0.396915 0.267179
O O8 0.114591 0.244450 0.355543
O O9 0.101907 0.492146 0.179753
O O10 0.309351 0.672051 0.144065
O O11 0.500000 0.000000 0.500000
O O12 0.640884 0.146018 0.999391
O O13 0.421723 0.696743 0.815672
O O14 0.810277 0.045475 0.996041
O O15 0.989326 0.111529 0.902729
O O16 0.524586 0.286336 0.958391
O O17 0.276294 0.337647 0.948397
#
# Coordination Sequence:
#
# PCOD9103457 Si02
#       8
#     2   2   2   2   2   2   2   2
#     4  10  20  38  66  92 127 164 208 269 315 368
#     4  12  27  40  65  93 131 171 210 257 315 384
#     4   9  19  31  60  95 120 156 203 261 318 369
#     4  11  25  41  64  91 134 170 212 259 309 382
#     4  11  23  40  62  96 129 165 205 263 324 372
#     4  10  23  42  62  97 126 170 215 257 314 375
#     4  10  23  38  61  96 125 159 209 255 317 381
#     4   9  21  35  63  88 126 161 209 263 314 368
#
# _framework density 23.625903999999998
#
# number of rings (size 3 to 8) (size 9 to 14) (size 15 to 20)
#    0.000    1.750    2.500    0.375   10.500    2.500 
#    0.000    5.000    0.000    4.500    0.000    0.000 
#    0.000    0.000    0.000    0.000    0.000    0.000 
#
# Total GULP energy -89395.811864 kJ/mol
# GULP energy per Si atom -5587.238241 kJ/mol
# Density = 2.357213 g / cm^3
# Si number density = 23.625904 Si / 1000 Ang^3
#
#
#
# Elastic Constant Matrix: (Units=GPa)
#
#
# Indices 1 2 3 4 5 6 
#
# 1 50.4751 6.2912 24.3024 -9.6016 3.7416 7.4017
# 2 6.2912 77.1729 18.3955 -10.7511 8.1453 12.3655
# 3 24.3024 18.3955 139.3165 -17.5764 24.0024 -0.5955
# 4 -9.6016 -10.7511 -17.5764 30.6310 -11.0536 2.0841
# 5 3.7416 8.1453 24.0024 -11.0536 23.7633 1.5046
# 6 7.4017 12.3655 -0.5955 2.0841 1.5046 20.3616
#
#
#
# Elastic Compliance Matrix: (Units=1/GPa)
#
#
# Indices 1 2 3 4 5 6 
#
# 1 0.024516 0.001452 -0.004253 0.008097 0.004406 -0.011073
# 2 0.001452 0.015773 -0.001540 0.005533 -0.000831 -0.010657
# 3 -0.004253 -0.001540 0.009665 0.000331 -0.008624 0.003368
# 4 0.008097 0.005533 0.000331 0.044656 0.018039 -0.012197
# 5 0.004406 -0.000831 -0.008624 0.018039 0.059254 -0.007574
# 6 -0.011073 -0.010657 0.003368 -0.012197 -0.007574 0.061515
#
#
# Mechanical properties :
#
#
# Convention : Reuss Voigt Hill
#
# Bulk Modulus (GPa) = 24.22970 40.54921 32.38945
# Shear Modulus (GPa) = 21.02444 29.48287 25.25365
#
# Velocity S-wave (km/s) = 2.98634 3.53640 3.27295
# Velocity P-wave (km/s) = 4.70837 5.82023 5.29358
#
# Compressibility (1/GPa) = 0.04127166
#
# Stress axis : x y z
#
# Youngs Moduli (GPa) = 40.78982 63.40082 103.46427
#
# Poissons Ratio (x) = -0.09209 0.44005
# Poissons Ratio (y) = -0.05925 0.15938
# Poissons Ratio (z) = 0.17348 0.09766
#
# Static dielectric constant tensor:
#      x y z
#    x 1.863660 -0.137130 -0.159820 
#    y -0.137130 1.541800 -0.335560 
#    z -0.159820 -0.335560 1.488060 
# 
# From -- ./inp_files/428749.got.cif
#   From: 2010.05.17/outbox.cif.g08.bks.cpg/sg2_215_cif.got.tgz:428749.got - 2010.06.03 11:33:40.
