data_PCOD9103192
_publ_section_title
;
Structure prediction by ZEFSAII (Michael W. Deem and Ramdas Pophale) SiO2 
 PCOD9103192
Probable space group: P -1
;
_chemical_formula_sum "Si O2"
_cell_formula_units_Z 13
_cell_length_a 9.218946
_cell_length_b 9.571861
_cell_length_c 7.478031
_cell_angle_alpha 101.081624
_cell_angle_beta 130.302463
_cell_angle_gamma 66.169130
_cell_volume 458.079001
_symmetry_space_group_name_H-M "P -1"
_symmetry_group_IT_number 2
_symmetry_cell_setting 'triclinic'
loop_
_space_group_symop_operation_xyz
x,y,z
-x,-y,-z
loop_
_atom_site_type_symbol
_atom_site_label
_atom_site_fract_x
_atom_site_fract_y
_atom_site_fract_z
Si Si1 0.162028 0.773090 0.153789
Si Si2 0.500000 0.000000 0.000000
Si Si3 0.783472 0.529526 0.694922
Si Si4 0.471769 0.382512 0.805960
Si Si5 0.887945 0.691611 0.329799
Si Si6 0.809135 0.156918 0.396348
Si Si7 0.719974 0.858239 0.872985
O O1 0.170379 0.599665 0.149763
O O2 0.319928 0.754314 0.118848
O O3 0.225005 0.809968 0.409870
O O4 0.921436 0.875232 0.959577
O O5 0.619999 0.131563 0.148611
O O6 0.485841 0.001389 0.219601
O O7 0.604813 0.527730 0.420275
O O8 0.718055 0.702304 0.753116
O O9 0.992945 0.458602 0.728989
O O10 0.279427 0.336948 0.692275
O O11 0.500000 0.500000 0.000000
O O12 0.076685 0.732729 0.563753
O O13 0.760071 0.830163 0.120437
O O14 0.000000 0.000000 0.500000
#
# Coordination Sequence:
#
# PCOD9103192 Si02
#       7
#     2   1   2   2   2   2   2
#     4  10  21  39  65  94 128 163 214 267 312 389
#     4  12  20  36  72  88 116 176 216 264 314 362
#     4  10  20  39  61  91 125 168 216 258 315 388
#     4  12  23  36  60  98 138 167 200 261 340 378
#     4  10  22  39  63  95 131 163 207 277 318 377
#     4  10  20  42  63  91 124 162 226 261 304 375
#     4  10  20  38  65  92 120 164 226 257 313 378
#
# _framework density 28.379386
#
# number of rings (size 3 to 8) (size 9 to 14) (size 15 to 20)
#    0.000    1.846    3.077    5.538    0.000    3.692 
#    0.000    0.769    0.000    2.769    0.000    0.000 
#    0.000    0.000    0.000    0.000    0.000    0.000 
#
# Total GULP energy -72554.889074 kJ/mol
# GULP energy per Si atom -5581.145313 kJ/mol
# Density = 2.831479 g / cm^3
# Si number density = 28.379386 Si / 1000 Ang^3
#
#
#
# Elastic Constant Matrix: (Units=GPa)
#
#
# Indices 1 2 3 4 5 6 
#
# 1 241.3472 61.3868 36.0373 29.1952 34.5454 -40.2198
# 2 61.3868 117.6102 41.3054 46.8310 8.0309 -29.2004
# 3 36.0373 41.3054 161.2766 42.4452 29.9010 -3.5125
# 4 29.1952 46.8310 42.4452 62.2340 -2.1653 -5.1011
# 5 34.5454 8.0309 29.9010 -2.1653 42.3464 -7.0964
# 6 -40.2198 -29.2004 -3.5125 -5.1011 -7.0964 51.9149
#
#
#
# Elastic Compliance Matrix: (Units=1/GPa)
#
#
# Indices 1 2 3 4 5 6 
#
# 1 0.005772 -0.001396 0.000427 -0.001859 -0.004348 0.002938
# 2 -0.001396 0.014877 -0.000737 -0.009549 -0.000609 0.006215
# 3 0.000427 -0.000737 0.009279 -0.006315 -0.007263 -0.001069
# 4 -0.001859 -0.009549 -0.006315 0.028469 0.008697 -0.003253
# 5 -0.004348 -0.000609 -0.007263 0.008697 0.033046 0.001169
# 6 0.002938 0.006215 -0.001069 -0.003253 0.001169 0.024802
#
#
# Mechanical properties :
#
#
# Convention : Reuss Voigt Hill
#
# Bulk Modulus (GPa) = 37.71214 88.63256 63.17235
# Shear Modulus (GPa) = 38.91199 56.73269 47.82234
#
# Velocity S-wave (km/s) = 3.70690 4.47596 4.10946
# Velocity P-wave (km/s) = 5.62485 7.61652 6.69516
#
# Compressibility (1/GPa) = 0.02651666
#
# Stress axis : x y z
#
# Youngs Moduli (GPa) = 173.26496 67.21693 107.77088
#
# Poissons Ratio (x) = 0.09383 -0.04604
# Poissons Ratio (y) = 0.24186 0.07940
# Poissons Ratio (z) = -0.07402 0.04952
#
# Static dielectric constant tensor:
#      x y z
#    x 2.419850 -0.000320 -0.029280 
#    y -0.000320 2.640800 -0.208930 
#    z -0.029280 -0.208930 2.289860 
# 
# From -- ./inp_files/190447.got.cif
#   From: 2010.05.17/outbox.cif.g08.bks.cpg/sg2_96_cif.got.tgz:190447.got - 2010.06.03 11:33:40.
