data_PCOD9103682
_publ_section_title
;
Structure prediction by ZEFSAII (Michael W. Deem and Ramdas Pophale) SiO2 
 PCOD9103682
Probable space group: P -1
;
_chemical_formula_sum "Si O2"
_cell_formula_units_Z 16
_cell_length_a 8.344002
_cell_length_b 11.737170
_cell_length_c 11.109317
_cell_angle_alpha 57.474693
_cell_angle_beta 124.267429
_cell_angle_gamma 92.548349
_cell_volume 704.107710
_symmetry_space_group_name_H-M "P -1"
_symmetry_group_IT_number 2
_symmetry_cell_setting 'triclinic'
loop_
_space_group_symop_operation_xyz
x,y,z
-x,-y,-z
loop_
_atom_site_type_symbol
_atom_site_label
_atom_site_fract_x
_atom_site_fract_y
_atom_site_fract_z
Si Si1 0.631133 0.777652 0.405112
Si Si2 0.207002 0.465037 0.194451
Si Si3 0.502137 0.569930 0.089316
Si Si4 0.054132 0.609094 0.546428
Si Si5 0.311008 0.830534 0.016114
Si Si6 0.389242 0.024152 0.311707
Si Si7 0.036587 0.879453 0.246942
Si Si8 0.022101 0.257705 0.949806
O O1 0.661483 0.685504 0.595610
O O2 0.467244 0.778746 0.227929
O O3 0.857563 0.707278 0.484045
O O4 0.552145 0.943012 0.323362
O O5 0.374774 0.506876 0.164594
O O6 0.100167 0.571118 0.202679
O O7 0.000000 0.500000 0.000000
O O8 0.747176 0.505023 0.244395
O O9 0.420080 0.741151 0.994564
O O10 0.500000 0.500000 0.000000
O O11 0.118989 0.730761 0.439339
O O12 0.000000 0.500000 0.500000
O O13 0.116270 0.781958 0.985955
O O14 0.186668 0.004916 0.864968
O O15 0.500000 0.000000 0.500000
O O16 0.214681 0.948595 0.278705
O O17 0.259131 0.193032 0.131634
O O18 0.993599 0.828959 0.125922
#
# Coordination Sequence:
#
# PCOD9103682 Si02
#       8
#     2   2   2   2   2   2   2   2
#     4  12  22  42  65  98 132 172 235 275 331 411
#     4  11  24  41  69 101 132 177 229 284 350 406
#     4  11  25  45  67  96 140 179 224 287 350 408
#     4  12  26  42  65 101 138 181 226 281 336 414
#     4  10  21  41  69  96 128 176 226 285 332 408
#     4  11  22  41  68  98 133 173 226 288 343 405
#     4  11  22  43  67 100 133 176 230 282 352 400
#     4  10  20  38  67  96 128 168 223 285 336 404
#
# _framework density 22.723797000000001
#
# number of rings (size 3 to 8) (size 9 to 14) (size 15 to 20)
#    0.000    1.000    3.750    3.750    0.000    3.500 
#    0.000    3.750    0.000    0.000    0.000    0.000 
#    0.000    0.000    0.000    0.000    0.000    0.000 
#
# Total GULP energy -89179.799439 kJ/mol
# GULP energy per Si atom -5573.737465 kJ/mol
# Density = 2.267208 g / cm^3
# Si number density = 22.723797 Si / 1000 Ang^3
#
#
#
# Elastic Constant Matrix: (Units=GPa)
#
#
# Indices 1 2 3 4 5 6 
#
# 1 73.1101 24.0405 -4.8294 -6.2808 22.9506 -33.7989
# 2 24.0405 109.2573 50.3423 0.9389 14.5857 -45.9642
# 3 -4.8294 50.3423 44.1375 1.7864 34.9246 -30.0974
# 4 -6.2808 0.9389 1.7864 52.7807 -1.7414 7.6503
# 5 22.9506 14.5857 34.9246 -1.7414 39.5118 -11.3503
# 6 -33.7989 -45.9642 -30.0974 7.6503 -11.3503 45.0414
#
#
#
# Elastic Compliance Matrix: (Units=1/GPa)
#
#
# Indices 1 2 3 4 5 6 
#
# 1 0.001246 0.007509 -0.027143 0.002305 0.019130 -0.005111
# 2 0.007509 0.017088 0.003118 -0.003218 -0.006666 0.024022
# 3 -0.027143 0.003118 -0.030905 0.003206 0.033471 -0.029948
# 4 0.002305 -0.003218 0.003206 0.019577 -0.003135 -0.003527
# 5 0.019130 -0.006666 0.033471 -0.003135 -0.004655 0.029277
# 6 -0.005111 0.024022 -0.029948 -0.003527 0.029277 0.030847
#
#
# Mechanical properties :
#
#
# Convention : Reuss Voigt Hill
#
# Bulk Modulus (GPa) = -21.92759 40.62352 9.34797
# Shear Modulus (GPa) = 97.98334 37.93022 67.95678
#
# Velocity S-wave (km/s) = 6.57365 4.09000 5.47453
# Velocity P-wave (km/s) = 6.92435 6.34192 6.63953
#
# Compressibility (1/GPa) = -0.04560466
#
# Stress axis : x y z
#
# Youngs Moduli (GPa) = 802.55244 58.52180 -32.35699
#
# Poissons Ratio (x) = -0.43944 -0.87828
# Poissons Ratio (y) = -6.02636 0.10088
# Poissons Ratio (z) = 21.78399 -0.18246
#
# Static dielectric constant tensor:
#      x y z
#    x 1.860130 0.002680 -0.050850 
#    y 0.002680 1.867060 -0.036150 
#    z -0.050850 -0.036150 1.875830 
# 
# From -- ./inp_files/206925.got.cif
#   From: 2010.05.17/outbox.cif.g08.bks.cpg/sg2_104_cif.got.tgz:206925.got - 2010.06.03 11:33:40.
