data_PCOD9103340
_publ_section_title
;
Structure prediction by ZEFSAII (Michael W. Deem and Ramdas Pophale) SiO2 
 PCOD9103340
Probable space group: P -1
;
_chemical_formula_sum "Si O2"
_cell_formula_units_Z 15
_cell_length_a 10.235286
_cell_length_b 14.077591
_cell_length_c 7.875766
_cell_angle_alpha 59.273331
_cell_angle_beta 83.425872
_cell_angle_gamma 129.336257
_cell_volume 567.264537
_symmetry_space_group_name_H-M "P -1"
_symmetry_group_IT_number 2
_symmetry_cell_setting 'triclinic'
loop_
_space_group_symop_operation_xyz
x,y,z
-x,-y,-z
loop_
_atom_site_type_symbol
_atom_site_label
_atom_site_fract_x
_atom_site_fract_y
_atom_site_fract_z
Si Si1 0.549522 0.835651 0.870362
Si Si2 0.000000 0.500000 0.000000
Si Si3 0.598625 0.284895 0.507490
Si Si4 0.742822 0.625833 0.227517
Si Si5 0.791261 0.275320 0.765351
Si Si6 0.961493 0.213573 0.300483
Si Si7 0.163234 0.955833 0.023791
Si Si8 0.379786 0.476914 0.195626
O O1 0.705098 0.923417 0.934619
O O2 0.344412 0.778209 0.999472
O O3 0.435527 0.643151 0.022923
O O4 0.718247 0.995297 0.559736
O O5 0.758396 0.375769 0.241468
O O6 0.938638 0.329216 0.200688
O O7 0.689640 0.460152 0.422106
O O8 0.638037 0.203922 0.694122
O O9 0.330064 0.111161 0.707548
O O10 0.508556 0.520726 0.301453
O O11 0.903401 0.805252 0.164524
O O12 0.901794 0.728835 0.939724
O O13 0.846878 0.185773 0.846388
O O14 0.000000 0.500000 0.500000
O O15 0.116886 0.285331 0.373651
O O16 0.500000 0.500000 0.000000
#
# Coordination Sequence:
#
# PCOD9103340 Si02
#       8
#     2   1   2   2   2   2   2   2
#     4  11  25  41  71 102 128 185 224 267 344 398
#     4  10  20  38  66 100 130 166 216 274 334 398
#     4  10  21  39  62  96 133 175 216 272 339 389
#     4  10  23  42  63  94 132 181 216 282 330 378
#     4  11  22  41  68  94 142 176 211 274 341 408
#     4  10  23  42  68  98 135 171 226 271 337 401
#     4  11  23  41  66  99 138 171 223 275 331 409
#     4  10  25  46  67  95 135 180 228 282 328 389
#
# _framework density 26.442688
#
# number of rings (size 3 to 8) (size 9 to 14) (size 15 to 20)
#    0.000    1.600    1.333    3.200    3.733    6.933 
#    0.000    7.333    0.000    0.000    0.000    0.000 
#    0.000    0.000    0.000    0.000    0.000    0.000 
#
# Total GULP energy -83779.800143 kJ/mol
# GULP energy per Si atom -5585.320010 kJ/mol
# Density = 2.638250 g / cm^3
# Si number density = 26.442688 Si / 1000 Ang^3
#
#
#
# Elastic Constant Matrix: (Units=GPa)
#
#
# Indices 1 2 3 4 5 6 
#
# 1 46.8638 6.6736 -2.0450 7.1478 -12.1123 8.4052
# 2 6.6736 81.0639 8.7702 -2.0328 -10.8171 4.7797
# 3 -2.0450 8.7702 155.5630 -12.1077 -35.7506 7.0554
# 4 7.1478 -2.0328 -12.1077 40.3884 13.8590 -7.5202
# 5 -12.1123 -10.8171 -35.7506 13.8590 42.4679 -0.4746
# 6 8.4052 4.7797 7.0554 -7.5202 -0.4746 37.0843
#
#
#
# Elastic Compliance Matrix: (Units=1/GPa)
#
#
# Indices 1 2 3 4 5 6 
#
# 1 0.028388 -0.000554 0.003205 -0.010559 0.014000 -0.008935
# 2 -0.000554 0.012907 0.000066 -0.000706 0.003397 -0.001650
# 3 0.003205 0.000066 0.008411 -0.001407 0.008443 -0.002513
# 4 -0.010559 -0.000706 -0.001407 0.033064 -0.015063 0.009264
# 5 0.014000 0.003397 0.008443 -0.015063 0.040342 -0.007755
# 6 -0.008935 -0.001650 -0.002513 0.009264 -0.007755 0.031461
#
#
# Mechanical properties :
#
#
# Convention : Reuss Voigt Hill
#
# Bulk Modulus (GPa) = 18.13527 34.47648 26.30588
# Shear Modulus (GPa) = 29.84716 41.99425 35.92070
#
# Velocity S-wave (km/s) = 3.36333 3.98945 3.68970
# Velocity P-wave (km/s) = 4.68571 5.85555 5.30299
#
# Compressibility (1/GPa) = 0.05514115
#
# Stress axis : x y z
#
# Youngs Moduli (GPa) = 35.22569 77.47553 118.88574
#
# Poissons Ratio (x) = 0.04290 -0.38105
# Poissons Ratio (y) = 0.01950 -0.00780
# Poissons Ratio (z) = -0.11290 -0.00508
#
# Static dielectric constant tensor:
#      x y z
#    x 2.107310 0.128020 -0.067870 
#    y 0.128020 2.190790 0.068320 
#    z -0.067870 0.068320 2.035250 
# 
# From -- ./inp_files/269778.got.cif
#   From: 2010.05.17/outbox.cif.g08.bks.cpg/sg2_135_cif.got.tgz:269778.got - 2010.06.03 11:33:40.
