data_PCOD9103606
_publ_section_title
;
Structure prediction by ZEFSAII (Michael W. Deem and Ramdas Pophale) SiO2 
 PCOD9103606
Probable space group: P -1
;
_chemical_formula_sum "Si O2"
_cell_formula_units_Z 12
_cell_length_a 13.773077
_cell_length_b 11.810277
_cell_length_c 9.005375
_cell_angle_alpha 37.007145
_cell_angle_beta 126.240747
_cell_angle_gamma 139.690763
_cell_volume 569.797478
_symmetry_space_group_name_H-M "P -1"
_symmetry_group_IT_number 2
_symmetry_cell_setting 'triclinic'
loop_
_space_group_symop_operation_xyz
x,y,z
-x,-y,-z
loop_
_atom_site_type_symbol
_atom_site_label
_atom_site_fract_x
_atom_site_fract_y
_atom_site_fract_z
Si Si1 0.977928 0.249973 0.845544
Si Si2 0.118351 0.136991 0.599704
Si Si3 0.116429 0.572589 0.160260
Si Si4 0.617582 0.889624 0.205895
Si Si5 0.522360 0.006295 0.267064
Si Si6 0.749002 0.265064 0.461571
O O1 0.947719 0.387989 0.793431
O O2 0.855474 0.185219 0.677726
O O3 0.146222 0.451574 0.735415
O O4 0.945231 0.031927 0.136341
O O5 0.138689 0.373499 0.403869
O O6 0.276969 0.190274 0.641452
O O7 0.000000 0.000000 0.500000
O O8 0.266305 0.826036 0.992528
O O9 0.000000 0.500000 0.000000
O O10 0.540749 0.846093 0.340884
O O11 0.507477 0.837226 0.025725
O O12 0.379858 0.848801 0.410920
O O13 0.667407 0.167405 0.332592
#
# Coordination Sequence:
#
# PCOD9103606 Si02
#       6
#     2   2   2   2   2   2
#     4  10  21  39  64  93 121 163 209 251 306 363
#     4  11  21  36  65  96 123 151 217 263 301 351
#     4  11  19  36  63  94 119 155 201 267 307 341
#     4  10  21  39  64  93 121 163 209 251 306 363
#     4  10  20  38  67  88 127 171 197 245 316 371
#     4  10  20  38  67  88 127 171 197 245 316 371
#
# _framework density 21.060115
#
# number of rings (size 3 to 8) (size 9 to 14) (size 15 to 20)
#    0.000    1.667    6.667    1.000    0.000    0.000 
#    0.000    6.667    0.000    3.000    0.000    0.000 
#    0.000    0.000    0.000    0.000    0.000    0.000 
#
# Total GULP energy -67053.799598 kJ/mol
# GULP energy per Si atom -5587.816633 kJ/mol
# Density = 2.101218 g / cm^3
# Si number density = 21.060115 Si / 1000 Ang^3
#
#
#
# Elastic Constant Matrix: (Units=GPa)
#
#
# Indices 1 2 3 4 5 6 
#
# 1 67.3623 17.7991 31.6988 0.3861 6.9794 1.5951
# 2 17.7991 88.9440 46.1732 29.3848 6.7912 6.5595
# 3 31.6988 46.1732 121.5865 10.5949 20.6404 -3.4273
# 4 0.3861 29.3848 10.5949 55.2579 -7.2910 8.9483
# 5 6.9794 6.7912 20.6404 -7.2910 36.9637 -4.3375
# 6 1.5951 6.5595 -3.4273 8.9483 -4.3375 27.1855
#
#
#
# Elastic Compliance Matrix: (Units=1/GPa)
#
#
# Indices 1 2 3 4 5 6 
#
# 1 0.017265 -0.001856 -0.003905 0.001821 -0.000584 -0.001750
# 2 -0.001856 0.017237 -0.005120 -0.008032 -0.001817 -0.002342
# 3 -0.003905 -0.005120 0.012149 -0.000623 -0.004946 0.002412
# 4 0.001821 -0.008032 -0.000623 0.024069 0.005608 -0.005275
# 5 -0.000584 -0.001817 -0.004946 0.005608 0.031725 0.003065
# 6 -0.001750 -0.002342 0.002412 -0.005275 0.003065 0.039981
#
#
# Mechanical properties :
#
#
# Convention : Reuss Voigt Hill
#
# Bulk Modulus (GPa) = 40.17774 52.13724 46.15749
# Shear Modulus (GPa) = 28.98813 36.02953 32.50883
#
# Velocity S-wave (km/s) = 3.71407 4.14066 3.93316
# Velocity P-wave (km/s) = 6.12467 6.90436 6.52617
#
# Compressibility (1/GPa) = 0.02488940
#
# Stress axis : x y z
#
# Youngs Moduli (GPa) = 57.92183 58.01373 82.31238
#
# Poissons Ratio (x) = 0.10765 0.32145
# Poissons Ratio (y) = 0.10748 0.42143
# Poissons Ratio (z) = 0.22620 0.29702
#
# Static dielectric constant tensor:
#      x y z
#    x 1.809910 0.023680 -0.031460 
#    y 0.023680 1.786450 0.023830 
#    z -0.031460 0.023830 1.778360 
# 
# From -- ./inp_files/302202.got.cif
#   From: 2010.05.17/outbox.cif.g08.bks.cpg/sg2_152_cif.got.tgz:302202.got - 2010.06.03 11:33:40.
