data_PCOD9103195
_publ_section_title
;
Structure prediction by ZEFSAII (Michael W. Deem and Ramdas Pophale) SiO2 
 PCOD9103195
Probable space group: P -1
;
_chemical_formula_sum "Si O2"
_cell_formula_units_Z 16
_cell_length_a 12.294959
_cell_length_b 9.208010
_cell_length_c 18.214998
_cell_angle_alpha 29.956016
_cell_angle_beta 129.066806
_cell_angle_gamma 127.882344
_cell_volume 787.080269
_symmetry_space_group_name_H-M "P -1"
_symmetry_group_IT_number 2
_symmetry_cell_setting 'triclinic'
loop_
_space_group_symop_operation_xyz
x,y,z
-x,-y,-z
loop_
_atom_site_type_symbol
_atom_site_label
_atom_site_fract_x
_atom_site_fract_y
_atom_site_fract_z
Si Si1 0.172180 0.278450 0.635840
Si Si2 0.598936 0.766053 0.123579
Si Si3 0.604304 0.483628 0.619489
Si Si4 0.128869 0.951818 0.334807
Si Si5 0.427816 0.281090 0.345924
Si Si6 0.243290 0.052600 0.038062
Si Si7 0.071242 0.966654 0.134527
Si Si8 0.878672 0.716351 0.556685
O O1 0.281839 0.199350 0.776992
O O2 0.165378 0.621624 0.500094
O O3 0.189100 0.260780 0.563211
O O4 0.019989 0.074340 0.676146
O O5 0.492261 0.461624 0.224171
O O6 0.670332 0.784451 0.065448
O O7 0.500000 0.000000 0.000000
O O8 0.500000 0.500000 0.500000
O O9 0.531370 0.552895 0.633316
O O10 0.750653 0.703480 0.565609
O O11 0.659924 0.179634 0.792273
O O12 0.109474 0.014312 0.213997
O O13 0.258695 0.189890 0.313796
O O14 0.500000 0.000000 0.500000
O O15 0.188214 0.157658 0.047139
O O16 0.083767 0.950515 0.981781
O O17 0.069647 0.608545 0.277168
O O18 0.000000 0.000000 0.500000
#
# Coordination Sequence:
#
# PCOD9103195 Si02
#       8
#     2   2   2   2   2   2   2   2
#     4  10  20  38  65  92 123 171 215 262 330 387
#     4  12  23  41  61  93 134 173 207 268 334 393
#     4  11  24  42  65  89 129 177 214 262 329 398
#     4  10  20  38  65  95 124 162 218 273 315 385
#     4  12  25  40  66 101 132 165 226 271 323 392
#     4  10  21  40  66  88 124 174 219 258 329 399
#     4   9  20  40  68  91 124 174 216 264 334 385
#     4  10  21  37  65  93 124 162 222 272 315 382
#
# _framework density 20.328295000000001
#
# number of rings (size 3 to 8) (size 9 to 14) (size 15 to 20)
#    0.000    1.500    3.750    1.500    3.500    1.000 
#    0.000    6.875    0.000    0.000    0.000    0.000 
#    0.000    0.000    0.000    0.000    0.000    0.000 
#
# Total GULP energy -89139.775215 kJ/mol
# GULP energy per Si atom -5571.235951 kJ/mol
# Density = 2.028203 g / cm^3
# Si number density = 20.328295 Si / 1000 Ang^3
#
#
#
# Elastic Constant Matrix: (Units=GPa)
#
#
# Indices 1 2 3 4 5 6 
#
# 1 127.5163 10.0587 34.0621 7.8447 -37.9706 9.1302
# 2 10.0587 51.2514 23.0014 16.8164 -10.3225 13.7815
# 3 34.0621 23.0014 94.9518 32.8387 -12.0186 8.4885
# 4 7.8447 16.8164 32.8387 32.4964 5.2661 -5.9920
# 5 -37.9706 -10.3225 -12.0186 5.2661 45.8368 0.6597
# 6 9.1302 13.7815 8.4885 -5.9920 0.6597 31.4251
#
#
#
# Elastic Compliance Matrix: (Units=1/GPa)
#
#
# Indices 1 2 3 4 5 6 
#
# 1 0.012293 0.005110 -0.000461 -0.008536 0.012303 -0.007574
# 2 0.005110 0.038415 0.005712 -0.034892 0.018778 -0.026922
# 3 -0.000461 0.005712 0.022041 -0.029389 0.010263 -0.014144
# 4 -0.008536 -0.034892 -0.029389 0.094305 -0.034108 0.044418
# 5 0.012303 0.018778 0.010263 -0.034108 0.043163 -0.021991
# 6 -0.007574 -0.026922 -0.014144 0.044418 -0.021991 0.058580
#
#
# Mechanical properties :
#
#
# Convention : Reuss Voigt Hill
#
# Bulk Modulus (GPa) = 10.69867 45.32932 28.01400
# Shear Modulus (GPa) = 17.90617 35.72482 26.81550
#
# Velocity S-wave (km/s) = 2.97113 4.19668 3.63591
# Velocity P-wave (km/s) = 4.12850 6.76977 5.60689
#
# Compressibility (1/GPa) = 0.09346953
#
# Stress axis : x y z
#
# Youngs Moduli (GPa) = 81.34637 26.03150 45.36995
#
# Poissons Ratio (x) = -0.13301 0.02093
# Poissons Ratio (y) = -0.41564 -0.25915
# Poissons Ratio (z) = 0.03753 -0.14869
#
# Static dielectric constant tensor:
#      x y z
#    x 1.739440 0.018970 0.000450 
#    y 0.018970 1.702470 -0.009140 
#    z 0.000450 -0.009140 1.749350 
# 
# From -- ./inp_files/395946.got.cif
#   From: 2010.05.17/outbox.cif.g08.bks.cpg/sg2_198_cif.got.tgz:395946.got - 2010.06.03 11:33:40.
