data_PCOD9103792
_publ_section_title
;
Structure prediction by ZEFSAII (Michael W. Deem and Ramdas Pophale) SiO2 
 PCOD9103792
Probable space group: P -1
;
_chemical_formula_sum "Si O2"
_cell_formula_units_Z 14
_cell_length_a 10.234448
_cell_length_b 7.560752
_cell_length_c 10.993876
_cell_angle_alpha 86.367883
_cell_angle_beta 134.282752
_cell_angle_gamma 83.686088
_cell_volume 593.474733
_symmetry_space_group_name_H-M "P -1"
_symmetry_group_IT_number 2
_symmetry_cell_setting 'triclinic'
loop_
_space_group_symop_operation_xyz
x,y,z
-x,-y,-z
loop_
_atom_site_type_symbol
_atom_site_label
_atom_site_fract_x
_atom_site_fract_y
_atom_site_fract_z
Si Si1 0.896767 0.364267 0.597495
Si Si2 0.538126 0.268026 0.466979
Si Si3 0.071500 0.229923 0.944561
Si Si4 0.751397 0.460809 0.864034
Si Si5 0.441458 0.958362 0.266662
Si Si6 0.471519 0.708280 0.084398
Si Si7 0.820607 0.399672 0.267842
O O1 0.696886 0.372511 0.528227
O O2 0.871289 0.328628 0.440360
O O3 0.021496 0.211086 0.772189
O O4 0.989297 0.541778 0.655456
O O5 0.341860 0.401551 0.306442
O O6 0.547590 0.189092 0.612145
O O7 0.552886 0.100775 0.389401
O O8 0.891636 0.284134 0.912288
O O9 0.143086 0.417274 0.991600
O O10 0.229879 0.070894 0.105632
O O11 0.592926 0.413265 0.846877
O O12 0.501421 0.879190 0.175361
O O13 0.663979 0.590911 0.162136
O O14 0.294988 0.726313 0.876401
#
# Coordination Sequence:
#
# PCOD9103792 Si02
#       7
#     2   2   2   2   2   2   2
#     4  11  21  41  65  90 129 163 218 274 304 369
#     4  10  22  42  66  97 132 165 208 262 329 394
#     4  10  22  39  64  98 129 161 208 265 327 387
#     4  10  20  38  68  94 123 168 214 259 318 384
#     4  10  24  42  64  99 136 165 200 266 340 382
#     4  11  21  42  66  89 128 172 216 270 306 381
#     4  10  24  40  64  98 118 171 232 266 296 371
#
# _framework density 23.589883
#
# number of rings (size 3 to 8) (size 9 to 14) (size 15 to 20)
#    0.000    1.714    2.857    0.857    2.000    3.429 
#    0.000    7.143    0.000    0.000    0.000    0.000 
#    0.000    0.000    0.000    0.000    0.000    0.000 
#
# Total GULP energy -78119.336329 kJ/mol
# GULP energy per Si atom -5579.952595 kJ/mol
# Density = 2.353619 g / cm^3
# Si number density = 23.589883 Si / 1000 Ang^3
#
#
#
# Elastic Constant Matrix: (Units=GPa)
#
#
# Indices 1 2 3 4 5 6 
#
# 1 54.4939 24.3943 23.1325 18.5829 -4.4050 -2.2621
# 2 24.3943 49.3758 14.8418 31.0030 -11.0744 -12.6788
# 3 23.1325 14.8418 169.4166 16.1436 -41.3102 -6.2816
# 4 18.5829 31.0030 16.1436 47.7381 4.5078 -0.4704
# 5 -4.4050 -11.0744 -41.3102 4.5078 41.7870 4.5742
# 6 -2.2621 -12.6788 -6.2816 -0.4704 4.5742 24.2059
#
#
#
# Elastic Compliance Matrix: (Units=1/GPa)
#
#
# Indices 1 2 3 4 5 6 
#
# 1 0.025391 -0.014389 -0.003502 0.000983 -0.004128 -0.005274
# 2 -0.014389 0.061917 0.006822 -0.038794 0.022779 0.027799
# 3 -0.003502 0.006822 0.009285 -0.007214 0.011020 0.003433
# 4 0.000983 -0.038794 -0.007214 0.049996 -0.020821 -0.017194
# 5 -0.004128 0.022779 0.011020 -0.020821 0.042010 0.006062
# 6 -0.005274 0.027799 0.003433 -0.017194 0.006062 0.054791
#
#
# Mechanical properties :
#
#
# Convention : Reuss Voigt Hill
#
# Bulk Modulus (GPa) = 13.43083 44.22484 28.82784
# Shear Modulus (GPa) = 17.22084 36.80739 27.01412
#
# Velocity S-wave (km/s) = 2.70480 3.95435 3.38769
# Velocity P-wave (km/s) = 3.93197 6.29582 5.24870
#
# Compressibility (1/GPa) = 0.07445558
#
# Stress axis : x y z
#
# Youngs Moduli (GPa) = 39.38449 16.15057 107.70033
#
# Poissons Ratio (x) = 0.23239 0.37717
# Poissons Ratio (y) = 0.56670 -0.73475
# Poissons Ratio (z) = 0.13793 -0.11018
#
# Static dielectric constant tensor:
#      x y z
#    x 1.901250 -0.006450 0.008020 
#    y -0.006450 1.932440 0.056130 
#    z 0.008020 0.056130 1.977060 
# 
# From -- ./inp_files/415028.got.cif
#   From: 2010.05.17/outbox.cif.g08.bks.cpg/sg2_208_cif.got.tgz:415028.got - 2010.06.03 11:33:40.
