data_PCOD9103840
_publ_section_title
;
Structure prediction by ZEFSAII (Michael W. Deem and Ramdas Pophale) SiO2 
 PCOD9103840
Probable space group: P -1
;
_chemical_formula_sum "Si O2"
_cell_formula_units_Z 13
_cell_length_a 11.435540
_cell_length_b 9.253338
_cell_length_c 11.822240
_cell_angle_alpha 55.376688
_cell_angle_beta 122.282821
_cell_angle_gamma 78.655426
_cell_volume 604.928545
_symmetry_space_group_name_H-M "P -1"
_symmetry_group_IT_number 2
_symmetry_cell_setting 'triclinic'
loop_
_space_group_symop_operation_xyz
x,y,z
-x,-y,-z
loop_
_atom_site_type_symbol
_atom_site_label
_atom_site_fract_x
_atom_site_fract_y
_atom_site_fract_z
Si Si1 0.326168 0.744380 0.682737
Si Si2 0.500000 0.500000 0.500000
Si Si3 0.030884 0.775016 0.854466
Si Si4 0.145200 0.292816 0.762270
Si Si5 0.360830 0.764430 0.071831
Si Si6 0.077075 0.728530 0.151078
Si Si7 0.711231 0.543986 0.068932
O O1 0.462633 0.485668 0.796216
O O2 0.481694 0.731849 0.829851
O O3 0.227135 0.705332 0.740309
O O4 0.175605 0.981517 0.417866
O O5 0.420811 0.682241 0.268820
O O6 0.314063 0.527498 0.372860
O O7 0.165612 0.826984 0.915776
O O8 0.012618 0.721290 0.996424
O O9 0.155843 0.543733 0.934396
O O10 0.000000 0.500000 0.500000
O O11 0.018785 0.294582 0.787240
O O12 0.247598 0.352444 0.860400
O O13 0.304463 0.016233 0.911499
O O14 0.000000 0.000000 0.000000
#
# Coordination Sequence:
#
# PCOD9103840 Si02
#       7
#     2   1   2   2   2   2   2
#     4  10  21  42  68  91 134 183 226 270 324 414
#     4  10  20  38  68  98 122 178 226 270 320 402
#     4  10  20  42  69  93 125 182 228 269 331 398
#     4  12  26  44  65 105 145 171 217 288 343 390
#     4  10  22  38  68  99 127 173 229 271 330 393
#     4  11  22  43  69  98 132 179 228 273 332 404
#     4  10  24  40  62 100 137 174 225 270 343 401
#
# _framework density 21.490141000000001
#
# number of rings (size 3 to 8) (size 9 to 14) (size 15 to 20)
#    0.000    1.538    3.077    2.308    2.154    3.692 
#    2.769    0.769    0.000    0.000    0.000    0.000 
#    0.000    0.000    0.000    0.000    0.000    0.000 
#
# Total GULP energy -72389.195277 kJ/mol
# GULP energy per Si atom -5568.399637 kJ/mol
# Density = 2.144123 g / cm^3
# Si number density = 21.490141 Si / 1000 Ang^3
#
#
#
# Elastic Constant Matrix: (Units=GPa)
#
#
# Indices 1 2 3 4 5 6 
#
# 1 82.8419 12.5003 29.9302 9.1074 -14.2845 1.9277
# 2 12.5003 95.4111 45.5922 16.0491 3.4800 15.9876
# 3 29.9302 45.5922 128.6072 44.7859 -0.7914 16.3732
# 4 9.1074 16.0491 44.7859 27.8730 0.0746 2.9185
# 5 -14.2845 3.4800 -0.7914 0.0746 24.9876 6.7834
# 6 1.9277 15.9876 16.3732 2.9185 6.7834 30.4687
#
#
#
# Elastic Compliance Matrix: (Units=1/GPa)
#
#
# Indices 1 2 3 4 5 6 
#
# 1 0.014805 -0.000668 -0.003468 0.001176 0.008650 -0.000761
# 2 -0.000668 0.013289 -0.003518 -0.001288 -0.001070 -0.004679
# 3 -0.003468 -0.003518 0.021215 -0.030233 0.001083 -0.006680
# 4 0.001176 -0.001288 -0.030233 0.083828 -0.002927 0.009470
# 5 0.008650 -0.001070 0.001083 -0.002927 0.048144 -0.011006
# 6 -0.000761 -0.004679 -0.006680 0.009470 -0.011006 0.040457
#
#
# Mechanical properties :
#
#
# Convention : Reuss Voigt Hill
#
# Bulk Modulus (GPa) = 29.41120 53.65617 41.53368
# Shear Modulus (GPa) = 20.13030 31.25502 25.69266
#
# Velocity S-wave (km/s) = 3.06391 3.81778 3.46143
# Velocity P-wave (km/s) = 5.12175 6.66753 5.94510
#
# Compressibility (1/GPa) = 0.03400065
#
# Stress axis : x y z
#
# Youngs Moduli (GPa) = 67.54529 75.24852 47.13573
#
# Poissons Ratio (x) = 0.05029 0.16347
# Poissons Ratio (y) = 0.04514 0.16582
# Poissons Ratio (z) = 0.23426 0.26472
#
# Static dielectric constant tensor:
#      x y z
#    x 1.919890 -0.034580 0.017670 
#    y -0.034580 1.816190 -0.011520 
#    z 0.017670 -0.011520 1.738620 
# 
# From -- ./inp_files/416360.got.cif
#   From: 2010.05.17/outbox.cif.g08.bks.cpg/sg2_209_cif.got.tgz:416360.got - 2010.06.03 11:33:40.
