data_PCOD9103898
_publ_section_title
;
Structure prediction by ZEFSAII (Michael W. Deem and Ramdas Pophale) SiO2 
 PCOD9103898
Probable space group: P -1
;
_chemical_formula_sum "Si O2"
_cell_formula_units_Z 15
_cell_length_a 7.955416
_cell_length_b 19.111292
_cell_length_c 5.213283
_cell_angle_alpha 80.344314
_cell_angle_beta 116.507729
_cell_angle_gamma 64.879964
_cell_volume 576.433343
_symmetry_space_group_name_H-M "P -1"
_symmetry_group_IT_number 2
_symmetry_cell_setting 'triclinic'
loop_
_space_group_symop_operation_xyz
x,y,z
-x,-y,-z
loop_
_atom_site_type_symbol
_atom_site_label
_atom_site_fract_x
_atom_site_fract_y
_atom_site_fract_z
Si Si1 0.314649 0.232812 0.567973
Si Si2 0.766916 0.321209 0.802772
Si Si3 0.337998 0.770253 0.854357
Si Si4 0.851874 0.049242 0.618338
Si Si5 0.203993 0.177049 0.004261
Si Si6 0.438194 0.402213 0.147037
Si Si7 0.147905 0.590703 0.812657
Si Si8 0.500000 0.000000 0.500000
O O1 0.280983 0.215055 0.263582
O O2 0.109070 0.328942 0.456339
O O3 0.552451 0.215004 0.830915
O O4 0.301200 0.168584 0.791640
O O5 0.505786 0.375699 0.505380
O O6 0.819442 0.256730 0.112757
O O7 0.816430 0.390228 0.881579
O O8 0.937053 0.253046 0.753850
O O9 0.227288 0.852693 0.547533
O O10 0.531738 0.680923 0.905667
O O11 0.629366 0.046602 0.477404
O O12 0.000000 0.000000 0.500000
O O13 0.000000 0.000000 0.000000
O O14 0.258131 0.087339 0.192585
O O15 0.650176 0.408187 0.195628
O O16 0.211957 0.494964 0.889374
#
# Coordination Sequence:
#
# PCOD9103898 Si02
#       8
#     2   2   2   2   2   2   2   1
#     4  11  24  45  67  99 141 180 226 292 352 430
#     4  10  21  40  69  98 138 187 233 298 359 434
#     4  11  26  43  66 102 142 182 232 301 366 433
#     4  12  31  51  78 115 154 196 258 315 377 459
#     4  11  25  44  71  99 136 183 240 289 362 432
#     4  10  20  38  69  95 138 182 236 293 355 425
#     4   9  20  39  64 102 131 183 243 285 350 437
#     4  12  28  50  82 110 150 202 250 318 384 446
#
# _framework density 26.022088
#
# number of rings (size 3 to 8) (size 9 to 14) (size 15 to 20)
#    0.000    1.333    2.667    1.200    7.467    2.667 
#    0.000    0.667    0.000    0.000    0.000    0.000 
#    0.000    0.000    0.000    0.000    0.000    0.000 
#
# Total GULP energy -83567.671559 kJ/mol
# GULP energy per Si atom -5571.178104 kJ/mol
# Density = 2.596286 g / cm^3
# Si number density = 26.022088 Si / 1000 Ang^3
#
#
#
# Elastic Constant Matrix: (Units=GPa)
#
#
# Indices 1 2 3 4 5 6 
#
# 1 64.7821 33.6167 11.9486 -0.1102 -6.6289 2.5547
# 2 33.6167 112.1968 27.3890 -38.0112 -7.7591 13.4363
# 3 11.9486 27.3890 128.4886 -6.6403 -2.6120 2.5879
# 4 -0.1102 -38.0112 -6.6403 52.0832 0.4583 2.1213
# 5 -6.6289 -7.7591 -2.6120 0.4583 29.0135 -4.8957
# 6 2.5547 13.4363 2.5879 2.1213 -4.8957 27.1925
#
#
#
# Elastic Compliance Matrix: (Units=1/GPa)
#
#
# Indices 1 2 3 4 5 6 
#
# 1 0.019878 -0.008077 -0.000444 -0.006064 0.002973 0.003174
# 2 -0.008077 0.017163 -0.002070 0.012576 0.000953 -0.008334
# 3 -0.000444 -0.002070 0.008237 -0.000477 0.000152 0.000345
# 4 -0.006064 0.012576 -0.000477 0.028621 0.000166 -0.007802
# 5 0.002973 0.000953 0.000152 0.000166 0.036386 0.005773
# 6 0.003174 -0.008334 0.000345 -0.007802 0.005773 0.042210
#
#
# Mechanical properties :
#
#
# Convention : Reuss Voigt Hill
#
# Bulk Modulus (GPa) = 41.50008 50.15288 45.82648
# Shear Modulus (GPa) = 27.51674 37.15873 32.33774
#
# Velocity S-wave (km/s) = 3.25535 3.78295 3.52902
# Velocity P-wave (km/s) = 5.48748 6.19645 5.85271
#
# Compressibility (1/GPa) = 0.02409634
#
# Stress axis : x y z
#
# Youngs Moduli (GPa) = 50.30663 58.26578 121.40579
#
# Poissons Ratio (x) = 0.47059 0.05388
# Poissons Ratio (y) = 0.40631 0.25134
# Poissons Ratio (z) = 0.02233 0.12062
#
# Static dielectric constant tensor:
#      x y z
#    x 2.167380 -0.054500 -0.014260 
#    y -0.054500 1.979920 0.019190 
#    z -0.014260 0.019190 2.103070 
# 
# From -- ./inp_files/50357.got.cif
#   From: 2010.05.17/outbox.cif.g08.bks.cpg/sg2_26_cif.got.tgz:50357.got - 2010.06.03 11:33:40.
