data_PCOD9103131
_publ_section_title
;
Structure prediction by ZEFSAII (Michael W. Deem and Ramdas Pophale) SiO2 
 PCOD9103131
Probable space group: P -1
;
_chemical_formula_sum "Si O2"
_cell_formula_units_Z 16
_cell_length_a 21.640098
_cell_length_b 16.769031
_cell_length_c 13.398809
_cell_angle_alpha 32.786563
_cell_angle_beta 156.821194
_cell_angle_gamma 157.737192
_cell_volume 723.391732
_symmetry_space_group_name_H-M "P -1"
_symmetry_group_IT_number 2
_symmetry_cell_setting 'triclinic'
loop_
_space_group_symop_operation_xyz
x,y,z
-x,-y,-z
loop_
_atom_site_type_symbol
_atom_site_label
_atom_site_fract_x
_atom_site_fract_y
_atom_site_fract_z
Si Si1 0.431421 0.019338 0.108642
Si Si2 0.895786 0.272339 0.594967
Si Si3 0.269260 0.294625 0.052543
Si Si4 0.140525 0.086287 0.272164
Si Si5 0.070152 0.806696 0.053815
Si Si6 0.899930 0.408811 0.835475
Si Si7 0.324033 0.218197 0.875097
Si Si8 0.062909 0.823263 0.606461
O O1 0.684417 0.138522 0.349095
O O2 0.332638 0.829573 0.236896
O O3 0.406550 0.168586 0.959456
O O4 0.274615 0.917158 0.887350
O O5 0.000000 0.500000 0.500000
O O6 0.840402 0.209310 0.695728
O O7 0.082408 0.283360 0.826222
O O8 0.479560 0.529867 0.078782
O O9 0.307131 0.218369 0.287021
O O10 0.119165 0.100697 0.957165
O O11 0.155859 0.959475 0.501330
O O12 0.140133 0.233507 0.182765
O O13 0.994016 0.638601 0.033592
O O14 0.253642 0.044554 0.032158
O O15 0.910791 0.575829 0.625618
O O16 0.000000 0.500000 0.000000
O O17 0.096330 0.164048 0.586201
#
# Coordination Sequence:
#
# PCOD9103131 Si02
#       8
#     2   2   2   2   2   2   2   2
#     4  10  21  39  60  91 125 161 203 252 307 365
#     4  11  22  38  62  89 128 165 201 252 306 367
#     4  10  21  39  62  89 124 164 208 254 311 357
#     4   9  21  39  61  90 127 162 207 257 302 374
#     4   9  21  38  63  93 121 159 209 256 305 364
#     4   9  20  37  62  94 124 157 202 259 307 364
#     4  10  20  38  65  89 118 159 205 260 309 361
#     4  10  21  37  63  88 122 161 207 253 308 366
#
# _framework density 22.118030999999998
#
# number of rings (size 3 to 8) (size 9 to 14) (size 15 to 20)
#    0.000    2.250    1.250    0.375    1.750    9.000 
#    0.000    1.250    8.250    0.000    0.000    0.000 
#    0.000    0.000    0.000    0.000    0.000    0.000 
#
# Total GULP energy -89141.615062 kJ/mol
# GULP energy per Si atom -5571.350941 kJ/mol
# Density = 2.206769 g / cm^3
# Si number density = 22.118031 Si / 1000 Ang^3
#
#
#
# Elastic Constant Matrix: (Units=GPa)
#
#
# Indices 1 2 3 4 5 6 
#
# 1 82.6509 18.5240 24.1990 -16.3594 -4.5520 -13.2653
# 2 18.5240 108.0426 38.1674 -30.9614 -5.6884 -1.4945
# 3 24.1990 38.1674 74.1756 -13.8962 -13.9104 15.5933
# 4 -16.3594 -30.9614 -13.8962 37.3773 2.7790 -0.4560
# 5 -4.5520 -5.6884 -13.9104 2.7790 20.3946 -12.7707
# 6 -13.2653 -1.4945 15.5933 -0.4560 -12.7707 31.1712
#
#
#
# Elastic Compliance Matrix: (Units=1/GPa)
#
#
# Indices 1 2 3 4 5 6 
#
# 1 0.017798 0.001911 -0.007202 0.006288 0.007869 0.014584
# 2 0.001911 0.014534 -0.007084 0.010164 0.002046 0.006041
# 3 -0.007202 -0.007084 0.022790 -0.000991 0.003788 -0.013268
# 4 0.006288 0.010164 -0.000991 0.037507 0.001461 0.004806
# 5 0.007869 0.002046 0.003788 0.001461 0.073615 0.031733
# 6 0.014584 0.006041 -0.013268 0.004806 0.031733 0.058285
#
#
# Mechanical properties :
#
#
# Convention : Reuss Voigt Hill
#
# Bulk Modulus (GPa) = 32.92510 47.40553 40.16531
# Shear Modulus (GPa) = 19.27487 30.05387 24.66437
#
# Velocity S-wave (km/s) = 2.95524 3.69018 3.34297
# Velocity P-wave (km/s) = 5.15393 6.29572 5.75322
#
# Compressibility (1/GPa) = 0.03037197
#
# Stress axis : x y z
#
# Youngs Moduli (GPa) = 56.18525 68.80209 43.87852
#
# Poissons Ratio (x) = -0.13145 0.31601
# Poissons Ratio (y) = -0.10735 0.31084
# Poissons Ratio (z) = 0.40464 0.48741
#
# Static dielectric constant tensor:
#      x y z
#    x 1.928170 -0.044060 0.054100 
#    y -0.044060 1.903050 -0.089860 
#    z 0.054100 -0.089860 1.884160 
# 
# From -- ./inp_files/543160.got.cif
#   From: 2010.05.17/outbox.cif.g08.bks.cpg/sg2_272_cif.got.tgz:543160.got - 2010.06.03 11:33:40.
