data_PCOD9103509
_publ_section_title
;
Structure prediction by ZEFSAII (Michael W. Deem and Ramdas Pophale) SiO2 
 PCOD9103509
Probable space group: P -1
;
_chemical_formula_sum "Si O2"
_cell_formula_units_Z 14
_cell_length_a 9.087147
_cell_length_b 17.475079
_cell_length_c 6.917059
_cell_angle_alpha 111.761517
_cell_angle_beta 70.747598
_cell_angle_gamma 55.803507
_cell_volume 602.164231
_symmetry_space_group_name_H-M "P -1"
_symmetry_group_IT_number 2
_symmetry_cell_setting 'triclinic'
loop_
_space_group_symop_operation_xyz
x,y,z
-x,-y,-z
loop_
_atom_site_type_symbol
_atom_site_label
_atom_site_fract_x
_atom_site_fract_y
_atom_site_fract_z
Si Si1 0.104954 0.530302 0.196175
Si Si2 0.866778 0.662149 0.024425
Si Si3 0.494061 0.998630 0.264121
Si Si4 0.018940 0.090670 0.606300
Si Si5 0.342944 0.907475 0.615062
Si Si6 0.668667 0.272868 0.595026
Si Si7 0.019655 0.710730 0.699965
O O1 0.059417 0.455192 0.211637
O O2 0.085427 0.607608 0.436951
O O3 0.917920 0.629254 0.196970
O O4 0.378688 0.412769 0.871629
O O5 0.022257 0.673215 0.880831
O O6 0.570134 0.799749 0.260003
O O7 0.241731 0.053569 0.381502
O O8 0.537758 0.077504 0.272650
O O9 0.267431 0.144311 0.060867
O O10 0.500000 0.000000 0.500000
O O11 0.779896 0.223389 0.720105
O O12 0.105503 0.051609 0.756791
O O13 0.000000 0.000000 0.500000
O O14 0.285356 0.836604 0.621953
O O15 0.804938 0.286506 0.427026
#
# Coordination Sequence:
#
# PCOD9103509 Si02
#       7
#     2   2   2   2   2   2   2
#     4  10  24  43  66  94 131 176 216 270 328 388
#     4  10  21  44  67  90 132 170 221 272 320 388
#     4  10  20  38  66  95 126 174 213 265 322 385
#     4   9  18  37  63  91 127 168 207 265 330 373
#     4   9  19  41  64  89 134 175 206 269 332 375
#     4  10  23  39  61  99 135 166 217 275 323 386
#     4  12  23  39  69  99 126 174 226 265 325 394
#
# _framework density 23.249472999999998
#
# number of rings (size 3 to 8) (size 9 to 14) (size 15 to 20)
#    0.000    2.000    2.857    0.857    2.000    1.714 
#    0.000    2.857    9.429    0.000    0.000    0.000 
#    0.000    0.000    0.000    0.000    0.000    0.000 
#
# Total GULP energy -78045.893625 kJ/mol
# GULP energy per Si atom -5574.706687 kJ/mol
# Density = 2.319656 g / cm^3
# Si number density = 23.249473 Si / 1000 Ang^3
#
#
#
# Elastic Constant Matrix: (Units=GPa)
#
#
# Indices 1 2 3 4 5 6 
#
# 1 110.4170 39.6891 11.0362 -1.0584 -18.7242 29.6152
# 2 39.6891 86.6800 31.4663 1.2449 -5.9913 26.9592
# 3 11.0362 31.4663 54.5845 2.8719 -5.2052 7.4383
# 4 -1.0584 1.2449 2.8719 30.8987 3.5318 -7.2723
# 5 -18.7242 -5.9913 -5.2052 3.5318 27.8292 5.1791
# 6 29.6152 26.9592 7.4383 -7.2723 5.1791 47.6770
#
#
#
# Elastic Compliance Matrix: (Units=1/GPa)
#
#
# Indices 1 2 3 4 5 6 
#
# 1 0.014451 -0.003632 0.001599 -0.002872 0.011249 -0.008832
# 2 -0.003632 0.018907 -0.008877 -0.002020 0.001625 -0.007535
# 3 0.001599 -0.008877 0.023680 -0.002351 0.003978 -0.000459
# 4 -0.002872 -0.002020 -0.002351 0.035914 -0.009183 0.009769
# 5 0.011249 0.001625 0.003978 -0.009183 0.048591 -0.015206
# 6 -0.008832 -0.007535 -0.000459 0.009769 -0.015206 0.033935
#
#
# Mechanical properties :
#
#
# Convention : Reuss Voigt Hill
#
# Bulk Modulus (GPa) = 28.39388 46.22943 37.31165
# Shear Modulus (GPa) = 23.91928 32.58031 28.24980
#
# Velocity S-wave (km/s) = 3.21099 3.74750 3.48957
# Velocity P-wave (km/s) = 5.09769 6.21710 5.68501
#
# Compressibility (1/GPa) = 0.03521886
#
# Stress axis : x y z
#
# Youngs Moduli (GPa) = 69.19914 52.89081 42.23022
#
# Poissons Ratio (x) = 0.19207 -0.06753
# Poissons Ratio (y) = 0.25130 0.37487
# Poissons Ratio (z) = -0.11065 0.46951
#
# Static dielectric constant tensor:
#      x y z
#    x 1.937170 0.019940 0.013770 
#    y 0.019940 1.950400 -0.021020 
#    z 0.013770 -0.021020 1.840750 
# 
# From -- ./inp_files/198106.got.cif
#   From: 2010.05.17/outbox.cif.g08.bks.cpg/sg2_100_cif.got.tgz:198106.got - 2010.06.03 11:33:40.
