data_PCOD9103094
_publ_section_title
;
Structure prediction by ZEFSAII (Michael W. Deem and Ramdas Pophale) SiO2 
 PCOD9103094
Probable space group: P -1
;
_chemical_formula_sum "Si O2"
_cell_formula_units_Z 16
_cell_length_a 9.585498
_cell_length_b 9.100212
_cell_length_c 10.797814
_cell_angle_alpha 54.634345
_cell_angle_beta 66.408307
_cell_angle_gamma 60.899422
_cell_volume 661.750904
_symmetry_space_group_name_H-M "P -1"
_symmetry_group_IT_number 2
_symmetry_cell_setting 'triclinic'
loop_
_space_group_symop_operation_xyz
x,y,z
-x,-y,-z
loop_
_atom_site_type_symbol
_atom_site_label
_atom_site_fract_x
_atom_site_fract_y
_atom_site_fract_z
Si Si1 0.039029 0.327420 0.973528
Si Si2 0.616974 0.185932 0.379176
Si Si3 0.938235 0.612401 0.652417
Si Si4 0.397896 0.115187 0.278925
Si Si5 0.882313 0.017945 0.189865
Si Si6 0.161153 0.665472 0.347283
Si Si7 0.476293 0.419729 0.679946
Si Si8 0.339013 0.078200 0.891832
O O1 0.210248 0.153199 0.013273
O O2 0.031370 0.437070 0.793516
O O3 0.000000 0.500000 0.000000
O O4 0.908499 0.219593 0.066503
O O5 0.489006 0.204093 0.304889
O O6 0.783334 0.035833 0.343352
O O7 0.626806 0.393086 0.298702
O O8 0.574449 0.091443 0.564115
O O9 0.792506 0.763943 0.706815
O O10 0.852687 0.525672 0.618057
O O11 0.073478 0.680066 0.504711
O O12 0.490892 0.088401 0.126669
O O13 0.775517 0.966349 0.148867
O O14 0.050350 0.846943 0.222204
O O15 0.343494 0.660438 0.288572
O O16 0.500000 0.500000 0.500000
O O17 0.394827 0.261790 0.773553
#
# Coordination Sequence:
#
# PCOD9103094 Si02
#       8
#     2   2   2   2   2   2   2   2
#     4  12  27  49  74 100 145 190 235 287 353 431
#     4  10  20  38  65 102 144 180 224 287 362 410
#     4  11  23  43  72 108 139 182 244 293 348 415
#     4  10  20  38  67 102 138 178 233 293 349 411
#     4  11  24  47  75 102 138 192 236 281 355 432
#     4  11  24  41  75 110 140 178 241 302 342 415
#     4  12  23  38  63 108 148 178 223 295 360 403
#     4  11  24  43  70  99 140 190 229 287 350 421
#
# _framework density 24.178283
#
# number of rings (size 3 to 8) (size 9 to 14) (size 15 to 20)
#    0.000    1.000    5.000    1.875    1.750    1.000 
#    0.000    8.125    0.000    0.000    0.000    0.000 
#    0.000    0.000    0.000    0.000    0.000    0.000 
#
# Total GULP energy -89364.200373 kJ/mol
# GULP energy per Si atom -5585.262523 kJ/mol
# Density = 2.412325 g / cm^3
# Si number density = 24.178283 Si / 1000 Ang^3
#
#
#
# Elastic Constant Matrix: (Units=GPa)
#
#
# Indices 1 2 3 4 5 6 
#
# 1 115.5137 42.7703 18.9245 -7.1238 -12.2456 6.8098
# 2 42.7703 155.6760 5.4287 21.0684 -9.2717 0.5256
# 3 18.9245 5.4287 31.0911 5.8068 -11.2967 9.8530
# 4 -7.1238 21.0684 5.8068 36.0158 -2.1960 -18.0743
# 5 -12.2456 -9.2717 -11.2967 -2.1960 31.5853 -12.6435
# 6 6.8098 0.5256 9.8530 -18.0743 -12.6435 46.3682
#
#
#
# Elastic Compliance Matrix: (Units=1/GPa)
#
#
# Indices 1 2 3 4 5 6 
#
# 1 0.012091 -0.004003 -0.008525 0.008297 0.002658 0.004040
# 2 -0.004003 0.008510 0.003617 -0.007980 0.000369 -0.003287
# 3 -0.008525 0.003617 0.047234 -0.017736 0.007989 -0.013561
# 4 0.008297 -0.007980 -0.017736 0.049424 0.007561 0.023968
# 5 0.002658 0.000369 0.007989 0.007561 0.041000 0.012035
# 6 0.004040 -0.003287 -0.013561 0.023968 0.012035 0.036516
#
#
# Mechanical properties :
#
#
# Convention : Reuss Voigt Hill
#
# Bulk Modulus (GPa) = 19.99475 48.50309 34.24892
# Shear Modulus (GPa) = 21.80861 38.47099 30.13980
#
# Velocity S-wave (km/s) = 3.00658 3.99323 3.53450
# Velocity P-wave (km/s) = 4.51003 6.43159 5.55454
#
# Compressibility (1/GPa) = 0.05001312
#
# Stress axis : x y z
#
# Youngs Moduli (GPa) = 82.70652 117.50457 21.17141
#
# Poissons Ratio (x) = 0.47035 0.18048
# Poissons Ratio (y) = 0.33106 -0.07657
# Poissons Ratio (z) = 0.70506 -0.42499
#
# Static dielectric constant tensor:
#      x y z
#    x 1.959040 -0.011930 0.077750 
#    y -0.011930 1.953710 0.082890 
#    z 0.077750 0.082890 2.072470 
# 
# From -- ./inp_files/381313.got.cif
#   From: 2010.05.17/outbox.cif.g08.bks.cpg/sg2_191_cif.got.tgz:381313.got - 2010.06.03 11:33:40.
