data_PCOD9103254
_publ_section_title
;
Structure prediction by ZEFSAII (Michael W. Deem and Ramdas Pophale) SiO2 
 PCOD9103254
Probable space group: P -1
;
_chemical_formula_sum "Si O2"
_cell_formula_units_Z 14
_cell_length_a 11.089149
_cell_length_b 13.979312
_cell_length_c 17.554257
_cell_angle_alpha 158.757430
_cell_angle_beta 36.856099
_cell_angle_gamma 138.286536
_cell_volume 591.377606
_symmetry_space_group_name_H-M "P -1"
_symmetry_group_IT_number 2
_symmetry_cell_setting 'triclinic'
loop_
_space_group_symop_operation_xyz
x,y,z
-x,-y,-z
loop_
_atom_site_type_symbol
_atom_site_label
_atom_site_fract_x
_atom_site_fract_y
_atom_site_fract_z
Si Si1 0.696942 0.000031 0.317502
Si Si2 0.671901 0.508820 0.523432
Si Si3 0.991966 0.262616 0.768427
Si Si4 0.253339 0.876006 0.447879
Si Si5 0.276187 0.210726 0.456324
Si Si6 0.100866 0.295827 0.132549
Si Si7 0.766589 0.586269 0.692208
O O1 0.489928 0.850897 0.295951
O O2 0.766938 0.971951 0.348067
O O3 0.653298 0.310486 0.560422
O O4 0.856811 0.901685 0.103438
O O5 0.474990 0.325866 0.481969
O O6 0.697941 0.686619 0.566962
O O7 0.684868 0.680912 0.722518
O O8 0.866463 0.321446 0.288169
O O9 0.090139 0.334134 0.690493
O O10 0.142733 0.044297 0.565473
O O11 0.781137 0.101869 0.748634
O O12 0.000000 0.500000 0.000000
O O13 0.161432 0.588652 0.291834
O O14 0.229611 0.249712 0.110318
O O15 0.000000 0.500000 0.500000
#
# Coordination Sequence:
#
# PCOD9103254 Si02
#       7
#     2   2   2   2   2   2   2
#     4  10  21  36  63  96 124 169 205 260 336 382
#     4  10  20  41  66  91 136 169 206 273 319 380
#     4  11  24  43  67  93 126 175 224 264 321 378
#     4  10  21  39  59  92 132 159 213 275 312 384
#     4  10  23  43  64  93 129 172 218 266 320 370
#     4  10  20  38  65  94 126 169 209 258 332 389
#     4   9  20  37  56  91 128 160 205 262 313 377
#
# _framework density 23.673538000000001
#
# number of rings (size 3 to 8) (size 9 to 14) (size 15 to 20)
#    0.000    2.000    1.429    1.286    2.000    2.286 
#    0.000   18.571    0.000    0.000    0.000    0.000 
#    0.000    0.000    0.000    0.000    0.000    0.000 
#
# Total GULP energy -78249.133250 kJ/mol
# GULP energy per Si atom -5589.223804 kJ/mol
# Density = 2.361966 g / cm^3
# Si number density = 23.673538 Si / 1000 Ang^3
#
#
#
# Elastic Constant Matrix: (Units=GPa)
#
#
# Indices 1 2 3 4 5 6 
#
# 1 101.8114 26.4025 -1.3196 0.2628 13.4943 -14.4008
# 2 26.4025 127.7636 12.0393 16.9361 5.4632 19.4707
# 3 -1.3196 12.0393 64.0894 4.5387 15.7008 2.5742
# 4 0.2628 16.9361 4.5387 31.7459 -1.9585 17.0007
# 5 13.4943 5.4632 15.7008 -1.9585 11.6675 -2.9385
# 6 -14.4008 19.4707 2.5742 17.0007 -2.9385 38.2482
#
#
#
# Elastic Compliance Matrix: (Units=1/GPa)
#
#
# Indices 1 2 3 4 5 6 
#
# 1 0.014897 -0.003145 0.006812 -0.004629 -0.023945 0.006969
# 2 -0.003145 0.009714 -0.001331 -0.002294 -0.000785 -0.005080
# 3 0.006812 -0.001331 0.027471 -0.006493 -0.045108 0.000814
# 4 -0.004629 -0.002294 -0.006493 0.044797 0.017983 -0.018668
# 5 -0.023945 -0.000785 -0.045108 0.017983 0.177506 0.000064
# 6 0.006969 -0.005080 0.000814 -0.018668 0.000064 0.039603
#
#
# Mechanical properties :
#
#
# Convention : Reuss Voigt Hill
#
# Bulk Modulus (GPa) = 17.61977 40.87876 29.24927
# Shear Modulus (GPa) = 15.23294 33.43512 24.33403
#
# Velocity S-wave (km/s) = 2.53940 3.76219 3.20957
# Velocity P-wave (km/s) = 4.00712 6.01476 5.11050
#
# Compressibility (1/GPa) = 0.05675442
#
# Stress axis : x y z
#
# Youngs Moduli (GPa) = 67.12547 102.94260 36.40179
#
# Poissons Ratio (x) = 0.32376 -0.24796
# Poissons Ratio (y) = 0.21111 0.04844
# Poissons Ratio (z) = -0.45724 0.13700
#
# Static dielectric constant tensor:
#      x y z
#    x 1.924040 -0.022890 0.013150 
#    y -0.022890 1.947550 0.002870 
#    z 0.013150 0.002870 1.875370 
# 
# From -- ./inp_files/569847.got.cif
#   From: 2010.05.17/outbox.cif.g08.bks.cpg/sg2_285_cif.got.tgz:569847.got - 2010.06.03 11:33:40.
