data_PCOD9103557
_publ_section_title
;
Structure prediction by ZEFSAII (Michael W. Deem and Ramdas Pophale) SiO2 
 PCOD9103557
Probable space group: P -1
;
_chemical_formula_sum "Si O2"
_cell_formula_units_Z 14
_cell_length_a 9.484904
_cell_length_b 11.350596
_cell_length_c 8.182388
_cell_angle_alpha 100.572083
_cell_angle_beta 61.084481
_cell_angle_gamma 56.111076
_cell_volume 500.428919
_symmetry_space_group_name_H-M "P -1"
_symmetry_group_IT_number 2
_symmetry_cell_setting 'triclinic'
loop_
_space_group_symop_operation_xyz
x,y,z
-x,-y,-z
loop_
_atom_site_type_symbol
_atom_site_label
_atom_site_fract_x
_atom_site_fract_y
_atom_site_fract_z
Si Si1 0.638375 0.549393 0.196433
Si Si2 0.169558 0.822913 0.718896
Si Si3 0.469737 0.639748 0.839166
Si Si4 0.070159 0.554031 0.658921
Si Si5 0.181174 0.076222 0.819513
Si Si6 0.259412 0.187057 0.504693
Si Si7 0.474534 0.177679 0.906927
O O1 0.361208 0.678225 0.442243
O O2 0.655402 0.416182 0.048773
O O3 0.807508 0.472550 0.242246
O O4 0.626561 0.682374 0.147589
O O5 0.338206 0.732634 0.763117
O O6 0.102056 0.996233 0.759422
O O7 0.947519 0.867038 0.917200
O O8 0.756966 0.487468 0.589508
O O9 0.424822 0.778484 0.015382
O O10 0.111951 0.386322 0.584177
O O11 0.778463 0.737843 0.863213
O O12 0.147438 0.202679 0.742855
O O13 0.469900 0.913788 0.639214
O O14 0.330154 0.030373 0.315599
#
# Coordination Sequence:
#
# PCOD9103557 Si02
#       7
#     2   2   2   2   2   2   2
#     4  11  22  43  67  96 131 176 231 275 314 400
#     4  10  20  40  65  94 130 171 228 266 330 381
#     4  11  25  43  62 101 142 171 222 272 336 406
#     4  11  24  46  69 100 128 180 231 270 325 394
#     4  10  20  38  66  99 126 169 223 285 310 387
#     4  11  22  42  69  98 135 162 230 274 324 397
#     4  12  26  43  68  99 140 180 208 278 348 384
#
# _framework density 27.976001
#
# number of rings (size 3 to 8) (size 9 to 14) (size 15 to 20)
#    0.000    1.143    4.286    3.857    6.000    0.571 
#    0.000    2.143    0.000    0.000    0.000    0.000 
#    0.000    0.000    0.000    0.000    0.000    0.000 
#
# Total GULP energy -78294.272059 kJ/mol
# GULP energy per Si atom -5592.448004 kJ/mol
# Density = 2.791233 g / cm^3
# Si number density = 27.976001 Si / 1000 Ang^3
#
#
#
# Elastic Constant Matrix: (Units=GPa)
#
#
# Indices 1 2 3 4 5 6 
#
# 1 141.9937 27.5548 42.1910 3.1998 -6.2572 37.6309
# 2 27.5548 77.7872 -14.9252 4.9618 6.4218 27.8491
# 3 42.1910 -14.9252 123.5396 11.2208 -19.9088 9.7517
# 4 3.1998 4.9618 11.2208 36.9962 10.7848 3.7161
# 5 -6.2572 6.4218 -19.9088 10.7848 49.1837 5.5004
# 6 37.6309 27.8491 9.7517 3.7161 5.5004 41.6584
#
#
#
# Elastic Compliance Matrix: (Units=1/GPa)
#
#
# Indices 1 2 3 4 5 6 
#
# 1 0.010331 -0.001586 -0.003008 0.000716 0.001015 -0.007765
# 2 -0.001586 0.018522 0.004108 -0.002685 0.000951 -0.011797
# 3 -0.003008 0.004108 0.011074 -0.004802 0.004935 -0.002844
# 4 0.000716 -0.002685 -0.004802 0.031174 -0.008405 0.000601
# 5 0.001015 0.000951 0.004935 -0.008405 0.024762 -0.005227
# 6 -0.007765 -0.011797 -0.002844 0.000601 -0.005227 0.040208
#
#
# Mechanical properties :
#
#
# Convention : Reuss Voigt Hill
#
# Bulk Modulus (GPa) = 25.67166 50.32908 38.00037
# Shear Modulus (GPa) = 33.32689 44.80098 39.06394
#
# Velocity S-wave (km/s) = 3.45522 4.00610 3.74081
# Velocity P-wave (km/s) = 5.01141 6.27914 5.68075
#
# Compressibility (1/GPa) = 0.03895347
#
# Stress axis : x y z
#
# Youngs Moduli (GPa) = 96.79833 53.99044 90.30096
#
# Poissons Ratio (x) = 0.08563 0.27164
# Poissons Ratio (y) = 0.15352 -0.37092
# Poissons Ratio (z) = 0.29119 -0.22177
#
# Static dielectric constant tensor:
#      x y z
#    x 2.170400 0.027950 0.076490 
#    y 0.027950 2.298810 0.066900 
#    z 0.076490 0.066900 2.272650 
# 
# From -- ./inp_files/189009.got.cif
#   From: 2010.05.17/outbox.cif.g08.bks.cpg/sg2_95_cif.got.tgz:189009.got - 2010.06.03 11:33:40.
