data_PCOD9103857
_publ_section_title
;
Structure prediction by ZEFSAII (Michael W. Deem and Ramdas Pophale) SiO2 
 PCOD9103857
Probable space group: P -1
;
_chemical_formula_sum "Si O2"
_cell_formula_units_Z 16
_cell_length_a 15.139766
_cell_length_b 27.126813
_cell_length_c 8.712268
_cell_angle_alpha 141.630206
_cell_angle_beta 49.175466
_cell_angle_gamma 161.516317
_cell_volume 626.502874
_symmetry_space_group_name_H-M "P -1"
_symmetry_group_IT_number 2
_symmetry_cell_setting 'triclinic'
loop_
_space_group_symop_operation_xyz
x,y,z
-x,-y,-z
loop_
_atom_site_type_symbol
_atom_site_label
_atom_site_fract_x
_atom_site_fract_y
_atom_site_fract_z
Si Si1 0.378579 0.154801 0.177520
Si Si2 0.136267 0.977317 0.364283
Si Si3 0.259826 0.193160 0.980336
Si Si4 0.867355 0.348668 0.161056
Si Si5 0.858328 0.172798 0.879194
Si Si6 0.853824 0.488697 0.077073
Si Si7 0.802178 0.560759 0.562648
Si Si8 0.513205 0.476561 0.158011
O O1 0.576261 0.200830 0.035606
O O2 0.618048 0.377640 0.421867
O O3 0.292836 0.089102 0.294418
O O4 0.056272 0.965290 0.990061
O O5 0.136388 0.056884 0.655247
O O6 0.311161 0.018884 0.367359
O O7 0.771989 0.726366 0.129289
O O8 0.493277 0.283360 0.026966
O O9 0.463366 0.390288 0.151533
O O10 0.000000 0.500000 0.500000
O O11 0.768977 0.202737 0.989992
O O12 0.115910 0.488894 0.085360
O O13 0.949046 0.248094 0.135229
O O14 0.159649 0.336558 0.835781
O O15 0.991093 0.646030 0.410391
O O16 0.000000 0.500000 0.000000
O O17 0.554510 0.474903 0.603130
#
# Coordination Sequence:
#
# PCOD9103857 Si02
#       8
#     2   2   2   2   2   2   2   2
#     4  11  21  38  61  97 133 166 214 270 324 379
#     4  10  21  35  67  98 134 163 220 276 327 377
#     4  11  22  40  66  96 133 171 219 272 331 383
#     4  12  23  41  70  97 130 174 222 270 321 389
#     4  11  20  40  68 102 127 175 222 273 317 388
#     4  12  25  45  67  98 129 177 219 268 329 402
#     4  11  22  39  67  98 135 173 222 266 326 392
#     4  10  20  38  69 100 130 170 225 275 316 386
#
# _framework density 25.538591
#
# number of rings (size 3 to 8) (size 9 to 14) (size 15 to 20)
#    0.000    1.000    3.750    6.000    0.000    1.500 
#    0.000    2.500    5.500    7.500    0.000    0.000 
#    0.000    0.000    0.000    0.000    0.000    0.000 
#
# Total GULP energy -89404.428139 kJ/mol
# GULP energy per Si atom -5587.776759 kJ/mol
# Density = 2.548046 g / cm^3
# Si number density = 25.538591 Si / 1000 Ang^3
#
#
#
# Elastic Constant Matrix: (Units=GPa)
#
#
# Indices 1 2 3 4 5 6 
#
# 1 165.3129 40.6043 36.0275 -1.6786 -42.9331 23.3164
# 2 40.6043 95.1890 19.3907 -18.1272 -10.5923 0.2716
# 3 36.0275 19.3907 51.4299 -25.4635 -25.2960 -6.2771
# 4 -1.6786 -18.1272 -25.4635 34.1290 3.5782 -1.7851
# 5 -42.9331 -10.5923 -25.2960 3.5782 43.8781 -3.4699
# 6 23.3164 0.2716 -6.2771 -1.7851 -3.4699 56.2681
#
#
#
# Elastic Compliance Matrix: (Units=1/GPa)
#
#
# Indices 1 2 3 4 5 6 
#
# 1 0.010916 -0.004004 -0.008828 -0.008979 0.004924 -0.005470
# 2 -0.004004 0.013413 0.002536 0.008909 0.000227 0.002174
# 3 -0.008828 0.002536 0.059505 0.043504 0.023770 0.013130
# 4 -0.008979 0.008909 0.043504 0.065177 0.014037 0.011464
# 5 0.004924 0.000227 0.023770 0.014037 0.040503 0.003553
# 6 -0.005470 0.002174 0.013130 0.011464 0.003553 0.022076
#
#
# Mechanical properties :
#
#
# Convention : Reuss Voigt Hill
#
# Bulk Modulus (GPa) = 15.81255 55.99743 35.90499
# Shear Modulus (GPa) = 19.74244 41.24898 30.49571
#
# Velocity S-wave (km/s) = 2.78338 4.02327 3.45933
# Velocity P-wave (km/s) = 4.06629 6.59973 5.48138
#
# Compressibility (1/GPa) = 0.06324091
#
# Stress axis : x y z
#
# Youngs Moduli (GPa) = 91.60985 74.55710 16.80538
#
# Poissons Ratio (x) = 0.29855 0.14836
# Poissons Ratio (y) = 0.36683 -0.04262
# Poissons Ratio (z) = 0.80874 -0.18910
#
# Static dielectric constant tensor:
#      x y z
#    x 2.114480 0.054150 0.053190 
#    y 0.054150 2.087720 0.078780 
#    z 0.053190 0.078780 2.136300 
# 
# From -- ./inp_files/320732.got.cif
#   From: 2010.05.17/outbox.cif.g08.bks.cpg/sg2_161_cif.got.tgz:320732.got - 2010.06.03 11:33:40.
