data_PCOD9103047
_publ_section_title
;
Structure prediction by ZEFSAII (Michael W. Deem and Ramdas Pophale) SiO2 
 PCOD9103047
Probable space group: P -1
;
_chemical_formula_sum "Si O2"
_cell_formula_units_Z 14
_cell_length_a 7.578237
_cell_length_b 17.859137
_cell_length_c 8.359767
_cell_angle_alpha 49.314407
_cell_angle_beta 64.871851
_cell_angle_gamma 39.318967
_cell_volume 536.100738
_symmetry_space_group_name_H-M "P -1"
_symmetry_group_IT_number 2
_symmetry_cell_setting 'triclinic'
loop_
_space_group_symop_operation_xyz
x,y,z
-x,-y,-z
loop_
_atom_site_type_symbol
_atom_site_label
_atom_site_fract_x
_atom_site_fract_y
_atom_site_fract_z
Si Si1 0.767805 0.130243 0.124837
Si Si2 0.288353 0.152655 0.289074
Si Si3 0.695442 0.841700 0.078582
Si Si4 0.264923 0.816355 0.290890
Si Si5 0.000751 0.414379 0.483930
Si Si6 0.738816 0.400318 0.332897
Si Si7 0.680515 0.602200 0.892895
O O1 0.470308 0.183102 0.144596
O O2 0.640462 0.247354 0.144635
O O3 0.845823 0.151684 0.895405
O O4 0.012038 0.958875 0.294307
O O5 0.060019 0.255578 0.367247
O O6 0.500000 0.000000 0.500000
O O7 0.197469 0.162329 0.130401
O O8 0.499343 0.815360 0.193810
O O9 0.942290 0.711026 0.277289
O O10 0.500000 0.000000 0.000000
O O11 0.376121 0.668064 0.505034
O O12 0.246272 0.366342 0.339988
O O13 0.000000 0.500000 0.500000
O O14 0.747901 0.474342 0.375021
O O15 0.649703 0.496691 0.080412
O O16 0.000000 0.500000 0.000000
#
# Coordination Sequence:
#
# PCOD9103047 Si02
#       7
#     2   2   2   2   2   2   2
#     4  10  20  38  64  97 130 165 230 266 316 388
#     4  11  19  37  70  93 127 173 229 259 316 406
#     4  11  26  43  65 101 136 173 212 279 350 384
#     4  10  24  40  67 100 133 171 227 273 322 400
#     4  11  24  42  65  96 138 169 220 279 338 382
#     4  11  22  41  72  98 121 184 234 264 316 400
#     4  10  21  39  68  97 128 180 227 263 320 408
#
# _framework density 26.114491999999998
#
# number of rings (size 3 to 8) (size 9 to 14) (size 15 to 20)
#    0.000    1.429    4.286    1.714   10.000    0.571 
#    0.000    3.571    0.000    0.000    0.000    0.000 
#    0.000    0.000    0.000    0.000    0.000    0.000 
#
# Total GULP energy -77983.038594 kJ/mol
# GULP energy per Si atom -5570.217042 kJ/mol
# Density = 2.605505 g / cm^3
# Si number density = 26.114492 Si / 1000 Ang^3
#
#
#
# Elastic Constant Matrix: (Units=GPa)
#
#
# Indices 1 2 3 4 5 6 
#
# 1 106.6782 25.2038 27.5888 8.9754 -21.9675 12.8922
# 2 25.2038 135.9829 16.1184 -4.2325 -14.6615 -0.3496
# 3 27.5888 16.1184 133.5339 -10.7794 -16.6760 25.2059
# 4 8.9754 -4.2325 -10.7794 31.1096 7.1433 -14.7172
# 5 -21.9675 -14.6615 -16.6760 7.1433 39.2549 -7.1241
# 6 12.8922 -0.3496 25.2059 -14.7172 -7.1241 26.3629
#
#
#
# Elastic Compliance Matrix: (Units=1/GPa)
#
#
# Indices 1 2 3 4 5 6 
#
# 1 0.013549 -0.002081 -0.000654 -0.010796 0.006629 -0.010263
# 2 -0.002081 0.008128 -0.000866 0.002931 0.001705 0.004051
# 3 -0.000654 -0.000866 0.009579 -0.001356 0.001980 -0.009072
# 4 -0.010796 0.002931 -0.001356 0.053323 -0.009068 0.033933
# 5 0.006629 0.001705 0.001980 -0.009068 0.032037 -0.001517
# 6 -0.010263 0.004051 -0.009072 0.033933 -0.001517 0.070212
#
#
# Mechanical properties :
#
#
# Convention : Reuss Voigt Hill
#
# Bulk Modulus (GPa) = 41.57786 57.11302 49.34544
# Shear Modulus (GPa) = 24.74664 39.83109 32.28887
#
# Velocity S-wave (km/s) = 3.08168 3.90968 3.52011
# Velocity P-wave (km/s) = 5.34961 6.50373 5.95470
#
# Compressibility (1/GPa) = 0.02405126
#
# Stress axis : x y z
#
# Youngs Moduli (GPa) = 73.80806 123.03534 104.39877
#
# Poissons Ratio (x) = 0.25608 0.06832
# Poissons Ratio (y) = 0.15362 0.09043
# Poissons Ratio (z) = 0.04830 0.10657
#
# Static dielectric constant tensor:
#      x y z
#    x 2.258720 -0.037740 0.066140 
#    y -0.037740 1.998180 0.040190 
#    z 0.066140 0.040190 2.085880 
# 
# From -- ./inp_files/214285.got.cif
#   From: 2010.05.17/outbox.cif.g08.bks.cpg/sg2_108_cif.got.tgz:214285.got - 2010.06.03 11:33:40.
