data_PCOD9103022
_publ_section_title
;
Structure prediction by ZEFSAII (Michael W. Deem and Ramdas Pophale) SiO2 
 PCOD9103022
Probable space group: P -1
;
_chemical_formula_sum "Si O2"
_cell_formula_units_Z 16
_cell_length_a 17.878558
_cell_length_b 9.221729
_cell_length_c 8.679148
_cell_angle_alpha 117.231902
_cell_angle_beta 36.828179
_cell_angle_gamma 108.435903
_cell_volume 759.294249
_symmetry_space_group_name_H-M "P -1"
_symmetry_group_IT_number 2
_symmetry_cell_setting 'triclinic'
loop_
_space_group_symop_operation_xyz
x,y,z
-x,-y,-z
loop_
_atom_site_type_symbol
_atom_site_label
_atom_site_fract_x
_atom_site_fract_y
_atom_site_fract_z
Si Si1 0.251994 0.114525 0.174761
Si Si2 0.250165 0.752053 0.052515
Si Si3 0.179831 0.466184 0.541644
Si Si4 0.636041 0.372727 0.500808
Si Si5 0.063773 0.475632 0.215148
Si Si6 0.624946 0.464989 0.017084
Si Si7 0.721182 0.772032 0.165830
Si Si8 0.535851 0.059083 0.642144
O O1 0.186840 0.270654 0.445578
O O2 0.203440 0.941611 0.208995
O O3 0.241395 0.154686 0.027321
O O4 0.400784 0.094385 0.959332
O O5 0.141135 0.633536 0.152914
O O6 0.348481 0.707796 0.731551
O O7 0.321856 0.699384 0.066079
O O8 0.233993 0.555094 0.639922
O O9 0.044002 0.530400 0.736010
O O10 0.284458 0.501428 0.257075
O O11 0.521337 0.513361 0.768542
O O12 0.601214 0.226415 0.598474
O O13 0.000000 0.500000 0.500000
O O14 0.158520 0.311782 0.985755
O O15 0.643992 0.617784 0.174837
O O16 0.634346 0.912240 0.464602
O O17 0.500000 0.000000 0.500000
#
# Coordination Sequence:
#
# PCOD9103022 Si02
#       8
#     2   2   2   2   2   2   2   2
#     4  10  18  35  60  92 114 154 198 244 292 357
#     4  11  22  35  65  87 114 155 212 246 279 346
#     4  11  23  39  61  86 126 163 191 238 311 351
#     4  12  21  35  62  97 120 151 196 253 301 350
#     4  11  21  41  60  82 119 166 206 237 283 368
#     4  10  19  36  60  88 116 154 194 238 296 362
#     4   9  16  33  61  82 110 152 201 236 275 342
#     4  10  16  32  59  89 120 146 195 240 292 359
#
# _framework density 21.072199999999999
#
# number of rings (size 3 to 8) (size 9 to 14) (size 15 to 20)
#    0.000    1.500   10.000    0.750    0.000    2.000 
#    0.000    1.250    5.500    0.000    0.000    0.000 
#    0.000    0.000    0.000    0.000    0.000    0.000 
#
# Total GULP energy -89357.539418 kJ/mol
# GULP energy per Si atom -5584.846214 kJ/mol
# Density = 2.102424 g / cm^3
# Si number density = 21.072200 Si / 1000 Ang^3
#
#
#
# Elastic Constant Matrix: (Units=GPa)
#
#
# Indices 1 2 3 4 5 6 
#
# 1 74.2052 44.4581 25.8192 18.4278 -34.1612 -1.6147
# 2 44.4581 125.2304 18.2498 11.4503 -16.4513 -9.5106
# 3 25.8192 18.2498 52.6985 10.2840 -22.6730 -6.4385
# 4 18.4278 11.4503 10.2840 30.7103 -5.6380 -9.8431
# 5 -34.1612 -16.4513 -22.6730 -5.6380 34.9741 1.6433
# 6 -1.6147 -9.5106 -6.4385 -9.8431 1.6433 16.9877
#
#
#
# Elastic Compliance Matrix: (Units=1/GPa)
#
#
# Indices 1 2 3 4 5 6 
#
# 1 0.035969 -0.008403 -0.000784 -0.017615 0.028516 -0.014548
# 2 -0.008403 0.010902 -0.000877 0.002860 -0.003515 0.006970
# 3 -0.000784 -0.000877 0.028103 -0.003580 0.016160 0.006448
# 4 -0.017615 0.002860 -0.003580 0.050432 -0.011409 0.028895
# 5 0.028516 -0.003515 0.016160 -0.011409 0.063707 -0.005906
# 6 -0.014548 0.006970 0.006448 0.028895 -0.005906 0.081142
#
#
# Mechanical properties :
#
#
# Convention : Reuss Voigt Hill
#
# Bulk Modulus (GPa) = 18.23283 47.68758 32.96021
# Shear Modulus (GPa) = 16.19873 27.44156 21.82015
#
# Velocity S-wave (km/s) = 2.77560 3.61260 3.22140
# Velocity P-wave (km/s) = 4.35239 6.33095 5.43250
#
# Compressibility (1/GPa) = 0.05484611
#
# Stress axis : x y z
#
# Youngs Moduli (GPa) = 27.80166 91.72243 35.58350
#
# Poissons Ratio (x) = 0.77077 0.02789
# Poissons Ratio (y) = 0.23362 0.03121
# Poissons Ratio (z) = 0.02179 0.08046
#
# Static dielectric constant tensor:
#      x y z
#    x 1.799570 -0.017650 0.015220 
#    y -0.017650 1.766240 -0.009000 
#    z 0.015220 -0.009000 1.774840 
# 
# From -- ./inp_files/256899.got.cif
#   From: 2010.05.17/outbox.cif.g08.bks.cpg/sg2_129_cif.got.tgz:256899.got - 2010.06.03 11:33:40.
