data_PCOD9103215
_publ_section_title
;
Structure prediction by ZEFSAII (Michael W. Deem and Ramdas Pophale) SiO2 
 PCOD9103215
Probable space group: P -1
;
_chemical_formula_sum "Si O2"
_cell_formula_units_Z 14
_cell_length_a 9.380695
_cell_length_b 14.985078
_cell_length_c 14.253092
_cell_angle_alpha 28.751706
_cell_angle_beta 105.809878
_cell_angle_gamma 125.219302
_cell_volume 633.766039
_symmetry_space_group_name_H-M "P -1"
_symmetry_group_IT_number 2
_symmetry_cell_setting 'triclinic'
loop_
_space_group_symop_operation_xyz
x,y,z
-x,-y,-z
loop_
_atom_site_type_symbol
_atom_site_label
_atom_site_fract_x
_atom_site_fract_y
_atom_site_fract_z
Si Si1 0.809511 0.764671 0.615298
Si Si2 0.770510 0.005826 0.826082
Si Si3 0.298379 0.081716 0.902115
Si Si4 0.238141 0.593539 0.330905
Si Si5 0.684048 0.256453 0.011022
Si Si6 0.609642 0.557544 0.066890
Si Si7 0.933227 0.117912 0.147472
O O1 0.766770 0.506065 0.856504
O O2 0.591059 0.671551 0.691231
O O3 0.875097 0.885410 0.412159
O O4 0.000000 0.000000 0.500000
O O5 0.732248 0.862925 0.050516
O O6 0.576187 0.979654 0.809347
O O7 0.723194 0.833692 0.886499
O O8 0.012239 0.305236 0.589817
O O9 0.542890 0.319054 0.686449
O O10 0.135269 0.976901 0.885370
O O11 0.262426 0.828946 0.150017
O O12 0.253251 0.625361 0.192187
O O13 0.796314 0.161643 0.126881
O O14 0.500000 0.500000 0.000000
O O15 0.811859 0.604433 0.052464
#
# Coordination Sequence:
#
# PCOD9103215 Si02
#       7
#     2   2   2   2   2   2   2
#     4  11  23  43  66  86 127 170 209 265 324 364
#     4  10  20  38  65  92 133 171 206 262 322 374
#     4   9  20  35  59 100 129 161 211 261 315 391
#     4   9  17  35  63  92 135 166 199 262 324 373
#     4   9  22  40  62  97 125 164 216 257 312 386
#     4  11  24  43  62  91 127 169 219 266 310 376
#     4  11  23  42  67  93 130 164 212 269 317 385
#
# _framework density 22.090171000000002
#
# number of rings (size 3 to 8) (size 9 to 14) (size 15 to 20)
#    0.000    2.000    1.429    2.143    0.000    4.571 
#    0.000   10.714    0.000    0.000    0.000    0.000 
#    0.000    0.000    0.000    0.000    0.000    0.000 
#
# Total GULP energy -78146.932463 kJ/mol
# GULP energy per Si atom -5581.923747 kJ/mol
# Density = 2.203989 g / cm^3
# Si number density = 22.090171 Si / 1000 Ang^3
#
#
#
# Elastic Constant Matrix: (Units=GPa)
#
#
# Indices 1 2 3 4 5 6 
#
# 1 111.1616 40.1080 47.8090 -9.4466 -26.5595 17.7411
# 2 40.1080 129.9609 31.0103 -12.7539 -10.6842 4.7824
# 3 47.8090 31.0103 83.8382 -17.9795 -34.5603 9.4799
# 4 -9.4466 -12.7539 -17.9795 34.2917 1.2816 -9.6377
# 5 -26.5595 -10.6842 -34.5603 1.2816 48.1761 -9.6261
# 6 17.7411 4.7824 9.4799 -9.6377 -9.6261 32.9396
#
#
#
# Elastic Compliance Matrix: (Units=1/GPa)
#
#
# Indices 1 2 3 4 5 6 
#
# 1 0.013555 -0.002634 -0.005870 -0.001872 0.001671 -0.005288
# 2 -0.002634 0.009041 -0.001750 0.002034 -0.000548 0.001045
# 3 -0.005870 -0.001750 0.023365 0.010528 0.013606 0.003748
# 4 -0.001872 0.002034 0.010528 0.037741 0.008189 0.011119
# 5 0.001671 -0.000548 0.013606 0.008189 0.032532 0.007167
# 6 -0.005288 0.001045 0.003748 0.011119 0.007167 0.037324
#
#
# Mechanical properties :
#
#
# Convention : Reuss Voigt Hill
#
# Bulk Modulus (GPa) = 39.28869 62.53504 50.91187
# Shear Modulus (GPa) = 27.38951 36.81702 32.10326
#
# Velocity S-wave (km/s) = 3.52504 4.08692 3.81633
# Velocity P-wave (km/s) = 5.86447 7.11625 6.52047
#
# Compressibility (1/GPa) = 0.02545262
#
# Stress axis : x y z
#
# Youngs Moduli (GPa) = 73.77202 110.60423 42.79866
#
# Poissons Ratio (x) = 0.29138 0.25124
# Poissons Ratio (y) = 0.19435 0.07489
# Poissons Ratio (z) = 0.43307 0.19353
#
# Static dielectric constant tensor:
#      x y z
#    x 1.982290 -0.086600 0.046580 
#    y -0.086600 1.880000 -0.042280 
#    z 0.046580 -0.042280 1.805960 
# 
# From -- ./inp_files/202759.got.cif
#   From: 2010.05.17/outbox.cif.g08.bks.cpg/sg2_102_cif.got.tgz:202759.got - 2010.06.03 11:33:40.
