data_PCOD9103548
_publ_section_title
;
Structure prediction by ZEFSAII (Michael W. Deem and Ramdas Pophale) SiO2 
 PCOD9103548
Probable space group: P -1
;
_chemical_formula_sum "Si O2"
_cell_formula_units_Z 15
_cell_length_a 8.959025
_cell_length_b 8.962138
_cell_length_c 16.039684
_cell_angle_alpha 142.448627
_cell_angle_beta 102.145181
_cell_angle_gamma 96.298779
_cell_volume 679.711346
_symmetry_space_group_name_H-M "P -1"
_symmetry_group_IT_number 2
_symmetry_cell_setting 'triclinic'
loop_
_space_group_symop_operation_xyz
x,y,z
-x,-y,-z
loop_
_atom_site_type_symbol
_atom_site_label
_atom_site_fract_x
_atom_site_fract_y
_atom_site_fract_z
Si Si1 0.207616 0.652754 0.773278
Si Si2 0.448432 0.164321 0.757492
Si Si3 0.000000 0.500000 0.500000
Si Si4 0.795152 0.881298 0.421853
Si Si5 0.246705 0.811544 0.295390
Si Si6 0.041368 0.991988 0.228244
Si Si7 0.354786 0.181518 0.930010
Si Si8 0.020809 0.771449 0.953429
O O1 0.281802 0.439670 0.704860
O O2 0.087787 0.552035 0.630878
O O3 0.113484 0.652348 0.848997
O O4 0.331902 0.974067 0.909791
O O5 0.262728 0.051376 0.643282
O O6 0.578922 0.086679 0.690733
O O7 0.424710 0.084790 0.815525
O O8 0.526581 0.494816 0.903860
O O9 0.908363 0.694710 0.601672
O O10 0.729124 0.024778 0.544719
O O11 0.000000 0.000000 0.500000
O O12 0.162257 0.487103 0.160993
O O13 0.104525 0.853931 0.244800
O O14 0.104076 0.920849 0.116605
O O15 0.834096 0.858607 0.136268
O O16 0.000000 0.000000 0.000000
#
# Coordination Sequence:
#
# PCOD9103548 Si02
#       8
#     2   2   1   2   2   2   2   2
#     4  11  23  41  70 100 133 175 234 273 333 403
#     4  11  25  43  64  97 141 172 228 280 339 398
#     4  10  20  38  66  98 132 166 218 276 318 398
#     4  12  25  43  69 101 130 183 230 278 340 406
#     4  12  24  42  67 101 136 181 222 280 342 398
#     4  11  22  41  72  99 131 178 229 266 334 408
#     4  10  23  43  69  95 133 187 218 276 337 404
#     4  12  22  38  66 106 134 168 228 286 327 388
#
# _framework density 22.068193000000001
#
# number of rings (size 3 to 8) (size 9 to 14) (size 15 to 20)
#    0.000    0.800    6.667    1.600    1.867    1.600 
#    0.000    2.000    0.000    0.000    0.000    0.000 
#    0.000    0.000    0.000    0.000    0.000    0.000 
#
# Total GULP energy -83535.502490 kJ/mol
# GULP energy per Si atom -5569.033499 kJ/mol
# Density = 2.201796 g / cm^3
# Si number density = 22.068193 Si / 1000 Ang^3
#
#
#
# Elastic Constant Matrix: (Units=GPa)
#
#
# Indices 1 2 3 4 5 6 
#
# 1 86.4240 0.1316 24.8546 -4.9641 -16.4624 16.6671
# 2 0.1316 36.8218 -3.8813 -0.3200 -0.1200 2.7735
# 3 24.8546 -3.8813 60.9929 -13.8286 -29.0650 4.9362
# 4 -4.9641 -0.3200 -13.8286 35.7606 11.3222 -11.9100
# 5 -16.4624 -0.1200 -29.0650 11.3222 40.2878 -9.8129
# 6 16.6671 2.7735 4.9362 -11.9100 -9.8129 39.4679
#
#
#
# Elastic Compliance Matrix: (Units=1/GPa)
#
#
# Indices 1 2 3 4 5 6 
#
# 1 0.014319 -0.000193 -0.005310 -0.002398 0.001287 -0.005773
# 2 -0.000193 0.027586 0.002734 0.000220 0.001484 -0.001764
# 3 -0.005310 0.002734 0.028108 0.006191 0.017537 0.004763
# 4 -0.002398 0.000220 0.006191 0.034463 -0.003844 0.009667
# 5 0.001287 0.001484 0.017537 -0.003844 0.040566 0.006085
# 6 -0.005773 -0.001764 0.004763 0.009667 0.006085 0.031733
#
#
# Mechanical properties :
#
#
# Convention : Reuss Voigt Hill
#
# Bulk Modulus (GPa) = 15.50978 25.16092 20.33535
# Shear Modulus (GPa) = 24.53319 33.97886 29.25603
#
# Velocity S-wave (km/s) = 3.33783 3.92819 3.64498
# Velocity P-wave (km/s) = 4.67955 5.65689 5.19127
#
# Compressibility (1/GPa) = 0.06447546
#
# Stress axis : x y z
#
# Youngs Moduli (GPa) = 69.83683 36.24989 35.57680
#
# Poissons Ratio (x) = 0.00699 0.18892
# Poissons Ratio (y) = 0.01346 -0.09727
# Poissons Ratio (z) = 0.37085 -0.09911
#
# Static dielectric constant tensor:
#      x y z
#    x 1.804140 0.011210 0.004690 
#    y 0.011210 1.773620 -0.007210 
#    z 0.004690 -0.007210 1.927870 
# 
# From -- ./inp_files/555735.got.cif
#   From: 2010.05.17/outbox.cif.g08.bks.cpg/sg2_278_cif.got.tgz:555735.got - 2010.06.03 11:33:40.
