data_PCOD9103569
_publ_section_title
;
Structure prediction by ZEFSAII (Michael W. Deem and Ramdas Pophale) SiO2 
 PCOD9103569
Probable space group: P -1
;
_chemical_formula_sum "Si O2"
_cell_formula_units_Z 16
_cell_length_a 11.864303
_cell_length_b 10.857259
_cell_length_c 8.936995
_cell_angle_alpha 127.910161
_cell_angle_beta 54.136346
_cell_angle_gamma 95.042013
_cell_volume 666.110932
_symmetry_space_group_name_H-M "P -1"
_symmetry_group_IT_number 2
_symmetry_cell_setting 'triclinic'
loop_
_space_group_symop_operation_xyz
x,y,z
-x,-y,-z
loop_
_atom_site_type_symbol
_atom_site_label
_atom_site_fract_x
_atom_site_fract_y
_atom_site_fract_z
Si Si1 0.271157 0.406322 0.229265
Si Si2 0.147779 0.174081 0.302819
Si Si3 0.599194 0.805522 0.333562
Si Si4 0.842154 0.185980 0.428290
Si Si5 0.158833 0.336917 0.714699
Si Si6 0.699996 0.139607 0.223809
Si Si7 0.583342 0.359562 0.964455
Si Si8 0.327403 0.567111 0.737784
O O1 0.154531 0.340275 0.343417
O O2 0.203893 0.613275 0.433319
O O3 0.320881 0.318815 0.961443
O O4 0.438554 0.336330 0.126785
O O5 0.140955 0.213840 0.512091
O O6 0.006584 0.132816 0.333256
O O7 0.293794 0.015592 0.000496
O O8 0.740838 0.774853 0.309410
O O9 0.468258 0.769530 0.499421
O O10 0.500000 0.000000 0.500000
O O11 0.817319 0.086548 0.232228
O O12 0.712750 0.200530 0.660158
O O13 0.258336 0.434930 0.650788
O O14 0.000000 0.500000 0.000000
O O15 0.748185 0.258042 0.167119
O O16 0.500000 0.500000 0.000000
O O17 0.672178 0.404152 0.062463
O O18 0.500000 0.500000 0.500000
#
# Coordination Sequence:
#
# PCOD9103569 Si02
#       8
#     2   2   2   2   2   2   2   2
#     4  11  22  40  74 102 132 191 248 294 348 435
#     4  12  26  45  66 105 145 187 233 302 374 430
#     4  12  25  47  74 109 150 192 239 305 373 432
#     4  11  23  44  69  99 141 187 247 294 358 431
#     4  12  27  50  76 108 147 190 244 304 367 435
#     4  12  26  45  69 105 146 190 242 303 366 432
#     4  10  20  38  67 100 130 173 238 296 347 415
#     4  12  23  43  73 104 140 190 246 299 351 434
#
# _framework density 24.020025
#
# number of rings (size 3 to 8) (size 9 to 14) (size 15 to 20)
#    0.000    0.500    3.750    6.750    0.000    2.500 
#    2.250    1.250    0.000    0.000    0.000    0.000 
#    0.000    0.000    0.000    0.000    0.000    0.000 
#
# Total GULP energy -89434.533835 kJ/mol
# GULP energy per Si atom -5589.658365 kJ/mol
# Density = 2.396535 g / cm^3
# Si number density = 24.020025 Si / 1000 Ang^3
#
#
#
# Elastic Constant Matrix: (Units=GPa)
#
#
# Indices 1 2 3 4 5 6 
#
# 1 141.8849 2.5031 50.1682 -14.0736 15.0248 -16.2806
# 2 2.5031 63.3695 -3.5723 3.7373 1.0129 -10.1859
# 3 50.1682 -3.5723 99.8712 -8.1402 28.4331 -18.9107
# 4 -14.0736 3.7373 -8.1402 28.1824 3.4902 2.8800
# 5 15.0248 1.0129 28.4331 3.4902 52.5265 -10.5698
# 6 -16.2806 -10.1859 -18.9107 2.8800 -10.5698 28.4198
#
#
#
# Elastic Compliance Matrix: (Units=1/GPa)
#
#
# Indices 1 2 3 4 5 6 
#
# 1 0.008987 -0.000432 -0.003787 0.003285 -0.000324 0.002020
# 2 -0.000432 0.017301 0.001929 -0.002800 0.000481 0.007699
# 3 -0.003787 0.001929 0.015036 0.002325 -0.006030 0.006048
# 4 0.003285 -0.002800 0.002325 0.039210 -0.005470 -0.003583
# 5 -0.000324 0.000481 -0.006030 -0.005470 0.023834 0.005393
# 6 0.002020 0.007699 0.006048 -0.003583 0.005393 0.045497
#
#
# Mechanical properties :
#
#
# Convention : Reuss Voigt Hill
#
# Bulk Modulus (GPa) = 27.21696 44.81372 36.01534
# Shear Modulus (GPa) = 29.99509 38.89418 34.44464
#
# Velocity S-wave (km/s) = 3.53760 4.02834 3.79092
# Velocity P-wave (km/s) = 5.29545 6.35091 5.84704
#
# Compressibility (1/GPa) = 0.03674180
#
# Stress axis : x y z
#
# Youngs Moduli (GPa) = 111.27679 57.79916 66.50749
#
# Poissons Ratio (x) = 0.02499 0.25188
# Poissons Ratio (y) = 0.04811 -0.12827
# Poissons Ratio (z) = 0.42144 -0.11148
#
# Static dielectric constant tensor:
#      x y z
#    x 1.951020 -0.012710 -0.009460 
#    y -0.012710 2.021980 0.011130 
#    z -0.009460 0.011130 1.943370 
# 
# From -- ./inp_files/263322.got.cif
#   From: 2010.05.17/outbox.cif.g08.bks.cpg/sg2_132_cif.got.tgz:263322.got - 2010.06.03 11:33:40.
