data_PCOD9103960
_publ_section_title
;
Structure prediction by ZEFSAII (Michael W. Deem and Ramdas Pophale) SiO2 
 PCOD9103960
Probable space group: P -1
;
_chemical_formula_sum "Si O2"
_cell_formula_units_Z 13
_cell_length_a 16.656516
_cell_length_b 15.146597
_cell_length_c 6.957478
_cell_angle_alpha 119.042152
_cell_angle_beta 137.016956
_cell_angle_gamma 28.295987
_cell_volume 494.186750
_symmetry_space_group_name_H-M "P -1"
_symmetry_group_IT_number 2
_symmetry_cell_setting 'triclinic'
loop_
_space_group_symop_operation_xyz
x,y,z
-x,-y,-z
loop_
_atom_site_type_symbol
_atom_site_label
_atom_site_fract_x
_atom_site_fract_y
_atom_site_fract_z
Si Si1 0.740562 0.641934 0.233158
Si Si2 0.000000 0.500000 0.000000
Si Si3 0.612368 0.256775 0.418794
Si Si4 0.709911 0.361398 0.484454
Si Si5 0.290079 0.448760 0.513991
Si Si6 0.504472 0.017880 0.299034
Si Si7 0.812146 0.973921 0.763602
O O1 0.761285 0.584807 0.428224
O O2 0.000000 0.500000 0.500000
O O3 0.536551 0.885037 0.121485
O O4 0.624766 0.635567 0.913619
O O5 0.925465 0.438734 0.874759
O O6 0.748507 0.731707 0.913029
O O7 0.669924 0.271392 0.335872
O O8 0.524815 0.407332 0.577108
O O9 0.826008 0.026730 0.645026
O O10 0.739471 0.408113 0.395782
O O11 0.950349 0.194812 0.864844
O O12 0.568643 0.207001 0.686038
O O13 0.733893 0.917193 0.539277
O O14 0.500000 0.000000 0.500000
#
# Coordination Sequence:
#
# PCOD9103960 Si02
#       7
#     2   1   2   2   2   2   2
#     4  12  26  43  64 107 145 171 220 294 343 392
#     4  10  20  38  70  92 122 178 228 260 322 414
#     4  10  24  42  64 101 135 172 226 278 341 394
#     4  10  21  44  71  89 131 187 225 272 327 416
#     4  10  23  38  68  95 129 176 232 264 337 408
#     4  11  21  40  67  93 132 177 222 267 337 409
#     4  10  20  40  67  95 124 178 228 267 333 410
#
# _framework density 26.305845000000001
#
# number of rings (size 3 to 8) (size 9 to 14) (size 15 to 20)
#    0.000    1.538    3.077    2.308    6.462    1.231 
#    2.769    0.769    0.000    0.000    0.000    0.000 
#    0.000    0.000    0.000    0.000    0.000    0.000 
#
# Total GULP energy -72442.803450 kJ/mol
# GULP energy per Si atom -5572.523342 kJ/mol
# Density = 2.624597 g / cm^3
# Si number density = 26.305845 Si / 1000 Ang^3
#
#
#
# Elastic Constant Matrix: (Units=GPa)
#
#
# Indices 1 2 3 4 5 6 
#
# 1 158.2984 31.1980 23.2469 9.4289 3.9094 39.9255
# 2 31.1980 -1.3046 -8.4508 11.7266 -34.6616 -10.2453
# 3 23.2469 -8.4508 68.7653 -9.7566 -3.3600 -0.9384
# 4 9.4289 11.7266 -9.7566 29.4786 18.6129 11.2219
# 5 3.9094 -34.6616 -3.3600 18.6129 13.5131 -23.7492
# 6 39.9255 -10.2453 -0.9384 11.2219 -23.7492 24.6598
#
#
#
# Elastic Compliance Matrix: (Units=1/GPa)
#
#
# Indices 1 2 3 4 5 6 
#
# 1 0.007359 0.001662 -0.002980 -0.006658 0.005831 -0.002692
# 2 0.001662 0.014037 0.001925 0.013451 -0.017859 -0.020105
# 3 -0.002980 0.001925 0.016795 0.008476 -0.003653 -0.001112
# 4 -0.006658 0.013451 0.008476 0.031522 0.001094 0.003400
# 5 0.005831 -0.017859 -0.003653 0.001094 0.009616 -0.008236
# 6 -0.002692 -0.020105 -0.001112 0.003400 -0.008236 0.027036
#
#
# Mechanical properties :
#
#
# Convention : Reuss Voigt Hill
#
# Bulk Modulus (GPa) = 25.37793 35.30529 30.34161
# Shear Modulus (GPa) = 42.27014 25.51464 33.89239
#
# Velocity S-wave (km/s) = 4.01293 3.11774 3.59332
# Velocity P-wave (km/s) = 5.58029 5.13912 5.36425
#
# Compressibility (1/GPa) = 0.03940432
#
# Stress axis : x y z
#
# Youngs Moduli (GPa) = 135.88920 71.23823 59.54104
#
# Poissons Ratio (x) = -0.11836 0.17743
# Poissons Ratio (y) = -0.22578 -0.11461
# Poissons Ratio (z) = 0.40496 -0.13713
#
# Static dielectric constant tensor:
#      x y z
#    x 2.133870 0.037660 0.120990 
#    y 0.037660 1.989020 -0.032480 
#    z 0.120990 -0.032480 1.611550 
# 
# From -- ./inp_files/335036.got.cif
#   From: 2010.05.17/outbox.cif.g08.bks.cpg/sg2_168_cif.got.tgz:335036.got - 2010.06.03 11:33:40.
