data_PCOD9103201
_publ_section_title
;
Structure prediction by ZEFSAII (Michael W. Deem and Ramdas Pophale) SiO2 
 PCOD9103201
Probable space group: P -1
;
_chemical_formula_sum "Si O2"
_cell_formula_units_Z 16
_cell_length_a 18.962529
_cell_length_b 7.099226
_cell_length_c 5.003483
_cell_angle_alpha 63.339694
_cell_angle_beta 75.096537
_cell_angle_gamma 92.736139
_cell_volume 571.231210
_symmetry_space_group_name_H-M "P -1"
_symmetry_group_IT_number 2
_symmetry_cell_setting 'triclinic'
loop_
_space_group_symop_operation_xyz
x,y,z
-x,-y,-z
loop_
_atom_site_type_symbol
_atom_site_label
_atom_site_fract_x
_atom_site_fract_y
_atom_site_fract_z
Si Si1 0.491140 0.192004 0.586221
Si Si2 0.712237 0.901860 0.550859
Si Si3 0.614035 0.491003 0.058542
Si Si4 0.141629 0.595242 0.726892
Si Si5 0.961024 0.822590 0.865222
Si Si6 0.103098 0.825731 0.083305
Si Si7 0.624920 0.133323 0.864292
Si Si8 0.257014 0.307324 0.850949
O O1 0.552923 0.189239 0.754880
O O2 0.500000 0.000000 0.500000
O O3 0.590121 0.894754 0.165508
O O4 0.528090 0.412258 0.265943
O O5 0.686188 0.092772 0.616095
O O6 0.738767 0.885628 0.234664
O O7 0.636827 0.713927 0.739403
O O8 0.765043 0.799485 0.769459
O O9 0.642566 0.304713 0.976821
O O10 0.664756 0.540924 0.242125
O O11 0.207794 0.471253 0.687928
O O12 0.113649 0.689940 0.422897
O O13 0.078608 0.410758 0.041624
O O14 0.156496 0.776736 0.825162
O O15 0.896191 0.930849 0.984921
O O16 0.021165 0.784254 0.050900
O O17 0.000000 0.000000 0.500000
#
# Coordination Sequence:
#
# PCOD9103201 Si02
#       8
#     2   2   2   2   2   2   2   2
#     4   9  19  35  60  95 126 160 219 276 334 414
#     4  10  23  42  65  89 128 171 222 273 337 385
#     4   9  21  40  61  92 127 170 215 276 329 402
#     4  12  25  45  72  97 146 185 227 285 346 400
#     4  11  25  44  71 112 142 172 238 280 341 427
#     4  11  25  43  71 106 137 188 219 283 352 401
#     4  10  20  38  65  92 126 171 215 275 346 395
#     4  10  24  46  63  95 130 178 228 274 322 414
#
# _framework density 28.009677
#
# number of rings (size 3 to 8) (size 9 to 14) (size 15 to 20)
#    0.750    1.000    1.250    2.250    7.000    0.500 
#    2.250    6.250    0.000    0.000    0.000    0.000 
#    0.000    0.000    0.000    0.000    0.000    0.000 
#
# Total GULP energy -89519.771603 kJ/mol
# GULP energy per Si atom -5594.985725 kJ/mol
# Density = 2.794593 g / cm^3
# Si number density = 28.009677 Si / 1000 Ang^3
#
#
#
# Elastic Constant Matrix: (Units=GPa)
#
#
# Indices 1 2 3 4 5 6 
#
# 1 124.3333 58.9845 57.9090 15.8927 27.7470 -21.7324
# 2 58.9845 136.1832 40.2652 25.8174 7.6523 -2.5693
# 3 57.9090 40.2652 145.8213 30.6077 18.1654 -6.5640
# 4 15.8927 25.8174 30.6077 65.6968 -6.1738 -2.6519
# 5 27.7470 7.6523 18.1654 -6.1738 54.5947 -0.7686
# 6 -21.7324 -2.5693 -6.5640 -2.6519 -0.7686 49.3606
#
#
#
# Elastic Compliance Matrix: (Units=1/GPa)
#
#
# Indices 1 2 3 4 5 6 
#
# 1 0.013911 -0.004596 -0.003291 -0.000307 -0.005290 0.005349
# 2 -0.004596 0.009896 -0.000561 -0.002507 0.000828 -0.001705
# 3 -0.003291 -0.000561 0.009242 -0.003469 -0.001723 -0.000462
# 4 -0.000307 -0.002507 -0.003469 0.018260 0.003731 0.000312
# 5 -0.005290 0.000828 -0.001723 0.003731 0.021857 -0.001974
# 6 0.005349 -0.001705 -0.000462 0.000312 -0.001974 0.022450
#
#
# Mechanical properties :
#
#
# Convention : Reuss Voigt Hill
#
# Bulk Modulus (GPa) = 61.90973 80.07280 70.99126
# Shear Modulus (GPa) = 42.41054 50.54238 46.47646
#
# Velocity S-wave (km/s) = 3.89542 4.25250 4.07787
# Velocity P-wave (km/s) = 6.51025 7.26370 6.89727
#
# Compressibility (1/GPa) = 0.01615255
#
# Stress axis : x y z
#
# Youngs Moduli (GPa) = 71.88731 101.05087 108.20608
#
# Poissons Ratio (x) = 0.46439 0.35611
# Poissons Ratio (y) = 0.33037 0.06073
# Poissons Ratio (z) = 0.23658 0.05671
#
# Static dielectric constant tensor:
#      x y z
#    x 2.177450 0.024860 -0.057590 
#    y 0.024860 2.184180 -0.083160 
#    z -0.057590 -0.083160 2.275630 
# 
# From -- ./inp_files/117100.got.cif
#   From: 2010.05.17/outbox.cif.g08.bks.cpg/sg2_59_cif.got.tgz:117100.got - 2010.06.03 11:33:40.
