data_PCOD9103754
_publ_section_title
;
Structure prediction by ZEFSAII (Michael W. Deem and Ramdas Pophale) SiO2 
 PCOD9103754
Probable space group: P -1
;
_chemical_formula_sum "Si O2"
_cell_formula_units_Z 13
_cell_length_a 15.594226
_cell_length_b 8.113594
_cell_length_c 7.962420
_cell_angle_alpha 128.551690
_cell_angle_beta 44.363584
_cell_angle_gamma 129.213034
_cell_volume 517.797780
_symmetry_space_group_name_H-M "P -1"
_symmetry_group_IT_number 2
_symmetry_cell_setting 'triclinic'
loop_
_space_group_symop_operation_xyz
x,y,z
-x,-y,-z
loop_
_atom_site_type_symbol
_atom_site_label
_atom_site_fract_x
_atom_site_fract_y
_atom_site_fract_z
Si Si1 0.865801 0.044551 0.228976
Si Si2 0.670009 0.022709 0.743084
Si Si3 0.720833 0.847896 0.998562
Si Si4 0.556272 0.130113 0.279588
Si Si5 0.632797 0.549032 0.647018
Si Si6 0.905609 0.507052 0.284182
Si Si7 0.000000 0.000000 0.500000
O O1 0.810881 0.039844 0.489044
O O2 0.876941 0.285936 0.292908
O O3 0.767644 0.856478 0.128329
O O4 0.000000 0.000000 0.000000
O O5 0.581304 0.020338 0.703596
O O6 0.617052 0.772607 0.736226
O O7 0.648855 0.186482 0.018104
O O8 0.646278 0.605965 0.864152
O O9 0.853815 0.970988 0.781816
O O10 0.626401 0.993714 0.205445
O O11 0.544017 0.334954 0.533970
O O12 0.775208 0.530735 0.402530
O O13 0.975285 0.742406 0.424987
O O14 0.000000 0.500000 0.000000
#
# Coordination Sequence:
#
# PCOD9103754 Si02
#       7
#     2   2   2   2   2   2   1
#     4  12  25  43  64 105 141 169 222 292 337 382
#     4  10  24  40  68 100 133 167 226 286 325 395
#     4  10  22  38  68  95 127 176 225 264 332 408
#     4  10  20  44  69  92 128 184 225 263 337 402
#     4  10  20  41  67  91 126 180 229 261 329 411
#     4  11  20  39  66  88 127 180 219 261 329 402
#     4  10  20  38  68  90 120 174 232 250 312 418
#
# _framework density 25.106324000000001
#
# number of rings (size 3 to 8) (size 9 to 14) (size 15 to 20)
#    0.000    1.538    3.077    1.385    4.308    0.615 
#    5.538    3.846    0.000    0.000    0.000    0.000 
#    0.000    0.000    0.000    0.000    0.000    0.000 
#
# Total GULP energy -72420.026982 kJ/mol
# GULP energy per Si atom -5570.771306 kJ/mol
# Density = 2.504918 g / cm^3
# Si number density = 25.106324 Si / 1000 Ang^3
#
#
#
# Elastic Constant Matrix: (Units=GPa)
#
#
# Indices 1 2 3 4 5 6 
#
# 1 111.9190 11.7983 26.7694 15.8792 1.8594 21.5159
# 2 11.7983 87.5617 42.8046 21.1804 16.5229 10.1811
# 3 26.7694 42.8046 127.8720 15.1996 6.8218 7.0693
# 4 15.8792 21.1804 15.1996 46.5921 4.6498 -1.0917
# 5 1.8594 16.5229 6.8218 4.6498 55.2178 9.6145
# 6 21.5159 10.1811 7.0693 -1.0917 9.6145 32.3876
#
#
#
# Elastic Compliance Matrix: (Units=1/GPa)
#
#
# Indices 1 2 3 4 5 6 
#
# 1 0.011361 0.001056 -0.001876 -0.004053 0.001264 -0.007982
# 2 0.001056 0.015943 -0.004466 -0.005941 -0.003052 -0.004033
# 3 -0.001876 -0.004466 0.009735 -0.000511 0.000160 0.000461
# 4 -0.004053 -0.005941 -0.000511 0.025974 -0.001240 0.005915
# 5 0.001264 -0.003052 0.000160 -0.001240 0.020097 -0.005923
# 6 -0.007982 -0.004033 0.000461 0.005915 -0.005923 0.039303
#
#
# Mechanical properties :
#
#
# Convention : Reuss Voigt Hill
#
# Bulk Modulus (GPa) = 37.78294 54.45526 46.11910
# Shear Modulus (GPa) = 35.25894 43.23819 39.24857
#
# Velocity S-wave (km/s) = 3.75158 4.15445 3.95814
# Velocity P-wave (km/s) = 5.81787 6.68951 6.26886
#
# Compressibility (1/GPa) = 0.02646697
#
# Stress axis : x y z
#
# Youngs Moduli (GPa) = 88.02023 62.72216 102.72286
#
# Poissons Ratio (x) = -0.06626 0.19275
# Poissons Ratio (y) = -0.09299 0.45878
# Poissons Ratio (z) = 0.16516 0.28013
#
# Static dielectric constant tensor:
#      x y z
#    x 1.909750 0.155470 0.136910 
#    y 0.155470 1.997890 -0.130230 
#    z 0.136910 -0.130230 2.033780 
# 
# From -- ./inp_files/232990.got.cif
#   From: 2010.05.17/outbox.cif.g08.bks.cpg/sg2_117_cif.got.tgz:232990.got - 2010.06.03 11:33:40.
