data_PCOD9103347
_publ_section_title
;
Structure prediction by ZEFSAII (Michael W. Deem and Ramdas Pophale) SiO2 
 PCOD9103347
Probable space group: P -1
;
_chemical_formula_sum "Si O2"
_cell_formula_units_Z 16
_cell_length_a 8.921031
_cell_length_b 5.351803
_cell_length_c 20.999044
_cell_angle_alpha 104.332546
_cell_angle_beta 135.310314
_cell_angle_gamma 72.699133
_cell_volume 672.198814
_symmetry_space_group_name_H-M "P -1"
_symmetry_group_IT_number 2
_symmetry_cell_setting 'triclinic'
loop_
_space_group_symop_operation_xyz
x,y,z
-x,-y,-z
loop_
_atom_site_type_symbol
_atom_site_label
_atom_site_fract_x
_atom_site_fract_y
_atom_site_fract_z
Si Si1 0.277513 0.091797 0.645877
Si Si2 0.566748 0.148427 0.933354
Si Si3 0.019590 0.938956 0.872965
Si Si4 0.681080 0.777705 0.821071
Si Si5 0.211347 0.622353 0.084889
Si Si6 0.107639 0.241124 0.478136
Si Si7 0.030169 0.565059 0.676874
Si Si8 0.073861 0.142635 0.772279
O O1 0.490471 0.927383 0.730123
O O2 0.072345 0.946867 0.589080
O O3 0.211983 0.368544 0.679908
O O4 0.292707 0.115204 0.575474
O O5 0.643917 0.386504 0.933890
O O6 0.634738 0.916360 0.887421
O O7 0.312355 0.196397 0.866067
O O8 0.725775 0.105511 0.039008
O O9 0.959400 0.097011 0.801143
O O10 0.896103 0.701142 0.834648
O O11 0.895776 0.088409 0.906008
O O12 0.658068 0.494101 0.822127
O O13 0.000000 0.500000 0.000000
O O14 0.151177 0.332547 0.425689
O O15 0.000000 0.500000 0.500000
O O16 0.101221 0.839047 0.735771
O O17 0.983554 0.373437 0.708865
#
# Coordination Sequence:
#
# PCOD9103347 Si02
#       8
#     2   2   2   2   2   2   2   2
#     4  10  20  38  66 101 126 161 209 268 321 383
#     4  11  22  39  61  89 126 168 227 272 319 363
#     4  11  25  41  55  92 129 176 222 268 318 376
#     4  11  21  39  64  90 127 169 220 263 323 376
#     4  11  21  38  65  86 123 173 219 276 322 369
#     4   9  19  35  65 102 130 152 202 271 324 377
#     4  11  22  42  63  96 132 167 208 261 329 382
#     4  12  27  39  66  94 133 175 217 264 319 388
#
# _framework density 23.802482000000001
#
# number of rings (size 3 to 8) (size 9 to 14) (size 15 to 20)
#    0.000    1.250    5.000    1.125    5.250    1.000 
#    0.000    1.875    0.000    1.500    0.000    0.000 
#    0.000    0.000    0.000    0.000    0.000    0.000 
#
# Total GULP energy -89067.443418 kJ/mol
# GULP energy per Si atom -5566.715214 kJ/mol
# Density = 2.374831 g / cm^3
# Si number density = 23.802482 Si / 1000 Ang^3
#
#
#
# Elastic Constant Matrix: (Units=GPa)
#
#
# Indices 1 2 3 4 5 6 
#
# 1 58.7011 10.8389 21.1372 -1.6347 -25.1411 27.1070
# 2 10.8389 57.3598 24.6015 -18.2851 -18.1909 22.4714
# 3 21.1372 24.6015 117.9644 -36.7546 -37.8254 14.4164
# 4 -1.6347 -18.2851 -36.7546 38.2704 16.2229 -10.6215
# 5 -25.1411 -18.1909 -37.8254 16.2229 27.5140 -16.9280
# 6 27.1070 22.4714 14.4164 -10.6215 -16.9280 35.1150
#
#
#
# Elastic Compliance Matrix: (Units=1/GPa)
#
#
# Indices 1 2 3 4 5 6 
#
# 1 0.044924 0.009004 0.001923 -0.017861 0.044762 -0.025054
# 2 0.009004 0.027886 0.000424 0.003047 0.015147 -0.016746
# 3 0.001923 0.000424 0.018174 0.008504 0.025476 0.005637
# 4 -0.017861 0.003047 0.008504 0.048380 -0.024172 0.011328
# 5 0.044762 0.015147 0.025476 -0.024172 0.139863 0.005406
# 6 -0.025054 -0.016746 0.005637 0.011328 0.005406 0.062253
#
#
# Mechanical properties :
#
#
# Convention : Reuss Voigt Hill
#
# Bulk Modulus (GPa) = 8.79630 38.57561 23.68595
# Shear Modulus (GPa) = 14.01836 32.00973 23.01404
#
# Velocity S-wave (km/s) = 2.42945 3.67114 3.11284
# Velocity P-wave (km/s) = 3.40194 5.84905 4.78459
#
# Compressibility (1/GPa) = 0.11368420
#
# Stress axis : x y z
#
# Youngs Moduli (GPa) = 22.25975 35.86012 55.02450
#
# Poissons Ratio (x) = -0.32287 -0.10579
# Poissons Ratio (y) = -0.20042 -0.02332
# Poissons Ratio (z) = -0.04280 -0.01520
#
# Static dielectric constant tensor:
#      x y z
#    x 1.783370 -0.039980 -0.140810 
#    y -0.039980 1.953440 -0.105430 
#    z -0.140810 -0.105430 1.868540 
# 
# From -- ./inp_files/585350.got.cif
#   From: 2010.05.17/outbox.cif.g08.bks.cpg/sg2_293_cif.got.tgz:585350.got - 2010.06.03 11:33:40.
