data_PCOD9103752
_publ_section_title
;
Structure prediction by ZEFSAII (Michael W. Deem and Ramdas Pophale) SiO2 
 PCOD9103752
Probable space group: P -1
;
_chemical_formula_sum "Si O2"
_cell_formula_units_Z 16
_cell_length_a 17.098620
_cell_length_b 7.925222
_cell_length_c 10.271500
_cell_angle_alpha 119.615098
_cell_angle_beta 115.891201
_cell_angle_gamma 33.904262
_cell_volume 673.972260
_symmetry_space_group_name_H-M "P -1"
_symmetry_group_IT_number 2
_symmetry_cell_setting 'triclinic'
loop_
_space_group_symop_operation_xyz
x,y,z
-x,-y,-z
loop_
_atom_site_type_symbol
_atom_site_label
_atom_site_fract_x
_atom_site_fract_y
_atom_site_fract_z
Si Si1 0.706529 0.326405 0.330425
Si Si2 0.275066 0.674348 0.209604
Si Si3 0.335306 0.726199 0.983178
Si Si4 0.014837 0.745473 0.397622
Si Si5 0.222637 0.154872 0.482062
Si Si6 0.591272 0.134052 0.246025
Si Si7 0.687666 0.756370 0.636943
Si Si8 0.700988 0.792042 0.929440
O O1 0.699142 0.374241 0.189164
O O2 0.599124 0.345651 0.292163
O O3 0.680331 0.562615 0.487334
O O4 0.858995 0.962816 0.330802
O O5 0.433000 0.377490 0.266158
O O6 0.215961 0.558364 0.127424
O O7 0.204883 0.959684 0.359296
O O8 0.292977 0.725969 0.095301
O O9 0.500000 0.500000 0.000000
O O10 0.250469 0.070237 0.009488
O O11 0.080602 0.520183 0.483412
O O12 0.146940 0.495766 0.301085
O O13 0.000000 0.000000 0.500000
O O14 0.332084 0.048094 0.412570
O O15 0.292222 0.087677 0.642484
O O16 0.622437 0.952788 0.071545
O O17 0.611480 0.916911 0.778194
#
# Coordination Sequence:
#
# PCOD9103752 Si02
#       8
#     2   2   2   2   2   2   2   2
#     4  10  20  38  68  89 125 168 208 265 325 371
#     4  12  23  41  63  90 137 170 208 269 313 379
#     4  11  22  40  61  95 127 166 214 256 319 386
#     4   8  18  39  67  92 122 168 213 269 313 379
#     4  10  22  39  64  92 127 161 221 259 312 382
#     4  11  24  39  59  97 127 168 218 255 321 388
#     4   9  20  39  62  94 122 162 216 258 312 376
#     4  11  23  40  63  90 135 168 209 267 315 372
#
# _framework density 23.739850000000001
#
# number of rings (size 3 to 8) (size 9 to 14) (size 15 to 20)
#    0.750    1.000    3.750    1.500    1.750    0.500 
#    0.000    7.500    0.000    6.750    0.000    0.000 
#    0.000    0.000    0.000    0.000    0.000    0.000 
#
# Total GULP energy -89140.310358 kJ/mol
# GULP energy per Si atom -5571.269397 kJ/mol
# Density = 2.368582 g / cm^3
# Si number density = 23.739850 Si / 1000 Ang^3
#
#
#
# Elastic Constant Matrix: (Units=GPa)
#
#
# Indices 1 2 3 4 5 6 
#
# 1 82.8518 21.5100 23.9838 1.5521 -2.9653 23.9381
# 2 21.5100 96.0425 51.0724 7.5886 -0.1694 3.2342
# 3 23.9838 51.0724 173.1733 9.3649 -17.4635 10.4017
# 4 1.5521 7.5886 9.3649 35.0405 12.5171 7.1496
# 5 -2.9653 -0.1694 -17.4635 12.5171 23.8059 3.2780
# 6 23.9381 3.2342 10.4017 7.1496 3.2780 31.9271
#
#
#
# Elastic Compliance Matrix: (Units=1/GPa)
#
#
# Indices 1 2 3 4 5 6 
#
# 1 0.016786 -0.003230 -0.000440 0.001758 0.002579 -0.012773
# 2 -0.003230 0.013169 -0.003832 -0.001257 -0.002859 0.002911
# 3 -0.000440 -0.003832 0.008109 -0.003841 0.008148 -0.001900
# 4 0.001758 -0.001257 -0.003841 0.039007 -0.022237 -0.006392
# 5 0.002579 -0.002859 0.008148 -0.022237 0.060742 -0.005556
# 6 -0.012773 0.002911 -0.001900 -0.006392 -0.005556 0.043224
#
#
# Mechanical properties :
#
#
# Convention : Reuss Voigt Hill
#
# Bulk Modulus (GPa) = 43.36299 60.57777 51.97038
# Shear Modulus (GPa) = 24.54269 35.18813 29.86541
#
# Velocity S-wave (km/s) = 3.21879 3.85416 3.55072
# Velocity P-wave (km/s) = 5.66743 6.73638 6.22489
#
# Compressibility (1/GPa) = 0.02306114
#
# Stress axis : x y z
#
# Youngs Moduli (GPa) = 59.57496 75.93420 123.31909
#
# Poissons Ratio (x) = 0.24524 0.05426
# Poissons Ratio (y) = 0.19241 0.47253
# Poissons Ratio (z) = 0.02621 0.29096
#
# Static dielectric constant tensor:
#      x y z
#    x 2.097540 -0.051150 -0.069230 
#    y -0.051150 1.992790 0.021920 
#    z -0.069230 0.021920 1.954660 
# 
# From -- ./inp_files/470144.got.cif
#   From: 2010.05.17/outbox.cif.g08.bks.cpg/sg2_236_cif.got.tgz:470144.got - 2010.06.03 11:33:40.
