data_PCOD9103576
_publ_section_title
;
Structure prediction by ZEFSAII (Michael W. Deem and Ramdas Pophale) SiO2 
 PCOD9103576
Probable space group: P -1
;
_chemical_formula_sum "Si O2"
_cell_formula_units_Z 16
_cell_length_a 28.279821
_cell_length_b 26.916389
_cell_length_c 12.595217
_cell_angle_alpha 151.887622
_cell_angle_beta 152.697171
_cell_angle_gamma 10.292013
_cell_volume 782.206975
_symmetry_space_group_name_H-M "P -1"
_symmetry_group_IT_number 2
_symmetry_cell_setting 'triclinic'
loop_
_space_group_symop_operation_xyz
x,y,z
-x,-y,-z
loop_
_atom_site_type_symbol
_atom_site_label
_atom_site_fract_x
_atom_site_fract_y
_atom_site_fract_z
Si Si1 0.577455 0.536352 0.666789
Si Si2 0.085167 0.941526 0.179329
Si Si3 0.269647 0.007442 0.681722
Si Si4 0.804628 0.748040 0.158056
Si Si5 0.885697 0.497478 0.000200
Si Si6 0.629453 0.349517 0.219718
Si Si7 0.193036 0.005998 0.940683
Si Si8 0.792265 0.779085 0.660970
O O1 0.500000 0.500000 0.500000
O O2 0.623487 0.457213 0.488694
O O3 0.342021 0.836594 0.805979
O O4 0.868732 0.300553 0.841684
O O5 0.321603 0.635093 0.103178
O O6 0.211316 0.939366 0.432729
O O7 0.841569 0.163456 0.196788
O O8 0.000000 0.000000 0.000000
O O9 0.205688 0.120813 0.651943
O O10 0.056791 0.265533 0.821793
O O11 0.573471 0.750479 0.846183
O O12 0.877160 0.628469 0.190854
O O13 0.000000 0.500000 0.000000
O O14 0.500000 0.000000 0.000000
O O15 0.052311 0.334674 0.134814
O O16 0.706319 0.175460 0.115675
O O17 0.252619 0.069846 0.207267
O O18 0.000000 0.500000 0.500000
O O19 0.500000 0.000000 0.500000
#
# Coordination Sequence:
#
# PCOD9103576 Si02
#       8
#     2   2   2   2   2   2   2   2
#     4  10  20  38  67 102 125 160 220 274 315 379
#     4  12  26  42  62  96 140 169 218 268 324 391
#     4  10  21  39  64  96 118 164 213 264 319 380
#     4   8  16  34  59  89 118 144 205 266 309 366
#     4  10  21  40  68  90 121 162 213 266 323 373
#     4  11  23  42  65  94 134 172 214 266 327 394
#     4  11  23  42  66  97 132 172 216 267 330 395
#     4  12  27  45  62  96 138 168 216 269 325 397
#
# _framework density 20.454944000000001
#
# number of rings (size 3 to 8) (size 9 to 14) (size 15 to 20)
#    0.000    1.500    0.000    6.375    5.250    0.000 
#    4.500    0.000    0.000    0.000    0.000    0.000 
#    0.000    0.000    0.000    0.000    0.000    0.000 
#
# Total GULP energy -89288.168122 kJ/mol
# GULP energy per Si atom -5580.510508 kJ/mol
# Density = 2.040839 g / cm^3
# Si number density = 20.454944 Si / 1000 Ang^3
#
#
#
# Elastic Constant Matrix: (Units=GPa)
#
#
# Indices 1 2 3 4 5 6 
#
# 1 71.0637 23.1756 38.6142 31.7002 -13.3452 -6.1069
# 2 23.1756 131.1753 30.6010 -4.9255 7.9822 -34.4702
# 3 38.6142 30.6010 87.1017 6.8429 13.4521 -9.0537
# 4 31.7002 -4.9255 6.8429 4.8672 23.5074 -1.2501
# 5 -13.3452 7.9822 13.4521 23.5074 17.7350 2.6722
# 6 -6.1069 -34.4702 -9.0537 -1.2501 2.6722 35.4655
#
#
#
# Elastic Compliance Matrix: (Units=1/GPa)
#
#
# Indices 1 2 3 4 5 6 
#
# 1 0.007265 0.001380 -0.002670 0.013359 -0.011324 0.003235
# 2 0.001380 0.010244 -0.003372 -0.003683 0.002509 0.009015
# 3 -0.002670 -0.003372 0.014430 -0.008983 0.000531 -0.000410
# 4 0.013359 -0.003683 -0.008983 -0.005950 0.027289 -0.005838
# 5 -0.011324 0.002509 0.000531 0.027289 0.010036 0.000830
# 6 0.003235 0.009015 -0.000410 -0.005838 0.000830 0.037142
#
#
# Mechanical properties :
#
#
# Convention : Reuss Voigt Hill
#
# Bulk Modulus (GPa) = 44.21743 52.68025 48.44884
# Shear Modulus (GPa) = 55.53785 24.74353 40.14069
#
# Velocity S-wave (km/s) = 5.21634 3.48179 4.43470
# Velocity P-wave (km/s) = 7.61211 6.47874 7.06818
#
# Compressibility (1/GPa) = 0.02261552
#
# Stress axis : x y z
#
# Youngs Moduli (GPa) = 137.65265 97.61756 69.29960
#
# Poissons Ratio (x) = -0.13472 0.18502
# Poissons Ratio (y) = -0.18997 0.23367
# Poissons Ratio (z) = 0.36751 0.32916
#
# Static dielectric constant tensor:
#      x y z
#    x 1.762760 -0.013860 0.075820 
#    y -0.013860 1.684520 0.045640 
#    z 0.075820 0.045640 1.637820 
# 
# From -- ./inp_files/477246.got.cif
#   From: 2010.05.17/outbox.cif.g08.bks.cpg/sg2_239_cif.got.tgz:477246.got - 2010.06.03 11:33:40.
