data_PCOD9103859
_publ_section_title
;
Structure prediction by ZEFSAII (Michael W. Deem and Ramdas Pophale) SiO2 
 PCOD9103859
Probable space group: P -1
;
_chemical_formula_sum "Si O2"
_cell_formula_units_Z 13
_cell_length_a 8.163098
_cell_length_b 11.728807
_cell_length_c 11.374514
_cell_angle_alpha 40.265273
_cell_angle_beta 51.087113
_cell_angle_gamma 49.221066
_cell_volume 513.925605
_symmetry_space_group_name_H-M "P -1"
_symmetry_group_IT_number 2
_symmetry_cell_setting 'triclinic'
loop_
_space_group_symop_operation_xyz
x,y,z
-x,-y,-z
loop_
_atom_site_type_symbol
_atom_site_label
_atom_site_fract_x
_atom_site_fract_y
_atom_site_fract_z
Si Si1 0.583825 0.261062 0.298546
Si Si2 0.717845 0.907433 0.060291
Si Si3 0.244356 0.523516 0.610107
Si Si4 0.999862 0.201014 0.293368
Si Si5 0.000000 0.000000 0.000000
Si Si6 0.182459 0.597148 0.329537
Si Si7 0.473629 0.088705 0.256171
O O1 0.834922 0.257743 0.212083
O O2 0.410775 0.444216 0.297017
O O3 0.513369 0.230970 0.221045
O O4 0.562734 0.081289 0.521065
O O5 0.762813 0.686660 0.218939
O O6 0.930239 0.972279 0.905991
O O7 0.678651 0.988159 0.153616
O O8 0.500000 0.000000 0.000000
O O9 0.500000 0.500000 0.500000
O O10 0.118218 0.638549 0.686167
O O11 0.168655 0.650868 0.429642
O O12 0.260873 0.179948 0.194261
O O13 0.000000 0.000000 0.500000
O O14 0.109994 0.772277 0.141732
O O15 0.000000 0.500000 0.500000
#
# Coordination Sequence:
#
# PCOD9103859 Si02
#       7
#     2   2   2   2   1   2   2
#     4  10  20  38  69 100 139 180 237 290 359 430
#     4  12  27  47  70 105 147 186 246 306 356 432
#     4  12  21  42  75 103 141 192 240 292 365 427
#     4  10  21  37  66 105 136 180 242 287 354 439
#     4  12  28  44  72 108 142 184 252 296 362 428
#     4  12  22  43  72 103 142 188 240 301 357 428
#     4  10  21  41  67 102 138 186 235 290 361 432
#
# _framework density 25.295490000000001
#
# number of rings (size 3 to 8) (size 9 to 14) (size 15 to 20)
#    0.000    0.923    4.615    2.769    0.000    3.692 
#    0.000    1.538    3.385    0.000    0.000    0.000 
#    0.000    0.000    0.000    0.000    0.000    0.000 
#
# Total GULP energy -72392.206304 kJ/mol
# GULP energy per Si atom -5568.631254 kJ/mol
# Density = 2.523792 g / cm^3
# Si number density = 25.295490 Si / 1000 Ang^3
#
#
#
# Elastic Constant Matrix: (Units=GPa)
#
#
# Indices 1 2 3 4 5 6 
#
# 1 151.9026 47.3057 40.6739 -19.5667 15.1019 6.6187
# 2 47.3057 167.8640 39.1604 -3.6669 -2.4218 15.8371
# 3 40.6739 39.1604 88.6966 -37.7684 8.8237 11.5035
# 4 -19.5667 -3.6669 -37.7684 52.6818 4.2129 3.0129
# 5 15.1019 -2.4218 8.8237 4.2129 27.4788 -3.7752
# 6 6.6187 15.8371 11.5035 3.0129 -3.7752 38.1883
#
#
#
# Elastic Compliance Matrix: (Units=1/GPa)
#
#
# Indices 1 2 3 4 5 6 
#
# 1 0.008399 -0.001991 -0.001312 0.002482 -0.004876 -0.000913
# 2 -0.001991 0.007530 -0.004054 -0.003342 0.003441 -0.000953
# 3 -0.001312 -0.004054 0.022864 0.016889 -0.010578 -0.007357
# 4 0.002482 -0.003342 0.016889 0.033304 -0.013297 -0.008074
# 5 -0.004876 0.003441 -0.010578 -0.013297 0.045936 0.008195
# 6 -0.000913 -0.000953 -0.007357 -0.008074 0.008195 0.030403
#
#
# Mechanical properties :
#
#
# Convention : Reuss Voigt Hill
#
# Bulk Modulus (GPa) = 41.52840 73.63813 57.58326
# Shear Modulus (GPa) = 29.20991 42.42465 35.81728
#
# Velocity S-wave (km/s) = 3.40184 4.09976 3.76700
# Velocity P-wave (km/s) = 5.64650 7.18228 6.46019
#
# Compressibility (1/GPa) = 0.02407991
#
# Stress axis : x y z
#
# Youngs Moduli (GPa) = 119.06564 132.79453 43.73759
#
# Poissons Ratio (x) = 0.26436 0.05739
# Poissons Ratio (y) = 0.23703 0.17730
# Poissons Ratio (z) = 0.15622 0.53830
#
# Static dielectric constant tensor:
#      x y z
#    x 1.274790 0.637090 0.695130 
#    y 0.637090 1.617030 -0.396430 
#    z 0.695130 -0.396430 1.334980 
# 
# From -- ./inp_files/239849.got.cif
#   From: 2010.05.17/outbox.cif.g08.bks.cpg/sg2_120_cif.got.tgz:239849.got - 2010.06.03 11:33:40.
