data_PCOD9103582
_publ_section_title
;
Structure prediction by ZEFSAII (Michael W. Deem and Ramdas Pophale) SiO2 
 PCOD9103582
Probable space group: P -1
;
_chemical_formula_sum "Si O2"
_cell_formula_units_Z 16
_cell_length_a 5.834865
_cell_length_b 18.089724
_cell_length_c 21.165599
_cell_angle_alpha 19.240180
_cell_angle_beta 73.888948
_cell_angle_gamma 69.137410
_cell_volume 675.287121
_symmetry_space_group_name_H-M "P -1"
_symmetry_group_IT_number 2
_symmetry_cell_setting 'triclinic'
loop_
_space_group_symop_operation_xyz
x,y,z
-x,-y,-z
loop_
_atom_site_type_symbol
_atom_site_label
_atom_site_fract_x
_atom_site_fract_y
_atom_site_fract_z
Si Si1 0.062706 0.684996 0.391871
Si Si2 0.616460 0.547084 0.728721
Si Si3 0.558817 0.040824 0.162863
Si Si4 0.364187 0.017307 0.062764
Si Si5 0.613009 0.716332 0.724105
Si Si6 0.077096 0.532282 0.642410
Si Si7 0.199845 0.937627 0.378103
Si Si8 0.051883 0.767744 0.728256
O O1 0.188294 0.849835 0.210999
O O2 0.202281 0.539916 0.558689
O O3 0.000000 0.500000 0.500000
O O4 0.829795 0.867687 0.297863
O O5 0.731386 0.614103 0.730360
O O6 0.384308 0.767253 0.551553
O O7 0.797810 0.511797 0.682827
O O8 0.559483 0.306430 0.941249
O O9 0.516694 0.949249 0.170434
O O10 0.357623 0.022409 0.244461
O O11 0.500000 0.000000 0.000000
O O12 0.224979 0.293788 0.858550
O O13 0.839089 0.656977 0.805926
O O14 0.353477 0.641786 0.808418
O O15 0.500000 0.000000 0.500000
O O16 0.072133 0.766207 0.491012
O O17 0.022570 0.142852 0.267244
O O18 0.000000 0.000000 0.500000
#
# Coordination Sequence:
#
# PCOD9103582 Si02
#       8
#     2   2   2   2   2   2   2   2
#     4  12  28  46  70 101 139 179 235 291 356 436
#     4  12  24  42  73  99 142 187 232 300 356 420
#     4  12  27  46  66 110 136 178 242 290 354 430
#     4  12  28  46  70 101 139 179 235 291 356 436
#     4  10  20  38  67 103 139 191 248 287 359 444
#     4  12  25  44  72 102 134 192 232 292 362 424
#     4  12  24  42  73  99 142 187 232 300 356 420
#     4  10  20  38  67 103 139 191 248 287 359 444
#
# _framework density 23.693626999999999
#
# number of rings (size 3 to 8) (size 9 to 14) (size 15 to 20)
#    0.000    0.500    7.500    2.250    3.500    2.000 
#    0.000    1.250    0.000    0.000    0.000    0.000 
#    0.000    0.000    0.000    0.000    0.000    0.000 
#
# Total GULP energy -89410.983484 kJ/mol
# GULP energy per Si atom -5588.186468 kJ/mol
# Density = 2.363970 g / cm^3
# Si number density = 23.693627 Si / 1000 Ang^3
#
#
#
# Elastic Constant Matrix: (Units=GPa)
#
#
# Indices 1 2 3 4 5 6 
#
# 1 89.1487 34.8852 29.3577 10.8940 -16.1723 2.4825
# 2 34.8852 140.8662 48.2918 15.9669 -28.1651 6.0207
# 3 29.3577 48.2918 130.4523 29.2261 -25.0018 -4.9357
# 4 10.8940 15.9669 29.2261 17.0803 -10.4308 -12.0499
# 5 -16.1723 -28.1651 -25.0018 -10.4308 33.7820 0.0493
# 6 2.4825 6.0207 -4.9357 -12.0499 0.0493 47.5118
#
#
#
# Elastic Compliance Matrix: (Units=1/GPa)
#
#
# Indices 1 2 3 4 5 6 
#
# 1 0.013358 -0.001851 -0.000690 -0.005274 0.002715 -0.001876
# 2 -0.001851 0.009549 -0.001367 -0.004096 0.004802 -0.002299
# 3 -0.000690 -0.001367 0.013880 -0.024486 0.001248 -0.004560
# 4 -0.005274 -0.004096 -0.024486 0.144919 0.020634 0.034984
# 5 0.002715 0.004802 0.001248 0.020634 0.042193 0.004569
# 6 -0.001876 -0.002299 -0.004560 0.034984 0.004569 0.029831
#
#
# Mechanical properties :
#
#
# Convention : Reuss Voigt Hill
#
# Bulk Modulus (GPa) = 34.51859 65.05960 49.78910
# Shear Modulus (GPa) = 18.43645 36.20365 27.32005
#
# Velocity S-wave (km/s) = 2.79250 3.91319 3.39935
# Velocity P-wave (km/s) = 4.99978 6.92356 6.03877
#
# Compressibility (1/GPa) = 0.02896990
#
# Stress axis : x y z
#
# Youngs Moduli (GPa) = 74.86173 104.72769 72.04869
#
# Poissons Ratio (x) = 0.19381 0.04971
# Poissons Ratio (y) = 0.13854 0.09852
# Poissons Ratio (z) = 0.05166 0.14321
#
# Static dielectric constant tensor:
#      x y z
#    x 2.034070 -0.004350 0.049390 
#    y -0.004350 1.876570 0.017770 
#    z 0.049390 0.017770 1.937430 
# 
# From -- ./inp_files/340098.got.cif
#   From: 2010.05.17/outbox.cif.g08.bks.cpg/sg2_171_cif.got.tgz:340098.got - 2010.06.03 11:33:40.
