data_PCOD9103207
_publ_section_title
;
Structure prediction by ZEFSAII (Michael W. Deem and Ramdas Pophale) SiO2 
 PCOD9103207
Probable space group: P -1
;
_chemical_formula_sum "Si O2"
_cell_formula_units_Z 16
_cell_length_a 15.083484
_cell_length_b 14.931046
_cell_length_c 16.027570
_cell_angle_alpha 21.194812
_cell_angle_beta 143.066386
_cell_angle_gamma 150.190427
_cell_volume 647.811415
_symmetry_space_group_name_H-M "P -1"
_symmetry_group_IT_number 2
_symmetry_cell_setting 'triclinic'
loop_
_space_group_symop_operation_xyz
x,y,z
-x,-y,-z
loop_
_atom_site_type_symbol
_atom_site_label
_atom_site_fract_x
_atom_site_fract_y
_atom_site_fract_z
Si Si1 0.562240 0.884343 0.277508
Si Si2 0.746598 0.819077 0.332733
Si Si3 0.311583 0.059535 0.998621
Si Si4 0.702113 0.084309 0.575446
Si Si5 0.014684 0.474243 0.716376
Si Si6 0.867271 0.967388 0.558070
Si Si7 0.581164 0.734244 0.934968
Si Si8 0.250167 0.380542 0.071565
O O1 0.657869 0.962634 0.191490
O O2 0.392577 0.537454 0.450980
O O3 0.483239 0.072184 0.082627
O O4 0.712706 0.914143 0.426851
O O5 0.940536 0.939110 0.411900
O O6 0.766781 0.898113 0.181239
O O7 0.195182 0.744343 0.234798
O O8 0.343773 0.286966 0.900886
O O9 0.870243 0.391930 0.397725
O O10 0.500000 0.000000 0.500000
O O11 0.729170 0.024711 0.742945
O O12 0.688963 0.835237 0.721403
O O13 0.079973 0.752926 0.585313
O O14 0.078359 0.278789 0.976420
O O15 0.794830 0.679335 0.813834
O O16 0.500000 0.500000 0.000000
O O17 0.403825 0.699294 0.869277
#
# Coordination Sequence:
#
# PCOD9103207 Si02
#       8
#     2   2   2   2   2   2   2   2
#     4  11  25  43  71 104 138 186 229 286 349 410
#     4  11  24  46  68 105 143 176 238 286 340 420
#     4  12  24  44  69  98 143 185 226 290 351 409
#     4  10  21  37  63  92 129 171 223 285 332 402
#     4  11  22  39  65  96 137 179 227 277 346 412
#     4  11  22  42  70 100 139 183 229 282 343 409
#     4  10  22  42  65  96 130 176 234 279 340 412
#     4  10  20  38  65  92 128 177 224 273 336 408
#
# _framework density 24.698544999999999
#
# number of rings (size 3 to 8) (size 9 to 14) (size 15 to 20)
#    0.000    1.250    3.750    2.250    1.750    0.500 
#    0.000    3.125    0.000    0.000    0.000    0.000 
#    0.000    0.000    0.000    0.000    0.000    0.000 
#
# Total GULP energy -89118.459797 kJ/mol
# GULP energy per Si atom -5569.903737 kJ/mol
# Density = 2.464233 g / cm^3
# Si number density = 24.698545 Si / 1000 Ang^3
#
#
#
# Elastic Constant Matrix: (Units=GPa)
#
#
# Indices 1 2 3 4 5 6 
#
# 1 113.9966 39.1562 26.8517 -2.4285 -19.8918 14.2728
# 2 39.1562 90.5026 24.6844 -4.7906 -18.3354 17.1349
# 3 26.8517 24.6844 55.7004 2.2704 -19.8169 5.0611
# 4 -2.4285 -4.7906 2.2704 36.2206 2.7103 -8.0774
# 5 -19.8918 -18.3354 -19.8169 2.7103 49.7178 8.8908
# 6 14.2728 17.1349 5.0611 -8.0774 8.8908 43.7075
#
#
#
# Elastic Compliance Matrix: (Units=1/GPa)
#
#
# Indices 1 2 3 4 5 6 
#
# 1 0.011318 -0.003041 -0.002851 -0.000297 0.002786 -0.002795
# 2 -0.003041 0.015098 -0.003381 0.000546 0.003909 -0.005228
# 3 -0.002851 -0.003381 0.024005 -0.003341 0.007852 -0.002738
# 4 -0.000297 0.000546 -0.003341 0.029637 -0.004039 0.006568
# 5 0.002786 0.003909 0.007852 -0.004039 0.027762 -0.009745
# 6 -0.002795 -0.005228 -0.002738 0.006568 -0.009745 0.029355
#
#
# Mechanical properties :
#
#
# Convention : Reuss Voigt Hill
#
# Bulk Modulus (GPa) = 31.37395 49.06492 40.21943
# Shear Modulus (GPa) = 30.05746 37.22966 33.64356
#
# Velocity S-wave (km/s) = 3.49230 3.88669 3.69476
# Velocity P-wave (km/s) = 5.38441 6.32854 5.87547
#
# Compressibility (1/GPa) = 0.03187358
#
# Stress axis : x y z
#
# Youngs Moduli (GPa) = 88.35296 66.23312 41.65861
#
# Poissons Ratio (x) = 0.20143 0.11877
# Poissons Ratio (y) = 0.26870 0.14087
# Poissons Ratio (z) = 0.25190 0.22397
#
# Static dielectric constant tensor:
#      x y z
#    x 1.969400 0.030130 0.008160 
#    y 0.030130 2.128870 -0.039500 
#    z 0.008160 -0.039500 2.134880 
# 
# From -- ./inp_files/533618.got.cif
#   From: 2010.05.17/outbox.cif.g08.bks.cpg/sg2_267_cif.got.tgz:533618.got - 2010.06.03 11:33:40.
