data_PCOD9103979
_publ_section_title
;
Structure prediction by ZEFSAII (Michael W. Deem and Ramdas Pophale) SiO2 
 PCOD9103979
Probable space group: P -1
;
_chemical_formula_sum "Si O2"
_cell_formula_units_Z 14
_cell_length_a 9.589762
_cell_length_b 8.945437
_cell_length_c 12.553294
_cell_angle_alpha 64.158614
_cell_angle_beta 59.725423
_cell_angle_gamma 109.425516
_cell_volume 588.914344
_symmetry_space_group_name_H-M "P -1"
_symmetry_group_IT_number 2
_symmetry_cell_setting 'triclinic'
loop_
_space_group_symop_operation_xyz
x,y,z
-x,-y,-z
loop_
_atom_site_type_symbol
_atom_site_label
_atom_site_fract_x
_atom_site_fract_y
_atom_site_fract_z
Si Si1 0.908182 0.122057 0.981426
Si Si2 0.399890 0.996071 0.431549
Si Si3 0.054057 0.165226 0.288736
Si Si4 0.757658 0.515781 0.088864
Si Si5 0.365479 0.759304 0.330770
Si Si6 0.232003 0.969874 0.170235
Si Si7 0.617269 0.478771 0.762923
O O1 0.058918 0.350419 0.928050
O O2 0.908502 0.163874 0.842840
O O3 0.640975 0.935296 0.174785
O O4 0.000000 0.000000 0.000000
O O5 0.608768 0.242278 0.216072
O O6 0.500000 0.000000 0.500000
O O7 0.296704 0.773659 0.468624
O O8 0.206097 0.988071 0.535083
O O9 0.111589 0.023891 0.269948
O O10 0.204617 0.317704 0.286018
O O11 0.125573 0.338438 0.110080
O O12 0.574280 0.524546 0.187684
O O13 0.277462 0.527227 0.381235
O O14 0.290369 0.852078 0.252324
O O15 0.472064 0.228781 0.957570
#
# Coordination Sequence:
#
# PCOD9103979 Si02
#       7
#     2   2   2   2   2   2   2
#     4  11  19  39  73 101 134 180 224 276 342 394
#     4  12  29  44  66 102 138 175 233 282 332 410
#     4  11  23  44  69  95 137 179 226 274 344 399
#     4  11  23  44  71  97 133 185 222 279 342 398
#     4  11  23  41  65 101 141 170 230 286 325 404
#     4  10  21  38  70 104 133 176 228 277 333 407
#     4  10  20  38  70  98 131 178 229 271 338 405
#
# _framework density 23.772558
#
# number of rings (size 3 to 8) (size 9 to 14) (size 15 to 20)
#    0.000    1.143    4.286    6.000    0.000    7.429 
#    0.000    2.857    0.000    0.000    0.000    0.000 
#    0.000    0.000    0.000    0.000    0.000    0.000 
#
# Total GULP energy -78450.674185 kJ/mol
# GULP energy per Si atom -5603.619585 kJ/mol
# Density = 2.371845 g / cm^3
# Si number density = 23.772558 Si / 1000 Ang^3
#
#
#
# Elastic Constant Matrix: (Units=GPa)
#
#
# Indices 1 2 3 4 5 6 
#
# 1 125.6930 28.9043 33.6910 8.8101 -9.3812 26.3622
# 2 28.9043 112.5894 43.3904 11.1916 -2.0035 11.6179
# 3 33.6910 43.3904 80.4633 2.4647 -7.1336 -1.8627
# 4 8.8101 11.1916 2.4647 36.9611 -0.6081 -12.1795
# 5 -9.3812 -2.0035 -7.1336 -0.6081 36.1516 4.6806
# 6 26.3622 11.6179 -1.8627 -12.1795 4.6806 25.9594
#
#
#
# Elastic Compliance Matrix: (Units=1/GPa)
#
#
# Indices 1 2 3 4 5 6 
#
# 1 0.015859 0.002802 -0.007844 -0.012133 0.005709 -0.024644
# 2 0.002802 0.013822 -0.008549 -0.008901 0.001480 -0.014088
# 3 -0.007844 -0.008549 0.020404 0.008862 -0.000603 0.017523
# 4 -0.012133 -0.008901 0.008862 0.044831 -0.006200 0.039092
# 5 0.005709 0.001480 -0.000603 -0.006200 0.030943 -0.014992
# 6 -0.024644 -0.014088 0.017523 0.039092 -0.014992 0.092155
#
#
# Mechanical properties :
#
#
# Convention : Reuss Voigt Hill
#
# Bulk Modulus (GPa) = 43.66370 58.96857 51.31613
# Shear Modulus (GPa) = 19.77609 33.99841 26.88725
#
# Velocity S-wave (km/s) = 2.88737 3.78584 3.36671
# Velocity P-wave (km/s) = 5.43351 6.63093 6.06186
#
# Compressibility (1/GPa) = 0.02290232
#
# Stress axis : x y z
#
# Youngs Moduli (GPa) = 63.05416 72.34811 49.01114
#
# Poissons Ratio (x) = -0.20274 0.38446
# Poissons Ratio (y) = -0.17669 0.41901
# Poissons Ratio (z) = 0.49462 0.61852
#
# Static dielectric constant tensor:
#      x y z
#    x 1.851590 -0.023850 0.011580 
#    y -0.023850 1.920900 -0.022500 
#    z 0.011580 -0.022500 1.937870 
# 
# From -- ./inp_files/381621.got.cif
#   From: 2010.05.17/outbox.cif.g08.bks.cpg/sg2_191_cif.got.tgz:381621.got - 2010.06.03 11:33:40.
