data_PCOD9103894
_publ_section_title
;
Structure prediction by ZEFSAII (Michael W. Deem and Ramdas Pophale) SiO2 
 PCOD9103894
Probable space group: P -1
;
_chemical_formula_sum "Si O2"
_cell_formula_units_Z 16
_cell_length_a 16.575880
_cell_length_b 21.901912
_cell_length_c 9.837220
_cell_angle_alpha 146.857677
_cell_angle_beta 34.432660
_cell_angle_gamma 152.986485
_cell_volume 840.968157
_symmetry_space_group_name_H-M "P -1"
_symmetry_group_IT_number 2
_symmetry_cell_setting 'triclinic'
loop_
_space_group_symop_operation_xyz
x,y,z
-x,-y,-z
loop_
_atom_site_type_symbol
_atom_site_label
_atom_site_fract_x
_atom_site_fract_y
_atom_site_fract_z
Si Si1 0.023304 0.559840 0.728603
Si Si2 0.798260 0.940759 0.720280
Si Si3 0.252206 0.115499 0.996413
Si Si4 0.716304 0.100682 0.933464
Si Si5 0.491152 0.599980 0.502515
Si Si6 0.916973 0.554385 0.313983
Si Si7 0.054971 0.856605 0.570773
Si Si8 0.605225 0.423783 0.089683
O O1 0.046329 0.468769 0.629347
O O2 0.000000 0.500000 0.500000
O O3 0.189336 0.733353 0.846158
O O4 0.825614 0.518079 0.957123
O O5 0.783413 0.944466 0.911805
O O6 0.653106 0.769784 0.563119
O O7 0.742739 0.026318 0.880733
O O8 0.000000 0.000000 0.500000
O O9 0.469800 0.252426 0.920102
O O10 0.135849 0.172883 0.253376
O O11 0.170731 0.991699 0.766074
O O12 0.833600 0.112248 0.663947
O O13 0.500000 0.000000 0.000000
O O14 0.303336 0.539947 0.576700
O O15 0.553832 0.504156 0.218695
O O16 0.448089 0.585291 0.695779
O O17 0.010925 0.717641 0.444964
O O18 0.000000 0.500000 0.000000
#
# Coordination Sequence:
#
# PCOD9103894 Si02
#       8
#     2   2   2   2   2   2   2   2
#     4  12  28  44  64  97 138 171 214 279 336 384
#     4  11  22  39  65  95 129 168 214 263 331 386
#     4  10  23  41  68  99 129 171 223 279 318 388
#     4  12  26  44  64  93 139 178 212 265 337 400
#     4  10  20  38  69  95 120 171 225 260 319 394
#     4  12  22  43  67  94 125 173 220 260 324 395
#     4  11  23  43  67  96 131 173 222 275 324 388
#     4  10  20  41  67  94 129 166 222 275 320 378
#
# _framework density 19.025690000000001
#
# number of rings (size 3 to 8) (size 9 to 14) (size 15 to 20)
#    0.000    1.000    5.000    1.500    5.250    0.000 
#    0.000    1.875    0.000    0.000    0.000    0.000 
#    0.000    0.000    0.000    0.000    0.000    0.000 
#
# Total GULP energy -89392.411049 kJ/mol
# GULP energy per Si atom -5587.025691 kJ/mol
# Density = 1.898239 g / cm^3
# Si number density = 19.025690 Si / 1000 Ang^3
#
#
#
# Elastic Constant Matrix: (Units=GPa)
#
#
# Indices 1 2 3 4 5 6 
#
# 1 139.7208 49.5932 33.1493 12.0636 -12.6321 -14.8708
# 2 49.5932 114.6267 38.7690 8.5631 -6.8574 0.8724
# 3 33.1493 38.7690 49.0520 20.2150 -3.8586 -5.9819
# 4 12.0636 8.5631 20.2150 16.0027 3.6826 -9.1153
# 5 -12.6321 -6.8574 -3.8586 3.6826 36.4800 -2.0134
# 6 -14.8708 0.8724 -5.9819 -9.1153 -2.0134 46.6535
#
#
#
# Elastic Compliance Matrix: (Units=1/GPa)
#
#
# Indices 1 2 3 4 5 6 
#
# 1 0.009535 -0.002725 -0.003738 -0.000050 0.002549 0.002711
# 2 -0.002725 0.013809 -0.014682 0.013230 -0.001263 -0.000479
# 3 -0.003738 -0.014682 0.068723 -0.083198 0.011179 -0.007878
# 4 -0.000050 0.013230 -0.083198 0.178993 -0.023128 0.023043
# 5 0.002549 -0.001263 0.011179 -0.023128 0.031525 -0.000889
# 6 0.002711 -0.000479 -0.007878 0.023043 -0.000889 0.025761
#
#
# Mechanical properties :
#
#
# Convention : Reuss Voigt Hill
#
# Bulk Modulus (GPa) = 20.09041 60.71362 40.40201
# Shear Modulus (GPa) = 12.91229 31.95312 22.43270
#
# Velocity S-wave (km/s) = 2.60797 4.10258 3.43749
# Velocity P-wave (km/s) = 4.43297 7.37714 6.08578
#
# Compressibility (1/GPa) = 0.04977500
#
# Stress axis : x y z
#
# Youngs Moduli (GPa) = 104.88162 72.41833 14.55125
#
# Poissons Ratio (x) = 0.19737 0.05439
# Poissons Ratio (y) = 0.28584 0.21365
# Poissons Ratio (z) = 0.39203 1.06326
#
# Static dielectric constant tensor:
#      x y z
#    x 1.661390 0.013190 -0.009550 
#    y 0.013190 1.665020 -0.013910 
#    z -0.009550 -0.013910 1.696850 
# 
# From -- ./inp_files/318147.got.cif
#   From: 2010.05.17/outbox.cif.g08.bks.cpg/sg2_160_cif.got.tgz:318147.got - 2010.06.03 11:33:40.
