data_PCOD9103222
_publ_section_title
;
Structure prediction by ZEFSAII (Michael W. Deem and Ramdas Pophale) SiO2 
 PCOD9103222
Probable space group: P -1
;
_chemical_formula_sum "Si O2"
_cell_formula_units_Z 16
_cell_length_a 22.916776
_cell_length_b 13.375287
_cell_length_c 7.914025
_cell_angle_alpha 38.372349
_cell_angle_beta 36.884191
_cell_angle_gamma 27.413396
_cell_volume 645.879805
_symmetry_space_group_name_H-M "P -1"
_symmetry_group_IT_number 2
_symmetry_cell_setting 'triclinic'
loop_
_space_group_symop_operation_xyz
x,y,z
-x,-y,-z
loop_
_atom_site_type_symbol
_atom_site_label
_atom_site_fract_x
_atom_site_fract_y
_atom_site_fract_z
Si Si1 0.103395 0.599708 0.140000
Si Si2 0.095539 0.551542 0.854652
Si Si3 0.223627 0.065197 0.213122
Si Si4 0.200113 0.120119 0.563593
Si Si5 0.391784 0.970679 0.618030
Si Si6 0.727082 0.541979 0.753407
Si Si7 0.119456 0.970711 0.336390
Si Si8 0.611186 0.495565 0.812283
O O1 0.138651 0.371347 0.398852
O O2 0.185895 0.594269 0.101157
O O3 0.940605 0.817835 0.219614
O O4 0.153049 0.558940 0.886146
O O5 0.168985 0.532198 0.542957
O O6 0.115256 0.338255 0.102356
O O7 0.938294 0.786475 0.907178
O O8 0.276994 0.009583 0.353426
O O9 0.153763 0.976822 0.441637
O O10 0.329690 0.985539 0.923485
O O11 0.309323 0.978219 0.648155
O O12 0.549168 0.736265 0.567592
O O13 0.364990 0.191399 0.365317
O O14 0.638610 0.498745 0.941698
O O15 0.251609 0.738443 0.263911
O O16 0.000000 0.000000 0.500000
O O17 0.500000 0.500000 0.000000
#
# Coordination Sequence:
#
# PCOD9103222 Si02
#       8
#     2   2   2   2   2   2   2   2
#     4   9  18  33  60  98 126 152 209 268 311 364
#     4  10  20  38  66  95 121 158 208 264 317 360
#     4  10  20  38  65  93 122 163 207 259 316 365
#     4   9  18  33  60  97 126 156 207 264 311 368
#     4  10  21  41  66  91 126 169 210 253 315 381
#     4  10  21  41  67  93 123 164 213 264 310 368
#     4  12  23  39  63  94 128 167 212 262 310 371
#     4  12  25  43  63  91 132 174 210 251 316 384
#
# _framework density 24.772411999999999
#
# number of rings (size 3 to 8) (size 9 to 14) (size 15 to 20)
#    0.000    1.750    2.500    2.250    0.000    4.000 
#    0.000    3.750    0.000    6.000    0.000    0.000 
#    0.000    0.000    0.000    0.000    0.000    0.000 
#
# Total GULP energy -89333.737811 kJ/mol
# GULP energy per Si atom -5583.358613 kJ/mol
# Density = 2.471603 g / cm^3
# Si number density = 24.772412 Si / 1000 Ang^3
#
#
#
# Elastic Constant Matrix: (Units=GPa)
#
#
# Indices 1 2 3 4 5 6 
#
# 1 243.8133 65.2453 34.4705 6.4242 6.8447 11.2814
# 2 65.2453 163.6178 21.3465 3.7499 9.4153 -12.8071
# 3 34.4705 21.3465 46.5119 -0.7219 6.5040 5.2186
# 4 6.4242 3.7499 -0.7219 19.0748 0.0281 -5.1482
# 5 6.8447 9.4153 6.5040 0.0281 42.8146 -0.0289
# 6 11.2814 -12.8071 5.2186 -5.1482 -0.0289 40.4615
#
#
#
# Elastic Compliance Matrix: (Units=1/GPa)
#
#
# Indices 1 2 3 4 5 6 
#
# 1 0.005111 -0.001775 -0.002793 -0.001985 -0.000002 -0.001879
# 2 -0.001775 0.007425 -0.002305 -0.000103 -0.000997 0.003129
# 3 -0.002793 -0.002305 0.025398 0.001541 -0.002908 -0.003033
# 4 -0.001985 -0.000103 0.001541 0.055153 0.000075 0.007340
# 5 -0.000002 -0.000997 -0.002908 0.000075 0.024018 0.000087
# 6 -0.001879 0.003129 -0.003033 0.007340 0.000087 0.027554
#
#
# Mechanical properties :
#
#
# Convention : Reuss Voigt Hill
#
# Bulk Modulus (GPa) = 41.34284 77.34082 59.34183
# Shear Modulus (GPa) = 30.03580 42.66222 36.34901
#
# Velocity S-wave (km/s) = 3.48583 4.15440 3.83471
# Velocity P-wave (km/s) = 5.73818 7.36888 6.60405
#
# Compressibility (1/GPa) = 0.02418799
#
# Stress axis : x y z
#
# Youngs Moduli (GPa) = 195.66969 134.67942 39.37261
#
# Poissons Ratio (x) = 0.23907 0.10995
# Poissons Ratio (y) = 0.34733 0.09077
# Poissons Ratio (z) = 0.54641 0.31049
#
# Static dielectric constant tensor:
#      x y z
#    x 2.041920 0.011930 -0.025810 
#    y 0.011930 1.957130 0.002250 
#    z -0.025810 0.002250 2.111770 
# 
# From -- ./inp_files/345943.got.cif
#   From: 2010.05.17/outbox.cif.g08.bks.cpg/sg2_173_cif.got.tgz:345943.got - 2010.06.03 11:33:40.
