data_PCOD9103382
_publ_section_title
;
Structure prediction by ZEFSAII (Michael W. Deem and Ramdas Pophale) SiO2 
 PCOD9103382
Probable space group: P -1
;
_chemical_formula_sum "Si O2"
_cell_formula_units_Z 14
_cell_length_a 11.801222
_cell_length_b 9.154291
_cell_length_c 14.758910
_cell_angle_alpha 151.708382
_cell_angle_beta 49.057045
_cell_angle_gamma 121.309272
_cell_volume 563.447253
_symmetry_space_group_name_H-M "P -1"
_symmetry_group_IT_number 2
_symmetry_cell_setting 'triclinic'
loop_
_space_group_symop_operation_xyz
x,y,z
-x,-y,-z
loop_
_atom_site_type_symbol
_atom_site_label
_atom_site_fract_x
_atom_site_fract_y
_atom_site_fract_z
Si Si1 0.604984 0.573305 0.225502
Si Si2 0.093481 0.736699 0.032158
Si Si3 0.174209 0.230075 0.163346
Si Si4 0.240054 0.938849 0.300723
Si Si5 0.489657 0.733663 0.719047
Si Si6 0.658625 0.203562 0.625439
Si Si7 0.984140 0.498859 0.777858
O O1 0.501823 0.479856 0.311404
O O2 0.510780 0.611935 0.203778
O O3 0.662744 0.899178 0.395005
O O4 0.751756 0.318999 0.022919
O O5 0.071066 0.105616 0.226840
O O6 0.000000 0.500000 0.000000
O O7 0.085452 0.619523 0.868561
O O8 0.227935 0.561737 0.331945
O O9 0.084845 0.265884 0.135021
O O10 0.331026 0.977942 0.934967
O O11 0.374443 0.064937 0.245360
O O12 0.094247 0.210896 0.517798
O O13 0.305919 0.912279 0.355076
O O14 0.159749 0.628771 0.171041
O O15 0.500000 0.500000 0.500000
#
# Coordination Sequence:
#
# PCOD9103382 Si02
#       7
#     2   2   2   2   2   2   2
#     4  10  22  40  62  84 128 156 196 259 301 356
#     4  11  23  40  59  87 123 161 197 248 305 362
#     4  10  24  40  65  88 122 158 207 253 290 367
#     4  10  20  38  66  87 123 158 199 251 295 362
#     4  11  21  39  61  92 121 158 204 248 303 350
#     4  10  20  41  62  87 120 160 200 248 307 343
#     4  10  21  41  60  90 124 159 199 245 303 354
#
# _framework density 24.847044
#
# number of rings (size 3 to 8) (size 9 to 14) (size 15 to 20)
#    0.000    1.714    2.857    1.286    0.000    8.000 
#    5.143    0.714    0.000    0.000    0.000    0.000 
#    0.000    0.000    0.000    0.000    0.000    0.000 
#
# Total GULP energy -78172.628820 kJ/mol
# GULP energy per Si atom -5583.759201 kJ/mol
# Density = 2.479049 g / cm^3
# Si number density = 24.847044 Si / 1000 Ang^3
#
#
#
# Elastic Constant Matrix: (Units=GPa)
#
#
# Indices 1 2 3 4 5 6 
#
# 1 138.0815 45.2995 19.7440 5.2684 -9.1197 6.6358
# 2 45.2995 197.4112 44.9414 32.6595 -8.6224 21.7928
# 3 19.7440 44.9414 55.0145 16.9548 -8.9651 -2.1559
# 4 5.2684 32.6595 16.9548 35.9140 7.8256 -0.9764
# 5 -9.1197 -8.6224 -8.9651 7.8256 36.9418 16.6303
# 6 6.6358 21.7928 -2.1559 -0.9764 16.6303 45.4449
#
#
#
# Elastic Compliance Matrix: (Units=1/GPa)
#
#
# Indices 1 2 3 4 5 6 
#
# 1 0.008080 -0.001314 -0.001713 0.000401 0.001757 -0.001265
# 2 -0.001314 0.008125 -0.003558 -0.006699 0.004712 -0.005742
# 3 -0.001713 -0.003558 0.026060 -0.010351 0.007095 0.000374
# 4 0.000401 -0.006699 -0.010351 0.042864 -0.017563 0.010011
# 5 0.001757 0.004712 0.007095 -0.017563 0.042139 -0.017977
# 6 -0.001265 -0.005742 0.000374 0.010011 -0.017977 0.031754
#
#
# Mechanical properties :
#
#
# Convention : Reuss Voigt Hill
#
# Bulk Modulus (GPa) = 34.37220 67.83077 51.10148
# Shear Modulus (GPa) = 27.48915 42.36164 34.92539
#
# Velocity S-wave (km/s) = 3.32977 4.13352 3.75322
# Velocity P-wave (km/s) = 5.35226 7.08095 6.27641
#
# Compressibility (1/GPa) = 0.02909328
#
# Stress axis : x y z
#
# Youngs Moduli (GPa) = 123.76765 123.07499 38.37341
#
# Poissons Ratio (x) = 0.16172 0.06575
# Poissons Ratio (y) = 0.16263 0.13654
# Poissons Ratio (z) = 0.21205 0.43794
#
# Static dielectric constant tensor:
#      x y z
#    x 1.929200 0.022010 0.006860 
#    y 0.022010 2.043060 -0.087130 
#    z 0.006860 -0.087130 2.116180 
# 
# From -- ./inp_files/185421.got.cif
#   From: 2010.05.17/outbox.cif.g08.bks.cpg/sg2_93_cif.got.tgz:185421.got - 2010.06.03 11:33:40.
