data_PCOD9103878
_publ_section_title
;
Structure prediction by ZEFSAII (Michael W. Deem and Ramdas Pophale) SiO2 
 PCOD9103878
Probable space group: P -1
;
_chemical_formula_sum "Si O2"
_cell_formula_units_Z 16
_cell_length_a 8.781998
_cell_length_b 19.417137
_cell_length_c 9.883054
_cell_angle_alpha 25.045033
_cell_angle_beta 92.429005
_cell_angle_gamma 92.569918
_cell_volume 712.702781
_symmetry_space_group_name_H-M "P -1"
_symmetry_group_IT_number 2
_symmetry_cell_setting 'triclinic'
loop_
_space_group_symop_operation_xyz
x,y,z
-x,-y,-z
loop_
_atom_site_type_symbol
_atom_site_label
_atom_site_fract_x
_atom_site_fract_y
_atom_site_fract_z
Si Si1 0.153584 0.891200 0.344772
Si Si2 0.617195 0.413488 0.757684
Si Si3 0.620957 0.083515 0.194376
Si Si4 0.085964 0.373907 0.633444
Si Si5 0.415660 0.451103 0.219947
Si Si6 0.264433 0.064247 0.282672
Si Si7 0.894181 0.748577 0.423363
Si Si8 0.607602 0.146809 0.791639
O O1 0.283988 0.807971 0.409305
O O2 0.000183 0.795533 0.469725
O O3 0.187764 0.915196 0.461063
O O4 0.155024 0.075577 0.953071
O O5 0.500000 0.500000 0.500000
O O6 0.758834 0.533553 0.561843
O O7 0.567100 0.403087 0.930179
O O8 0.660336 0.248197 0.982545
O O9 0.435057 0.077059 0.199191
O O10 0.693843 0.951448 0.530424
O O11 0.684278 0.086521 0.040262
O O12 0.015622 0.328004 0.565856
O O13 0.000000 0.500000 0.500000
O O14 0.147376 0.211026 0.996820
O O15 0.247168 0.371142 0.332406
O O16 0.509331 0.301364 0.552874
O O17 0.500000 0.500000 0.000000
O O18 0.500000 0.000000 0.000000
#
# Coordination Sequence:
#
# PCOD9103878 Si02
#       8
#     2   2   2   2   2   2   2   2
#     4  10  20  38  69  91 126 167 218 267 325 385
#     4  11  21  41  64  89 131 172 211 265 329 386
#     4  11  22  38  66  94 134 166 219 275 324 383
#     4  10  21  39  66  95 130 172 217 259 330 403
#     4  11  24  40  65  98 130 164 222 274 326 393
#     4  10  21  39  64  98 125 171 217 275 323 378
#     4   9  20  41  64  91 128 172 209 270 333 382
#     4  12  21  38  65  97 123 172 225 267 320 391
#
# _framework density 22.449750000000002
#
# number of rings (size 3 to 8) (size 9 to 14) (size 15 to 20)
#    0.000    1.500    5.000    0.750    3.500    0.000 
#    0.000    1.250    2.750    0.000    0.000    0.000 
#    0.000    0.000    0.000    0.000    0.000    0.000 
#
# Total GULP energy -89298.053019 kJ/mol
# GULP energy per Si atom -5581.128314 kJ/mol
# Density = 2.239865 g / cm^3
# Si number density = 22.449750 Si / 1000 Ang^3
#
#
#
# Elastic Constant Matrix: (Units=GPa)
#
#
# Indices 1 2 3 4 5 6 
#
# 1 54.9498 34.9346 17.8428 7.5955 0.8178 10.7730
# 2 34.9346 154.5480 33.7929 9.9471 3.6216 8.8984
# 3 17.8428 33.7929 39.9802 10.2029 2.4956 3.7681
# 4 7.5955 9.9471 10.2029 36.3045 -2.6004 -0.0334
# 5 0.8178 3.6216 2.4956 -2.6004 27.3051 -7.7972
# 6 10.7730 8.8984 3.7681 -0.0334 -7.7972 36.3341
#
#
#
# Elastic Compliance Matrix: (Units=1/GPa)
#
#
# Indices 1 2 3 4 5 6 
#
# 1 0.024044 -0.003476 -0.006531 -0.002361 -0.001584 -0.005943
# 2 -0.003476 0.008524 -0.005521 -0.000108 -0.000714 -0.000638
# 3 -0.006531 -0.005521 0.034702 -0.007104 -0.003207 -0.001005
# 4 -0.002361 -0.000108 -0.007104 0.030377 0.004318 0.002418
# 5 -0.001584 -0.000714 -0.003207 0.004318 0.040214 0.009611
# 6 -0.005943 -0.000638 -0.001005 0.002418 0.009611 0.031610
#
#
# Mechanical properties :
#
#
# Convention : Reuss Voigt Hill
#
# Bulk Modulus (GPa) = 27.61404 46.95763 37.28584
# Shear Modulus (GPa) = 23.51869 30.84924 27.18396
#
# Velocity S-wave (km/s) = 3.24020 3.71097 3.48355
# Velocity P-wave (km/s) = 5.13085 6.27088 5.72929
#
# Compressibility (1/GPa) = 0.03621346
#
# Stress axis : x y z
#
# Youngs Moduli (GPa) = 41.59071 117.31856 28.81697
#
# Poissons Ratio (x) = 0.40775 0.18821
# Poissons Ratio (y) = 0.14455 0.15910
# Poissons Ratio (z) = 0.27164 0.64774
#
# Static dielectric constant tensor:
#      x y z
#    x 1.856770 -0.041250 0.015750 
#    y -0.041250 1.907100 0.053150 
#    z 0.015750 0.053150 1.939020 
# 
# From -- ./inp_files/216353.got.cif
#   From: 2010.05.17/outbox.cif.g08.bks.cpg/sg2_109_cif.got.tgz:216353.got - 2010.06.03 11:33:40.
