data_PCOD9103561
_publ_section_title
;
Structure prediction by ZEFSAII (Michael W. Deem and Ramdas Pophale) SiO2 
 PCOD9103561
Probable space group: P -1
;
_chemical_formula_sum "Si O2"
_cell_formula_units_Z 14
_cell_length_a 11.691193
_cell_length_b 9.287882
_cell_length_c 9.124957
_cell_angle_alpha 57.537327
_cell_angle_beta 122.922878
_cell_angle_gamma 133.223996
_cell_volume 583.722300
_symmetry_space_group_name_H-M "P -1"
_symmetry_group_IT_number 2
_symmetry_cell_setting 'triclinic'
loop_
_space_group_symop_operation_xyz
x,y,z
-x,-y,-z
loop_
_atom_site_type_symbol
_atom_site_label
_atom_site_fract_x
_atom_site_fract_y
_atom_site_fract_z
Si Si1 0.062948 0.837798 0.794024
Si Si2 0.940417 0.287851 0.651502
Si Si3 0.689088 0.868126 0.595227
Si Si4 0.343066 0.706613 0.398726
Si Si5 0.778351 0.734629 0.440331
Si Si6 0.345168 0.766043 0.028999
Si Si7 0.800979 0.647088 0.978512
O O1 0.943414 0.778556 0.605896
O O2 0.176486 0.085483 0.739553
O O3 0.181615 0.762474 0.896681
O O4 0.943036 0.733193 0.904944
O O5 0.794576 0.253000 0.675876
O O6 0.000000 0.500000 0.500000
O O7 0.091544 0.301238 0.829796
O O8 0.849798 0.095880 0.585015
O O9 0.528629 0.872191 0.482723
O O10 0.686042 0.757542 0.502462
O O11 0.710538 0.758754 0.809786
O O12 0.309696 0.493996 0.555275
O O13 0.340011 0.688036 0.231468
O O14 0.327855 0.596601 0.998497
O O15 0.500000 0.000000 0.000000
#
# Coordination Sequence:
#
# PCOD9103561 Si02
#       7
#     2   2   2   2   2   2   2
#     4  10  20  38  66  99 133 170 223 273 340 390
#     4  12  29  46  69  95 138 189 232 268 333 412
#     4  11  25  45  68  99 140 178 218 280 341 402
#     4  12  24  46  70 102 140 172 221 288 345 390
#     4  10  22  38  76 101 131 170 231 282 340 398
#     4  12  24  38  71 106 137 169 226 289 341 392
#     4  11  24  46  68  95 135 182 227 275 331 405
#
# _framework density 23.984009
#
# number of rings (size 3 to 8) (size 9 to 14) (size 15 to 20)
#    0.000    0.857    4.286    3.429   12.000    0.000 
#    0.000    0.714    0.000    0.000    0.000    0.000 
#    0.000    0.000    0.000    0.000    0.000    0.000 
#
# Total GULP energy -78373.386829 kJ/mol
# GULP energy per Si atom -5598.099059 kJ/mol
# Density = 2.392942 g / cm^3
# Si number density = 23.984009 Si / 1000 Ang^3
#
#
#
# Elastic Constant Matrix: (Units=GPa)
#
#
# Indices 1 2 3 4 5 6 
#
# 1 65.2343 4.4204 23.3402 18.5245 16.0136 -2.3221
# 2 4.4204 59.2672 9.4364 -12.6291 -7.1835 4.7925
# 3 23.3402 9.4364 72.2983 -0.3284 22.4538 8.8375
# 4 18.5245 -12.6291 -0.3284 35.5975 6.5469 3.2679
# 5 16.0136 -7.1835 22.4538 6.5469 35.6501 -1.1486
# 6 -2.3221 4.7925 8.8375 3.2679 -1.1486 26.5837
#
#
#
# Elastic Compliance Matrix: (Units=1/GPa)
#
#
# Indices 1 2 3 4 5 6 
#
# 1 0.023072 -0.004684 -0.006211 -0.013442 -0.004722 0.006373
# 2 -0.004684 0.020606 -0.002511 0.008991 0.006054 -0.004133
# 3 -0.006211 -0.002511 0.020999 0.005544 -0.012227 -0.008280
# 4 -0.013442 0.008991 0.005544 0.039816 -0.003266 -0.009674
# 5 -0.004722 0.006054 -0.012227 -0.003266 0.039843 0.004684
# 6 0.006373 -0.004133 -0.008280 -0.009674 0.004684 0.043063
#
#
# Mechanical properties :
#
#
# Convention : Reuss Voigt Hill
#
# Bulk Modulus (GPa) = 26.40963 30.13264 28.27114
# Shear Modulus (GPa) = 22.04268 30.20644 26.12456
#
# Velocity S-wave (km/s) = 3.03488 3.55271 3.30396
# Velocity P-wave (km/s) = 4.82866 5.42401 5.13497
#
# Compressibility (1/GPa) = 0.03786497
#
# Stress axis : x y z
#
# Youngs Moduli (GPa) = 43.34266 48.53030 47.62112
#
# Poissons Ratio (x) = 0.22731 0.29575
# Poissons Ratio (y) = 0.20302 0.11959
# Poissons Ratio (z) = 0.26918 0.12188
#
# Static dielectric constant tensor:
#      x y z
#    x 1.965460 0.013870 -0.041610 
#    y 0.013870 2.019050 -0.023060 
#    z -0.041610 -0.023060 1.879610 
# 
# From -- ./inp_files/158195.got.cif
#   From: 2010.05.17/outbox.cif.g08.bks.cpg/sg2_80_cif.got.tgz:158195.got - 2010.06.03 11:33:40.
