data_PCOD9103125
_publ_section_title
;
Structure prediction by ZEFSAII (Michael W. Deem and Ramdas Pophale) SiO2 
 PCOD9103125
Probable space group: P -1
;
_chemical_formula_sum "Si O2"
_cell_formula_units_Z 15
_cell_length_a 7.749760
_cell_length_b 12.841944
_cell_length_c 9.275033
_cell_angle_alpha 115.587217
_cell_angle_beta 134.250882
_cell_angle_gamma 71.203244
_cell_volume 596.032969
_symmetry_space_group_name_H-M "P -1"
_symmetry_group_IT_number 2
_symmetry_cell_setting 'triclinic'
loop_
_space_group_symop_operation_xyz
x,y,z
-x,-y,-z
loop_
_atom_site_type_symbol
_atom_site_label
_atom_site_fract_x
_atom_site_fract_y
_atom_site_fract_z
Si Si1 0.656309 0.935829 0.176334
Si Si2 0.134474 0.712370 0.088736
Si Si3 0.920318 0.629277 0.482170
Si Si4 0.304540 0.768705 0.942298
Si Si5 0.000000 0.000000 0.000000
Si Si6 0.196593 0.951099 0.385476
Si Si7 0.152352 0.596207 0.320827
Si Si8 0.328615 0.337239 0.354055
O O1 0.928248 0.939303 0.285263
O O2 0.650605 0.996673 0.366085
O O3 0.560471 0.807522 0.060703
O O4 0.500000 0.000000 0.000000
O O5 0.258711 0.820824 0.298194
O O6 0.108068 0.619014 0.140853
O O7 0.289201 0.683271 0.019277
O O8 0.864622 0.744298 0.885206
O O9 0.138913 0.712331 0.694505
O O10 0.926638 0.627848 0.311717
O O11 0.000000 0.500000 0.500000
O O12 0.713911 0.666254 0.499281
O O13 0.177481 0.889570 0.991716
O O14 0.839883 0.980866 0.744023
O O15 0.233731 0.465233 0.326868
O O16 0.394133 0.670006 0.533869
#
# Coordination Sequence:
#
# PCOD9103125 Si02
#       8
#     2   2   2   2   1   2   2   2
#     4  11  23  42  62  88 125 167 217 264 319 390
#     4  10  22  38  57  92 120 159 209 264 319 381
#     4   9  20  39  64  94 125 160 211 262 315 383
#     4  10  22  41  62  89 128 169 208 267 326 379
#     4  10  20  42  62  92 126 172 212 266 320 386
#     4  10  24  40  60  92 124 160 219 266 320 382
#     4  10  20  38  65  88 122 169 209 256 326 381
#     4   9  20  40  60  90 126 162 208 263 317 386
#
# _framework density 25.166391000000001
#
# number of rings (size 3 to 8) (size 9 to 14) (size 15 to 20)
#    0.000    2.133    1.333    0.400    3.733    2.133 
#   12.000    0.000    0.000    8.800    0.000    0.000 
#    0.000    0.000    0.000    0.000    0.000    0.000 
#
# Total GULP energy -83502.932467 kJ/mol
# GULP energy per Si atom -5566.862164 kJ/mol
# Density = 2.510911 g / cm^3
# Si number density = 25.166391 Si / 1000 Ang^3
#
#
#
# Elastic Constant Matrix: (Units=GPa)
#
#
# Indices 1 2 3 4 5 6 
#
# 1 132.0224 23.1931 18.2168 -16.4026 -6.8882 22.8669
# 2 23.1931 44.5859 31.7391 -15.5431 0.0250 7.8147
# 3 18.2168 31.7391 87.6676 -8.4234 -6.0587 11.5671
# 4 -16.4026 -15.5431 -8.4234 45.6095 18.1512 -7.7719
# 5 -6.8882 0.0250 -6.0587 18.1512 42.1370 -1.0445
# 6 22.8669 7.8147 11.5671 -7.7719 -1.0445 32.6983
#
#
#
# Elastic Compliance Matrix: (Units=1/GPa)
#
#
# Indices 1 2 3 4 5 6 
#
# 1 0.009307 -0.003877 0.000341 0.000700 0.001135 -0.005500
# 2 -0.003877 0.037200 -0.012118 0.012217 -0.007642 0.000767
# 3 0.000341 -0.012118 0.016162 -0.003093 0.003628 -0.003679
# 4 0.000700 0.012217 -0.003093 0.032211 -0.014092 0.004891
# 5 0.001135 -0.007642 0.003628 -0.014092 0.030449 -0.002627
# 6 -0.005500 0.000767 -0.003679 0.004891 -0.002627 0.036626
#
#
# Mechanical properties :
#
#
# Convention : Reuss Voigt Hill
#
# Bulk Modulus (GPa) = 31.88540 45.61933 38.75236
# Shear Modulus (GPa) = 24.54389 36.83076 30.68732
#
# Velocity S-wave (km/s) = 3.12631 3.82971 3.49575
# Velocity P-wave (km/s) = 5.07239 6.14182 5.63254
#
# Compressibility (1/GPa) = 0.03136232
#
# Stress axis : x y z
#
# Youngs Moduli (GPa) = 107.44183 26.88136 61.87365
#
# Poissons Ratio (x) = 0.10421 -0.02110
# Poissons Ratio (y) = 0.41653 0.74978
# Poissons Ratio (z) = -0.03663 0.32575
#
# Static dielectric constant tensor:
#      x y z
#    x 2.249800 0.042190 0.051310 
#    y 0.042190 2.002190 -0.002420 
#    z 0.051310 -0.002420 2.016610 
# 
# From -- ./inp_files/203454.got.cif
#   From: 2010.05.17/outbox.cif.g08.bks.cpg/sg2_102_cif.got.tgz:203454.got - 2010.06.03 11:33:40.
