data_PCOD9103082
_publ_section_title
;
Structure prediction by ZEFSAII (Michael W. Deem and Ramdas Pophale) SiO2 
 PCOD9103082
Probable space group: P -1
;
_chemical_formula_sum "Si O2"
_cell_formula_units_Z 16
_cell_length_a 10.091352
_cell_length_b 5.300891
_cell_length_c 12.128687
_cell_angle_alpha 82.221777
_cell_angle_beta 86.132480
_cell_angle_gamma 109.500199
_cell_volume 601.537649
_symmetry_space_group_name_H-M "P -1"
_symmetry_group_IT_number 2
_symmetry_cell_setting 'triclinic'
loop_
_space_group_symop_operation_xyz
x,y,z
-x,-y,-z
loop_
_atom_site_type_symbol
_atom_site_label
_atom_site_fract_x
_atom_site_fract_y
_atom_site_fract_z
Si Si1 0.255408 0.757461 0.263353
Si Si2 0.231725 0.187667 0.552881
Si Si3 0.617399 0.699936 0.663275
Si Si4 0.837628 0.668053 0.216239
Si Si5 0.010800 0.326011 0.407386
Si Si6 0.228048 0.755482 0.027610
Si Si7 0.421782 0.574708 0.892994
Si Si8 0.015010 0.739371 0.872031
O O1 0.351686 0.577693 0.297448
O O2 0.098701 0.535109 0.298373
O O3 0.282825 0.884713 0.133335
O O4 0.273657 0.001013 0.329779
O O5 0.378796 0.267119 0.472979
O O6 0.227703 0.357944 0.653391
O O7 0.125948 0.212714 0.460128
O O8 0.143245 0.875544 0.605545
O O9 0.503338 0.681788 0.767315
O O10 0.714408 0.665669 0.136339
O O11 0.895794 0.440073 0.176343
O O12 0.958645 0.967127 0.199018
O O13 0.000000 0.500000 0.500000
O O14 0.148270 0.436204 0.085840
O O15 0.354165 0.784605 0.936081
O O16 0.096103 0.812546 0.980275
O O17 0.500000 0.500000 0.000000
#
# Coordination Sequence:
#
# PCOD9103082 Si02
#       8
#     2   2   2   2   2   2   2   2
#     4  11  23  38  67  98 134 175 222 283 338 404
#     4  10  23  40  66 101 141 178 224 284 344 413
#     4  11  25  42  64  99 130 180 232 272 335 399
#     4  11  26  45  71 103 140 180 227 289 349 413
#     4  10  20  38  65 100 135 177 221 280 344 410
#     4  10  23  42  70  97 139 176 225 292 341 414
#     4  11  25  48  71  99 137 190 240 286 333 412
#     4  10  25  43  67 106 133 175 226 283 364 407
#
# _framework density 26.598503000000001
#
# number of rings (size 3 to 8) (size 9 to 14) (size 15 to 20)
#    0.000    1.500    2.500    0.750    5.250    8.500 
#    0.000    0.000    0.000    6.000    0.000    0.000 
#    0.000    0.000    0.000    0.000    0.000    0.000 
#
# Total GULP energy -89181.825178 kJ/mol
# GULP energy per Si atom -5573.864074 kJ/mol
# Density = 2.653796 g / cm^3
# Si number density = 26.598503 Si / 1000 Ang^3
#
#
#
# Elastic Constant Matrix: (Units=GPa)
#
#
# Indices 1 2 3 4 5 6 
#
# 1 58.6939 30.5117 36.9997 12.4028 -15.5011 -2.2884
# 2 30.5117 101.9503 33.6206 13.5854 -10.2092 -6.7577
# 3 36.9997 33.6206 183.5433 11.6013 -49.7768 -6.6383
# 4 12.4028 13.5854 11.6013 41.1624 -3.5386 -6.9402
# 5 -15.5011 -10.2092 -49.7768 -3.5386 54.7854 7.2539
# 6 -2.2884 -6.7577 -6.6383 -6.9402 7.2539 41.8507
#
#
#
# Elastic Compliance Matrix: (Units=1/GPa)
#
#
# Indices 1 2 3 4 5 6 
#
# 1 0.023118 -0.005234 -0.002640 -0.004445 0.003048 -0.001265
# 2 -0.005234 0.012031 -0.001134 -0.001910 -0.000559 0.001257
# 3 -0.002640 -0.001134 0.007901 -0.000564 0.006216 -0.000245
# 4 -0.004445 -0.001910 -0.000564 0.027019 -0.000910 0.003997
# 5 0.003048 -0.000559 0.006216 -0.000910 0.025055 -0.003431
# 6 -0.001265 0.001257 -0.000245 0.003997 -0.003431 0.025247
#
#
# Mechanical properties :
#
#
# Convention : Reuss Voigt Hill
#
# Bulk Modulus (GPa) = 39.94706 60.71683 50.33195
# Shear Modulus (GPa) = 34.07611 43.76339 38.91975
#
# Velocity S-wave (km/s) = 3.58317 4.06067 3.82937
# Velocity P-wave (km/s) = 5.67186 6.69792 6.20613
#
# Compressibility (1/GPa) = 0.02503313
#
# Stress axis : x y z
#
# Youngs Moduli (GPa) = 43.25718 83.11792 126.56956
#
# Poissons Ratio (x) = 0.43508 0.33409
# Poissons Ratio (y) = 0.22643 0.14354
# Poissons Ratio (z) = 0.11418 0.09426
#
# Static dielectric constant tensor:
#      x y z
#    x 2.200790 -0.164290 -0.060500 
#    y -0.164290 1.344420 -0.442090 
#    z -0.060500 -0.442090 2.158700 
# 
# From -- ./inp_files/410518.got.cif
#   From: 2010.05.17/outbox.cif.g08.bks.cpg/sg2_206_cif.got.tgz:410518.got - 2010.06.03 11:33:40.
