data_PCOD9103185
_publ_section_title
;
Structure prediction by ZEFSAII (Michael W. Deem and Ramdas Pophale) SiO2 
 PCOD9103185
Probable space group: P -1
;
_chemical_formula_sum "Si O2"
_cell_formula_units_Z 14
_cell_length_a 18.889913
_cell_length_b 8.542547
_cell_length_c 10.035568
_cell_angle_alpha 121.310284
_cell_angle_beta 57.051444
_cell_angle_gamma 148.713226
_cell_volume 700.114568
_symmetry_space_group_name_H-M "P -1"
_symmetry_group_IT_number 2
_symmetry_cell_setting 'triclinic'
loop_
_space_group_symop_operation_xyz
x,y,z
-x,-y,-z
loop_
_atom_site_type_symbol
_atom_site_label
_atom_site_fract_x
_atom_site_fract_y
_atom_site_fract_z
Si Si1 0.087479 0.566104 0.560813
Si Si2 0.183627 0.321092 0.291860
Si Si3 0.071792 0.749770 0.144688
Si Si4 0.638218 0.906344 0.958039
Si Si5 0.461057 0.645025 0.272509
Si Si6 0.365816 0.833233 0.142924
Si Si7 0.592235 0.831550 0.502984
O O1 0.119298 0.404824 0.434643
O O2 0.000000 0.500000 0.500000
O O3 0.994360 0.420020 0.722408
O O4 0.241997 0.923894 0.575024
O O5 0.306836 0.466189 0.331477
O O6 0.264253 0.498782 0.149166
O O7 0.068623 0.964443 0.235496
O O8 0.234635 0.986271 0.065047
O O9 0.000000 0.500000 0.000000
O O10 0.547227 0.591693 0.839063
O O11 0.701111 0.146075 0.886833
O O12 0.553975 0.857942 0.141872
O O13 0.530383 0.800606 0.413268
O O14 0.409615 0.021343 0.312646
O O15 0.500000 0.000000 0.000000
O O16 0.500000 0.500000 0.500000
#
# Coordination Sequence:
#
# PCOD9103185 Si02
#       7
#     2   2   2   2   2   2   2
#     4  11  25  44  65  93 137 179 210 263 337 394
#     4  10  23  41  69  92 131 175 223 265 335 386
#     4  11  23  42  65  91 127 173 225 264 320 399
#     4  10  20  38  65  91 131 170 210 269 335 373
#     4  10  20  38  67  97 125 169 219 276 318 380
#     4  11  21  38  58  94 130 162 204 272 331 374
#     4  11  23  40  66  97 126 166 225 267 316 389
#
# _framework density 19.996727
#
# number of rings (size 3 to 8) (size 9 to 14) (size 15 to 20)
#    0.000    1.429    2.857    3.000    2.000    3.429 
#    2.571    2.857    0.000    0.000    0.000    0.000 
#    0.000    0.000    0.000    0.000    0.000    0.000 
#
# Total GULP energy -78105.123918 kJ/mol
# GULP energy per Si atom -5578.937423 kJ/mol
# Density = 1.995121 g / cm^3
# Si number density = 19.996727 Si / 1000 Ang^3
#
#
#
# Elastic Constant Matrix: (Units=GPa)
#
#
# Indices 1 2 3 4 5 6 
#
# 1 100.2060 29.1187 37.3314 6.7153 12.1121 -2.2541
# 2 29.1187 106.3369 35.0579 1.8520 10.0973 -14.9994
# 3 37.3314 35.0579 111.6391 -9.0368 16.2394 1.6367
# 4 6.7153 1.8520 -9.0368 29.5989 2.1743 1.7403
# 5 12.1121 10.0973 16.2394 2.1743 36.0591 -12.2093
# 6 -2.2541 -14.9994 1.6367 1.7403 -12.2093 32.1485
#
#
#
# Elastic Compliance Matrix: (Units=1/GPa)
#
#
# Indices 1 2 3 4 5 6 
#
# 1 0.012335 -0.002048 -0.003481 -0.003563 -0.001942 -0.000458
# 2 -0.002048 0.011884 -0.003435 -0.001764 0.001071 0.006078
# 3 -0.003481 -0.003435 0.012516 0.005515 -0.005486 -0.004865
# 4 -0.003563 -0.001764 0.005515 0.037043 -0.004778 -0.005173
# 5 -0.001942 0.001071 -0.005486 -0.004778 0.035745 0.014477
# 6 -0.000458 0.006078 -0.004865 -0.005173 0.014477 0.039935
#
#
# Mechanical properties :
#
#
# Convention : Reuss Voigt Hill
#
# Bulk Modulus (GPa) = 53.17200 57.91090 55.54145
# Shear Modulus (GPa) = 28.79318 34.00622 31.39970
#
# Velocity S-wave (km/s) = 3.79871 4.12829 3.96693
# Velocity P-wave (km/s) = 6.77409 7.19353 6.98696
#
# Compressibility (1/GPa) = 0.01880689
#
# Stress axis : x y z
#
# Youngs Moduli (GPa) = 81.07277 84.14940 79.90069
#
# Poissons Ratio (x) = 0.17236 0.27810
# Poissons Ratio (y) = 0.16606 0.27443
# Poissons Ratio (z) = 0.28218 0.28902
#
# Static dielectric constant tensor:
#      x y z
#    x 1.799900 -0.030390 -0.044110 
#    y -0.030390 1.755810 0.028910 
#    z -0.044110 0.028910 1.723730 
# 
# From -- ./inp_files/182199.got.cif
#   From: 2010.05.17/outbox.cif.g08.bks.cpg/sg2_92_cif.got.tgz:182199.got - 2010.06.03 11:33:40.
