data_PCOD9103280
_publ_section_title
;
Structure prediction by ZEFSAII (Michael W. Deem and Ramdas Pophale) SiO2 
 PCOD9103280
Probable space group: P -1
;
_chemical_formula_sum "Si O2"
_cell_formula_units_Z 10
_cell_length_a 11.836619
_cell_length_b 13.218694
_cell_length_c 13.218650
_cell_angle_alpha 23.325686
_cell_angle_beta 147.322050
_cell_angle_gamma 147.322301
_cell_volume 418.638296
_symmetry_space_group_name_H-M "P -1"
_symmetry_group_IT_number 2
_symmetry_cell_setting 'triclinic'
loop_
_space_group_symop_operation_xyz
x,y,z
-x,-y,-z
loop_
_atom_site_type_symbol
_atom_site_label
_atom_site_fract_x
_atom_site_fract_y
_atom_site_fract_z
Si Si1 0.664246 0.993970 0.993990
Si Si2 0.535376 0.632194 0.632173
Si Si3 0.017529 0.790766 0.790767
Si Si4 0.753828 0.378220 0.378227
Si Si5 0.894854 0.901244 0.901249
O O1 0.537055 0.178547 0.676341
O O2 0.755749 0.088079 0.088086
O O3 0.892406 0.051012 0.051013
O O4 0.537070 0.676315 0.178590
O O5 0.799098 0.740890 0.740896
O O6 0.407582 0.636347 0.636334
O O7 0.000000 0.000000 0.500000
O O8 0.000000 0.500000 0.000000
O O9 0.000000 0.500000 0.500000
O O10 0.751311 0.093971 0.591405
O O11 0.751308 0.591397 0.093975
O O12 0.000000 0.000000 0.000000
#
# Coordination Sequence:
#
# PCOD9103280 Si02
#       5
#     2   2   2   2   2
#     4  12  23  42  74  97 131 182 218 264 346 392
#     4  12  23  42  74  97 131 182 218 264 346 392
#     4  12  30  50  64  98 136 166 240 294 308 390
#     4  10  16  32  61  96 134 164 200 264 313 397
#     4  10  16  32  61  96 134 164 200 264 313 397
#
# _framework density 23.886970000000002
#
# number of rings (size 3 to 8) (size 9 to 14) (size 15 to 20)
#    0.000    0.800    8.000    2.400    0.000    4.800 
#    0.000    2.000    0.000    0.000    0.000    0.000 
#    0.000    0.000    0.000    0.000    0.000    0.000 
#
# Total GULP energy -56014.699471 kJ/mol
# GULP energy per Si atom -5601.469947 kJ/mol
# Density = 2.383260 g / cm^3
# Si number density = 23.886970 Si / 1000 Ang^3
#
#
#
# Elastic Constant Matrix: (Units=GPa)
#
#
# Indices 1 2 3 4 5 6 
#
# 1 64.1639 20.7004 14.5871 2.6245 8.0032 21.6080
# 2 20.7004 130.5652 60.1742 13.5494 1.6757 5.2065
# 3 14.5871 60.1742 206.0223 -45.9284 -1.7090 -5.3646
# 4 2.6245 13.5494 -45.9284 44.9457 1.9226 4.3658
# 5 8.0032 1.6757 -1.7090 1.9226 29.2143 8.6258
# 6 21.6080 5.2065 -5.3646 4.3658 8.6258 49.3101
#
#
#
# Elastic Compliance Matrix: (Units=1/GPa)
#
#
# Indices 1 2 3 4 5 6 
#
# 1 0.019601 -0.002127 -0.001178 -0.000814 -0.002928 -0.007909
# 2 -0.002127 0.011141 -0.004953 -0.008297 0.000226 -0.000088
# 3 -0.001178 -0.004953 0.008724 0.010370 0.000125 0.001048
# 4 -0.000814 -0.008297 0.010370 0.035492 -0.000843 -0.000634
# 5 -0.002928 0.000226 0.000125 -0.000843 0.036573 -0.005050
# 6 -0.007909 -0.000088 0.001048 -0.000634 -0.005050 0.024808
#
#
# Mechanical properties :
#
#
# Convention : Reuss Voigt Hill
#
# Bulk Modulus (GPa) = 43.57632 65.74166 54.65899
# Shear Modulus (GPa) = 31.15143 45.04668 38.09905
#
# Velocity S-wave (km/s) = 3.61518 4.34732 3.99804
# Velocity P-wave (km/s) = 5.97564 7.26503 6.65165
#
# Compressibility (1/GPa) = 0.02294824
#
# Stress axis : x y z
#
# Youngs Moduli (GPa) = 51.01778 89.75967 114.62498
#
# Poissons Ratio (x) = 0.19094 0.13504
# Poissons Ratio (y) = 0.10853 0.56779
# Poissons Ratio (z) = 0.06010 0.44462
#
# Static dielectric constant tensor:
#      x y z
#    x 1.947480 -0.017570 -0.006550 
#    y -0.017570 1.693970 0.549410 
#    z -0.006550 0.549410 0.414010 
# 
# From -- ./inp_files/31473.got.cif
#   From: 2010.05.17/outbox.cif.g08.bks.cpg/sg2_16_cif.got.tgz:31473.got - 2010.06.03 11:33:40.
