data_PCOD9103968
_publ_section_title
;
Structure prediction by ZEFSAII (Michael W. Deem and Ramdas Pophale) SiO2 
 PCOD9103968
Probable space group: P -1
;
_chemical_formula_sum "Si O2"
_cell_formula_units_Z 16
_cell_length_a 15.012459
_cell_length_b 14.260969
_cell_length_c 6.572272
_cell_angle_alpha 70.632319
_cell_angle_beta 91.732596
_cell_angle_gamma 146.122236
_cell_volume 654.670363
_symmetry_space_group_name_H-M "P -1"
_symmetry_group_IT_number 2
_symmetry_cell_setting 'triclinic'
loop_
_space_group_symop_operation_xyz
x,y,z
-x,-y,-z
loop_
_atom_site_type_symbol
_atom_site_label
_atom_site_fract_x
_atom_site_fract_y
_atom_site_fract_z
Si Si1 0.083055 0.314264 0.495188
Si Si2 0.240412 0.964799 0.016633
Si Si3 0.667236 0.611615 0.551638
Si Si4 0.679059 0.319734 0.269338
Si Si5 0.485703 0.318134 0.084339
Si Si6 0.006795 0.621262 0.859105
Si Si7 0.168421 0.038442 0.579316
Si Si8 0.376560 0.940148 0.765489
O O1 0.250530 0.411683 0.514767
O O2 0.103912 0.439696 0.290884
O O3 0.000517 0.167128 0.410093
O O4 0.929937 0.185023 0.741815
O O5 0.299407 0.910381 0.992055
O O6 0.209787 0.000264 0.786749
O O7 0.400806 0.172648 0.999150
O O8 0.500000 0.500000 0.500000
O O9 0.826670 0.848169 0.401788
O O10 0.596176 0.511267 0.841868
O O11 0.602066 0.351545 0.188739
O O12 0.628210 0.181258 0.202821
O O13 0.573236 0.175542 0.562032
O O14 0.893703 0.545890 0.104492
O O15 0.329198 0.199276 0.310614
O O16 0.222277 0.840357 0.676529
O O17 0.000000 0.500000 0.000000
#
# Coordination Sequence:
#
# PCOD9103968 Si02
#       8
#     2   2   2   2   2   2   2   2
#     4  11  24  44  70  94 134 182 219 275 345 404
#     4  11  22  41  68  97 133 173 227 275 336 407
#     4  12  25  45  66 100 133 168 231 292 333 403
#     4  10  20  38  70  94 133 180 218 269 342 397
#     4  11  22  42  66  94 133 171 223 281 339 400
#     4  10  20  40  68  99 132 173 224 271 328 409
#     4  11  23  45  67  93 128 182 223 278 342 398
#     4  10  20  40  65 101 133 172 222 275 326 407
#
# _framework density 24.439781
#
# number of rings (size 3 to 8) (size 9 to 14) (size 15 to 20)
#    0.000    1.250    5.000    1.500    0.000    1.000 
#    9.000    2.500    0.000    0.000    0.000    0.000 
#    0.000    0.000    0.000    0.000    0.000    0.000 
#
# Total GULP energy -89224.484713 kJ/mol
# GULP energy per Si atom -5576.530295 kJ/mol
# Density = 2.438415 g / cm^3
# Si number density = 24.439781 Si / 1000 Ang^3
#
#
#
# Elastic Constant Matrix: (Units=GPa)
#
#
# Indices 1 2 3 4 5 6 
#
# 1 112.6055 16.5161 18.8930 -1.0926 9.3806 -9.1428
# 2 16.5161 53.8841 19.3977 9.6846 4.3401 -8.2851
# 3 18.8930 19.3977 87.3511 -24.9478 -2.6369 -10.3021
# 4 -1.0926 9.6846 -24.9478 36.9469 1.1151 -5.4410
# 5 9.3806 4.3401 -2.6369 1.1151 43.1802 -12.5385
# 6 -9.1428 -8.2851 -10.3021 -5.4410 -12.5385 28.8446
#
#
#
# Elastic Compliance Matrix: (Units=1/GPa)
#
#
# Indices 1 2 3 4 5 6 
#
# 1 0.009680 -0.002109 -0.001519 0.000042 -0.001631 0.001219
# 2 -0.002109 0.024686 -0.008579 -0.012246 -0.002205 0.000090
# 3 -0.001519 -0.008579 0.019691 0.016724 0.004653 0.009265
# 4 0.000042 -0.012246 0.016724 0.043299 0.004822 0.012733
# 5 -0.001631 -0.002205 0.004653 0.004822 0.027818 0.013514
# 6 0.001219 0.000090 0.009265 0.012733 0.013514 0.046666
#
#
# Mechanical properties :
#
#
# Convention : Reuss Voigt Hill
#
# Bulk Modulus (GPa) = 33.73499 40.38380 37.05940
# Shear Modulus (GPa) = 24.25599 35.06327 29.65963
#
# Velocity S-wave (km/s) = 3.15378 3.79183 3.48743
# Velocity P-wave (km/s) = 5.20529 5.97748 5.60470
#
# Compressibility (1/GPa) = 0.02964281
#
# Stress axis : x y z
#
# Youngs Moduli (GPa) = 103.30629 40.50944 50.78420
#
# Poissons Ratio (x) = 0.08544 0.07712
# Poissons Ratio (y) = 0.21789 0.43569
# Poissons Ratio (z) = 0.15688 0.34754
#
# Static dielectric constant tensor:
#      x y z
#    x 2.017390 -0.008520 -0.011320 
#    y -0.008520 2.111080 -0.022740 
#    z -0.011320 -0.022740 1.949780 
# 
# From -- ./inp_files/97748.got.cif
#   From: 2010.05.17/outbox.cif.g08.bks.cpg/sg2_49_cif.got.tgz:97748.got - 2010.06.03 11:33:40.
