data_PCOD9103304
_publ_section_title
;
Structure prediction by ZEFSAII (Michael W. Deem and Ramdas Pophale) SiO2 
 PCOD9103304
Probable space group: P -1
;
_chemical_formula_sum "Si O2"
_cell_formula_units_Z 16
_cell_length_a 10.888640
_cell_length_b 8.523650
_cell_length_c 9.522089
_cell_angle_alpha 85.190001
_cell_angle_beta 134.553349
_cell_angle_gamma 77.266369
_cell_volume 576.981183
_symmetry_space_group_name_H-M "P -1"
_symmetry_group_IT_number 2
_symmetry_cell_setting 'triclinic'
loop_
_space_group_symop_operation_xyz
x,y,z
-x,-y,-z
loop_
_atom_site_type_symbol
_atom_site_label
_atom_site_fract_x
_atom_site_fract_y
_atom_site_fract_z
Si Si1 0.759751 0.074538 0.033943
Si Si2 0.871600 0.629702 0.530657
Si Si3 0.174051 0.365285 0.971688
Si Si4 0.549733 0.739479 0.439100
Si Si5 0.646401 0.340706 0.490477
Si Si6 0.932397 0.274759 0.982412
Si Si7 0.552018 0.663673 0.044100
Si Si8 0.961245 0.174044 0.539708
O O1 0.609635 0.112370 0.785532
O O2 0.913531 0.139681 0.087661
O O3 0.629732 0.188426 0.046524
O O4 0.872800 0.891351 0.205431
O O5 0.746857 0.741170 0.549924
O O6 0.718975 0.633955 0.292513
O O7 0.993719 0.296806 0.442240
O O8 0.003064 0.550038 0.285931
O O9 0.120442 0.254216 0.052388
O O10 0.361828 0.303765 0.034695
O O11 0.149542 0.541686 0.020395
O O12 0.565108 0.549025 0.409618
O O13 0.504125 0.730544 0.565854
O O14 0.792215 0.285403 0.741361
O O15 0.762387 0.255115 0.452194
O O16 0.500000 0.500000 0.000000
O O17 0.000000 0.000000 0.500000
#
# Coordination Sequence:
#
# PCOD9103304 Si02
#       8
#     2   2   2   2   2   2   2   2
#     4  10  23  43  61  98 136 182 227 275 342 410
#     4  11  24  42  69 100 146 176 234 284 349 410
#     4  11  21  37  64 109 133 170 222 291 353 401
#     4   9  21  40  73 100 129 171 231 300 342 398
#     4  10  21  43  67 102 132 179 229 287 354 399
#     4  10  20  38  65  96 134 169 226 288 338 407
#     4  11  23  40  69 104 139 176 226 295 348 401
#     4  12  28  45  66  97 145 195 230 271 343 433
#
# _framework density 27.730542
#
# number of rings (size 3 to 8) (size 9 to 14) (size 15 to 20)
#    0.000    1.500    2.500    1.875    3.500    4.000 
#    2.250    1.875    0.000    0.000    0.000    0.000 
#    0.000    0.000    0.000    0.000    0.000    0.000 
#
# Total GULP energy -89718.500124 kJ/mol
# GULP energy per Si atom -5607.406258 kJ/mol
# Density = 2.766743 g / cm^3
# Si number density = 27.730542 Si / 1000 Ang^3
#
#
#
# Elastic Constant Matrix: (Units=GPa)
#
#
# Indices 1 2 3 4 5 6 
#
# 1 317.7601 60.5142 62.3104 -11.8660 -11.7917 -28.2904
# 2 60.5142 80.8913 43.4980 -12.2283 -1.6367 -23.5073
# 3 62.3104 43.4980 133.1580 -14.2300 -8.1822 -13.9897
# 4 -11.8660 -12.2283 -14.2300 48.6996 -5.0499 -2.6299
# 5 -11.7917 -1.6367 -8.1822 -5.0499 48.6135 8.0228
# 6 -28.2904 -23.5073 -13.9897 -2.6299 8.0228 39.3152
#
#
#
# Elastic Compliance Matrix: (Units=1/GPa)
#
#
# Indices 1 2 3 4 5 6 
#
# 1 0.003845 -0.001965 -0.000973 0.000278 0.000541 0.001154
# 2 -0.001965 0.019205 -0.004124 0.003460 -0.001679 0.009176
# 3 -0.000973 -0.004124 0.009585 0.001677 0.001401 0.000071
# 4 0.000278 0.003460 0.001677 0.022395 0.002145 0.003926
# 5 0.000541 -0.001679 0.001401 0.002145 0.021835 -0.004428
# 6 0.001154 0.009176 0.000071 0.003926 -0.004428 0.032944
#
#
# Mechanical properties :
#
#
# Convention : Reuss Voigt Hill
#
# Bulk Modulus (GPa) = 54.01900 96.05051 75.03476
# Shear Modulus (GPa) = 38.43088 51.69143 45.06116
#
# Velocity S-wave (km/s) = 3.72676 4.32216 4.03546
# Velocity P-wave (km/s) = 6.16771 7.72142 6.98788
#
# Compressibility (1/GPa) = 0.01851200
#
# Stress axis : x y z
#
# Youngs Moduli (GPa) = 260.05885 52.06878 104.32795
#
# Poissons Ratio (x) = 0.10232 0.10155
# Poissons Ratio (y) = 0.51102 0.43020
# Poissons Ratio (z) = 0.25313 0.21471
#
# Static dielectric constant tensor:
#      x y z
#    x 2.159180 -0.011830 0.032180 
#    y -0.011830 2.228010 0.127140 
#    z 0.032180 0.127140 2.173640 
# 
# From -- ./inp_files/421164.got.cif
#   From: 2010.05.17/outbox.cif.g08.bks.cpg/sg2_211_cif.got.tgz:421164.got - 2010.06.03 11:33:40.
