data_PCOD9103334
_publ_section_title
;
Structure prediction by ZEFSAII (Michael W. Deem and Ramdas Pophale) SiO2 
 PCOD9103334
Probable space group: P -1
;
_chemical_formula_sum "Si O2"
_cell_formula_units_Z 15
_cell_length_a 7.853743
_cell_length_b 9.969209
_cell_length_c 11.023288
_cell_angle_alpha 82.244902
_cell_angle_beta 104.692699
_cell_angle_gamma 134.989983
_cell_volume 589.189546
_symmetry_space_group_name_H-M "P -1"
_symmetry_group_IT_number 2
_symmetry_cell_setting 'triclinic'
loop_
_space_group_symop_operation_xyz
x,y,z
-x,-y,-z
loop_
_atom_site_type_symbol
_atom_site_label
_atom_site_fract_x
_atom_site_fract_y
_atom_site_fract_z
Si Si1 0.276690 0.419026 0.055807
Si Si2 0.412855 0.684552 0.509518
Si Si3 0.359051 0.951781 0.854062
Si Si4 0.060390 0.532995 0.843252
Si Si5 0.506034 0.293348 0.748775
Si Si6 0.707508 0.975550 0.740755
Si Si7 0.963884 0.638172 0.369850
Si Si8 0.000000 0.000000 0.000000
O O1 0.420934 0.528038 0.194351
O O2 0.500000 0.500000 0.000000
O O3 0.179081 0.509698 0.973580
O O4 0.064658 0.195759 0.019811
O O5 0.541599 0.725746 0.399587
O O6 0.598843 0.831090 0.628423
O O7 0.214103 0.700458 0.454873
O O8 0.234860 0.465927 0.546436
O O9 0.124755 0.725556 0.840045
O O10 0.512570 0.977349 0.762448
O O11 0.321052 0.093011 0.811980
O O12 0.500000 0.000000 0.000000
O O13 0.768853 0.357247 0.801184
O O14 0.153904 0.523067 0.734091
O O15 0.785615 0.928503 0.874130
O O16 0.948669 0.180797 0.704410
#
# Coordination Sequence:
#
# PCOD9103334 Si02
#       8
#     2   2   2   2   2   2   2   1
#     4  12  26  44  66  96 135 183 228 278 341 405
#     4  10  22  39  68  99 135 176 222 284 343 405
#     4  12  23  35  66 102 136 170 218 288 346 393
#     4  11  21  40  67  97 135 170 222 288 340 393
#     4  11  25  42  67 103 135 172 228 289 343 400
#     4  12  23  42  65 102 138 179 225 274 342 409
#     4  10  20  38  65  99 133 173 219 279 343 395
#     4  12  28  42  68  94 132 186 226 272 328 414
#
# _framework density 25.458703
#
# number of rings (size 3 to 8) (size 9 to 14) (size 15 to 20)
#    0.000    0.800    6.667    1.600    1.867    0.000 
#    0.000    0.667    0.000    1.600    0.000    0.000 
#    0.000    0.000    0.000    0.000    0.000    0.000 
#
# Total GULP energy -83736.874262 kJ/mol
# GULP energy per Si atom -5582.458284 kJ/mol
# Density = 2.540076 g / cm^3
# Si number density = 25.458703 Si / 1000 Ang^3
#
#
#
# Elastic Constant Matrix: (Units=GPa)
#
#
# Indices 1 2 3 4 5 6 
#
# 1 35.7546 15.2727 15.7408 5.1242 -0.9512 -13.6272
# 2 15.2727 143.5195 48.8134 23.2598 -13.9755 1.2518
# 3 15.7408 48.8134 128.9552 37.4366 -16.7911 -7.1582
# 4 5.1242 23.2598 37.4366 51.1887 -0.8978 -7.1824
# 5 -0.9512 -13.9755 -16.7911 -0.8978 33.4350 -4.4236
# 6 -13.6272 1.2518 -7.1582 -7.1824 -4.4236 28.4049
#
#
#
# Elastic Compliance Matrix: (Units=1/GPa)
#
#
# Indices 1 2 3 4 5 6 
#
# 1 0.037253 -0.003490 -0.002870 0.002496 0.000612 0.018029
# 2 -0.003490 0.008653 -0.002024 -0.002468 0.002055 -0.002870
# 3 -0.002870 -0.002024 0.011587 -0.007102 0.004777 0.000580
# 4 0.002496 -0.002468 -0.007102 0.026347 -0.003065 0.005701
# 5 0.000612 0.002055 0.004777 -0.003065 0.033884 0.005909
# 6 0.018029 -0.002870 0.000580 0.005701 0.005909 0.046489
#
#
# Mechanical properties :
#
#
# Convention : Reuss Voigt Hill
#
# Bulk Modulus (GPa) = 24.55626 51.98700 38.27163
# Shear Modulus (GPa) = 25.69930 37.83256 31.76593
#
# Velocity S-wave (km/s) = 3.18063 3.85910 3.53617
# Velocity P-wave (km/s) = 4.81197 6.34990 5.63366
#
# Compressibility (1/GPa) = 0.04072282
#
# Stress axis : x y z
#
# Youngs Moduli (GPa) = 26.84357 115.56883 86.30122
#
# Poissons Ratio (x) = 0.40337 0.24772
# Poissons Ratio (y) = 0.09369 0.17471
# Poissons Ratio (z) = 0.07705 0.23397
#
# Static dielectric constant tensor:
#      x y z
#    x 2.075400 0.002140 -0.073930 
#    y 0.002140 2.028310 -0.087330 
#    z -0.073930 -0.087330 2.033010 
# 
# From -- ./inp_files/378834.got.cif
#   From: 2010.05.17/outbox.cif.g08.bks.cpg/sg2_190_cif.got.tgz:378834.got - 2010.06.03 11:33:40.
