data_PCOD9103083
_publ_section_title
;
Structure prediction by ZEFSAII (Michael W. Deem and Ramdas Pophale) SiO2 
 PCOD9103083
Probable space group: P -1
;
_chemical_formula_sum "Si O2"
_cell_formula_units_Z 15
_cell_length_a 14.229321
_cell_length_b 8.109047
_cell_length_c 14.083486
_cell_angle_alpha 40.840559
_cell_angle_beta 138.077325
_cell_angle_gamma 128.939968
_cell_volume 701.971506
_symmetry_space_group_name_H-M "P -1"
_symmetry_group_IT_number 2
_symmetry_cell_setting 'triclinic'
loop_
_space_group_symop_operation_xyz
x,y,z
-x,-y,-z
loop_
_atom_site_type_symbol
_atom_site_label
_atom_site_fract_x
_atom_site_fract_y
_atom_site_fract_z
Si Si1 0.582207 0.070618 0.628629
Si Si2 0.047836 0.318844 0.469177
Si Si3 0.928487 0.154416 0.639912
Si Si4 0.225507 0.681823 0.849156
Si Si5 0.500000 0.000000 0.000000
Si Si6 0.361582 0.348143 0.606673
Si Si7 0.648400 0.140491 0.317989
Si Si8 0.870738 0.866060 0.898877
O O1 0.583710 0.370992 0.514241
O O2 0.501355 0.893880 0.726860
O O3 0.500000 0.000000 0.500000
O O4 0.740022 0.015398 0.756815
O O5 0.020650 0.599300 0.363776
O O6 0.204568 0.350333 0.531151
O O7 0.027123 0.154384 0.621937
O O8 0.919214 0.229003 0.338623
O O9 0.774553 0.191994 0.466231
O O10 0.911734 0.909236 0.800703
O O11 0.333378 0.873484 0.909274
O O12 0.319029 0.663757 0.830251
O O13 0.176838 0.421830 0.980081
O O14 0.468156 0.257710 0.804189
O O15 0.345545 0.132625 0.607504
O O16 0.000000 0.000000 0.000000
#
# Coordination Sequence:
#
# PCOD9103083 Si02
#       8
#     2   2   2   2   1   2   2   2
#     4  12  22  40  68  90 125 173 216 259 321 378
#     4  10  20  41  71  89 126 171 214 259 311 390
#     4  10  20  38  65 101 118 166 218 257 318 375
#     4  10  22  41  63  96 134 162 213 263 320 374
#     4  10  24  38  60  92 132 168 202 264 316 374
#     4  11  22  43  64  93 129 171 216 260 320 378
#     4  10  23  39  63  93 124 175 215 254 311 396
#     4  12  22  40  66 100 130 157 212 279 317 363
#
# _framework density 21.368389000000001
#
# number of rings (size 3 to 8) (size 9 to 14) (size 15 to 20)
#    0.000    1.333    4.000    1.200    0.000    5.333 
#    4.800    0.000    0.000    4.800    0.000    0.000 
#    0.000    0.000    0.000    0.000    0.000    0.000 
#
# Total GULP energy -83543.248990 kJ/mol
# GULP energy per Si atom -5569.549933 kJ/mol
# Density = 2.131975 g / cm^3
# Si number density = 21.368389 Si / 1000 Ang^3
#
#
#
# Elastic Constant Matrix: (Units=GPa)
#
#
# Indices 1 2 3 4 5 6 
#
# 1 106.5217 16.2348 25.6433 1.0219 -15.2460 26.0747
# 2 16.2348 100.7596 22.6307 7.5933 -4.0003 17.4586
# 3 25.6433 22.6307 87.4057 1.2616 -5.5495 19.3830
# 4 1.0219 7.5933 1.2616 38.8503 26.4786 -2.5032
# 5 -15.2460 -4.0003 -5.5495 26.4786 37.5009 -11.3728
# 6 26.0747 17.4586 19.3830 -2.5032 -11.3728 33.5075
#
#
#
# Elastic Compliance Matrix: (Units=1/GPa)
#
#
# Indices 1 2 3 4 5 6 
#
# 1 0.012428 0.000224 -0.001665 -0.005012 0.006219 -0.007088
# 2 0.000224 0.011517 -0.001807 -0.004382 0.002777 -0.004515
# 3 -0.001665 -0.001807 0.013661 0.000010 -0.000638 -0.005881
# 4 -0.005012 -0.004382 0.000010 0.056006 -0.043370 -0.004358
# 5 0.006219 0.002777 -0.000638 -0.043370 0.063810 0.012500
# 6 -0.007088 -0.004515 -0.005881 -0.004358 0.012500 0.045031
#
#
# Mechanical properties :
#
#
# Convention : Reuss Voigt Hill
#
# Bulk Modulus (GPa) = 32.14377 47.07830 39.61104
# Shear Modulus (GPa) = 22.79795 37.31696 30.05746
#
# Velocity S-wave (km/s) = 3.26989 4.18348 3.75458
# Velocity P-wave (km/s) = 5.41586 6.73906 6.11337
#
# Compressibility (1/GPa) = 0.03111023
#
# Stress axis : x y z
#
# Youngs Moduli (GPa) = 80.46536 86.82755 73.20227
#
# Poissons Ratio (x) = -0.01948 0.12189
# Poissons Ratio (y) = -0.01806 0.13228
# Poissons Ratio (z) = 0.13398 0.15690
#
# Static dielectric constant tensor:
#      x y z
#    x 1.790310 -0.008970 -0.037950 
#    y -0.008970 1.780670 -0.036320 
#    z -0.037950 -0.036320 1.776150 
# 
# From -- ./inp_files/503142.got.cif
#   From: 2010.05.17/outbox.cif.g08.bks.cpg/sg2_252_cif.got.tgz:503142.got - 2010.06.03 11:33:40.
