data_PCOD9103658
_publ_section_title
;
Structure prediction by ZEFSAII (Michael W. Deem and Ramdas Pophale) SiO2 
 PCOD9103658
Probable space group: P -1
;
_chemical_formula_sum "Si O2"
_cell_formula_units_Z 14
_cell_length_a 10.329476
_cell_length_b 7.984109
_cell_length_c 9.258809
_cell_angle_alpha 109.729834
_cell_angle_beta 54.420125
_cell_angle_gamma 127.145583
_cell_volume 494.914910
_symmetry_space_group_name_H-M "P -1"
_symmetry_group_IT_number 2
_symmetry_cell_setting 'triclinic'
loop_
_space_group_symop_operation_xyz
x,y,z
-x,-y,-z
loop_
_atom_site_type_symbol
_atom_site_label
_atom_site_fract_x
_atom_site_fract_y
_atom_site_fract_z
Si Si1 0.183208 0.519996 0.311330
Si Si2 0.389112 0.308068 0.130657
Si Si3 0.080199 0.668755 0.831811
Si Si4 0.365332 0.269183 0.579678
Si Si5 0.778820 0.910546 0.105203
Si Si6 0.007448 0.253890 0.761093
Si Si7 0.644414 0.014587 0.727568
O O1 0.251325 0.379729 0.305488
O O2 0.345927 0.766841 0.252607
O O3 0.000000 0.500000 0.500000
O O4 0.106867 0.419140 0.170641
O O5 0.465075 0.193906 0.152965
O O6 0.500000 0.500000 0.000000
O O7 0.267189 0.123921 0.041227
O O8 0.136161 0.502758 0.712064
O O9 0.233494 0.903815 0.759194
O O10 0.054841 0.705427 0.028224
O O11 0.500000 0.500000 0.500000
O O12 0.354836 0.284381 0.763547
O O13 0.146367 0.173884 0.655584
O O14 0.399835 0.107035 0.428456
O O15 0.000000 0.000000 0.000000
O O16 0.846721 0.129637 0.711444
#
# Coordination Sequence:
#
# PCOD9103658 Si02
#       7
#     2   2   2   2   2   2   2
#     4  11  25  41  68 105 137 174 231 284 337 409
#     4  12  26  45  68 102 139 177 229 285 342 405
#     4  10  20  38  67  94 122 166 233 274 310 395
#     4  12  25  42  63  98 141 172 211 283 355 394
#     4  12  21  43  69  91 128 183 227 266 329 414
#     4  10  21  39  67  96 121 171 231 267 323 407
#     4  11  25  43  71  98 134 182 227 282 336 404
#
# _framework density 28.287690999999999
#
# number of rings (size 3 to 8) (size 9 to 14) (size 15 to 20)
#    0.000    0.857    4.286    2.143    6.000    0.571 
#    2.571    0.714    0.000    0.000    0.000    0.000 
#    0.000    0.000    0.000    0.000    0.000    0.000 
#
# Total GULP energy -78091.390544 kJ/mol
# GULP energy per Si atom -5577.956467 kJ/mol
# Density = 2.822331 g / cm^3
# Si number density = 28.287691 Si / 1000 Ang^3
#
#
#
# Elastic Constant Matrix: (Units=GPa)
#
#
# Indices 1 2 3 4 5 6 
#
# 1 80.2717 -3.2045 25.0571 4.1705 2.3618 -0.1709
# 2 -3.2045 144.2593 51.0999 11.4507 -10.6077 -22.0227
# 3 25.0571 51.0999 143.0797 -8.7051 23.6905 1.5638
# 4 4.1705 11.4507 -8.7051 48.3806 2.3970 13.1379
# 5 2.3618 -10.6077 23.6905 2.3970 33.7269 -4.6890
# 6 -0.1709 -22.0227 1.5638 13.1379 -4.6890 42.5268
#
#
#
# Elastic Compliance Matrix: (Units=1/GPa)
#
#
# Indices 1 2 3 4 5 6 
#
# 1 0.014048 0.002968 -0.004415 -0.003805 0.003787 0.003348
# 2 0.002968 0.012734 -0.007514 -0.008050 0.011121 0.010596
# 3 -0.004415 -0.007514 0.013121 0.007356 -0.012918 -0.008089
# 4 -0.003805 -0.008050 0.007356 0.028764 -0.011508 -0.014610
# 5 0.003787 0.011121 -0.012918 -0.011508 0.044825 0.014747
# 6 0.003348 0.010596 -0.008089 -0.014610 0.014747 0.035452
#
#
# Mechanical properties :
#
#
# Convention : Reuss Voigt Hill
#
# Bulk Modulus (GPa) = 45.49851 57.05729 51.27790
# Shear Modulus (GPa) = 28.70383 44.57073 36.63728
#
# Velocity S-wave (km/s) = 3.18891 3.97372 3.60275
# Velocity P-wave (km/s) = 5.44775 6.42402 5.95592
#
# Compressibility (1/GPa) = 0.02197874
#
# Stress axis : x y z
#
# Youngs Moduli (GPa) = 71.18598 78.53038 76.21404
#
# Poissons Ratio (x) = -0.23305 0.33649
# Poissons Ratio (y) = -0.21125 0.57271
# Poissons Ratio (z) = 0.31429 0.59011
#
# Static dielectric constant tensor:
#      x y z
#    x 2.309310 -0.171370 0.013570 
#    y -0.171370 2.455990 -0.145990 
#    z 0.013570 -0.145990 2.260980 
# 
# From -- ./inp_files/218231.got.cif
#   From: 2010.05.17/outbox.cif.g08.bks.cpg/sg2_110_cif.got.tgz:218231.got - 2010.06.03 11:33:40.
