data_PCOD9103768
_publ_section_title
;
Structure prediction by ZEFSAII (Michael W. Deem and Ramdas Pophale) SiO2 
 PCOD9103768
Probable space group: P -1
;
_chemical_formula_sum "Si O2"
_cell_formula_units_Z 12
_cell_length_a 18.573432
_cell_length_b 14.893766
_cell_length_c 9.415502
_cell_angle_alpha 146.594605
_cell_angle_beta 151.000947
_cell_angle_gamma 21.527100
_cell_volume 460.039518
_symmetry_space_group_name_H-M "P -1"
_symmetry_group_IT_number 2
_symmetry_cell_setting 'triclinic'
loop_
_space_group_symop_operation_xyz
x,y,z
-x,-y,-z
loop_
_atom_site_type_symbol
_atom_site_label
_atom_site_fract_x
_atom_site_fract_y
_atom_site_fract_z
Si Si1 0.176460 0.205937 0.749761
Si Si2 0.761960 0.371185 0.141376
Si Si3 0.741246 0.984627 0.079740
Si Si4 0.742734 0.738249 0.317651
Si Si5 0.284368 0.761392 0.403970
Si Si6 0.285337 0.898578 0.112079
O O1 0.266664 0.264793 0.874028
O O2 0.930063 0.370589 0.482621
O O3 0.182074 0.219509 0.947464
O O4 0.302794 0.925164 0.578826
O O5 0.512722 0.632536 0.092840
O O6 0.787033 0.301069 0.927609
O O7 0.816894 0.167540 0.064259
O O8 0.827756 0.076812 0.430777
O O9 0.467894 0.187123 0.881409
O O10 0.822932 0.928680 0.986514
O O11 0.000000 0.500000 0.500000
O O12 0.684943 0.972810 0.565127
O O13 0.500000 0.500000 0.500000
#
# Coordination Sequence:
#
# PCOD9103768 Si02
#       6
#     2   2   2   2   2   2
#     4  10  23  40  65  92 125 167 210 254 306 383
#     4  11  21  41  67  96 125 163 207 261 330 354
#     4  10  23  40  62  93 128 162 213 254 310 371
#     4  12  25  42  65  88 126 177 213 251 309 378
#     4  10  20  38  68  91 127 160 204 266 304 378
#     4  11  23  40  64  93 128 163 208 269 310 370
#
# _framework density 26.084716
#
# number of rings (size 3 to 8) (size 9 to 14) (size 15 to 20)
#    1.000    0.333    3.333    2.500    0.000    0.667 
#    0.000    8.333    0.000    0.000    0.000    0.000 
#    0.000    0.000    0.000    0.000    0.000    0.000 
#
# Total GULP energy -66892.035629 kJ/mol
# GULP energy per Si atom -5574.336302 kJ/mol
# Density = 2.602535 g / cm^3
# Si number density = 26.084716 Si / 1000 Ang^3
#
#
#
# Elastic Constant Matrix: (Units=GPa)
#
#
# Indices 1 2 3 4 5 6 
#
# 1 142.7595 -3.6865 27.4660 -12.0900 -18.7250 33.0979
# 2 -3.6865 83.7752 -6.7115 4.7756 -8.4560 -0.0985
# 3 27.4660 -6.7115 91.5101 -18.1416 -3.8264 -10.0155
# 4 -12.0900 4.7756 -18.1416 35.9242 6.9763 -4.9222
# 5 -18.7250 -8.4560 -3.8264 6.9763 52.1465 -8.0085
# 6 33.0979 -0.0985 -10.0155 -4.9222 -8.0085 33.0523
#
#
#
# Elastic Compliance Matrix: (Units=1/GPa)
#
#
# Indices 1 2 3 4 5 6 
#
# 1 0.010842 0.000325 -0.004595 -0.000710 0.001876 -0.011899
# 2 0.000325 0.012339 0.000604 -0.001664 0.002420 0.000233
# 3 -0.004595 0.000604 0.014923 0.007285 0.000142 0.010244
# 4 -0.000710 -0.001664 0.007285 0.033110 -0.003339 0.007035
# 5 0.001876 0.002420 0.000142 -0.003339 0.021129 0.002794
# 6 -0.011899 0.000233 0.010244 0.007035 0.002794 0.047000
#
#
# Mechanical properties :
#
#
# Convention : Reuss Voigt Hill
#
# Bulk Modulus (GPa) = 32.49708 39.13117 35.81413
# Shear Modulus (GPa) = 31.86098 44.28972 38.07535
#
# Velocity S-wave (km/s) = 3.49871 4.12505 3.82472
# Velocity P-wave (km/s) = 5.36718 6.14184 5.76753
#
# Compressibility (1/GPa) = 0.03077200
#
# Stress axis : x y z
#
# Youngs Moduli (GPa) = 92.23392 81.04499 67.01248
#
# Poissons Ratio (x) = -0.02633 0.30791
# Poissons Ratio (y) = -0.02996 -0.04050
# Poissons Ratio (z) = 0.42380 -0.04898
#
# Static dielectric constant tensor:
#      x y z
#    x 2.077020 0.042600 -0.007870 
#    y 0.042600 2.092420 -0.122480 
#    z -0.007870 -0.122480 2.097740 
# 
# From -- ./inp_files/334586.got.cif
#   From: 2010.05.17/outbox.cif.g08.bks.cpg/sg2_168_cif.got.tgz:334586.got - 2010.06.03 11:33:40.
