data_PCOD9103282
_publ_section_title
;
Structure prediction by ZEFSAII (Michael W. Deem and Ramdas Pophale) SiO2 
 PCOD9103282
Probable space group: P -1
;
_chemical_formula_sum "Si O2"
_cell_formula_units_Z 16
_cell_length_a 10.998033
_cell_length_b 19.934817
_cell_length_c 17.184872
_cell_angle_alpha 157.631557
_cell_angle_beta 30.285117
_cell_angle_gamma 146.735435
_cell_volume 709.076083
_symmetry_space_group_name_H-M "P -1"
_symmetry_group_IT_number 2
_symmetry_cell_setting 'triclinic'
loop_
_space_group_symop_operation_xyz
x,y,z
-x,-y,-z
loop_
_atom_site_type_symbol
_atom_site_label
_atom_site_fract_x
_atom_site_fract_y
_atom_site_fract_z
Si Si1 0.748273 0.037178 0.853823
Si Si2 0.579364 0.643139 0.267715
Si Si3 0.689771 0.354827 0.782339
Si Si4 0.139875 0.780745 0.595594
Si Si5 0.007791 0.283611 0.673033
Si Si6 0.165022 0.131950 0.855204
Si Si7 0.128985 0.706951 0.077612
Si Si8 0.177177 0.358946 0.246329
O O1 0.727368 0.174491 0.942564
O O2 0.969107 0.114407 0.875069
O O3 0.812633 0.855286 0.586695
O O4 0.500000 0.000000 0.000000
O O5 0.389839 0.775610 0.500414
O O6 0.446656 0.482375 0.225188
O O7 0.845021 0.727190 0.242502
O O8 0.627138 0.535516 0.047556
O O9 0.853961 0.382567 0.643622
O O10 0.437545 0.211044 0.758260
O O11 0.844289 0.278917 0.681869
O O12 0.908556 0.762377 0.761226
O O13 0.153959 0.945042 0.705911
O O14 0.830875 0.233580 0.791751
O O15 0.133035 0.494814 0.840152
O O16 0.127248 0.257618 0.083734
O O17 0.000000 0.500000 0.500000
#
# Coordination Sequence:
#
# PCOD9103282 Si02
#       8
#     2   2   2   2   2   2   2   2
#     4  12  27  46  66  99 136 175 221 271 334 394
#     4   9  20  37  63  97 122 170 214 259 331 383
#     4  10  20  38  65  95 128 159 217 269 314 391
#     4  11  19  34  61  91 130 163 202 270 322 378
#     4  10  23  46  68 102 127 175 229 264 330 388
#     4  11  23  41  60  96 130 164 217 267 329 386
#     4  10  23  46  72  94 133 176 224 275 318 395
#     4   9  21  38  56  90 129 165 209 258 323 391
#
# _framework density 22.564575999999999
#
# number of rings (size 3 to 8) (size 9 to 14) (size 15 to 20)
#    0.000    1.750    1.250    2.250    1.750    7.500 
#   11.250    0.000    0.000    0.000    0.000    0.000 
#    0.000    0.000    0.000    0.000    0.000    0.000 
#
# Total GULP energy -89398.419112 kJ/mol
# GULP energy per Si atom -5587.401195 kJ/mol
# Density = 2.251322 g / cm^3
# Si number density = 22.564576 Si / 1000 Ang^3
#
#
#
# Elastic Constant Matrix: (Units=GPa)
#
#
# Indices 1 2 3 4 5 6 
#
# 1 74.5408 25.1457 20.5505 1.8671 12.4921 -24.2156
# 2 25.1457 90.3884 52.2295 -8.3785 11.5989 -40.1508
# 3 20.5505 52.2295 77.0200 -12.0019 10.8192 -20.2733
# 4 1.8671 -8.3785 -12.0019 26.1438 -15.7975 -0.3522
# 5 12.4921 11.5989 10.8192 -15.7975 26.7877 -0.7909
# 6 -24.2156 -40.1508 -20.2733 -0.3522 -0.7909 43.6005
#
#
#
# Elastic Compliance Matrix: (Units=1/GPa)
#
#
# Indices 1 2 3 4 5 6 
#
# 1 0.020183 0.002526 -0.003712 -0.011528 -0.015467 0.011436
# 2 0.002526 0.028522 -0.013563 -0.002279 -0.008769 0.021184
# 3 -0.003712 -0.013563 0.023058 0.008320 0.003087 -0.003706
# 4 -0.011528 -0.002279 0.008320 0.068163 0.043103 -0.003300
# 5 -0.015467 -0.008769 0.003087 0.043103 0.072112 -0.013574
# 6 0.011436 0.021184 -0.003706 -0.003300 -0.013574 0.046799
#
#
# Mechanical properties :
#
#
# Convention : Reuss Voigt Hill
#
# Bulk Modulus (GPa) = 23.65935 48.64449 36.15192
# Shear Modulus (GPa) = 16.53325 28.90795 22.72060
#
# Velocity S-wave (km/s) = 2.70979 3.58316 3.17663
# Velocity P-wave (km/s) = 4.50539 6.22281 5.43240
#
# Compressibility (1/GPa) = 0.04226660
#
# Stress axis : x y z
#
# Youngs Moduli (GPa) = 49.54755 35.06121 43.36818
#
# Poissons Ratio (x) = -0.08857 0.16097
# Poissons Ratio (y) = -0.12517 0.58819
# Poissons Ratio (z) = 0.18390 0.47552
#
# Static dielectric constant tensor:
#      x y z
#    x 1.902730 -0.060200 0.004720 
#    y -0.060200 1.901150 0.000120 
#    z 0.004720 0.000120 1.928680 
# 
# From -- ./inp_files/570782.got.cif
#   From: 2010.05.17/outbox.cif.g08.bks.cpg/sg2_286_cif.got.tgz:570782.got - 2010.06.03 11:33:40.
