data_PCOD9103390
_publ_section_title
;
Structure prediction by ZEFSAII (Michael W. Deem and Ramdas Pophale) SiO2 
 PCOD9103390
Probable space group: P -1
;
_chemical_formula_sum "Si O2"
_cell_formula_units_Z 16
_cell_length_a 9.344787
_cell_length_b 9.562012
_cell_length_c 14.931473
_cell_angle_alpha 82.584541
_cell_angle_beta 133.062839
_cell_angle_gamma 72.493147
_cell_volume 815.517993
_symmetry_space_group_name_H-M "P -1"
_symmetry_group_IT_number 2
_symmetry_cell_setting 'triclinic'
loop_
_space_group_symop_operation_xyz
x,y,z
-x,-y,-z
loop_
_atom_site_type_symbol
_atom_site_label
_atom_site_fract_x
_atom_site_fract_y
_atom_site_fract_z
Si Si1 0.528200 0.594994 0.922000
Si Si2 0.439050 0.948367 0.851293
Si Si3 0.484724 0.412340 0.284295
Si Si4 0.962907 0.535776 0.822996
Si Si5 0.105876 0.192299 0.834856
Si Si6 0.757163 0.034647 0.425299
Si Si7 0.576454 0.346993 0.614647
Si Si8 0.313523 0.172340 0.451913
O O1 0.433629 0.785899 0.891576
O O2 0.437653 0.594209 0.784329
O O3 0.500000 0.500000 0.000000
O O4 0.801900 0.506356 0.028424
O O5 0.396156 0.958432 0.725844
O O6 0.234147 0.105497 0.804312
O O7 0.690609 0.909233 0.994769
O O8 0.223097 0.458608 0.189139
O O9 0.630923 0.220790 0.398586
O O10 0.496789 0.553138 0.331462
O O11 0.855392 0.702754 0.706099
O O12 0.036525 0.382854 0.798849
O O13 0.855738 0.215046 0.739303
O O14 0.800727 0.885886 0.519863
O O15 0.000000 0.000000 0.500000
O O16 0.500000 0.500000 0.500000
O O17 0.439879 0.257925 0.542397
O O18 0.500000 0.000000 0.500000
#
# Coordination Sequence:
#
# PCOD9103390 Si02
#       8
#     2   2   2   2   2   2   2   2
#     4  10  22  38  63  93 123 166 216 259 316 383
#     4   9  21  40  61  89 129 168 208 254 326 375
#     4  10  21  43  62  90 127 166 213 259 323 378
#     4  10  20  38  66  88 123 166 212 259 317 376
#     4   9  19  40  66  87 123 168 208 260 317 381
#     4  11  25  40  63  92 132 172 210 264 319 381
#     4  11  21  40  67  95 125 166 216 266 322 375
#     4  12  24  41  63  97 127 164 221 261 322 390
#
# _framework density 19.619432
#
# number of rings (size 3 to 8) (size 9 to 14) (size 15 to 20)
#    0.000    1.750    3.750    0.375    7.000    1.000 
#    6.750    1.875    0.000    0.000    0.000    0.000 
#    0.000    0.000    0.000    0.000    0.000    0.000 
#
# Total GULP energy -89219.107078 kJ/mol
# GULP energy per Si atom -5576.194192 kJ/mol
# Density = 1.957478 g / cm^3
# Si number density = 19.619432 Si / 1000 Ang^3
#
#
#
# Elastic Constant Matrix: (Units=GPa)
#
#
# Indices 1 2 3 4 5 6 
#
# 1 79.5393 43.2367 9.9379 -6.1035 -10.6586 5.4070
# 2 43.2367 83.8803 24.1891 -11.7854 3.6216 -5.6079
# 3 9.9379 24.1891 41.6842 -8.2271 -1.1891 -5.0828
# 4 -6.1035 -11.7854 -8.2271 30.2227 1.4387 5.7124
# 5 -10.6586 3.6216 -1.1891 1.4387 38.0889 -9.3174
# 6 5.4070 -5.6079 -5.0828 5.7124 -9.3174 28.2429
#
#
#
# Elastic Compliance Matrix: (Units=1/GPa)
#
#
# Indices 1 2 3 4 5 6 
#
# 1 0.019296 -0.010783 0.001452 0.000557 0.005502 -0.003871
# 2 -0.010783 0.020827 -0.008701 0.003357 -0.004818 0.002365
# 3 0.001452 -0.008701 0.030045 0.004285 0.002861 0.003478
# 4 0.000557 0.003357 0.004285 0.037199 -0.003209 -0.007251
# 5 0.005502 -0.004818 0.002861 -0.003209 0.030736 0.009294
# 6 -0.003871 0.002365 0.003478 -0.007251 0.009294 0.041777
#
#
# Mechanical properties :
#
#
# Convention : Reuss Voigt Hill
#
# Bulk Modulus (GPa) = 29.32345 39.98123 34.65234
# Shear Modulus (GPa) = 21.99623 27.82691 24.91157
#
# Velocity S-wave (km/s) = 3.35198 3.77016 3.56721
# Velocity P-wave (km/s) = 5.47354 6.27493 5.88789
#
# Compressibility (1/GPa) = 0.03410240
#
# Stress axis : x y z
#
# Youngs Moduli (GPa) = 51.82509 48.01454 33.28378
#
# Poissons Ratio (x) = 0.51774 -0.04832
# Poissons Ratio (y) = 0.55882 0.28962
# Poissons Ratio (z) = -0.07524 0.41779
#
# Static dielectric constant tensor:
#      x y z
#    x 1.715780 -0.021890 -0.017100 
#    y -0.021890 1.691100 0.032670 
#    z -0.017100 0.032670 1.759190 
# 
# From -- ./inp_files/262044.got.cif
#   From: 2010.05.17/outbox.cif.g08.bks.cpg/sg2_132_cif.got.tgz:262044.got - 2010.06.03 11:33:40.
