data_PCOD9103393
_publ_section_title
;
Structure prediction by ZEFSAII (Michael W. Deem and Ramdas Pophale) SiO2 
 PCOD9103393
Probable space group: P -1
;
_chemical_formula_sum "Si O2"
_cell_formula_units_Z 16
_cell_length_a 9.019619
_cell_length_b 20.554653
_cell_length_c 10.726715
_cell_angle_alpha 52.620017
_cell_angle_beta 67.499275
_cell_angle_gamma 30.175516
_cell_volume 742.323276
_symmetry_space_group_name_H-M "P -1"
_symmetry_group_IT_number 2
_symmetry_cell_setting 'triclinic'
loop_
_space_group_symop_operation_xyz
x,y,z
-x,-y,-z
loop_
_atom_site_type_symbol
_atom_site_label
_atom_site_fract_x
_atom_site_fract_y
_atom_site_fract_z
Si Si1 0.250969 0.005960 0.081724
Si Si2 0.548511 0.543629 0.820701
Si Si3 0.572372 0.993212 0.345415
Si Si4 0.322260 0.816368 0.568368
Si Si5 0.089302 0.897557 0.269813
Si Si6 0.532690 0.561486 0.510881
Si Si7 0.171541 0.195332 0.025245
Si Si8 0.771025 0.748910 0.429153
O O1 0.079650 0.996461 0.115459
O O2 0.505239 0.879161 0.257485
O O3 0.059637 0.168273 0.006469
O O4 0.476882 0.935839 0.980077
O O5 0.401207 0.693334 0.740003
O O6 0.451159 0.575229 0.667438
O O7 0.500000 0.500000 0.000000
O O8 0.929279 0.375185 0.883332
O O9 0.783990 0.828577 0.406721
O O10 0.756263 0.998437 0.274434
O O11 0.500000 0.000000 0.500000
O O12 0.239389 0.140199 0.208736
O O13 0.258552 0.829110 0.428871
O O14 0.617723 0.747082 0.568003
O O15 0.000000 0.000000 0.500000
O O16 0.321587 0.728905 0.329368
O O17 0.500000 0.500000 0.500000
O O18 0.904199 0.419625 0.543190
#
# Coordination Sequence:
#
# PCOD9103393 Si02
#       8
#     2   2   2   2   2   2   2   2
#     4   9  20  38  64  89 119 163 221 270 325 383
#     4  11  26  40  66  99 134 173 221 277 334 396
#     4  11  23  38  61  91 130 176 218 262 332 409
#     4  10  23  41  67  97 127 172 226 271 327 403
#     4  10  22  36  64  93 123 168 226 270 322 395
#     4  11  22  40  66  98 131 169 223 277 333 390
#     4  10  22  40  62  89 128 167 216 271 337 383
#     4  10  20  38  66  88 124 169 216 274 321 395
#
# _framework density 21.553951999999999
#
# number of rings (size 3 to 8) (size 9 to 14) (size 15 to 20)
#    0.000    1.750    2.500    0.750   10.500    2.000 
#    0.000    0.000    0.000    3.750    0.000    0.000 
#    0.000    0.000    0.000    0.000    0.000    0.000 
#
# Total GULP energy -89195.350106 kJ/mol
# GULP energy per Si atom -5574.709382 kJ/mol
# Density = 2.150489 g / cm^3
# Si number density = 21.553952 Si / 1000 Ang^3
#
#
#
# Elastic Constant Matrix: (Units=GPa)
#
#
# Indices 1 2 3 4 5 6 
#
# 1 113.1010 26.5061 34.5459 8.7188 -35.2378 2.2413
# 2 26.5061 82.2341 27.2132 -8.0195 -23.0027 5.1850
# 3 34.5459 27.2132 93.1793 3.1525 -24.6334 10.4844
# 4 8.7188 -8.0195 3.1525 36.4744 4.5026 -3.8637
# 5 -35.2378 -23.0027 -24.6334 4.5026 41.1605 0.8425
# 6 2.2413 5.1850 10.4844 -3.8637 0.8425 26.5172
#
#
#
# Elastic Compliance Matrix: (Units=1/GPa)
#
#
# Indices 1 2 3 4 5 6 
#
# 1 0.013164 -0.001267 -0.001513 -0.004688 0.010194 -0.001273
# 2 -0.001267 0.015380 -0.002405 0.003000 0.005777 -0.001696
# 3 -0.001513 -0.002405 0.014432 -0.002813 0.006423 -0.005722
# 4 -0.004688 0.003000 -0.002813 0.030970 -0.007525 0.005674
# 5 0.010194 0.005777 0.006423 -0.007525 0.041060 -0.006932
# 6 -0.001273 -0.001696 -0.005722 0.005674 -0.006932 0.041460
#
#
# Mechanical properties :
#
#
# Convention : Reuss Voigt Hill
#
# Bulk Modulus (GPa) = 30.67068 51.67165 41.17116
# Shear Modulus (GPa) = 28.13629 34.18039 31.15834
#
# Velocity S-wave (km/s) = 3.61694 3.98654 3.80623
# Velocity P-wave (km/s) = 5.63059 6.72422 6.20156
#
# Compressibility (1/GPa) = 0.03260443
#
# Stress axis : x y z
#
# Youngs Moduli (GPa) = 75.96641 65.01772 69.28832
#
# Poissons Ratio (x) = 0.08241 0.10485
# Poissons Ratio (y) = 0.09629 0.16666
# Poissons Ratio (z) = 0.11496 0.15639
#
# Static dielectric constant tensor:
#      x y z
#    x 1.826860 -0.005840 -0.027460 
#    y -0.005840 1.832000 0.077390 
#    z -0.027460 0.077390 1.853610 
# 
# From -- ./inp_files/405480.got.cif
#   From: 2010.05.17/outbox.cif.g08.bks.cpg/sg2_203_cif.got.tgz:405480.got - 2010.06.03 11:33:40.
