data_PCOD9103588
_publ_section_title
;
Structure prediction by ZEFSAII (Michael W. Deem and Ramdas Pophale) SiO2 
 PCOD9103588
Probable space group: P -1
;
_chemical_formula_sum "Si O2"
_cell_formula_units_Z 10
_cell_length_a 5.001227
_cell_length_b 11.526046
_cell_length_c 8.287439
_cell_angle_alpha 58.533494
_cell_angle_beta 85.803931
_cell_angle_gamma 107.017681
_cell_volume 374.382109
_symmetry_space_group_name_H-M "P -1"
_symmetry_group_IT_number 2
_symmetry_cell_setting 'triclinic'
loop_
_space_group_symop_operation_xyz
x,y,z
-x,-y,-z
loop_
_atom_site_type_symbol
_atom_site_label
_atom_site_fract_x
_atom_site_fract_y
_atom_site_fract_z
Si Si1 0.728580 0.855188 0.683897
Si Si2 0.801998 0.578905 0.019736
Si Si3 0.962524 0.664565 0.296060
Si Si4 0.321049 0.942472 0.889688
Si Si5 0.522852 0.736427 0.446211
O O1 0.869560 0.747681 0.835411
O O2 0.524220 0.896758 0.789365
O O3 0.510368 0.759854 0.621077
O O4 0.000000 0.000000 0.500000
O O5 0.500000 0.500000 0.000000
O O6 0.000000 0.500000 0.000000
O O7 0.820410 0.556801 0.229130
O O8 0.249583 0.678387 0.375224
O O9 0.731123 0.654587 0.448643
O O10 0.053674 0.811740 0.077006
O O11 0.286702 0.088804 0.726291
O O12 0.500000 0.000000 0.000000
#
# Coordination Sequence:
#
# PCOD9103588 Si02
#       5
#     2   2   2   2   2
#     4  12  25  45  75 112 145 183 240 305 354 410
#     4  12  27  49  73 101 141 194 240 285 353 437
#     4  11  23  44  68  99 143 194 235 282 355 438
#     4  10  20  38  67 105 144 185 229 286 354 424
#     4  11  23  40  67 107 145 182 232 300 358 409
#
# _framework density 26.710678999999999
#
# number of rings (size 3 to 8) (size 9 to 14) (size 15 to 20)
#    0.000    0.800    0.000    9.600    0.000    4.800 
#    0.000    6.000    0.000    0.000    0.000    0.000 
#    0.000    0.000    0.000    0.000    0.000    0.000 
#
# Total GULP energy -55849.699417 kJ/mol
# GULP energy per Si atom -5584.969942 kJ/mol
# Density = 2.664988 g / cm^3
# Si number density = 26.710679 Si / 1000 Ang^3
#
#
#
# Elastic Constant Matrix: (Units=GPa)
#
#
# Indices 1 2 3 4 5 6 
#
# 1 143.9564 67.1497 23.0526 22.0890 -4.5024 5.5928
# 2 67.1497 164.2461 59.9269 59.7106 -6.8128 4.6149
# 3 23.0526 59.9269 130.9052 10.2201 5.9224 1.7383
# 4 22.0890 59.7106 10.2201 79.9215 -1.9006 9.5496
# 5 -4.5024 -6.8128 5.9224 -1.9006 58.0395 21.1142
# 6 5.5928 4.6149 1.7383 9.5496 21.1142 64.2495
#
#
#
# Elastic Compliance Matrix: (Units=1/GPa)
#
#
# Indices 1 2 3 4 5 6 
#
# 1 0.008625 -0.003699 0.000125 0.000462 0.000500 -0.000721
# 2 -0.003699 0.011847 -0.004261 -0.007288 0.001200 0.000275
# 3 0.000125 -0.004261 0.009486 0.001871 -0.001488 0.000249
# 4 0.000462 -0.007288 0.001871 0.017884 0.000437 -0.002369
# 5 0.000500 0.001200 -0.001488 0.000437 0.020026 -0.006735
# 6 -0.000721 0.000275 0.000249 -0.002369 -0.006735 0.018166
#
#
# Mechanical properties :
#
#
# Convention : Reuss Voigt Hill
#
# Bulk Modulus (GPa) = 69.98613 82.15180 76.06896
# Shear Modulus (GPa) = 46.96427 59.70734 53.33581
#
# Velocity S-wave (km/s) = 4.19771 4.73306 4.47340
# Velocity P-wave (km/s) = 7.05356 7.79051 7.43118
#
# Compressibility (1/GPa) = 0.01428854
#
# Stress axis : x y z
#
# Youngs Moduli (GPa) = 115.94839 84.41111 105.42291
#
# Poissons Ratio (x) = 0.31220 -0.01321
# Poissons Ratio (y) = 0.42884 0.44920
# Poissons Ratio (z) = -0.01453 0.35967
#
# Static dielectric constant tensor:
#      x y z
#    x 2.007430 0.187470 -0.019760 
#    y 0.187470 2.444400 -0.150510 
#    z -0.019760 -0.150510 2.484300 
# 
# From -- ./inp_files/58392.got.cif
#   From: 2010.05.17/outbox.cif.g08.bks.cpg/sg2_30_cif.got.tgz:58392.got - 2010.06.03 11:33:40.
