data_PCOD9103331
_publ_section_title
;
Structure prediction by ZEFSAII (Michael W. Deem and Ramdas Pophale) SiO2 
 PCOD9103331
Probable space group: P -1
;
_chemical_formula_sum "Si O2"
_cell_formula_units_Z 16
_cell_length_a 11.519431
_cell_length_b 5.649222
_cell_length_c 16.829848
_cell_angle_alpha 106.101073
_cell_angle_beta 126.929218
_cell_angle_gamma 56.481287
_cell_volume 727.462409
_symmetry_space_group_name_H-M "P -1"
_symmetry_group_IT_number 2
_symmetry_cell_setting 'triclinic'
loop_
_space_group_symop_operation_xyz
x,y,z
-x,-y,-z
loop_
_atom_site_type_symbol
_atom_site_label
_atom_site_fract_x
_atom_site_fract_y
_atom_site_fract_z
Si Si1 0.755937 0.899432 0.133857
Si Si2 0.056182 0.499356 0.309869
Si Si3 0.391820 0.977329 0.379865
Si Si4 0.588781 0.433671 0.226517
Si Si5 0.897422 0.455839 0.383735
Si Si6 0.131867 0.886130 0.470358
Si Si7 0.466304 0.776460 0.061076
Si Si8 0.504608 0.310897 0.340057
O O1 0.624145 0.814509 0.108087
O O2 0.950320 0.667952 0.205473
O O3 0.707651 0.185876 0.190673
O O4 0.699084 0.973674 0.025653
O O5 0.190264 0.172526 0.321817
O O6 0.166655 0.603579 0.414055
O O7 0.902420 0.604843 0.319779
O O8 0.426894 0.139488 0.335836
O O9 0.500000 0.000000 0.500000
O O10 0.436051 0.646861 0.363174
O O11 0.715321 0.508382 0.333245
O O12 0.466303 0.698674 0.145904
O O13 0.507516 0.318496 0.245797
O O14 0.000000 0.500000 0.500000
O O15 0.024774 0.128097 0.385922
O O16 0.301788 0.860004 0.567342
O O17 0.000000 0.000000 0.500000
O O18 0.500000 0.500000 0.000000
#
# Coordination Sequence:
#
# PCOD9103331 Si02
#       8
#     2   2   2   2   2   2   2   2
#     4  10  20  38  65  99 126 159 208 272 343 402
#     4  12  23  38  62  84 127 171 218 264 314 393
#     4  12  28  46  60  87 131 192 230 264 303 375
#     4  11  22  37  64  95 132 165 207 274 339 387
#     4  12  23  34  57  96 130 164 209 267 329 384
#     4  12  22  36  56  91 124 163 207 270 327 378
#     4   9  20  38  62 100 129 156 196 267 362 400
#     4  12  27  43  64  90 133 179 228 264 317 383
#
# _framework density 21.994266
#
# number of rings (size 3 to 8) (size 9 to 14) (size 15 to 20)
#    0.000    0.750    6.250    1.125    5.250    0.000 
#    0.000    0.000    0.000    1.500    0.000    0.000 
#    0.000    0.000    0.000    0.000    0.000    0.000 
#
# Total GULP energy -89183.332156 kJ/mol
# GULP energy per Si atom -5573.958260 kJ/mol
# Density = 2.194421 g / cm^3
# Si number density = 21.994266 Si / 1000 Ang^3
#
#
#
# Elastic Constant Matrix: (Units=GPa)
#
#
# Indices 1 2 3 4 5 6 
#
# 1 94.8885 10.7019 33.9244 -15.6873 -13.3797 18.4806
# 2 10.7019 82.0706 26.2798 -8.9845 3.9425 -5.5439
# 3 33.9244 26.2798 126.6959 -31.3014 -8.1683 0.8663
# 4 -15.6873 -8.9845 -31.3014 36.5971 9.0489 3.6933
# 5 -13.3797 3.9425 -8.1683 9.0489 28.4143 -10.7978
# 6 18.4806 -5.5439 0.8663 3.6933 -10.7978 32.6611
#
#
#
# Elastic Compliance Matrix: (Units=1/GPa)
#
#
# Indices 1 2 3 4 5 6 
#
# 1 0.013974 -0.001260 -0.002306 0.004067 0.001783 -0.007930
# 2 -0.001260 0.013507 -0.002348 0.001252 -0.002778 0.002008
# 3 -0.002306 -0.002348 0.010931 0.007888 -0.000268 -0.000364
# 4 0.004067 0.001252 0.007888 0.040508 -0.013159 -0.011229
# 5 0.001783 -0.002778 -0.000268 -0.013159 0.046362 0.015342
# 6 -0.007930 0.002008 -0.000364 -0.011229 0.015342 0.041797
#
#
# Mechanical properties :
#
#
# Convention : Reuss Voigt Hill
#
# Bulk Modulus (GPa) = 37.61635 49.49635 43.55635
# Shear Modulus (GPa) = 26.62860 35.05108 30.83984
#
# Velocity S-wave (km/s) = 3.48330 3.99638 3.74863
# Velocity P-wave (km/s) = 5.77215 6.62177 6.21150
#
# Compressibility (1/GPa) = 0.02658418
#
# Stress axis : x y z
#
# Youngs Moduli (GPa) = 71.56385 74.03664 91.48002
#
# Poissons Ratio (x) = 0.09326 0.21098
# Poissons Ratio (y) = 0.09015 0.21478
# Poissons Ratio (z) = 0.16504 0.17383
#
# Static dielectric constant tensor:
#      x y z
#    x 1.952630 0.169730 -0.052120 
#    y 0.169730 2.036870 -0.004870 
#    z -0.052120 -0.004870 1.844380 
# 
# From -- ./inp_files/564491.got.cif
#   From: 2010.05.17/outbox.cif.g08.bks.cpg/sg2_283_cif.got.tgz:564491.got - 2010.06.03 11:33:40.
