data_PCOD9103479
_publ_section_title
;
Structure prediction by ZEFSAII (Michael W. Deem and Ramdas Pophale) SiO2 
 PCOD9103479
Probable space group: P -1
;
_chemical_formula_sum "Si O2"
_cell_formula_units_Z 14
_cell_length_a 9.742016
_cell_length_b 11.381301
_cell_length_c 9.204452
_cell_angle_alpha 68.001974
_cell_angle_beta 70.210547
_cell_angle_gamma 46.274899
_cell_volume 678.978908
_symmetry_space_group_name_H-M "P -1"
_symmetry_group_IT_number 2
_symmetry_cell_setting 'triclinic'
loop_
_space_group_symop_operation_xyz
x,y,z
-x,-y,-z
loop_
_atom_site_type_symbol
_atom_site_label
_atom_site_fract_x
_atom_site_fract_y
_atom_site_fract_z
Si Si1 0.042976 0.237774 0.232652
Si Si2 0.621562 0.311431 0.851399
Si Si3 0.277875 0.603253 0.492584
Si Si4 0.841746 0.577174 0.734166
Si Si5 0.251649 0.613565 0.975015
Si Si6 0.449834 0.914066 0.166507
Si Si7 0.750954 0.680660 0.412023
O O1 0.095351 0.352853 0.204154
O O2 0.883509 0.278778 0.384432
O O3 0.943520 0.286530 0.089134
O O4 0.239612 0.051686 0.244353
O O5 0.752449 0.296916 0.685978
O O6 0.428748 0.503302 0.851904
O O7 0.554912 0.211650 0.868728
O O8 0.727134 0.275482 0.982988
O O9 0.500000 0.500000 0.500000
O O10 0.262778 0.463209 0.531624
O O11 0.737093 0.708353 0.577549
O O12 0.034882 0.407885 0.675972
O O13 0.729768 0.524130 0.870046
O O14 0.599564 0.822293 0.288203
O O15 0.500000 0.000000 0.000000
#
# Coordination Sequence:
#
# PCOD9103479 Si02
#       7
#     2   2   2   2   2   2   2
#     4  11  24  37  63  94 131 170 204 243 329 381
#     4  11  23  39  67  92 124 162 213 264 314 354
#     4  11  19  42  66  92 121 160 217 273 299 360
#     4  10  20  38  66  94 116 160 219 265 296 362
#     4  11  21  39  67  96 116 164 219 267 300 362
#     4  12  25  43  60  92 137 171 195 255 321 392
#     4  10  21  38  66  91 121 162 210 262 312 351
#
# _framework density 20.619198000000001
#
# number of rings (size 3 to 8) (size 9 to 14) (size 15 to 20)
#    0.000    1.143    4.286    3.000    0.000    1.714 
#    0.000    0.000    0.000    0.000    0.000    0.000 
#    0.000    0.000    0.000    0.000    0.000    0.000 
#
# Total GULP energy -78171.640694 kJ/mol
# GULP energy per Si atom -5583.688621 kJ/mol
# Density = 2.057227 g / cm^3
# Si number density = 20.619198 Si / 1000 Ang^3
#
#
#
# Elastic Constant Matrix: (Units=GPa)
#
#
# Indices 1 2 3 4 5 6 
#
# 1 101.4862 27.8667 42.6837 -3.7736 17.7518 -18.0821
# 2 27.8667 54.9265 29.3188 1.6347 12.2604 -20.6795
# 3 42.6837 29.3188 106.0803 -7.1850 5.5960 -13.1872
# 4 -3.7736 1.6347 -7.1850 29.4324 -9.8793 0.8366
# 5 17.7518 12.2604 5.5960 -9.8793 44.8014 -5.8663
# 6 -18.0821 -20.6795 -13.1872 0.8366 -5.8663 21.0998
#
#
#
# Elastic Compliance Matrix: (Units=1/GPa)
#
#
# Indices 1 2 3 4 5 6 
#
# 1 0.013861 -0.001301 -0.004197 -0.000665 -0.003850 0.006936
# 2 -0.001301 0.033326 -0.005465 -0.006042 -0.005749 0.026773
# 3 -0.004197 -0.005465 0.012686 0.003653 0.002311 -0.000527
# 4 -0.000665 -0.006042 0.003653 0.038403 0.009525 -0.003083
# 5 -0.003850 -0.005749 0.002311 0.009525 0.027191 -0.000307
# 6 0.006936 0.026773 -0.000527 -0.003083 -0.000307 0.079285
#
#
# Mechanical properties :
#
#
# Convention : Reuss Voigt Hill
#
# Bulk Modulus (GPa) = 26.35321 51.35905 38.85613
# Shear Modulus (GPa) = 20.89184 29.90831 25.40007
#
# Velocity S-wave (km/s) = 3.18657 3.81269 3.51360
# Velocity P-wave (km/s) = 5.13299 6.65917 5.94526
#
# Compressibility (1/GPa) = 0.03794605
#
# Stress axis : x y z
#
# Youngs Moduli (GPa) = 72.14669 30.00623 78.82629
#
# Poissons Ratio (x) = 0.03905 0.33085
# Poissons Ratio (y) = 0.09389 0.43079
# Poissons Ratio (z) = 0.30281 0.16398
#
# Static dielectric constant tensor:
#      x y z
#    x 1.776390 -0.001510 0.026280 
#    y -0.001510 1.719310 0.007770 
#    z 0.026280 0.007770 1.792650 
# 
# From -- ./inp_files/175993.got.cif
#   From: 2010.05.17/outbox.cif.g08.bks.cpg/sg2_88_cif.got.tgz:175993.got - 2010.06.03 11:33:40.
