data_PCOD9103505
_publ_section_title
;
Structure prediction by ZEFSAII (Michael W. Deem and Ramdas Pophale) SiO2 
 PCOD9103505
Probable space group: P -1
;
_chemical_formula_sum "Si O2"
_cell_formula_units_Z 14
_cell_length_a 9.492194
_cell_length_b 19.879467
_cell_length_c 15.585507
_cell_angle_alpha 18.237840
_cell_angle_beta 49.339142
_cell_angle_gamma 52.409647
_cell_volume 697.725093
_symmetry_space_group_name_H-M "P -1"
_symmetry_group_IT_number 2
_symmetry_cell_setting 'triclinic'
loop_
_space_group_symop_operation_xyz
x,y,z
-x,-y,-z
loop_
_atom_site_type_symbol
_atom_site_label
_atom_site_fract_x
_atom_site_fract_y
_atom_site_fract_z
Si Si1 0.214047 0.155872 0.536628
Si Si2 0.114990 0.522739 0.014084
Si Si3 0.873170 0.844170 0.800163
Si Si4 0.265986 0.084913 0.865977
Si Si5 0.904664 0.822309 0.012851
Si Si6 0.558070 0.113125 0.570688
Si Si7 0.022937 0.676131 0.416510
O O1 0.199022 0.303681 0.279921
O O2 0.415637 0.122489 0.536681
O O3 0.106184 0.282881 0.499597
O O4 0.095964 0.936707 0.832064
O O5 0.285438 0.696487 0.728892
O O6 0.000000 0.500000 0.000000
O O7 0.961326 0.614753 0.028654
O O8 0.664661 0.889762 0.799289
O O9 0.882391 0.896567 0.833643
O O10 0.000000 0.000000 0.500000
O O11 0.258328 0.101934 0.950969
O O12 0.447017 0.138422 0.673242
O O13 0.105465 0.245986 0.704686
O O14 0.193570 0.848302 0.150722
O O15 0.917471 0.566011 0.320313
#
# Coordination Sequence:
#
# PCOD9103505 Si02
#       7
#     2   2   2   2   2   2   2
#     4  10  20  38  66  95 121 163 208 258 307 360
#     4  11  22  43  64  85 125 170 210 255 318 368
#     4  10  22  41  61  87 124 167 205 254 309 371
#     4   9  20  36  62  94 129 160 202 255 313 358
#     4  11  20  38  69  90 127 167 206 244 317 379
#     4  10  22  41  60  93 130 155 210 265 298 368
#     4   9  18  37  61  94 128 163 202 252 305 380
#
# _framework density 20.065208999999999
#
# number of rings (size 3 to 8) (size 9 to 14) (size 15 to 20)
#    0.000    2.000    1.429    3.429    0.000    0.571 
#    7.714    4.286    0.000    0.000    0.000    0.000 
#    0.000    0.000    0.000    0.000    0.000    0.000 
#
# Total GULP energy -78094.355263 kJ/mol
# GULP energy per Si atom -5578.168233 kJ/mol
# Density = 2.001954 g / cm^3
# Si number density = 20.065209 Si / 1000 Ang^3
#
#
#
# Elastic Constant Matrix: (Units=GPa)
#
#
# Indices 1 2 3 4 5 6 
#
# 1 123.6207 42.6568 36.2613 6.1832 15.1075 -2.4997
# 2 42.6568 74.9704 24.0297 11.1041 12.5186 2.5057
# 3 36.2613 24.0297 87.4714 0.4787 10.6862 -13.7955
# 4 6.1832 11.1041 0.4787 23.5497 3.9117 6.1193
# 5 15.1075 12.5186 10.6862 3.9117 20.7015 7.3164
# 6 -2.4997 2.5057 -13.7955 6.1193 7.3164 32.8121
#
#
#
# Elastic Compliance Matrix: (Units=1/GPa)
#
#
# Indices 1 2 3 4 5 6 
#
# 1 0.011032 -0.004759 -0.002582 -0.000187 -0.004190 0.001087
# 2 -0.004759 0.018713 -0.002595 -0.006539 -0.005081 -0.000530
# 3 -0.002582 -0.002595 0.015382 0.000750 -0.007453 0.007991
# 4 -0.000187 -0.006539 0.000750 0.047990 -0.002697 -0.007548
# 5 -0.004190 -0.005081 -0.007453 -0.002697 0.064805 -0.017012
# 6 0.001087 -0.000530 0.007991 -0.007548 -0.017012 0.039160
#
#
# Mechanical properties :
#
#
# Convention : Reuss Voigt Hill
#
# Bulk Modulus (GPa) = 39.59472 54.66200 47.12836
# Shear Modulus (GPa) = 22.18568 27.62032 24.90300
#
# Velocity S-wave (km/s) = 3.32878 3.71418 3.52675
# Velocity P-wave (km/s) = 5.87795 6.75980 6.33424
#
# Compressibility (1/GPa) = 0.02525589
#
# Stress axis : x y z
#
# Youngs Moduli (GPa) = 90.64660 53.44012 65.01070
#
# Poissons Ratio (x) = 0.25430 0.16784
# Poissons Ratio (y) = 0.43134 0.16871
# Poissons Ratio (z) = 0.23402 0.13868
#
# Static dielectric constant tensor:
#      x y z
#    x 1.730950 0.032900 0.044150 
#    y 0.032900 1.729900 0.012960 
#    z 0.044150 0.012960 1.733870 
# 
# From -- ./inp_files/272876.got.cif
#   From: 2010.05.17/outbox.cif.g08.bks.cpg/sg2_137_cif.got.tgz:272876.got - 2010.06.03 11:33:40.
