data_PCOD9103472
_publ_section_title
;
Structure prediction by ZEFSAII (Michael W. Deem and Ramdas Pophale) SiO2 
 PCOD9103472
Probable space group: P -1
;
_chemical_formula_sum "Si O2"
_cell_formula_units_Z 13
_cell_length_a 12.530554
_cell_length_b 16.935203
_cell_length_c 20.641218
_cell_angle_alpha 21.948994
_cell_angle_beta 157.786639
_cell_angle_gamma 146.613276
_cell_volume 610.200718
_symmetry_space_group_name_H-M "P -1"
_symmetry_group_IT_number 2
_symmetry_cell_setting 'triclinic'
loop_
_space_group_symop_operation_xyz
x,y,z
-x,-y,-z
loop_
_atom_site_type_symbol
_atom_site_label
_atom_site_fract_x
_atom_site_fract_y
_atom_site_fract_z
Si Si1 0.627996 0.114285 0.738315
Si Si2 0.250093 0.479269 0.925729
Si Si3 0.624377 0.420887 0.302236
Si Si4 0.777238 0.979033 0.793024
Si Si5 0.257008 0.441932 0.596903
Si Si6 0.363494 0.281654 0.588008
Si Si7 0.500000 0.000000 0.000000
O O1 0.701950 0.339263 0.581980
O O2 0.387572 0.180240 0.606636
O O3 0.589087 0.984758 0.749212
O O4 0.909346 0.993607 0.025395
O O5 0.368219 0.487267 0.058495
O O6 0.183924 0.242848 0.053712
O O7 0.500000 0.500000 0.000000
O O8 0.965465 0.651379 0.626115
O O9 0.613052 0.553110 0.261715
O O10 0.920623 0.439553 0.418653
O O11 0.647595 0.174881 0.525646
O O12 0.403772 0.241386 0.791680
O O13 0.500000 0.500000 0.500000
O O14 0.524689 0.106041 0.860694
#
# Coordination Sequence:
#
# PCOD9103472 Si02
#       7
#     2   2   2   2   2   2   1
#     4  10  20  39  65  95 128 167 220 265 313 387
#     4  12  25  42  61  94 133 166 213 274 321 380
#     4  10  22  40  62  92 131 167 218 260 320 389
#     4  10  20  38  66  93 126 173 213 262 326 380
#     4  10  21  39  65  95 125 171 215 265 316 390
#     4  12  24  43  66  95 130 168 217 267 317 386
#     4  12  22  38  68  96 122 168 214 260 324 378
#
# _framework density 21.304466000000001
#
# number of rings (size 3 to 8) (size 9 to 14) (size 15 to 20)
#    0.000    1.231    3.077    3.231    0.000    3.692 
#    2.769    7.692    0.000    0.000    0.000    0.000 
#    0.000    0.000    0.000    0.000    0.000    0.000 
#
# Total GULP energy -72441.938215 kJ/mol
# GULP energy per Si atom -5572.456786 kJ/mol
# Density = 2.125598 g / cm^3
# Si number density = 21.304466 Si / 1000 Ang^3
#
#
#
# Elastic Constant Matrix: (Units=GPa)
#
#
# Indices 1 2 3 4 5 6 
#
# 1 107.7306 7.3700 10.1316 -1.1445 12.7208 -2.8986
# 2 7.3700 23.1977 9.0364 -3.3190 -1.7199 -7.9729
# 3 10.1316 9.0364 47.6249 -11.4178 -5.8393 0.2819
# 4 -1.1445 -3.3190 -11.4178 26.5498 -5.1722 4.3978
# 5 12.7208 -1.7199 -5.8393 -5.1722 52.0499 -9.8228
# 6 -2.8986 -7.9729 0.2819 4.3978 -9.8228 34.3198
#
#
#
# Elastic Compliance Matrix: (Units=1/GPa)
#
#
# Indices 1 2 3 4 5 6 
#
# 1 0.010026 -0.002890 -0.002296 -0.001427 -0.003038 -0.000492
# 2 -0.002890 0.052314 -0.008560 0.001377 0.004058 0.012964
# 3 -0.002296 -0.008560 0.026319 0.011354 0.003839 -0.002755
# 4 -0.001427 0.001377 0.011354 0.044365 0.005311 -0.004059
# 5 -0.003038 0.004058 0.003839 0.005311 0.022244 0.006341
# 6 -0.000492 0.012964 -0.002755 -0.004059 0.006341 0.034465
#
#
# Mechanical properties :
#
#
# Convention : Reuss Voigt Hill
#
# Bulk Modulus (GPa) = 16.34875 25.73659 21.04267
# Shear Modulus (GPa) = 21.04236 32.71826 26.88031
#
# Velocity S-wave (km/s) = 3.14617 3.92311 3.55593
# Velocity P-wave (km/s) = 4.57038 5.71206 5.17282
#
# Compressibility (1/GPa) = 0.06116677
#
# Stress axis : x y z
#
# Youngs Moduli (GPa) = 99.73664 19.11539 37.99499
#
# Poissons Ratio (x) = 0.05523 0.08725
# Poissons Ratio (y) = 0.28819 0.32525
# Poissons Ratio (z) = 0.22904 0.16364
#
# Static dielectric constant tensor:
#      x y z
#    x 1.810040 0.003130 -0.003530 
#    y 0.003130 1.784830 0.006380 
#    z -0.003530 0.006380 1.731080 
# 
# From -- ./inp_files/380506.got.cif
#   From: 2010.05.17/outbox.cif.g08.bks.cpg/sg2_191_cif.got.tgz:380506.got - 2010.06.03 11:33:40.
