data_PCOD9103801
_publ_section_title
;
Structure prediction by ZEFSAII (Michael W. Deem and Ramdas Pophale) SiO2 
 PCOD9103801
Probable space group: P -1
;
_chemical_formula_sum "Si O2"
_cell_formula_units_Z 16
_cell_length_a 5.418894
_cell_length_b 15.682828
_cell_length_c 18.609570
_cell_angle_alpha 27.884174
_cell_angle_beta 106.753442
_cell_angle_gamma 103.965070
_cell_volume 707.933761
_symmetry_space_group_name_H-M "P -1"
_symmetry_group_IT_number 2
_symmetry_cell_setting 'triclinic'
loop_
_space_group_symop_operation_xyz
x,y,z
-x,-y,-z
loop_
_atom_site_type_symbol
_atom_site_label
_atom_site_fract_x
_atom_site_fract_y
_atom_site_fract_z
Si Si1 0.340288 0.570250 0.294418
Si Si2 0.075430 0.344005 0.681010
Si Si3 0.959765 0.781564 0.475859
Si Si4 0.620914 0.014708 0.421176
Si Si5 0.883810 0.060720 0.770556
Si Si6 0.425225 0.905146 0.791174
Si Si7 0.172945 0.678358 0.042199
Si Si8 0.037522 0.702431 0.690624
O O1 0.623075 0.626939 0.300047
O O2 0.275333 0.356207 0.447953
O O3 0.308640 0.632474 0.163180
O O4 0.111542 0.643195 0.274449
O O5 0.000000 0.500000 0.500000
O O6 0.015162 0.151956 0.781175
O O7 0.137308 0.715567 0.606380
O O8 0.093536 0.796336 0.399515
O O9 0.840353 0.982831 0.329223
O O10 0.451775 0.073711 0.293431
O O11 0.811253 0.182933 0.324057
O O12 0.500000 0.000000 0.500000
O O13 0.769321 0.819094 0.572037
O O14 0.584979 0.012220 0.784854
O O15 0.016264 0.866896 0.904574
O O16 0.361556 0.715793 0.963365
O O17 0.001174 0.506065 0.138952
#
# Coordination Sequence:
#
# PCOD9103801 Si02
#       8
#     2   2   2   2   2   2   2   2
#     4  11  25  43  67  97 130 175 222 280 327 386
#     4  12  25  41  70  99 131 169 230 281 328 377
#     4   9  19  39  62  89 123 169 214 271 321 387
#     4  10  20  38  68  95 120 157 215 271 321 384
#     4  11  23  38  63  88 130 168 218 263 328 385
#     4  10  22  39  61  91 127 171 212 263 326 397
#     4  10  25  43  60  89 132 174 210 256 335 397
#     4   9  20  40  62  90 124 161 210 262 326 387
#
# _framework density 22.600982999999999
#
# number of rings (size 3 to 8) (size 9 to 14) (size 15 to 20)
#    0.000    1.750    1.250    1.875    5.250    3.500 
#    4.500    1.250    0.000    0.000    0.000    0.000 
#    0.000    0.000    0.000    0.000    0.000    0.000 
#
# Total GULP energy -89227.718563 kJ/mol
# GULP energy per Si atom -5576.732410 kJ/mol
# Density = 2.254954 g / cm^3
# Si number density = 22.600983 Si / 1000 Ang^3
#
#
#
# Elastic Constant Matrix: (Units=GPa)
#
#
# Indices 1 2 3 4 5 6 
#
# 1 74.4591 34.4088 23.8462 0.9237 -14.9900 10.5399
# 2 34.4088 118.2095 34.0197 -25.1206 -10.9363 12.2684
# 3 23.8462 34.0197 110.5116 -9.6717 -25.7598 1.2308
# 4 0.9237 -25.1206 -9.6717 34.3972 -7.3220 -6.5333
# 5 -14.9900 -10.9363 -25.7598 -7.3220 22.4378 2.9846
# 6 10.5399 12.2684 1.2308 -6.5333 2.9846 38.6456
#
#
#
# Elastic Compliance Matrix: (Units=1/GPa)
#
#
# Indices 1 2 3 4 5 6 
#
# 1 0.018176 -0.004395 -0.000702 -0.002901 0.008876 -0.004716
# 2 -0.004395 0.012859 -0.000649 0.010338 0.006171 -0.001592
# 3 -0.000702 -0.000649 0.014235 0.007335 0.017978 -0.000204
# 4 -0.002901 0.010338 0.007335 0.044788 0.025757 0.002858
# 5 0.008876 0.006171 0.017978 0.025757 0.083487 -0.007046
# 6 -0.004716 -0.001592 -0.000204 0.002858 -0.007046 0.028702
#
#
# Mechanical properties :
#
#
# Convention : Reuss Voigt Hill
#
# Bulk Modulus (GPa) = 29.60454 54.19217 41.89836
# Shear Modulus (GPa) = 22.22249 33.15649 27.68949
#
# Velocity S-wave (km/s) = 3.13909 3.83435 3.50401
# Velocity P-wave (km/s) = 5.12501 6.60551 5.91179
#
# Compressibility (1/GPa) = 0.03377860
#
# Stress axis : x y z
#
# Youngs Moduli (GPa) = 55.01693 77.76905 70.24958
#
# Poissons Ratio (x) = 0.34178 0.04929
# Poissons Ratio (y) = 0.24179 0.04560
# Poissons Ratio (z) = 0.03860 0.05048
#
# Static dielectric constant tensor:
#      x y z
#    x 1.977190 -0.064450 -0.035790 
#    y -0.064450 1.925570 0.021570 
#    z -0.035790 0.021570 1.840790 
# 
# From -- ./inp_files/46211.got.cif
#   From: 2010.05.17/outbox.cif.g08.bks.cpg/sg2_24_cif.got.tgz:46211.got - 2010.06.03 11:33:40.
