data_PCOD9103023
_publ_section_title
;
Structure prediction by ZEFSAII (Michael W. Deem and Ramdas Pophale) SiO2 
 PCOD9103023
Probable space group: P -1
;
_chemical_formula_sum "Si O2"
_cell_formula_units_Z 16
_cell_length_a 12.678781
_cell_length_b 9.650428
_cell_length_c 13.689957
_cell_angle_alpha 136.203745
_cell_angle_beta 131.660714
_cell_angle_gamma 35.187213
_cell_volume 656.184814
_symmetry_space_group_name_H-M "P -1"
_symmetry_group_IT_number 2
_symmetry_cell_setting 'triclinic'
loop_
_space_group_symop_operation_xyz
x,y,z
-x,-y,-z
loop_
_atom_site_type_symbol
_atom_site_label
_atom_site_fract_x
_atom_site_fract_y
_atom_site_fract_z
Si Si1 0.677040 0.863836 0.672480
Si Si2 0.053124 0.103963 0.892938
Si Si3 0.756460 0.636614 0.058177
Si Si4 0.731343 0.393112 0.504672
Si Si5 0.395371 0.813818 0.819412
Si Si6 0.873172 0.004303 0.562767
Si Si7 0.941198 0.270614 0.166331
Si Si8 0.722435 0.724152 0.403985
O O1 0.667836 0.673983 0.635276
O O2 0.703829 0.751878 0.522541
O O3 0.855937 0.830363 0.784672
O O4 0.479307 0.154548 0.698795
O O5 0.935113 0.093778 0.733461
O O6 0.952007 0.405380 0.008544
O O7 0.257857 0.934051 0.888976
O O8 0.051272 0.967198 0.918689
O O9 0.790450 0.497890 0.112528
O O10 0.696512 0.923998 0.170206
O O11 0.596360 0.683468 0.917852
O O12 0.613630 0.384274 0.345919
O O13 0.743288 0.245632 0.531849
O O14 0.939930 0.219778 0.498472
O O15 0.775673 0.895154 0.485769
O O16 0.878465 0.431749 0.312475
#
# Coordination Sequence:
#
# PCOD9103023 Si02
#       8
#     2   2   2   2   2   2   2   2
#     4  11  24  38  65 101 133 166 211 263 327 397
#     4  11  24  42  68  93 129 172 214 265 322 386
#     4  11  26  45  67  90 128 176 222 265 312 381
#     4  10  21  39  67  97 128 166 209 265 329 383
#     4  10  24  46  65  93 130 168 219 271 316 377
#     4  10  20  38  64  96 129 165 207 266 325 382
#     4  12  24  43  66  97 134 169 215 267 319 384
#     4  11  22  40  62  97 135 169 205 263 331 381
#
# _framework density 24.383374
#
# number of rings (size 3 to 8) (size 9 to 14) (size 15 to 20)
#    0.000    1.250    2.500    3.375    5.250    3.000 
#    4.500    0.000    0.000    0.000    0.000    0.000 
#    0.000    0.000    0.000    0.000    0.000    0.000 
#
# Total GULP energy -89634.276553 kJ/mol
# GULP energy per Si atom -5602.142285 kJ/mol
# Density = 2.432788 g / cm^3
# Si number density = 24.383374 Si / 1000 Ang^3
#
#
#
# Elastic Constant Matrix: (Units=GPa)
#
#
# Indices 1 2 3 4 5 6 
#
# 1 65.7791 35.9424 1.1813 -0.8642 5.7680 13.4087
# 2 35.9424 85.5617 23.3743 -13.7823 13.4511 8.5446
# 3 1.1813 23.3743 52.8021 -1.0067 8.4362 -4.4027
# 4 -0.8642 -13.7823 -1.0067 23.9691 5.1600 -5.3046
# 5 5.7680 13.4511 8.4362 5.1600 28.8516 -1.9615
# 6 13.4087 8.5446 -4.4027 -5.3046 -1.9615 41.6746
#
#
#
# Elastic Compliance Matrix: (Units=1/GPa)
#
#
# Indices 1 2 3 4 5 6 
#
# 1 0.022017 -0.010840 0.003679 -0.006538 0.000386 -0.005287
# 2 -0.010840 0.021929 -0.007941 0.013535 -0.008190 -0.000510
# 3 0.003679 -0.007941 0.023045 -0.002235 -0.003206 0.002444
# 4 -0.006538 0.013535 -0.002235 0.053241 -0.013516 0.005233
# 5 0.000386 -0.008190 -0.003206 -0.013516 0.041856 0.001466
# 6 -0.005287 -0.000510 0.002444 0.005233 0.001466 0.026794
#
#
# Mechanical properties :
#
#
# Convention : Reuss Voigt Hill
#
# Bulk Modulus (GPa) = 27.18314 36.12654 31.65484
# Shear Modulus (GPa) = 21.61238 28.47538 25.04388
#
# Velocity S-wave (km/s) = 2.98041 3.42104 3.20830
# Velocity P-wave (km/s) = 4.79752 5.51842 5.17055
#
# Compressibility (1/GPa) = 0.03678751
#
# Stress axis : x y z
#
# Youngs Moduli (GPa) = 45.41903 45.60153 43.39336
#
# Poissons Ratio (x) = 0.49431 -0.15963
# Poissons Ratio (y) = 0.49233 0.34458
# Poissons Ratio (z) = -0.16709 0.36212
#
# Static dielectric constant tensor:
#      x y z
#    x 1.932270 0.003160 -0.070540 
#    y 0.003160 1.938950 0.017000 
#    z -0.070540 0.017000 1.942310 
# 
# From -- ./inp_files/271715.got.cif
#   From: 2010.05.17/outbox.cif.g08.bks.cpg/sg2_136_cif.got.tgz:271715.got - 2010.06.03 11:33:40.
