data_PCOD9103230
_publ_section_title
;
Structure prediction by ZEFSAII (Michael W. Deem and Ramdas Pophale) SiO2 
 PCOD9103230
Probable space group: P -1
;
_chemical_formula_sum "Si O2"
_cell_formula_units_Z 12
_cell_length_a 11.205958
_cell_length_b 11.195171
_cell_length_c 10.289124
_cell_angle_alpha 28.504718
_cell_angle_beta 50.731011
_cell_angle_gamma 49.515740
_cell_volume 461.545633
_symmetry_space_group_name_H-M "P -1"
_symmetry_group_IT_number 2
_symmetry_cell_setting 'triclinic'
loop_
_space_group_symop_operation_xyz
x,y,z
-x,-y,-z
loop_
_atom_site_type_symbol
_atom_site_label
_atom_site_fract_x
_atom_site_fract_y
_atom_site_fract_z
Si Si1 0.362815 0.259432 0.938238
Si Si2 0.167373 0.935541 0.288043
Si Si3 0.128740 0.668454 0.835859
Si Si4 0.648498 0.477734 0.587029
Si Si5 0.664804 0.853770 0.450737
Si Si6 0.687214 0.359725 0.025063
O O1 0.208636 0.371308 0.030259
O O2 0.507242 0.332566 0.844379
O O3 0.358851 0.404657 0.664825
O O4 0.335291 0.987685 0.170959
O O5 0.117117 0.791941 0.583159
O O6 0.194284 0.756576 0.314533
O O7 0.037797 0.206875 0.098936
O O8 0.259761 0.736906 0.774809
O O9 0.641359 0.706969 0.474429
O O10 0.500000 0.000000 0.500000
O O11 0.737284 0.101191 0.151805
O O12 0.758574 0.604574 0.708280
O O13 0.500000 0.500000 0.000000
#
# Coordination Sequence:
#
# PCOD9103230 Si02
#       6
#     2   2   2   2   2   2
#     4  10  20  38  65  93 129 172 213 281 329 388
#     4  10  22  40  67  95 135 171 211 280 337 392
#     4  10  22  41  64 100 128 172 226 264 335 402
#     4  10  22  39  61  99 128 166 225 272 331 390
#     4  10  22  41  64  94 127 174 220 274 325 387
#     4  10  22  41  65  96 125 174 223 274 318 388
#
# _framework density 25.999597000000001
#
# number of rings (size 3 to 8) (size 9 to 14) (size 15 to 20)
#    0.000    2.000    0.000    3.000    4.667    0.000 
#    9.000    1.667    0.000    0.000    0.000    0.000 
#    0.000    0.000    0.000    0.000    0.000    0.000 
#
# Total GULP energy -66862.203975 kJ/mol
# GULP energy per Si atom -5571.850331 kJ/mol
# Density = 2.594042 g / cm^3
# Si number density = 25.999597 Si / 1000 Ang^3
#
#
#
# Elastic Constant Matrix: (Units=GPa)
#
#
# Indices 1 2 3 4 5 6 
#
# 1 71.5000 66.4212 -2.7596 -9.4315 -3.5179 17.1891
# 2 66.4212 199.9506 49.2743 -46.1141 -9.2124 30.0404
# 3 -2.7596 49.2743 87.5249 -32.7896 -13.5839 3.3517
# 4 -9.4315 -46.1141 -32.7896 49.0540 14.4906 -9.4479
# 5 -3.5179 -9.2124 -13.5839 14.4906 30.5087 -3.3937
# 6 17.1891 30.0404 3.3517 -9.4479 -3.3937 44.5074
#
#
#
# Elastic Compliance Matrix: (Units=1/GPa)
#
#
# Indices 1 2 3 4 5 6 
#
# 1 0.023154 -0.008780 0.005679 -0.001542 0.002885 -0.003551
# 2 -0.008780 0.010539 -0.004448 0.005590 -0.002733 -0.002409
# 3 0.005679 -0.004448 0.017553 0.007871 0.003548 0.001428
# 4 -0.001542 0.005590 0.007871 0.034376 -0.011014 0.002688
# 5 0.002885 -0.002733 0.003548 -0.011014 0.039220 0.001116
# 6 -0.003551 -0.002409 0.001428 0.002688 0.001116 0.026014
#
#
# Mechanical properties :
#
#
# Convention : Reuss Voigt Hill
#
# Bulk Modulus (GPa) = 27.66442 64.98304 46.32373
# Shear Modulus (GPa) = 28.08930 41.21666 34.65298
#
# Velocity S-wave (km/s) = 3.29047 3.98588 3.65475
# Velocity P-wave (km/s) = 5.00996 6.79934 5.97205
#
# Compressibility (1/GPa) = 0.03614751
#
# Stress axis : x y z
#
# Youngs Moduli (GPa) = 43.18922 94.88370 56.97024
#
# Poissons Ratio (x) = 0.83310 -0.32353
# Poissons Ratio (y) = 0.37921 0.25341
# Poissons Ratio (z) = -0.24527 0.42205
#
# Static dielectric constant tensor:
#      x y z
#    x 2.157700 -0.049550 -0.061510 
#    y -0.049550 2.125110 0.028440 
#    z -0.061510 0.028440 2.211800 
# 
# From -- ./inp_files/422597.got.cif
#   From: 2010.05.17/outbox.cif.g08.bks.cpg/sg2_212_cif.got.tgz:422597.got - 2010.06.03 11:33:40.
