data_PCOD9103100
_publ_section_title
;
Structure prediction by ZEFSAII (Michael W. Deem and Ramdas Pophale) SiO2 
 PCOD9103100
Probable space group: P -1
;
_chemical_formula_sum "Si O2"
_cell_formula_units_Z 12
_cell_length_a 10.822301
_cell_length_b 11.043293
_cell_length_c 6.917373
_cell_angle_alpha 63.884423
_cell_angle_beta 96.388533
_cell_angle_gamma 139.771162
_cell_volume 441.935205
_symmetry_space_group_name_H-M "P -1"
_symmetry_group_IT_number 2
_symmetry_cell_setting 'triclinic'
loop_
_space_group_symop_operation_xyz
x,y,z
-x,-y,-z
loop_
_atom_site_type_symbol
_atom_site_label
_atom_site_fract_x
_atom_site_fract_y
_atom_site_fract_z
Si Si1 0.813802 0.177067 0.954005
Si Si2 0.241773 0.410823 0.505118
Si Si3 0.904762 0.996204 0.275254
Si Si4 0.477568 0.031390 0.260319
Si Si5 0.182880 0.471660 0.081372
Si Si6 0.537949 0.592772 0.730811
O O1 0.624969 0.064423 0.132466
O O2 0.021133 0.398993 0.952142
O O3 0.819488 0.020150 0.078913
O O4 0.749294 0.162109 0.738628
O O5 0.083303 0.147903 0.681109
O O6 0.161029 0.461963 0.320448
O O7 0.345652 0.511690 0.662104
O O8 0.424439 0.504700 0.335361
O O9 0.740391 0.856791 0.522695
O O10 0.110144 0.253019 0.194424
O O11 0.500000 0.000000 0.500000
O O12 0.591109 0.274959 0.098895
O O13 0.500000 0.500000 0.000000
#
# Coordination Sequence:
#
# PCOD9103100 Si02
#       6
#     2   2   2   2   2   2
#     4   9  22  41  61  81 121 148 199 239 297 342
#     4   9  18  35  60  81 121 157 182 226 298 345
#     4   8  18  35  57  83 115 154 182 228 291 348
#     4  11  23  40  63  85 111 156 201 247 289 338
#     4  10  20  38  65  82 119 159 188 237 300 343
#     4   9  18  32  55  85 120 152 192 229 274 343
#
# _framework density 27.153300999999999
#
# number of rings (size 3 to 8) (size 9 to 14) (size 15 to 20)
#    2.000    0.667    0.000    2.000    0.000    2.000 
#    0.000    2.500    7.333    0.000    0.000    0.000 
#    0.000    0.000    0.000    0.000    0.000    0.000 
#
# Total GULP energy -66895.834259 kJ/mol
# GULP energy per Si atom -5574.652855 kJ/mol
# Density = 2.709150 g / cm^3
# Si number density = 27.153301 Si / 1000 Ang^3
#
#
#
# Elastic Constant Matrix: (Units=GPa)
#
#
# Indices 1 2 3 4 5 6 
#
# 1 46.2855 31.4603 42.8759 11.0343 3.3020 9.0310
# 2 31.4603 153.3156 59.8046 12.1017 17.1196 9.0492
# 3 42.8759 59.8046 182.3543 39.2012 8.1703 6.0539
# 4 11.0343 12.1017 39.2012 57.9059 13.6173 24.4794
# 5 3.3020 17.1196 8.1703 13.6173 39.9188 0.2586
# 6 9.0310 9.0492 6.0539 24.4794 0.2586 35.5857
#
#
#
# Elastic Compliance Matrix: (Units=1/GPa)
#
#
# Indices 1 2 3 4 5 6 
#
# 1 0.030801 -0.003539 -0.006339 0.002470 -0.000526 -0.007534
# 2 -0.003539 0.008475 -0.002191 0.002267 -0.003651 -0.002417
# 3 -0.006339 -0.002191 0.008978 -0.007280 0.002073 0.005631
# 4 0.002470 0.002267 -0.007280 0.033541 -0.010979 -0.022958
# 5 -0.000526 -0.003651 0.002073 -0.010979 0.029929 0.008044
# 6 -0.007534 -0.002417 0.005631 -0.022958 0.008044 0.045404
#
#
# Mechanical properties :
#
#
# Convention : Reuss Voigt Hill
#
# Bulk Modulus (GPa) = 41.46549 72.24854 56.85701
# Shear Modulus (GPa) = 26.41270 43.20306 34.80788
#
# Velocity S-wave (km/s) = 3.12224 3.99316 3.58425
# Velocity P-wave (km/s) = 5.31995 6.92285 6.17364
#
# Compressibility (1/GPa) = 0.02411644
#
# Stress axis : x y z
#
# Youngs Moduli (GPa) = 32.46643 117.99887 111.38514
#
# Poissons Ratio (x) = 0.41764 0.70603
# Poissons Ratio (y) = 0.11491 0.24400
# Poissons Ratio (z) = 0.20579 0.25849
#
# Static dielectric constant tensor:
#      x y z
#    x 2.325120 0.019490 0.021910 
#    y 0.019490 2.166070 0.073070 
#    z 0.021910 0.073070 2.151330 
# 
# From -- ./inp_files/96838.got.cif
#   From: 2010.05.17/outbox.cif.g08.bks.cpg/sg2_49_cif.got.tgz:96838.got - 2010.06.03 11:33:40.
