data_PCOD9103608
_publ_section_title
;
Structure prediction by ZEFSAII (Michael W. Deem and Ramdas Pophale) SiO2 
 PCOD9103608
Probable space group: P -1
;
_chemical_formula_sum "Si O2"
_cell_formula_units_Z 16
_cell_length_a 10.005435
_cell_length_b 9.173028
_cell_length_c 14.924435
_cell_angle_alpha 45.793645
_cell_angle_beta 66.941795
_cell_angle_gamma 68.882038
_cell_volume 895.517327
_symmetry_space_group_name_H-M "P -1"
_symmetry_group_IT_number 2
_symmetry_cell_setting 'triclinic'
loop_
_space_group_symop_operation_xyz
x,y,z
-x,-y,-z
loop_
_atom_site_type_symbol
_atom_site_label
_atom_site_fract_x
_atom_site_fract_y
_atom_site_fract_z
Si Si1 0.602345 0.588646 0.008606
Si Si2 0.238515 0.040768 0.269523
Si Si3 0.924673 0.562326 0.398944
Si Si4 0.917957 0.048469 0.827644
Si Si5 0.623682 0.420484 0.571372
Si Si6 0.081753 0.613452 0.006503
Si Si7 0.358140 0.628680 0.202551
Si Si8 0.873493 0.629162 0.715649
O O1 0.663742 0.794303 0.869166
O O2 0.500000 0.500000 0.000000
O O3 0.747002 0.420685 0.053222
O O4 0.501336 0.637498 0.101227
O O5 0.172474 0.143921 0.333201
O O6 0.115417 0.008295 0.242002
O O7 0.326881 0.819857 0.356530
O O8 0.756084 0.549387 0.461205
O O9 0.000000 0.500000 0.500000
O O10 0.973882 0.780078 0.268028
O O11 0.994688 0.402531 0.374866
O O12 0.759492 0.161371 0.855556
O O13 0.996632 0.841761 0.939787
O O14 0.500000 0.500000 0.500000
O O15 0.598068 0.428485 0.682059
O O16 0.082601 0.503231 0.149679
O O17 0.000000 0.500000 0.000000
O O18 0.262870 0.462352 0.256002
#
# Coordination Sequence:
#
# PCOD9103608 Si02
#       8
#     2   2   2   2   2   2   2   2
#     4  11  21  38  65  93 126 165 193 250 322 371
#     4  10  20  40  64  88 125 159 201 250 315 358
#     4  11  21  42  64  83 119 169 208 247 301 361
#     4  10  21  39  65  92 126 161 204 256 304 362
#     4  11  25  44  59  90 125 155 213 264 290 361
#     4  11  21  38  61  98 130 145 207 262 294 367
#     4  10  21  41  64  88 128 166 201 248 321 364
#     4  10  20  38  67  89 121 161 202 248 311 363
#
# _framework density 17.866769000000001
#
# number of rings (size 3 to 8) (size 9 to 14) (size 15 to 20)
#    0.000    1.500    8.750    0.000    0.000    6.500 
#    2.250    0.625    0.000    0.000    0.000    0.000 
#    0.000    0.000    0.000    0.000    0.000    0.000 
#
# Total GULP energy -89214.672964 kJ/mol
# GULP energy per Si atom -5575.917060 kJ/mol
# Density = 1.782610 g / cm^3
# Si number density = 17.866769 Si / 1000 Ang^3
#
#
#
# Elastic Constant Matrix: (Units=GPa)
#
#
# Indices 1 2 3 4 5 6 
#
# 1 126.5014 36.1992 34.6789 12.1488 11.8744 -4.2386
# 2 36.1992 109.6970 38.0122 18.6130 10.8997 6.7339
# 3 34.6789 38.0122 67.8766 17.2121 9.8655 -11.0593
# 4 12.1488 18.6130 17.2121 33.8587 -5.1285 -1.0549
# 5 11.8744 10.8997 9.8655 -5.1285 35.9866 0.2851
# 6 -4.2386 6.7339 -11.0593 -1.0549 0.2851 30.1945
#
#
#
# Elastic Compliance Matrix: (Units=1/GPa)
#
#
# Indices 1 2 3 4 5 6 
#
# 1 0.009597 -0.001662 -0.003336 -0.001108 -0.001910 0.000475
# 2 -0.001662 0.012966 -0.005944 -0.004024 -0.002280 -0.005421
# 3 -0.003336 -0.005944 0.024120 -0.008254 -0.004962 0.009450
# 4 -0.001108 -0.004024 -0.008254 0.037706 0.009229 -0.001051
# 5 -0.001910 -0.002280 -0.004962 0.009229 0.031797 -0.001555
# 6 0.000475 -0.005421 0.009450 -0.001051 -0.001555 0.037833
#
#
# Mechanical properties :
#
#
# Convention : Reuss Voigt Hill
#
# Bulk Modulus (GPa) = 40.32414 57.98396 49.15405
# Shear Modulus (GPa) = 27.14898 33.02028 30.08463
#
# Velocity S-wave (km/s) = 3.90234 4.30366 4.10790
# Velocity P-wave (km/s) = 6.55154 7.56435 7.07609
#
# Compressibility (1/GPa) = 0.02479904
#
# Stress axis : x y z
#
# Youngs Moduli (GPa) = 104.19969 77.12352 41.46004
#
# Poissons Ratio (x) = 0.12819 0.13832
# Poissons Ratio (y) = 0.17320 0.24642
# Poissons Ratio (z) = 0.34763 0.45838
#
# Static dielectric constant tensor:
#      x y z
#    x 1.597690 -0.009950 -0.005060 
#    y -0.009950 1.636470 0.003720 
#    z -0.005060 0.003720 1.610190 
# 
# From -- ./inp_files/206280.got.cif
#   From: 2010.05.17/outbox.cif.g08.bks.cpg/sg2_104_cif.got.tgz:206280.got - 2010.06.03 11:33:40.
