data_PCOD9103456
_publ_section_title
;
Structure prediction by ZEFSAII (Michael W. Deem and Ramdas Pophale) SiO2 
 PCOD9103456
Probable space group: P -1
;
_chemical_formula_sum "Si O2"
_cell_formula_units_Z 16
_cell_length_a 13.836753
_cell_length_b 8.590649
_cell_length_c 7.737040
_cell_angle_alpha 76.422945
_cell_angle_beta 46.210735
_cell_angle_gamma 65.964320
_cell_volume 604.789532
_symmetry_space_group_name_H-M "P -1"
_symmetry_group_IT_number 2
_symmetry_cell_setting 'triclinic'
loop_
_space_group_symop_operation_xyz
x,y,z
-x,-y,-z
loop_
_atom_site_type_symbol
_atom_site_label
_atom_site_fract_x
_atom_site_fract_y
_atom_site_fract_z
Si Si1 0.009530 0.599542 0.682745
Si Si2 0.238872 0.032912 0.528275
Si Si3 0.941960 0.140867 0.685455
Si Si4 0.416292 0.698784 0.228671
Si Si5 0.833213 0.702650 0.194257
Si Si6 0.427669 0.399175 0.488571
Si Si7 0.345941 0.892624 0.899868
Si Si8 0.695220 0.773580 0.917750
O O1 0.088578 0.685489 0.432175
O O2 0.095837 0.412653 0.695643
O O3 0.955700 0.696845 0.907726
O O4 0.855778 0.639494 0.770587
O O5 0.250503 0.109783 0.678808
O O6 0.073231 0.099625 0.663819
O O7 0.307986 0.833196 0.459195
O O8 0.314624 0.120385 0.274695
O O9 0.806452 0.122909 0.949789
O O10 0.000000 0.000000 0.500000
O O11 0.400160 0.517574 0.320589
O O12 0.574114 0.692022 0.085959
O O13 0.382569 0.780846 0.061820
O O14 0.724225 0.616477 0.273475
O O15 0.500000 0.500000 0.500000
O O16 0.534640 0.211867 0.355508
O O17 0.331981 0.080173 0.938606
#
# Coordination Sequence:
#
# PCOD9103456 Si02
#       8
#     2   2   2   2   2   2   2   2
#     4  10  23  40  66  90 131 179 205 270 316 384
#     4  10  22  38  66  97 122 173 211 273 319 382
#     4  11  20  42  69  97 130 158 225 269 318 375
#     4  11  21  39  64  93 128 169 217 268 321 376
#     4  11  24  44  63  93 137 171 219 252 333 391
#     4  12  27  42  62  94 134 172 215 265 321 389
#     4  11  22  40  68  95 127 168 213 275 322 378
#     4  10  20  38  66  92 127 163 221 265 322 378
#
# _framework density 26.455483999999998
#
# number of rings (size 3 to 8) (size 9 to 14) (size 15 to 20)
#    0.000    1.250    3.750    4.875    0.000    7.000 
#    0.000    3.125    0.000    0.000    0.000    0.000 
#    0.000    0.000    0.000    0.000    0.000    0.000 
#
# Total GULP energy -89683.990821 kJ/mol
# GULP energy per Si atom -5605.249426 kJ/mol
# Density = 2.639527 g / cm^3
# Si number density = 26.455484 Si / 1000 Ang^3
#
#
#
# Elastic Constant Matrix: (Units=GPa)
#
#
# Indices 1 2 3 4 5 6 
#
# 1 86.2274 4.9767 11.3327 -4.8897 -10.7818 5.0655
# 2 4.9767 123.4676 29.9053 -0.1317 -6.6175 -7.6992
# 3 11.3327 29.9053 92.8870 -11.1326 -12.5728 12.0304
# 4 -4.8897 -0.1317 -11.1326 51.4888 8.2034 13.3305
# 5 -10.7818 -6.6175 -12.5728 8.2034 42.8540 7.2737
# 6 5.0655 -7.6992 12.0304 13.3305 7.2737 42.4862
#
#
#
# Elastic Compliance Matrix: (Units=1/GPa)
#
#
# Indices 1 2 3 4 5 6 
#
# 1 0.012265 -0.000338 -0.000549 0.001143 0.003035 -0.002246
# 2 -0.000338 0.009162 -0.003503 -0.001601 0.000068 0.003183
# 3 -0.000549 -0.003503 0.013754 0.003969 0.003672 -0.006338
# 4 0.001143 -0.001601 0.003969 0.022841 -0.001739 -0.008419
# 5 0.003035 0.000068 0.003672 -0.001739 0.026431 -0.005369
# 6 -0.002246 0.003183 -0.006338 -0.008419 -0.005369 0.029737
#
#
# Mechanical properties :
#
#
# Convention : Reuss Voigt Hill
#
# Bulk Modulus (GPa) = 37.87690 43.89015 40.88352
# Shear Modulus (GPa) = 37.94466 44.45693 41.20080
#
# Velocity S-wave (km/s) = 3.79130 4.10377 3.95063
# Velocity P-wave (km/s) = 5.78909 6.25146 6.02471
#
# Compressibility (1/GPa) = 0.02640132
#
# Stress axis : x y z
#
# Youngs Moduli (GPa) = 81.53162 109.14718 72.70454
#
# Poissons Ratio (x) = 0.03685 0.03991
# Poissons Ratio (y) = 0.02753 0.25472
# Poissons Ratio (z) = 0.04476 0.38240
#
# Static dielectric constant tensor:
#      x y z
#    x 2.186520 -0.044140 0.076170 
#    y -0.044140 2.063440 -0.004230 
#    z 0.076170 -0.004230 2.019810 
# 
# From -- ./inp_files/298103.got.cif
#   From: 2010.05.17/outbox.cif.g08.bks.cpg/sg2_150_cif.got.tgz:298103.got - 2010.06.03 11:33:40.
