data_PCOD9103563
_publ_section_title
;
Structure prediction by ZEFSAII (Michael W. Deem and Ramdas Pophale) SiO2 
 PCOD9103563
Probable space group: P -1
;
_chemical_formula_sum "Si O2"
_cell_formula_units_Z 16
_cell_length_a 12.782784
_cell_length_b 11.346221
_cell_length_c 14.772831
_cell_angle_alpha 117.878177
_cell_angle_beta 140.180507
_cell_angle_gamma 34.526115
_cell_volume 692.443135
_symmetry_space_group_name_H-M "P -1"
_symmetry_group_IT_number 2
_symmetry_cell_setting 'triclinic'
loop_
_space_group_symop_operation_xyz
x,y,z
-x,-y,-z
loop_
_atom_site_type_symbol
_atom_site_label
_atom_site_fract_x
_atom_site_fract_y
_atom_site_fract_z
Si Si1 0.969166 0.165684 0.997315
Si Si2 0.085231 0.533867 0.843233
Si Si3 0.367353 0.705959 0.550690
Si Si4 0.474614 0.100530 0.827945
Si Si5 0.915050 0.711024 0.522842
Si Si6 0.321062 0.299699 0.105995
Si Si7 0.620207 0.492212 0.361128
Si Si8 0.460848 0.838545 0.506299
O O1 0.682108 0.364415 0.818594
O O2 0.955503 0.281579 0.110549
O O3 0.000000 0.000000 0.000000
O O4 0.235750 0.028125 0.062314
O O5 0.257075 0.357793 0.810891
O O6 0.773155 0.674398 0.691622
O O7 0.282686 0.369766 0.002674
O O8 0.500000 0.500000 0.500000
O O9 0.533824 0.692945 0.726128
O O10 0.219225 0.708828 0.529562
O O11 0.288581 0.863417 0.475084
O O12 0.323032 0.124506 0.654619
O O13 0.536618 0.941504 0.882698
O O14 0.000000 0.500000 0.500000
O O15 0.189400 0.608475 0.635875
O O16 0.744412 0.898132 0.556957
O O17 0.000000 0.500000 0.000000
O O18 0.542293 0.686400 0.423971
#
# Coordination Sequence:
#
# PCOD9103563 Si02
#       8
#     2   2   2   2   2   2   2   2
#     4  12  26  46  70  98 139 179 228 290 338 392
#     4  12  24  43  73 102 134 182 229 276 344 417
#     4  10  20  38  66  99 134 170 212 277 347 396
#     4  12  25  45  72 101 135 182 231 279 338 415
#     4  12  25  43  68  97 130 181 233 272 329 405
#     4  12  19  42  72  98 136 179 224 277 340 412
#     4  11  25  43  67 101 137 171 221 285 343 391
#     4  11  23  44  70  99 135 179 220 275 342 411
#
# _framework density 23.106591000000002
#
# number of rings (size 3 to 8) (size 9 to 14) (size 15 to 20)
#    0.000    0.500    7.500    1.125    0.000    3.500 
#    0.000    0.000    0.000    0.000    0.000    0.000 
#    0.000    0.000    0.000    0.000    0.000    0.000 
#
# Total GULP energy -89291.359076 kJ/mol
# GULP energy per Si atom -5580.709942 kJ/mol
# Density = 2.305400 g / cm^3
# Si number density = 23.106591 Si / 1000 Ang^3
#
#
#
# Elastic Constant Matrix: (Units=GPa)
#
#
# Indices 1 2 3 4 5 6 
#
# 1 53.2629 35.6129 8.9035 -1.5111 8.4694 7.3616
# 2 35.6129 178.1641 40.1304 17.9672 19.2803 3.0611
# 3 8.9035 40.1304 49.8522 8.5897 -1.8023 -5.0834
# 4 -1.5111 17.9672 8.5897 39.2150 -4.5178 -0.9726
# 5 8.4694 19.2803 -1.8023 -4.5178 29.9371 4.1891
# 6 7.3616 3.0611 -5.0834 -0.9726 4.1891 39.8886
#
#
#
# Elastic Compliance Matrix: (Units=1/GPa)
#
#
# Indices 1 2 3 4 5 6 
#
# 1 0.022854 -0.004044 -0.001780 0.002680 -0.003039 -0.003750
# 2 -0.004044 0.008667 -0.005870 -0.003455 -0.005285 -0.000196
# 3 -0.001780 -0.005870 0.026060 -0.002424 0.004995 0.003516
# 4 0.002680 -0.003455 -0.002424 0.028359 0.005662 -0.000442
# 5 -0.003039 -0.005285 0.004995 0.005662 0.039154 -0.002371
# 6 -0.003750 -0.000196 0.003516 -0.000442 -0.002371 0.026463
#
#
# Mechanical properties :
#
#
# Convention : Reuss Voigt Hill
#
# Bulk Modulus (GPa) = 29.24736 50.06364 39.65550
# Shear Modulus (GPa) = 26.83209 34.91697 30.87453
#
# Velocity S-wave (km/s) = 3.41138 3.89154 3.65934
# Velocity P-wave (km/s) = 5.31053 6.47345 5.92061
#
# Compressibility (1/GPa) = 0.03419112
#
# Stress axis : x y z
#
# Youngs Moduli (GPa) = 43.75593 115.37742 38.37325
#
# Poissons Ratio (x) = 0.46662 0.06831
# Poissons Ratio (y) = 0.17696 0.22527
# Poissons Ratio (z) = 0.07789 0.67732
#
# Static dielectric constant tensor:
#      x y z
#    x 1.828630 0.009970 -0.005490 
#    y 0.009970 1.918000 0.010650 
#    z -0.005490 0.010650 1.875410 
# 
# From -- ./inp_files/307762.got.cif
#   From: 2010.05.17/outbox.cif.g08.bks.cpg/sg2_154_cif.got.tgz:307762.got - 2010.06.03 11:33:40.
