data_PCOD9103378
_publ_section_title
;
Structure prediction by ZEFSAII (Michael W. Deem and Ramdas Pophale) SiO2 
 PCOD9103378
Probable space group: P -1
;
_chemical_formula_sum "Si O2"
_cell_formula_units_Z 14
_cell_length_a 13.992696
_cell_length_b 10.041434
_cell_length_c 6.800801
_cell_angle_alpha 85.435763
_cell_angle_beta 61.782109
_cell_angle_gamma 43.081421
_cell_volume 516.006317
_symmetry_space_group_name_H-M "P -1"
_symmetry_group_IT_number 2
_symmetry_cell_setting 'triclinic'
loop_
_space_group_symop_operation_xyz
x,y,z
-x,-y,-z
loop_
_atom_site_type_symbol
_atom_site_label
_atom_site_fract_x
_atom_site_fract_y
_atom_site_fract_z
Si Si1 0.500000 0.000000 0.000000
Si Si2 0.039173 0.594439 0.571452
Si Si3 0.623855 0.604823 0.586269
Si Si4 0.822474 0.357867 0.058114
Si Si5 0.500000 0.000000 0.500000
Si Si6 0.474859 0.706075 0.104717
Si Si7 0.201233 0.306712 0.924324
Si Si8 0.098412 0.008748 0.543951
O O1 0.450194 0.892127 0.101081
O O2 0.604411 0.902136 0.132039
O O3 0.243296 0.437388 0.397544
O O4 0.000000 0.500000 0.500000
O O5 0.942747 0.810019 0.540796
O O6 0.942607 0.654423 0.863174
O O7 0.757975 0.395112 0.339036
O O8 0.498994 0.651436 0.854682
O O9 0.526437 0.805300 0.518377
O O10 0.655385 0.493243 0.064529
O O11 0.848276 0.494138 0.003353
O O12 0.995649 0.118408 0.837173
O O13 0.280796 0.197620 0.648859
O O14 0.308233 0.798962 0.355586
O O15 0.000000 0.000000 0.500000
#
# Coordination Sequence:
#
# PCOD9103378 Si02
#       8
#     1   2   2   2   1   2   2   2
#     4  10  16  32  62  92 124 170 222 268 332 412
#     4  12  22  41  70  97 137 186 224 286 360 405
#     4  11  23  42  67 103 144 179 231 295 351 419
#     4  10  24  44  65 106 135 180 239 289 348 416
#     4  10  20  32  54  96 132 166 222 272 342 404
#     4  11  22  43  72  93 143 189 227 289 355 418
#     4  10  19  34  57  93 131 170 216 276 341 405
#     4  12  26  46  72 104 142 187 238 288 351 424
#
# _framework density 27.131454000000002
#
# number of rings (size 3 to 8) (size 9 to 14) (size 15 to 20)
#    0.000    1.143    5.714    0.857    0.000    2.857 
#   10.286    1.429    0.000    0.000    0.000    0.000 
#    0.000    0.000    0.000    0.000    0.000    0.000 
#
# Total GULP energy -77980.895682 kJ/mol
# GULP energy per Si atom -5570.063977 kJ/mol
# Density = 2.706970 g / cm^3
# Si number density = 27.131454 Si / 1000 Ang^3
#
#
#
# Elastic Constant Matrix: (Units=GPa)
#
#
# Indices 1 2 3 4 5 6 
#
# 1 83.3048 35.7789 61.1269 3.9777 -0.0407 2.6485
# 2 35.7789 73.8109 41.5668 3.8457 -10.2101 12.4385
# 3 61.1269 41.5668 225.5087 16.1773 -13.4620 6.5613
# 4 3.9777 3.8457 16.1773 40.4342 -2.6525 1.4800
# 5 -0.0407 -10.2101 -13.4620 -2.6525 44.9214 5.3535
# 6 2.6485 12.4385 6.5613 1.4800 5.3535 46.1832
#
#
#
# Elastic Compliance Matrix: (Units=1/GPa)
#
#
# Indices 1 2 3 4 5 6 
#
# 1 0.017781 -0.007241 -0.003726 0.000171 -0.002950 0.001796
# 2 -0.007241 0.019213 -0.001142 -0.000168 0.004619 -0.005127
# 3 -0.003726 -0.001142 0.005880 -0.001767 0.001446 -0.000425
# 4 0.000171 -0.000168 -0.001767 0.025528 0.001017 -0.000650
# 5 -0.002950 0.004619 0.001446 0.001017 0.024294 -0.004129
# 6 0.001796 -0.005127 -0.000425 -0.000650 -0.004129 0.023491
#
#
# Mechanical properties :
#
#
# Convention : Reuss Voigt Hill
#
# Bulk Modulus (GPa) = 53.59752 73.28552 63.44152
# Shear Modulus (GPa) = 34.10125 42.58454 38.34290
#
# Velocity S-wave (km/s) = 3.54911 3.96607 3.76337
# Velocity P-wave (km/s) = 6.04918 6.93130 6.50521
#
# Compressibility (1/GPa) = 0.01865758
#
# Stress axis : x y z
#
# Youngs Moduli (GPa) = 56.23934 52.04904 170.06139
#
# Poissons Ratio (x) = 0.37687 0.63361
# Poissons Ratio (y) = 0.40721 0.19417
# Poissons Ratio (z) = 0.20954 0.05943
#
# Static dielectric constant tensor:
#      x y z
#    x 2.152260 0.004910 0.078610 
#    y 0.004910 2.083830 0.164140 
#    z 0.078610 0.164140 2.302570 
# 
# From -- ./inp_files/292261.got.cif
#   From: 2010.05.17/outbox.cif.g08.bks.cpg/sg2_147_cif.got.tgz:292261.got - 2010.06.03 11:33:40.
