data_PCOD9103059
_publ_section_title
;
Structure prediction by ZEFSAII (Michael W. Deem and Ramdas Pophale) SiO2 
 PCOD9103059
Probable space group: P -1
;
_chemical_formula_sum "Si O2"
_cell_formula_units_Z 11
_cell_length_a 10.599188
_cell_length_b 9.057727
_cell_length_c 8.475578
_cell_angle_alpha 48.056776
_cell_angle_beta 111.209411
_cell_angle_gamma 135.229982
_cell_volume 416.253227
_symmetry_space_group_name_H-M "P -1"
_symmetry_group_IT_number 2
_symmetry_cell_setting 'triclinic'
loop_
_space_group_symop_operation_xyz
x,y,z
-x,-y,-z
loop_
_atom_site_type_symbol
_atom_site_label
_atom_site_fract_x
_atom_site_fract_y
_atom_site_fract_z
Si Si1 0.222933 0.876902 0.737511
Si Si2 0.081333 0.611708 0.285243
Si Si3 0.000000 0.000000 0.500000
Si Si4 0.498684 0.234719 0.343727
Si Si5 0.335395 0.628368 0.190080
Si Si6 0.323123 0.203931 0.953826
O O1 0.070482 0.621732 0.737200
O O2 0.372361 0.126360 0.516342
O O3 0.302322 0.780044 0.947412
O O4 0.114956 0.958272 0.697424
O O5 0.266295 0.664154 0.296598
O O6 0.000000 0.500000 0.500000
O O7 0.138338 0.894900 0.084370
O O8 0.186371 0.310933 0.325827
O O9 0.404519 0.218027 0.151820
O O10 0.500000 0.000000 0.500000
O O11 0.672281 0.552500 0.217280
O O12 0.532266 0.731678 0.159817
#
# Coordination Sequence:
#
# PCOD9103059 Si02
#       6
#     2   2   1   2   2   2
#     4  11  22  43  68  95 129 176 218 267 324 393
#     4  11  23  41  65 100 135 166 216 278 326 377
#     4  10  20  38  64  98 120 170 220 264 310 388
#     4  11  22  41  70  95 129 172 225 266 321 398
#     4  11  23  41  71  92 133 174 222 258 328 397
#     4  11  23  42  67  97 129 178 214 268 332 383
#
# _framework density 26.426223
#
# number of rings (size 3 to 8) (size 9 to 14) (size 15 to 20)
#    0.000    1.091    5.455    2.727    0.000    0.000 
#    0.000    9.091    0.000    0.000    0.000    0.000 
#    0.000    0.000    0.000    0.000    0.000    0.000 
#
# Total GULP energy -61245.680409 kJ/mol
# GULP energy per Si atom -5567.789128 kJ/mol
# Density = 2.636608 g / cm^3
# Si number density = 26.426223 Si / 1000 Ang^3
#
#
#
# Elastic Constant Matrix: (Units=GPa)
#
#
# Indices 1 2 3 4 5 6 
#
# 1 74.0291 92.6630 57.7745 -36.5550 5.8485 -29.0068
# 2 92.6630 -681.2810 150.3766 369.2800 -64.6907 231.6244
# 3 57.7745 150.3766 182.7632 -82.4121 -2.7021 -43.6172
# 4 -36.5550 369.2800 -82.4121 -135.7463 28.9385 -131.9450
# 5 5.8485 -64.6907 -2.7021 28.9385 59.9933 9.3238
# 6 -29.0068 231.6244 -43.6172 -131.9450 9.3238 -36.3090
#
#
#
# Elastic Compliance Matrix: (Units=1/GPa)
#
#
# Indices 1 2 3 4 5 6 
#
# 1 0.018241 -0.001464 -0.006708 -0.004202 -0.001482 -0.000962
# 2 -0.001464 0.007179 0.001382 0.009878 0.001653 0.009835
# 3 -0.006708 0.001382 0.007204 0.001672 0.001681 -0.000126
# 4 -0.004202 0.009878 0.001672 0.016992 0.002437 0.003240
# 5 -0.001482 0.001653 0.001681 0.002437 0.016697 0.005142
# 6 -0.000962 0.009835 -0.000126 0.003240 0.005142 0.025665
#
#
# Mechanical properties :
#
#
# Convention : Reuss Voigt Hill
#
# Bulk Modulus (GPa) = 52.51143 19.68216 36.09679
# Shear Modulus (GPa) = 44.68022 -70.76591 -13.04285
#
# Velocity S-wave (km/s) = 4.11634 -5.18043 -2.22402
# Velocity P-wave (km/s) = 6.51969 5.32149 2.66347
#
# Compressibility (1/GPa) = 0.01904347
#
# Stress axis : x y z
#
# Youngs Moduli (GPa) = 54.82224 139.29330 138.80933
#
# Poissons Ratio (x) = 0.20388 0.93116
# Poissons Ratio (y) = 0.08024 -0.19178
# Poissons Ratio (z) = 0.36776 -0.19245
#
# Static dielectric constant tensor:
#      x y z
#    x 2.190310 0.022770 0.071480 
#    y 0.022770 2.143370 0.027610 
#    z 0.071480 0.027610 1.973150 
# 
# From -- ./inp_files/137052.got.cif
#   From: 2010.05.17/outbox.cif.g08.bks.cpg/sg2_69_cif.got.tgz:137052.got - 2010.06.03 11:33:40.
