data_PCOD9103912
_publ_section_title
;
Structure prediction by ZEFSAII (Michael W. Deem and Ramdas Pophale) SiO2 
 PCOD9103912
Probable space group: P -1
;
_chemical_formula_sum "Si O2"
_cell_formula_units_Z 14
_cell_length_a 12.090551
_cell_length_b 4.946259
_cell_length_c 12.904591
_cell_angle_alpha 103.945079
_cell_angle_beta 66.611408
_cell_angle_gamma 79.728810
_cell_volume 654.124111
_symmetry_space_group_name_H-M "P -1"
_symmetry_group_IT_number 2
_symmetry_cell_setting 'triclinic'
loop_
_space_group_symop_operation_xyz
x,y,z
-x,-y,-z
loop_
_atom_site_type_symbol
_atom_site_label
_atom_site_fract_x
_atom_site_fract_y
_atom_site_fract_z
Si Si1 0.871570 0.494200 0.991483
Si Si2 0.610189 0.909679 0.219917
Si Si3 0.487568 0.443355 0.619865
Si Si4 0.585227 0.235432 0.877755
Si Si5 0.833652 0.920998 0.865220
Si Si6 0.892458 0.783636 0.604442
Si Si7 0.734828 0.366892 0.645085
O O1 0.747800 0.706266 0.114690
O O2 0.859660 0.171813 0.949726
O O3 0.000000 0.500000 0.000000
O O4 0.869053 0.626356 0.889821
O O5 0.572424 0.795072 0.333388
O O6 0.506994 0.884320 0.170244
O O7 0.594026 0.250499 0.269291
O O8 0.500000 0.500000 0.500000
O O9 0.630236 0.355413 0.601025
O O10 0.685454 0.021692 0.897898
O O11 0.670978 0.356060 0.778746
O O12 0.500000 0.500000 0.000000
O O13 0.910260 0.873051 0.724059
O O14 0.772433 0.658426 0.642219
O O15 0.000000 0.500000 0.500000
O O16 0.854028 0.071427 0.574224
#
# Coordination Sequence:
#
# PCOD9103912 Si02
#       7
#     2   2   2   2   2   2   2
#     4  12  26  45  63  92 139 168 216 259 302 395
#     4  11  24  41  67 100 124 170 212 263 329 370
#     4  11  23  44  66  92 131 165 213 263 314 378
#     4  10  20  38  69  98 129 155 204 271 327 376
#     4  11  23  42  67  96 124 173 211 261 329 367
#     4  11  23  43  66  92 132 164 215 262 315 377
#     4  10  22  40  62 100 127 161 207 269 316 368
#
# _framework density 21.402666
#
# number of rings (size 3 to 8) (size 9 to 14) (size 15 to 20)
#    0.000    1.143    1.429    6.429    2.000    1.714 
#    7.714    0.000    0.000    0.000    0.000    0.000 
#    0.000    0.000    0.000    0.000    0.000    0.000 
#
# Total GULP energy -78301.354661 kJ/mol
# GULP energy per Si atom -5592.953904 kJ/mol
# Density = 2.135395 g / cm^3
# Si number density = 21.402666 Si / 1000 Ang^3
#
#
#
# Elastic Constant Matrix: (Units=GPa)
#
#
# Indices 1 2 3 4 5 6 
#
# 1 99.6169 9.4016 26.6789 -1.7761 -7.6036 -15.3982
# 2 9.4016 78.7715 -0.5925 0.4031 5.2402 1.1975
# 3 26.6789 -0.5925 76.3916 17.2413 -0.4557 -23.9604
# 4 -1.7761 0.4031 17.2413 43.0728 -12.9305 2.2495
# 5 -7.6036 5.2402 -0.4557 -12.9305 21.9733 -3.0596
# 6 -15.3982 1.1975 -23.9604 2.2495 -3.0596 28.5825
#
#
#
# Elastic Compliance Matrix: (Units=1/GPa)
#
#
# Indices 1 2 3 4 5 6 
#
# 1 0.012639 -0.002149 -0.004135 0.004368 0.007919 0.003937
# 2 -0.002149 0.013344 0.000848 -0.002079 -0.005328 -0.001412
# 3 -0.004135 0.000848 0.022456 -0.011774 -0.005746 0.016874
# 4 0.004368 -0.002079 -0.011774 0.034907 0.021204 -0.007907
# 5 0.007919 -0.005328 -0.005746 0.021204 0.062533 0.004698
# 6 0.003937 -0.001412 0.016874 -0.007907 0.004698 0.052437
#
#
# Mechanical properties :
#
#
# Convention : Reuss Voigt Hill
#
# Bulk Modulus (GPa) = 26.61662 36.19510 31.40586
# Shear Modulus (GPa) = 22.55194 33.34519 27.94856
#
# Velocity S-wave (km/s) = 3.24959 3.95142 3.61757
# Velocity P-wave (km/s) = 5.15198 6.14545 5.67051
#
# Compressibility (1/GPa) = 0.03757051
#
# Stress axis : x y z
#
# Youngs Moduli (GPa) = 79.11738 74.93819 44.53087
#
# Poissons Ratio (x) = 0.16102 0.18411
# Poissons Ratio (y) = 0.17000 -0.03778
# Poissons Ratio (z) = 0.32711 -0.06357
#
# Static dielectric constant tensor:
#      x y z
#    x 1.772820 -0.005490 -0.023890 
#    y -0.005490 1.772880 -0.001840 
#    z -0.023890 -0.001840 1.804290 
# 
# From -- ./inp_files/409563.got.cif
#   From: 2010.05.17/outbox.cif.g08.bks.cpg/sg2_205_cif.got.tgz:409563.got - 2010.06.03 11:33:40.
