data_PCOD9103529
_publ_section_title
;
Structure prediction by ZEFSAII (Michael W. Deem and Ramdas Pophale) SiO2 
 PCOD9103529
Probable space group: P -1
;
_chemical_formula_sum "Si O2"
_cell_formula_units_Z 14
_cell_length_a 8.179304
_cell_length_b 26.979907
_cell_length_c 26.895152
_cell_angle_alpha 10.952883
_cell_angle_beta 144.321302
_cell_angle_gamma 145.808440
_cell_volume 633.715114
_symmetry_space_group_name_H-M "P -1"
_symmetry_group_IT_number 2
_symmetry_cell_setting 'triclinic'
loop_
_space_group_symop_operation_xyz
x,y,z
-x,-y,-z
loop_
_atom_site_type_symbol
_atom_site_label
_atom_site_fract_x
_atom_site_fract_y
_atom_site_fract_z
Si Si1 0.832856 0.613163 0.304118
Si Si2 0.295066 0.694849 0.248883
Si Si3 0.254923 0.607882 0.062281
Si Si4 0.700438 0.078924 0.336257
Si Si5 0.359848 0.727779 0.761749
Si Si6 0.760509 0.338367 0.430209
Si Si7 0.416438 0.948542 0.231930
O O1 0.568857 0.341257 0.498655
O O2 0.000000 0.500000 0.500000
O O3 0.067782 0.668892 0.263114
O O4 0.719520 0.882817 0.007890
O O5 0.500000 0.500000 0.500000
O O6 0.075372 0.551079 0.291369
O O7 0.500000 0.000000 0.000000
O O8 0.218528 0.727044 0.882168
O O9 0.296662 0.842363 0.882540
O O10 0.544950 0.510905 0.225901
O O11 0.980831 0.362652 0.245730
O O12 0.613207 0.222249 0.221764
O O13 0.422380 0.838686 0.485301
O O14 0.000000 0.000000 0.500000
O O15 0.500000 0.000000 0.500000
O O16 0.500000 0.500000 0.000000
O O17 0.770761 0.135813 0.679198
#
# Coordination Sequence:
#
# PCOD9103529 Si02
#       7
#     2   2   2   2   2   2   2
#     4  11  22  40  65  94 129 172 222 275 333 419
#     4  11  23  41  65  97 136 171 220 291 350 382
#     4  11  22  43  76  91 131 186 244 271 326 418
#     4  11  23  43  75 106 130 184 250 282 326 427
#     4  12  28  44  64 104 149 175 212 292 369 401
#     4  10  22  40  74 100 128 179 248 282 322 410
#     4  10  20  38  66  97 120 166 235 273 320 391
#
# _framework density 22.091947999999999
#
# number of rings (size 3 to 8) (size 9 to 14) (size 15 to 20)
#    0.000    1.143    4.286    3.429    6.000    0.000 
#    0.000    4.286    0.000    0.000    0.000    0.000 
#    0.000    0.000    0.000    0.000    0.000    0.000 
#
# Total GULP energy -78076.847423 kJ/mol
# GULP energy per Si atom -5576.917673 kJ/mol
# Density = 2.204167 g / cm^3
# Si number density = 22.091948 Si / 1000 Ang^3
#
#
#
# Elastic Constant Matrix: (Units=GPa)
#
#
# Indices 1 2 3 4 5 6 
#
# 1 32.3196 28.9791 24.4630 -0.4868 -2.0946 1.3377
# 2 28.9791 171.7304 64.0231 -26.0695 -13.8863 12.1479
# 3 24.4630 64.0231 169.6649 -5.2799 -9.1385 8.2929
# 4 -0.4868 -26.0695 -5.2799 59.6528 0.7127 -9.1806
# 5 -2.0946 -13.8863 -9.1385 0.7127 34.7102 1.2867
# 6 1.3377 12.1479 8.2929 -9.1806 1.2867 35.8661
#
#
#
# Elastic Compliance Matrix: (Units=1/GPa)
#
#
# Indices 1 2 3 4 5 6 
#
# 1 0.038606 -0.005655 -0.003588 -0.002351 -0.000856 0.000734
# 2 -0.005655 0.008307 -0.002021 0.003159 0.002438 -0.001415
# 3 -0.003588 -0.002021 0.007260 -0.000436 0.000933 -0.001005
# 4 -0.002351 0.003159 -0.000436 0.018678 0.000480 0.003882
# 5 -0.000856 0.002438 0.000933 0.000480 0.030042 -0.001964
# 6 0.000734 -0.001415 -0.001005 0.003882 -0.001964 0.029630
#
#
# Mechanical properties :
#
#
# Convention : Reuss Voigt Hill
#
# Bulk Modulus (GPa) = 31.59958 67.62725 49.61342
# Shear Modulus (GPa) = 30.19359 43.12915 36.66137
#
# Velocity S-wave (km/s) = 3.70093 4.42323 4.07810
# Velocity P-wave (km/s) = 5.70940 7.53424 6.68439
#
# Compressibility (1/GPa) = 0.03164599
#
# Stress axis : x y z
#
# Youngs Moduli (GPa) = 25.90288 120.37472 137.74972
#
# Poissons Ratio (x) = 0.68074 0.49418
# Poissons Ratio (y) = 0.14649 0.27835
# Poissons Ratio (z) = 0.09293 0.24324
#
# Static dielectric constant tensor:
#      x y z
#    x 1.794600 -0.054500 0.017980 
#    y -0.054500 1.906930 -0.059340 
#    z 0.017980 -0.059340 1.807210 
# 
# From -- ./inp_files/122433.got.cif
#   From: 2010.05.17/outbox.cif.g08.bks.cpg/sg2_62_cif.got.tgz:122433.got - 2010.06.03 11:33:40.
