data_PCOD9103460
_publ_section_title
;
Structure prediction by ZEFSAII (Michael W. Deem and Ramdas Pophale) SiO2 
 PCOD9103460
Probable space group: P -1
;
_chemical_formula_sum "Si O2"
_cell_formula_units_Z 14
_cell_length_a 9.401763
_cell_length_b 9.614609
_cell_length_c 11.070421
_cell_angle_alpha 45.838545
_cell_angle_beta 54.626517
_cell_angle_gamma 42.340920
_cell_volume 479.269990
_symmetry_space_group_name_H-M "P -1"
_symmetry_group_IT_number 2
_symmetry_cell_setting 'triclinic'
loop_
_space_group_symop_operation_xyz
x,y,z
-x,-y,-z
loop_
_atom_site_type_symbol
_atom_site_label
_atom_site_fract_x
_atom_site_fract_y
_atom_site_fract_z
Si Si1 0.164209 0.824743 0.781228
Si Si2 0.607031 0.643279 0.133291
Si Si3 0.316425 0.487996 0.474859
Si Si4 0.897570 0.411623 0.730091
Si Si5 0.485655 0.974798 0.203650
Si Si6 0.915046 0.808616 0.604983
Si Si7 0.000000 0.000000 0.000000
Si Si8 0.500000 0.500000 0.000000
O O1 0.175826 0.599755 0.860933
O O2 0.394505 0.684314 0.823582
O O3 0.147332 0.986247 0.584231
O O4 0.980147 0.970047 0.880052
O O5 0.458354 0.576094 0.308896
O O6 0.611853 0.809819 0.126801
O O7 0.524516 0.785209 0.958413
O O8 0.160461 0.536783 0.411277
O O9 0.438114 0.213710 0.612551
O O10 0.171067 0.643176 0.566746
O O11 0.857948 0.633474 0.685181
O O12 0.744932 0.347850 0.911090
O O13 0.105559 0.156322 0.815553
O O14 0.230430 0.084618 0.269701
#
# Coordination Sequence:
#
# PCOD9103460 Si02
#       8
#     2   2   2   2   2   2   1   1
#     4  11  22  41  66 101 141 184 229 290 349 419
#     4  11  25  51  72 103 137 192 244 289 361 420
#     4  12  25  45  71 108 139 191 232 297 359 421
#     4  11  23  41  62 104 140 181 235 275 362 419
#     4  11  26  50  76  97 144 188 241 303 344 426
#     4  12  26  44  68 109 146 184 234 299 349 429
#     4  10  22  38  62  94 146 180 218 294 332 420
#     4  10  20  38  66  92 128 194 220 274 346 412
#
# _framework density 29.211092000000001
#
# number of rings (size 3 to 8) (size 9 to 14) (size 15 to 20)
#    0.000    0.857    4.286    2.571    0.000    5.143 
#    2.571    1.429    0.000    0.000    0.000    0.000 
#    0.000    0.000    0.000    0.000    0.000    0.000 
#
# Total GULP energy -77992.738597 kJ/mol
# GULP energy per Si atom -5570.909900 kJ/mol
# Density = 2.914461 g / cm^3
# Si number density = 29.211092 Si / 1000 Ang^3
#
#
#
# Elastic Constant Matrix: (Units=GPa)
#
#
# Indices 1 2 3 4 5 6 
#
# 1 55.8723 1.1310 34.2124 -17.1351 -7.1218 -1.5971
# 2 1.1310 163.9170 71.1190 1.1781 -5.5288 9.6971
# 3 34.2124 71.1190 191.8804 -36.6701 -5.2455 -14.3095
# 4 -17.1351 1.1781 -36.6701 94.9750 -1.4600 7.4318
# 5 -7.1218 -5.5288 -5.2455 -1.4600 46.8746 -7.1088
# 6 -1.5971 9.6971 -14.3095 7.4318 -7.1088 52.6939
#
#
#
# Elastic Compliance Matrix: (Units=1/GPa)
#
#
# Indices 1 2 3 4 5 6 
#
# 1 0.021380 0.001687 -0.003945 0.002411 0.002979 -0.000672
# 2 0.001687 0.007760 -0.003511 -0.000974 0.000425 -0.002136
# 3 -0.003945 -0.003511 0.007816 0.002168 0.000290 0.002382
# 4 0.002411 -0.000974 0.002168 0.011882 0.000753 -0.000733
# 5 0.002979 0.000425 0.000290 0.000753 0.022347 0.002999
# 6 -0.000672 -0.002136 0.002382 -0.000733 0.002999 0.020505
#
#
# Mechanical properties :
#
#
# Convention : Reuss Voigt Hill
#
# Bulk Modulus (GPa) = 39.34214 69.39939 54.37076
# Shear Modulus (GPa) = 44.76278 59.25587 52.00933
#
# Velocity S-wave (km/s) = 3.91882 4.50882 4.22413
# Velocity P-wave (km/s) = 5.82869 7.13550 6.51495
#
# Compressibility (1/GPa) = 0.02541804
#
# Stress axis : x y z
#
# Youngs Moduli (GPa) = 46.77356 128.86842 127.94181
#
# Poissons Ratio (x) = -0.21741 0.50475
# Poissons Ratio (y) = -0.07891 0.44916
# Poissons Ratio (z) = 0.18453 0.45242
#
# Static dielectric constant tensor:
#      x y z
#    x 2.190240 0.335520 -0.179340 
#    y 0.335520 1.287460 0.192140 
#    z -0.179340 0.192140 2.192230 
# 
# From -- ./inp_files/424895.got.cif
#   From: 2010.05.17/outbox.cif.g08.bks.cpg/sg2_213_cif.got.tgz:424895.got - 2010.06.03 11:33:40.
