data_PCOD9103832
_publ_section_title
;
Structure prediction by ZEFSAII (Michael W. Deem and Ramdas Pophale) SiO2 
 PCOD9103832
Probable space group: P -1
;
_chemical_formula_sum "Si O2"
_cell_formula_units_Z 12
_cell_length_a 11.659828
_cell_length_b 8.201281
_cell_length_c 8.122940
_cell_angle_alpha 86.196656
_cell_angle_beta 104.947048
_cell_angle_gamma 142.781304
_cell_volume 440.894227
_symmetry_space_group_name_H-M "P -1"
_symmetry_group_IT_number 2
_symmetry_cell_setting 'triclinic'
loop_
_space_group_symop_operation_xyz
x,y,z
-x,-y,-z
loop_
_atom_site_type_symbol
_atom_site_label
_atom_site_fract_x
_atom_site_fract_y
_atom_site_fract_z
Si Si1 0.227868 0.428450 0.318298
Si Si2 0.186398 0.733031 0.379247
Si Si3 0.767182 0.728112 0.360331
Si Si4 0.390877 0.081697 0.753510
Si Si5 0.996121 0.842763 0.180164
Si Si6 0.804677 0.167753 0.957044
O O1 0.113197 0.465100 0.338279
O O2 0.341742 0.496184 0.523144
O O3 0.372279 0.649201 0.212007
O O4 0.134375 0.154017 0.243541
O O5 0.313464 0.920320 0.248720
O O6 0.293249 0.868665 0.583641
O O7 0.035777 0.720499 0.309775
O O8 0.680621 0.811033 0.306506
O O9 0.000000 0.000000 0.500000
O O10 0.784258 0.665380 0.190774
O O11 0.321435 0.955692 0.917686
O O12 0.082621 0.879513 0.033170
O O13 0.000000 0.500000 0.000000
#
# Coordination Sequence:
#
# PCOD9103832 Si02
#       6
#     2   2   2   2   2   2
#     4  11  23  42  73 100 133 184 215 276 341 398
#     4  10  24  45  67  97 142 170 228 274 334 395
#     4  10  20  38  68  97 130 172 220 271 325 394
#     4  12  24  44  71 100 136 178 225 269 345 398
#     4   9  23  45  62 101 133 170 224 273 328 388
#     4  10  26  44  66 103 134 175 228 279 328 401
#
# _framework density 27.217411999999999
#
# number of rings (size 3 to 8) (size 9 to 14) (size 15 to 20)
#    1.000    0.667    3.333    1.000    7.000    3.333 
#    0.000    0.000    0.000    0.000    0.000    0.000 
#    0.000    0.000    0.000    0.000    0.000    0.000 
#
# Total GULP energy -66926.988014 kJ/mol
# GULP energy per Si atom -5577.249001 kJ/mol
# Density = 2.715546 g / cm^3
# Si number density = 27.217412 Si / 1000 Ang^3
#
#
#
# Elastic Constant Matrix: (Units=GPa)
#
#
# Indices 1 2 3 4 5 6 
#
# 1 171.0944 43.5756 29.0377 9.7983 -25.1496 -40.3345
# 2 43.5756 108.5666 57.0605 -17.2691 -30.7294 -23.7469
# 3 29.0377 57.0605 171.5602 -43.4410 -57.7325 -5.9726
# 4 9.7983 -17.2691 -43.4410 54.6753 -0.0764 -19.6717
# 5 -25.1496 -30.7294 -57.7325 -0.0764 49.7957 -0.4119
# 6 -40.3345 -23.7469 -5.9726 -19.6717 -0.4119 48.5841
#
#
#
# Elastic Compliance Matrix: (Units=1/GPa)
#
#
# Indices 1 2 3 4 5 6 
#
# 1 0.008264 -0.000328 0.001668 0.002636 0.005976 0.008023
# 2 -0.000328 0.016442 0.002323 0.011764 0.012799 0.012922
# 3 0.001668 0.002323 0.017869 0.019234 0.023128 0.012701
# 4 0.002636 0.011764 0.019234 0.047595 0.031211 0.029839
# 5 0.005976 0.012799 0.023128 0.031211 0.058085 0.027190
# 6 0.008023 0.012922 0.012701 0.029839 0.027190 0.047433
#
#
# Mechanical properties :
#
#
# Convention : Reuss Voigt Hill
#
# Bulk Modulus (GPa) = 20.03982 78.95208 49.49595
# Shear Modulus (GPa) = 24.39052 52.04750 38.21901
#
# Velocity S-wave (km/s) = 2.99680 4.37771 3.75135
# Velocity P-wave (km/s) = 4.39924 7.39077 6.08180
#
# Compressibility (1/GPa) = 0.04990064
#
# Stress axis : x y z
#
# Youngs Moduli (GPa) = 121.00547 60.81920 55.96137
#
# Poissons Ratio (x) = 0.01995 -0.09334
# Poissons Ratio (y) = 0.03969 -0.12997
# Poissons Ratio (z) = -0.20183 -0.14125
#
# Static dielectric constant tensor:
#      x y z
#    x 2.103910 0.035110 0.007740 
#    y 0.035110 2.188150 -0.003230 
#    z 0.007740 -0.003230 2.411580 
# 
# From -- ./inp_files/244076.got.cif
#   From: 2010.05.17/outbox.cif.g08.bks.cpg/sg2_123_cif.got.tgz:244076.got - 2010.06.03 11:33:40.
