data_PCOD9103039
_publ_section_title
;
Structure prediction by ZEFSAII (Michael W. Deem and Ramdas Pophale) SiO2 
 PCOD9103039
Probable space group: P -1
;
_chemical_formula_sum "Si O2"
_cell_formula_units_Z 15
_cell_length_a 11.411386
_cell_length_b 11.797169
_cell_length_c 5.206806
_cell_angle_alpha 87.930338
_cell_angle_beta 107.364529
_cell_angle_gamma 69.162581
_cell_volume 617.243026
_symmetry_space_group_name_H-M "P -1"
_symmetry_group_IT_number 2
_symmetry_cell_setting 'triclinic'
loop_
_space_group_symop_operation_xyz
x,y,z
-x,-y,-z
loop_
_atom_site_type_symbol
_atom_site_label
_atom_site_fract_x
_atom_site_fract_y
_atom_site_fract_z
Si Si1 0.724881 0.764893 0.024601
Si Si2 0.500000 0.500000 0.000000
Si Si3 0.775348 0.380569 0.885297
Si Si4 0.551107 0.072975 0.333805
Si Si5 0.176275 0.049471 0.729878
Si Si6 0.944435 0.114405 0.158577
Si Si7 0.554283 0.314931 0.490458
Si Si8 0.726265 0.611629 0.529840
O O1 0.816442 0.845827 0.081640
O O2 0.761886 0.664123 0.286660
O O3 0.568404 0.854512 0.944816
O O4 0.726514 0.704027 0.752909
O O5 0.329522 0.557670 0.957400
O O6 0.516438 0.381456 0.190499
O O7 0.682007 0.333955 0.659261
O O8 0.807109 0.479192 0.722379
O O9 0.898289 0.255653 0.038738
O O10 0.579453 0.175515 0.502802
O O11 0.500000 0.000000 0.500000
O O12 0.688496 0.980875 0.327147
O O13 0.049600 0.095662 0.457196
O O14 0.181720 0.916419 0.833825
O O15 0.000000 0.000000 0.000000
O O16 0.427308 0.383546 0.588536
#
# Coordination Sequence:
#
# PCOD9103039 Si02
#       8
#     2   1   2   2   2   2   2   2
#     4  11  25  44  72 105 150 181 240 311 380 446
#     4  10  20  38  64  96 140 174 236 304 364 426
#     4  11  24  40  70 101 144 189 248 305 370 439
#     4  11  24  42  73 110 144 191 240 312 382 441
#     4  11  25  46  69 102 142 194 254 296 371 441
#     4  11  27  47  73 101 144 201 252 302 356 448
#     4  10  22  34  63  97 144 180 228 298 368 438
#     4  10  24  41  67 107 137 186 230 305 382 434
#
# _framework density 24.301611000000001
#
# number of rings (size 3 to 8) (size 9 to 14) (size 15 to 20)
#    0.000    1.333    0.000    5.200   18.667    1.067 
#    0.000    1.333    0.000    0.000    0.000    0.000 
#    0.000    0.000    0.000    0.000    0.000    0.000 
#
# Total GULP energy -83592.509759 kJ/mol
# GULP energy per Si atom -5572.833984 kJ/mol
# Density = 2.424630 g / cm^3
# Si number density = 24.301611 Si / 1000 Ang^3
#
#
#
# Elastic Constant Matrix: (Units=GPa)
#
#
# Indices 1 2 3 4 5 6 
#
# 1 49.4630 25.7852 15.8020 19.7970 4.3170 6.1116
# 2 25.7852 86.8110 27.0361 -39.7545 7.9971 13.8134
# 3 15.8020 27.0361 87.2486 -12.8561 1.1002 0.6758
# 4 19.7970 -39.7545 -12.8561 8.6634 2.1191 4.7428
# 5 4.3170 7.9971 1.1002 2.1191 37.9138 4.4995
# 6 6.1116 13.8134 0.6758 4.7428 4.4995 32.5776
#
#
#
# Elastic Compliance Matrix: (Units=1/GPa)
#
#
# Indices 1 2 3 4 5 6 
#
# 1 0.009373 0.008375 -0.001215 0.020223 -0.003001 -0.007814
# 2 0.008375 0.001608 -0.004864 -0.019313 -0.000153 0.000681
# 3 -0.001215 -0.004864 0.012907 -0.001745 0.000627 0.002190
# 4 0.020223 -0.019313 -0.001745 -0.026976 0.002376 0.008031
# 5 -0.003001 -0.000153 0.000627 0.002376 0.027009 -0.003462
# 6 -0.007814 0.000681 0.002190 0.008031 -0.003462 0.031137
#
#
# Mechanical properties :
#
#
# Convention : Reuss Voigt Hill
#
# Bulk Modulus (GPa) = 35.11261 40.08548 37.59905
# Shear Modulus (GPa) = 83.39099 26.15757 54.77428
#
# Velocity S-wave (km/s) = 5.86426 3.28437 4.75271
# Velocity P-wave (km/s) = 7.76741 5.56000 6.75449
#
# Compressibility (1/GPa) = 0.02847980
#
# Stress axis : x y z
#
# Youngs Moduli (GPa) = 106.69244 621.94073 77.47861
#
# Poissons Ratio (x) = -5.20876 0.09410
# Poissons Ratio (y) = -0.89355 0.37688
# Poissons Ratio (z) = 0.12958 3.02529
#
# Static dielectric constant tensor:
#      x y z
#    x 2.082020 -0.071400 -0.029360 
#    y -0.071400 2.041270 0.122900 
#    z -0.029360 0.122900 2.141560 
# 
# From -- ./inp_files/66506.got.cif
#   From: 2010.05.17/outbox.cif.g08.bks.cpg/sg2_34_cif.got.tgz:66506.got - 2010.06.03 11:33:40.
