data_PCOD9103350
_publ_section_title
;
Structure prediction by ZEFSAII (Michael W. Deem and Ramdas Pophale) SiO2 
 PCOD9103350
Probable space group: P -1
;
_chemical_formula_sum "Si O2"
_cell_formula_units_Z 16
_cell_length_a 11.003564
_cell_length_b 8.679056
_cell_length_c 23.620910
_cell_angle_alpha 43.546125
_cell_angle_beta 29.900532
_cell_angle_gamma 63.043489
_cell_volume 666.559498
_symmetry_space_group_name_H-M "P -1"
_symmetry_group_IT_number 2
_symmetry_cell_setting 'triclinic'
loop_
_space_group_symop_operation_xyz
x,y,z
-x,-y,-z
loop_
_atom_site_type_symbol
_atom_site_label
_atom_site_fract_x
_atom_site_fract_y
_atom_site_fract_z
Si Si1 0.171725 0.927775 0.826567
Si Si2 0.079787 0.892275 0.653826
Si Si3 0.609921 0.817942 0.441691
Si Si4 0.958917 0.806690 0.518721
Si Si5 0.684695 0.247251 0.682440
Si Si6 0.240183 0.304199 0.793546
Si Si7 0.691157 0.349631 0.001346
Si Si8 0.396903 0.549348 0.863512
O O1 0.351747 0.783023 0.797604
O O2 0.298014 0.147004 0.669162
O O3 0.137870 0.043510 0.868133
O O4 0.875765 0.710474 0.977586
O O5 0.371239 0.899254 0.520799
O O6 0.134159 0.010741 0.663577
O O7 0.059863 0.069202 0.566153
O O8 0.812544 0.597066 0.843919
O O9 0.452962 0.532819 0.605621
O O10 0.667710 0.560287 0.721795
O O11 0.237128 0.787770 0.404365
O O12 0.000000 0.000000 0.500000
O O13 0.441614 0.318492 0.759196
O O14 0.000000 0.500000 0.500000
O O15 0.531683 0.949819 0.848555
O O16 0.982870 0.350966 0.897674
O O17 0.588480 0.415235 0.083885
#
# Coordination Sequence:
#
# PCOD9103350 Si02
#       8
#     2   2   2   2   2   2   2   2
#     4  11  21  37  67 102 134 166 225 281 340 384
#     4  10  22  40  69  98 131 173 229 279 339 387
#     4  10  20  38  66 101 137 169 219 290 339 387
#     4  12  24  45  67  94 137 182 224 270 331 412
#     4  12  27  43  65  95 139 185 219 265 342 412
#     4  11  24  41  68  99 139 174 224 279 338 400
#     4  11  23  46  69 101 131 173 230 288 333 389
#     4  11  23  39  68 100 130 175 223 283 329 390
#
# _framework density 24.00386
#
# number of rings (size 3 to 8) (size 9 to 14) (size 15 to 20)
#    0.000    1.000    5.000    1.500    1.750    1.500 
#    0.000    0.000    0.000    1.500    0.000    0.000 
#    0.000    0.000    0.000    0.000    0.000    0.000 
#
# Total GULP energy -89352.785194 kJ/mol
# GULP energy per Si atom -5584.549075 kJ/mol
# Density = 2.394923 g / cm^3
# Si number density = 24.003860 Si / 1000 Ang^3
#
#
#
# Elastic Constant Matrix: (Units=GPa)
#
#
# Indices 1 2 3 4 5 6 
#
# 1 81.9969 15.7642 35.9116 -6.3007 3.1164 7.5415
# 2 15.7642 50.3286 16.4086 -8.1901 -2.8894 -0.3798
# 3 35.9116 16.4086 148.5156 -13.5715 -5.2807 -4.6524
# 4 -6.3007 -8.1901 -13.5715 48.7948 2.7006 -3.7143
# 5 3.1164 -2.8894 -5.2807 2.7006 44.7255 -6.4889
# 6 7.5415 -0.3798 -4.6524 -3.7143 -6.4889 33.4618
#
#
#
# Elastic Compliance Matrix: (Units=1/GPa)
#
#
# Indices 1 2 3 4 5 6 
#
# 1 0.014888 -0.003696 -0.003394 0.000159 -0.002310 -0.004300
# 2 -0.003696 0.021984 -0.001163 0.002919 0.001589 0.001553
# 3 -0.003394 -0.001163 0.007956 0.001681 0.001333 0.002303
# 4 0.000159 0.002919 0.001681 0.021696 -0.000567 0.002529
# 5 -0.002310 0.001589 0.001333 -0.000567 0.023573 0.005232
# 6 -0.004300 0.001553 0.002303 0.002529 0.005232 0.032487
#
#
# Mechanical properties :
#
#
# Convention : Reuss Voigt Hill
#
# Bulk Modulus (GPa) = 35.30878 46.33444 40.82161
# Shear Modulus (GPa) = 33.66294 39.58019 36.62156
#
# Velocity S-wave (km/s) = 3.74892 4.06508 3.91020
# Velocity P-wave (km/s) = 5.78626 6.43257 6.11796
#
# Compressibility (1/GPa) = 0.02832157
#
# Stress axis : x y z
#
# Youngs Moduli (GPa) = 67.16804 45.48673 125.69720
#
# Poissons Ratio (x) = 0.16812 0.42661
# Poissons Ratio (y) = 0.24826 0.14622
# Poissons Ratio (z) = 0.22797 0.05291
#
# Static dielectric constant tensor:
#      x y z
#    x 1.938410 0.001810 -0.061770 
#    y 0.001810 1.993070 -0.027990 
#    z -0.061770 -0.027990 2.018970 
# 
# From -- ./inp_files/609791.got.cif
#   From: 2010.05.17/outbox.cif.g08.bks.cpg/sg2_305_cif.got.tgz:609791.got - 2010.06.03 11:33:40.
