data_PCOD9103604
_publ_section_title
;
Structure prediction by ZEFSAII (Michael W. Deem and Ramdas Pophale) SiO2 
 PCOD9103604
Probable space group: P -1
;
_chemical_formula_sum "Si O2"
_cell_formula_units_Z 16
_cell_length_a 8.450100
_cell_length_b 21.065469
_cell_length_c 8.961488
_cell_angle_alpha 135.769482
_cell_angle_beta 122.639833
_cell_angle_gamma 42.464979
_cell_volume 751.045629
_symmetry_space_group_name_H-M "P -1"
_symmetry_group_IT_number 2
_symmetry_cell_setting 'triclinic'
loop_
_space_group_symop_operation_xyz
x,y,z
-x,-y,-z
loop_
_atom_site_type_symbol
_atom_site_label
_atom_site_fract_x
_atom_site_fract_y
_atom_site_fract_z
Si Si1 0.228554 0.335173 0.605593
Si Si2 0.278585 0.523871 0.340790
Si Si3 0.502224 0.715007 0.055614
Si Si4 0.106521 0.750318 0.120055
Si Si5 0.246197 0.545907 0.010692
Si Si6 0.769842 0.942782 0.059003
Si Si7 0.684049 0.178458 0.405030
Si Si8 0.134398 0.870428 0.899971
O O1 0.354394 0.274103 0.724909
O O2 0.407993 0.255647 0.433787
O O3 0.961840 0.381490 0.539101
O O4 0.214360 0.449010 0.799920
O O5 0.500000 0.500000 0.500000
O O6 0.244524 0.563199 0.216695
O O7 0.325939 0.401392 0.143422
O O8 0.318293 0.700721 0.023902
O O9 0.337589 0.822321 0.046238
O O10 0.075683 0.659893 0.021231
O O11 0.194723 0.789047 0.363264
O O12 0.879202 0.858003 0.109888
O O13 0.500000 0.500000 0.000000
O O14 0.785868 0.047553 0.260829
O O15 0.930085 0.871502 0.876959
O O16 0.500000 0.000000 0.000000
O O17 0.740108 0.198186 0.301802
O O18 0.000000 0.000000 0.000000
#
# Coordination Sequence:
#
# PCOD9103604 Si02
#       8
#     2   2   2   2   2   2   2   2
#     4  10  22  41  62  91 124 165 207 250 310 380
#     4  11  24  39  59  90 128 166 200 252 313 370
#     4   9  18  37  63  81 122 163 200 244 313 357
#     4  10  20  38  67  88 120 168 201 252 307 363
#     4  11  19  41  64  90 125 161 209 252 307 373
#     4  10  22  42  61  89 128 162 205 253 313 366
#     4  10  20  40  66  89 119 158 216 252 301 367
#     4   9  20  38  62  89 118 157 201 256 312 357
#
# _framework density 21.303630999999999
#
# number of rings (size 3 to 8) (size 9 to 14) (size 15 to 20)
#    0.000    2.000    3.750    1.875    1.750    3.000 
#    9.000    1.875    0.000    0.000    0.000    0.000 
#    0.000    0.000    0.000    0.000    0.000    0.000 
#
# Total GULP energy -89323.960146 kJ/mol
# GULP energy per Si atom -5582.747509 kJ/mol
# Density = 2.125514 g / cm^3
# Si number density = 21.303631 Si / 1000 Ang^3
#
#
#
# Elastic Constant Matrix: (Units=GPa)
#
#
# Indices 1 2 3 4 5 6 
#
# 1 81.1328 63.8745 30.8409 -10.5242 -27.9851 -19.7463
# 2 63.8745 147.5715 25.6926 -6.3304 -10.3587 -2.0411
# 3 30.8409 25.6926 50.8825 8.8385 -23.6048 -0.7638
# 4 -10.5242 -6.3304 8.8385 22.1841 0.2087 2.3365
# 5 -27.9851 -10.3587 -23.6048 0.2087 29.5498 8.1043
# 6 -19.7463 -2.0411 -0.7638 2.3365 8.1043 48.0379
#
#
#
# Elastic Compliance Matrix: (Units=1/GPa)
#
#
# Indices 1 2 3 4 5 6 
#
# 1 0.037401 -0.012170 -0.009916 0.016929 0.020245 0.010460
# 2 -0.012170 0.011769 -0.002323 -0.001087 -0.008407 -0.003068
# 3 -0.009916 -0.002323 0.042456 -0.021811 0.025722 -0.006778
# 4 0.016929 -0.001087 -0.021811 0.061081 -0.003343 0.004159
# 5 0.020245 -0.008407 0.025722 -0.003343 0.071610 -0.003545
# 6 0.010460 -0.003068 -0.006778 0.004159 -0.003545 0.025274
#
#
# Mechanical properties :
#
#
# Convention : Reuss Voigt Hill
#
# Bulk Modulus (GPa) = 23.36068 57.82252 40.59160
# Shear Modulus (GPa) = 15.99075 30.56631 23.27853
#
# Velocity S-wave (km/s) = 2.74270 3.79198 3.30919
# Velocity P-wave (km/s) = 4.58468 6.80978 5.80484
#
# Compressibility (1/GPa) = 0.04280696
#
# Stress axis : x y z
#
# Youngs Moduli (GPa) = 26.73717 84.96588 23.55368
#
# Poissons Ratio (x) = 1.03405 0.23356
# Poissons Ratio (y) = 0.32540 0.05473
# Poissons Ratio (z) = 0.26513 0.19741
#
# Static dielectric constant tensor:
#      x y z
#    x 1.809060 0.001060 -0.016900 
#    y 0.001060 1.792010 0.030810 
#    z -0.016900 0.030810 1.782400 
# 
# From -- ./inp_files/224120.got.cif
#   From: 2010.05.17/outbox.cif.g08.bks.cpg/sg2_113_cif.got.tgz:224120.got - 2010.06.03 11:33:40.
