data_PCOD9103103
_publ_section_title
;
Structure prediction by ZEFSAII (Michael W. Deem and Ramdas Pophale) SiO2 
 PCOD9103103
Probable space group: P -1
;
_chemical_formula_sum "Si O2"
_cell_formula_units_Z 16
_cell_length_a 9.338173
_cell_length_b 14.528258
_cell_length_c 6.064888
_cell_angle_alpha 76.127651
_cell_angle_beta 89.938921
_cell_angle_gamma 84.946362
_cell_volume 795.531769
_symmetry_space_group_name_H-M "P -1"
_symmetry_group_IT_number 2
_symmetry_cell_setting 'triclinic'
loop_
_space_group_symop_operation_xyz
x,y,z
-x,-y,-z
loop_
_atom_site_type_symbol
_atom_site_label
_atom_site_fract_x
_atom_site_fract_y
_atom_site_fract_z
Si Si1 0.955354 0.715507 0.136702
Si Si2 0.735072 0.617189 0.873936
Si Si3 0.859283 0.458744 0.615154
Si Si4 0.748576 0.018435 0.499874
Si Si5 0.483634 0.072882 0.753910
Si Si6 0.386178 0.461984 0.687084
Si Si7 0.004183 0.922682 0.844528
Si Si8 0.685979 0.734519 0.408307
O O1 0.851594 0.739262 0.334487
O O2 0.094732 0.645894 0.236824
O O3 0.859050 0.655352 0.007006
O O4 0.994041 0.815774 0.987168
O O5 0.799387 0.533714 0.758379
O O6 0.676266 0.710354 0.680769
O O7 0.614684 0.566803 0.040722
O O8 0.751462 0.464502 0.406189
O O9 0.000000 0.500000 0.500000
O O10 0.636934 0.963602 0.388434
O O11 0.863194 0.951522 0.679500
O O12 0.638450 0.076506 0.634265
O O13 0.851510 0.070660 0.304566
O O14 0.412957 0.178156 0.741797
O O15 0.500000 0.000000 0.000000
O O16 0.500000 0.500000 0.500000
O O17 0.360893 0.360067 0.645849
O O18 0.000000 0.000000 0.000000
#
# Coordination Sequence:
#
# PCOD9103103 Si02
#       8
#     2   2   2   2   2   2   2   2
#     4  11  21  36  63  93 116 164 204 250 310 364
#     4  10  20  38  65  84 127 157 204 257 301 361
#     4  11  20  39  60  94 118 152 214 250 297 370
#     4  10  23  41  62  92 125 160 217 247 318 374
#     4  11  22  42  66  90 124 165 209 266 304 369
#     4  10  23  41  56  88 124 162 198 250 306 365
#     4  11  23  43  62  91 133 164 201 268 312 368
#     4  10  21  37  62  90 116 162 208 241 310 368
#
# _framework density 20.112333
#
# number of rings (size 3 to 8) (size 9 to 14) (size 15 to 20)
#    0.000    1.500    3.750    3.375    0.000    6.000 
#    9.000    0.000    0.000    0.000    0.000    0.000 
#    0.000    0.000    0.000    0.000    0.000    0.000 
#
# Total GULP energy -89160.026346 kJ/mol
# GULP energy per Si atom -5572.501647 kJ/mol
# Density = 2.006656 g / cm^3
# Si number density = 20.112333 Si / 1000 Ang^3
#
#
#
# Elastic Constant Matrix: (Units=GPa)
#
#
# Indices 1 2 3 4 5 6 
#
# 1 87.9663 27.4591 40.5329 -17.2133 -21.3184 -10.2183
# 2 27.4591 101.5033 48.7373 -38.6016 -4.8980 -10.7031
# 3 40.5329 48.7373 132.6417 -28.2486 -20.6215 -6.5892
# 4 -17.2133 -38.6016 -28.2486 38.2952 -0.6455 0.8494
# 5 -21.3184 -4.8980 -20.6215 -0.6455 40.2756 -3.8621
# 6 -10.2183 -10.7031 -6.5892 0.8494 -3.8621 24.5466
#
#
#
# Elastic Compliance Matrix: (Units=1/GPa)
#
#
# Indices 1 2 3 4 5 6 
#
# 1 0.016352 -0.000069 -0.002087 0.005720 0.008373 0.007336
# 2 -0.000069 0.018053 -0.002554 0.016160 0.001770 0.006877
# 3 -0.002087 -0.002554 0.010822 0.004512 0.004337 0.001449
# 4 0.005720 0.016160 0.004512 0.048223 0.009072 0.010397
# 5 0.008373 0.001770 0.004337 0.009072 0.032827 0.010273
# 6 0.007336 0.006877 0.001449 0.010397 0.010273 0.048437
#
#
# Mechanical properties :
#
#
# Convention : Reuss Voigt Hill
#
# Bulk Modulus (GPa) = 27.92715 61.72998 44.82856
# Shear Modulus (GPa) = 25.50108 34.31558 29.90833
#
# Velocity S-wave (km/s) = 3.56467 4.13509 3.86043
# Velocity P-wave (km/s) = 5.55502 7.31833 6.49677
#
# Compressibility (1/GPa) = 0.03580745
#
# Stress axis : x y z
#
# Youngs Moduli (GPa) = 61.15519 55.39282 92.40067
#
# Poissons Ratio (x) = 0.00380 0.19287
# Poissons Ratio (y) = 0.00419 0.23599
# Poissons Ratio (z) = 0.12765 0.14147
#
# Static dielectric constant tensor:
#      x y z
#    x 1.760630 -0.018160 0.005810 
#    y -0.018160 1.718910 0.022500 
#    z 0.005810 0.022500 1.853340 
# 
# From -- ./inp_files/37250.got.cif
#   From: 2010.05.17/outbox.cif.g08.bks.cpg/sg2_19_cif.got.tgz:37250.got - 2010.06.03 11:33:40.
