data_PCOD9103490
_publ_section_title
;
Structure prediction by ZEFSAII (Michael W. Deem and Ramdas Pophale) SiO2 
 PCOD9103490
Probable space group: P -1
;
_chemical_formula_sum "Si O2"
_cell_formula_units_Z 14
_cell_length_a 12.858960
_cell_length_b 10.172842
_cell_length_c 14.782643
_cell_angle_alpha 47.841715
_cell_angle_beta 34.519944
_cell_angle_gamma 33.431203
_cell_volume 602.902051
_symmetry_space_group_name_H-M "P -1"
_symmetry_group_IT_number 2
_symmetry_cell_setting 'triclinic'
loop_
_space_group_symop_operation_xyz
x,y,z
-x,-y,-z
loop_
_atom_site_type_symbol
_atom_site_label
_atom_site_fract_x
_atom_site_fract_y
_atom_site_fract_z
Si Si1 0.247158 0.709884 0.136136
Si Si2 0.218640 0.402708 0.805802
Si Si3 0.039228 0.442353 0.604363
Si Si4 0.966482 0.246499 0.057148
Si Si5 0.584876 0.510890 0.683822
Si Si6 0.197260 0.730128 0.550696
Si Si7 0.264042 0.060492 0.315228
O O1 0.029580 0.716556 0.256768
O O2 0.299035 0.641586 0.236844
O O3 0.500000 0.500000 0.000000
O O4 0.159852 0.964705 0.060799
O O5 0.077846 0.617007 0.880321
O O6 0.316986 0.492253 0.628589
O O7 0.444359 0.150112 0.807242
O O8 0.069791 0.349569 0.880759
O O9 0.000000 0.500000 0.500000
O O10 0.305445 0.361294 0.469172
O O11 0.832893 0.696797 0.684160
O O12 0.707900 0.330042 0.173869
O O13 0.676051 0.352854 0.600783
O O14 0.196474 0.934863 0.486277
O O15 0.911893 0.855564 0.683571
#
# Coordination Sequence:
#
# PCOD9103490 Si02
#       7
#     2   2   2   2   2   2   2
#     4  11  25  46  68  90 131 176 210 261 320 387
#     4  11  24  40  62 100 132 168 211 260 331 379
#     4   9  21  39  65  93 123 170 215 252 309 374
#     4  11  26  41  64  95 134 171 210 264 320 385
#     4  10  23  43  66  99 126 161 224 266 317 376
#     4  10  22  37  69  97 126 166 209 272 325 369
#     4  10  20  38  66  94 127 163 212 268 318 372
#
# _framework density 23.221018999999998
#
# number of rings (size 3 to 8) (size 9 to 14) (size 15 to 20)
#    0.000    1.714    1.429    1.286    8.000    4.571 
#    0.000    7.143    0.000    0.000    0.000    0.000 
#    0.000    0.000    0.000    0.000    0.000    0.000 
#
# Total GULP energy -78085.347260 kJ/mol
# GULP energy per Si atom -5577.524804 kJ/mol
# Density = 2.316817 g / cm^3
# Si number density = 23.221019 Si / 1000 Ang^3
#
#
#
# Elastic Constant Matrix: (Units=GPa)
#
#
# Indices 1 2 3 4 5 6 
#
# 1 48.9616 25.2962 19.2143 -6.7263 -21.5819 14.1576
# 2 25.2962 123.5424 36.7352 -12.1892 -21.7170 9.0358
# 3 19.2143 36.7352 103.4989 -16.0863 -41.3177 11.0463
# 4 -6.7263 -12.1892 -16.0863 43.6160 2.5090 -11.6634
# 5 -21.5819 -21.7170 -41.3177 2.5090 48.7926 0.9783
# 6 14.1576 9.0358 11.0463 -11.6634 0.9783 30.7235
#
#
#
# Elastic Compliance Matrix: (Units=1/GPa)
#
#
# Indices 1 2 3 4 5 6 
#
# 1 0.032535 -0.003705 0.003263 0.000122 0.015811 -0.015533
# 2 -0.003705 0.009782 -0.002327 0.001303 0.000675 0.000140
# 3 0.003263 -0.002327 0.016960 0.003659 0.014701 -0.005996
# 4 0.000122 0.001303 0.003659 0.026763 0.002189 0.008335
# 5 0.015811 0.000675 0.014701 0.002189 0.040390 -0.013225
# 6 -0.015533 0.000140 -0.005996 0.008335 -0.013225 0.045406
#
#
# Mechanical properties :
#
#
# Convention : Reuss Voigt Hill
#
# Bulk Modulus (GPa) = 18.60837 48.72162 33.66500
# Shear Modulus (GPa) = 25.60353 37.61024 31.60689
#
# Velocity S-wave (km/s) = 3.32415 4.02887 3.69336
# Velocity P-wave (km/s) = 4.77119 6.53220 5.71987
#
# Compressibility (1/GPa) = 0.05373926
#
# Stress axis : x y z
#
# Youngs Moduli (GPa) = 30.73608 102.23027 58.96369
#
# Poissons Ratio (x) = 0.37874 -0.19243
# Poissons Ratio (y) = 0.11387 0.13723
# Poissons Ratio (z) = -0.10031 0.23793
#
# Static dielectric constant tensor:
#      x y z
#    x 1.916950 -0.043790 -0.043340 
#    y -0.043790 1.874740 0.040580 
#    z -0.043340 0.040580 2.130630 
# 
# From -- ./inp_files/573159.got.cif
#   From: 2010.05.17/outbox.cif.g08.bks.cpg/sg2_287_cif.got.tgz:573159.got - 2010.06.03 11:33:40.
