data_PCOD9103356
_publ_section_title
;
Structure prediction by ZEFSAII (Michael W. Deem and Ramdas Pophale) SiO2 
 PCOD9103356
Probable space group: P -1
;
_chemical_formula_sum "Si O2"
_cell_formula_units_Z 16
_cell_length_a 11.406256
_cell_length_b 14.335990
_cell_length_c 7.633950
_cell_angle_alpha 81.689274
_cell_angle_beta 130.427806
_cell_angle_gamma 129.466689
_cell_volume 653.071525
_symmetry_space_group_name_H-M "P -1"
_symmetry_group_IT_number 2
_symmetry_cell_setting 'triclinic'
loop_
_space_group_symop_operation_xyz
x,y,z
-x,-y,-z
loop_
_atom_site_type_symbol
_atom_site_label
_atom_site_fract_x
_atom_site_fract_y
_atom_site_fract_z
Si Si1 0.734784 0.190277 0.340175
Si Si2 0.108420 0.681351 0.922109
Si Si3 0.949375 0.532530 0.260665
Si Si4 0.270428 0.349607 0.366695
Si Si5 0.539578 0.613994 0.101963
Si Si6 0.433297 0.051998 0.558646
Si Si7 0.690441 0.868473 0.108821
Si Si8 0.171233 0.102753 0.361005
O O1 0.848616 0.253129 0.245230
O O2 0.890306 0.307075 0.606807
O O3 0.673426 0.056352 0.358339
O O4 0.507699 0.149308 0.123691
O O5 0.025869 0.539209 0.838322
O O6 0.926818 0.664100 0.849556
O O7 0.343884 0.794033 0.215419
O O8 0.000000 0.500000 0.500000
O O9 0.694565 0.452614 0.031270
O O10 0.500000 0.500000 0.500000
O O11 0.286738 0.333426 0.593212
O O12 0.239071 0.230106 0.299188
O O13 0.626762 0.734375 0.028808
O O14 0.500000 0.500000 0.000000
O O15 0.249821 0.049219 0.335028
O O16 0.500000 0.000000 0.500000
O O17 0.712185 0.866613 0.342929
O O18 0.917671 0.997087 0.204184
#
# Coordination Sequence:
#
# PCOD9103356 Si02
#       8
#     2   2   2   2   2   2   2   2
#     4  11  22  40  71 103 132 179 228 282 339 408
#     4  11  22  45  70  94 132 181 235 278 336 412
#     4  10  20  38  66 103 134 167 227 283 335 393
#     4  11  26  44  67  95 133 182 225 277 348 407
#     4  11  21  38  65 101 136 169 224 277 335 402
#     4  12  27  44  66 102 140 180 227 282 350 414
#     4  10  20  39  71 100 131 172 225 289 332 394
#     4  10  23  43  66 100 133 174 229 281 342 404
#
# _framework density 24.499614999999999
#
# number of rings (size 3 to 8) (size 9 to 14) (size 15 to 20)
#    0.000    1.250    3.750    3.375    7.000    2.000 
#    0.000    3.125    0.000    0.000    0.000    0.000 
#    0.000    0.000    0.000    0.000    0.000    0.000 
#
# Total GULP energy -89556.511349 kJ/mol
# GULP energy per Si atom -5597.281959 kJ/mol
# Density = 2.444385 g / cm^3
# Si number density = 24.499615 Si / 1000 Ang^3
#
#
#
# Elastic Constant Matrix: (Units=GPa)
#
#
# Indices 1 2 3 4 5 6 
#
# 1 104.0699 36.5717 20.9708 -4.1726 17.6261 -5.6329
# 2 36.5717 99.5168 2.9704 21.4188 7.2835 -5.4074
# 3 20.9708 2.9704 86.8401 15.5387 14.1059 6.7095
# 4 -4.1726 21.4188 15.5387 31.0041 5.4101 0.2491
# 5 17.6261 7.2835 14.1059 5.4101 48.5805 5.2649
# 6 -5.6329 -5.4074 6.7095 0.2491 5.2649 41.9572
#
#
#
# Elastic Compliance Matrix: (Units=1/GPa)
#
#
# Indices 1 2 3 4 5 6 
#
# 1 0.013980 -0.006591 -0.004316 0.009296 -0.004102 0.002177
# 2 -0.006591 0.015187 0.003287 -0.013129 0.000562 0.000554
# 3 -0.004316 0.003287 0.014683 -0.009870 -0.001851 -0.002213
# 4 0.009296 -0.013129 -0.009870 0.048218 -0.004056 0.001357
# 5 -0.004102 0.000562 -0.001851 -0.004056 0.023312 -0.003083
# 6 0.002177 0.000554 -0.002213 0.001357 -0.003083 0.024930
#
#
# Mechanical properties :
#
#
# Convention : Reuss Voigt Hill
#
# Bulk Modulus (GPa) = 34.95137 45.71698 40.33417
# Shear Modulus (GPa) = 30.28706 39.63596 34.96151
#
# Velocity S-wave (km/s) = 3.51981 4.02658 3.78169
# Velocity P-wave (km/s) = 5.55120 6.34969 5.96382
#
# Compressibility (1/GPa) = 0.02861119
#
# Stress axis : x y z
#
# Youngs Moduli (GPa) = 71.53005 65.84443 68.10629
#
# Poissons Ratio (x) = 0.43398 0.29394
# Poissons Ratio (y) = 0.47146 -0.22389
# Poissons Ratio (z) = 0.30871 -0.21645
#
# Static dielectric constant tensor:
#      x y z
#    x 1.993680 -0.030290 -0.100830 
#    y -0.030290 1.996690 0.018360 
#    z -0.100830 0.018360 1.986480 
# 
# From -- ./inp_files/273005.got.cif
#   From: 2010.05.17/outbox.cif.g08.bks.cpg/sg2_137_cif.got.tgz:273005.got - 2010.06.03 11:33:40.
