data_PCOD9103651
_publ_section_title
;
Structure prediction by ZEFSAII (Michael W. Deem and Ramdas Pophale) SiO2 
 PCOD9103651
Probable space group: P -1
;
_chemical_formula_sum "Si O2"
_cell_formula_units_Z 16
_cell_length_a 18.449259
_cell_length_b 9.646453
_cell_length_c 10.098750
_cell_angle_alpha 76.851611
_cell_angle_beta 27.668932
_cell_angle_gamma 65.485727
_cell_volume 716.455549
_symmetry_space_group_name_H-M "P -1"
_symmetry_group_IT_number 2
_symmetry_cell_setting 'triclinic'
loop_
_space_group_symop_operation_xyz
x,y,z
-x,-y,-z
loop_
_atom_site_type_symbol
_atom_site_label
_atom_site_fract_x
_atom_site_fract_y
_atom_site_fract_z
Si Si1 0.797847 0.539304 0.855192
Si Si2 0.671656 0.978893 0.139504
Si Si3 0.659228 0.000701 0.830506
Si Si4 0.768471 0.684920 0.613668
Si Si5 0.302298 0.425293 0.503311
Si Si6 0.315022 0.676784 0.277489
Si Si7 0.313126 0.706733 0.978343
Si Si8 0.876789 0.638937 0.956702
O O1 0.689514 0.641092 0.880913
O O2 0.766861 0.386607 0.953817
O O3 0.000000 0.500000 0.500000
O O4 0.746434 0.634434 0.053591
O O5 0.842297 0.817753 0.947014
O O6 0.500000 0.000000 0.500000
O O7 0.714109 0.124843 0.066666
O O8 0.648353 0.983431 0.013181
O O9 0.807334 0.827774 0.568956
O O10 0.683373 0.157326 0.723441
O O11 0.500000 0.000000 0.000000
O O12 0.655178 0.699209 0.662281
O O13 0.942765 0.521070 0.329245
O O14 0.220419 0.609871 0.545881
O O15 0.182289 0.383968 0.800271
O O16 0.476455 0.388936 0.313366
O O17 0.236856 0.715263 0.248032
O O18 0.500000 0.500000 0.000000
#
# Coordination Sequence:
#
# PCOD9103651 Si02
#       8
#     2   2   2   2   2   2   2   2
#     4  10  22  41  62  90 129 168 215 264 328 386
#     4  11  22  41  61  99 135 166 218 271 329 387
#     4  11  23  38  65  94 125 170 222 272 309 387
#     4  11  22  42  64  91 130 175 220 258 326 395
#     4  11  21  39  65  94 128 169 222 266 324 387
#     4   9  19  35  59  93 120 158 209 263 315 373
#     4  10  20  38  67  93 127 164 221 273 315 389
#     4  11  24  41  63  94 135 176 209 268 337 387
#
# _framework density 22.332160999999999
#
# number of rings (size 3 to 8) (size 9 to 14) (size 15 to 20)
#    0.000    1.500    3.750    2.625    1.750    0.500 
#    2.250    5.625    0.000    0.000    0.000    0.000 
#    0.000    0.000    0.000    0.000    0.000    0.000 
#
# Total GULP energy -89069.964666 kJ/mol
# GULP energy per Si atom -5566.872792 kJ/mol
# Density = 2.228133 g / cm^3
# Si number density = 22.332161 Si / 1000 Ang^3
#
#
#
# Elastic Constant Matrix: (Units=GPa)
#
#
# Indices 1 2 3 4 5 6 
#
# 1 45.5554 23.8630 14.9062 -9.0470 12.7184 1.2771
# 2 23.8630 207.8605 30.5472 -15.7437 12.2059 4.8119
# 3 14.9062 30.5472 43.8695 -2.4938 8.7731 -8.8713
# 4 -9.0470 -15.7437 -2.4938 29.2412 -9.0034 2.0071
# 5 12.7184 12.2059 8.7731 -9.0034 27.6569 1.7661
# 6 1.2771 4.8119 -8.8713 2.0071 1.7661 44.2315
#
#
#
# Elastic Compliance Matrix: (Units=1/GPa)
#
#
# Indices 1 2 3 4 5 6 
#
# 1 0.028384 -0.001280 -0.007186 0.005017 -0.008447 -0.002012
# 2 -0.001280 0.005721 -0.003732 0.002515 0.000159 -0.001454
# 3 -0.007186 -0.003732 0.030339 -0.004128 -0.006473 0.007144
# 4 0.005017 0.002515 -0.004128 0.040472 0.011294 -0.003534
# 5 -0.008447 0.000159 -0.006473 0.011294 0.045920 -0.003418
# 6 -0.002012 -0.001454 0.007144 -0.003534 -0.003418 0.024554
#
#
# Mechanical properties :
#
#
# Convention : Reuss Voigt Hill
#
# Bulk Modulus (GPa) = 24.96892 48.43537 36.70214
# Shear Modulus (GPa) = 23.45927 35.42386 29.44156
#
# Velocity S-wave (km/s) = 3.24461 3.98707 3.63485
# Velocity P-wave (km/s) = 5.02411 6.55220 5.83836
#
# Compressibility (1/GPa) = 0.04004979
#
# Stress axis : x y z
#
# Youngs Moduli (GPa) = 35.23111 174.79199 32.96040
#
# Poissons Ratio (x) = 0.22373 0.23684
# Poissons Ratio (y) = 0.04509 0.12300
# Poissons Ratio (z) = 0.25316 0.65228
#
# Static dielectric constant tensor:
#      x y z
#    x 2.028970 -0.067110 -0.097940 
#    y -0.067110 1.970210 0.056480 
#    z -0.097940 0.056480 1.994070 
# 
# From -- ./inp_files/473621.got.cif
#   From: 2010.05.17/outbox.cif.g08.bks.cpg/sg2_237_cif.got.tgz:473621.got - 2010.06.03 11:33:40.
