data_PCOD9103597
_publ_section_title
;
Structure prediction by ZEFSAII (Michael W. Deem and Ramdas Pophale) SiO2 
 PCOD9103597
Probable space group: P -1
;
_chemical_formula_sum "Si O2"
_cell_formula_units_Z 16
_cell_length_a 10.370649
_cell_length_b 17.367714
_cell_length_c 9.971457
_cell_angle_alpha 36.793186
_cell_angle_beta 52.024787
_cell_angle_gamma 34.715597
_cell_volume 607.730359
_symmetry_space_group_name_H-M "P -1"
_symmetry_group_IT_number 2
_symmetry_cell_setting 'triclinic'
loop_
_space_group_symop_operation_xyz
x,y,z
-x,-y,-z
loop_
_atom_site_type_symbol
_atom_site_label
_atom_site_fract_x
_atom_site_fract_y
_atom_site_fract_z
Si Si1 0.029392 0.577422 0.693024
Si Si2 0.977622 0.143058 0.730747
Si Si3 0.564070 0.227587 0.827241
Si Si4 0.506752 0.233722 0.562079
Si Si5 0.456751 0.036943 0.714036
Si Si6 0.643650 0.145956 0.300850
Si Si7 0.020677 0.313020 0.123782
Si Si8 0.532286 0.491050 0.150059
O O1 0.978621 0.734312 0.422916
O O2 0.301085 0.405285 0.764162
O O3 0.955102 0.652541 0.786838
O O4 0.947044 0.478376 0.851045
O O5 0.710139 0.275159 0.685385
O O6 0.124416 0.032964 0.658273
O O7 0.000000 0.000000 0.000000
O O8 0.615584 0.147217 0.756254
O O9 0.615435 0.071424 0.101608
O O10 0.655387 0.171158 0.417713
O O11 0.408785 0.431961 0.368401
O O12 0.358730 0.190334 0.674126
O O13 0.727040 0.872969 0.816081
O O14 0.469905 0.120065 0.457256
O O15 0.564713 0.312718 0.033235
O O16 0.800731 0.342861 0.218209
O O17 0.500000 0.500000 0.000000
#
# Coordination Sequence:
#
# PCOD9103597 Si02
#       8
#     2   2   2   2   2   2   2   2
#     4  10  22  41  60  91 116 167 200 250 301 357
#     4  12  26  40  57  91 126 161 200 250 301 364
#     4  11  23  38  65  91 121 156 202 256 303 345
#     4   9  20  37  66  85 120 149 211 240 301 353
#     4   9  20  40  64  92 114 156 205 255 295 352
#     4   9  22  40  61  83 126 157 203 240 308 357
#     4  10  20  38  67  86 121 154 215 245 294 366
#     4  10  21  37  59  93 118 160 197 251 302 358
#
# _framework density 26.327463999999999
#
# number of rings (size 3 to 8) (size 9 to 14) (size 15 to 20)
#    0.750    1.250    1.250    1.500    3.500    4.000 
#    0.000    1.250    0.000    3.750    0.000    0.000 
#    0.000    0.000    0.000    0.000    0.000    0.000 
#
# Total GULP energy -89206.768457 kJ/mol
# GULP energy per Si atom -5575.423029 kJ/mol
# Density = 2.626754 g / cm^3
# Si number density = 26.327464 Si / 1000 Ang^3
#
#
#
# Elastic Constant Matrix: (Units=GPa)
#
#
# Indices 1 2 3 4 5 6 
#
# 1 61.7636 -0.5639 20.4512 1.3992 -25.9490 7.9493
# 2 -0.5639 64.5238 30.9772 2.9367 -9.4838 -0.3443
# 3 20.4512 30.9772 173.2724 -26.2178 -37.8163 11.1247
# 4 1.3992 2.9367 -26.2178 42.9553 5.5157 3.0620
# 5 -25.9490 -9.4838 -37.8163 5.5157 54.7088 2.9779
# 6 7.9493 -0.3443 11.1247 3.0620 2.9779 23.7022
#
#
#
# Elastic Compliance Matrix: (Units=1/GPa)
#
#
# Indices 1 2 3 4 5 6 
#
# 1 0.022197 0.002017 -0.000236 -0.001859 0.011364 -0.008492
# 2 0.002017 0.017745 -0.003716 -0.003888 0.001769 0.001605
# 3 -0.000236 -0.003716 0.008709 0.005316 0.005020 -0.005380
# 4 -0.001859 -0.003888 0.005316 0.027280 -0.000337 -0.005410
# 5 0.011364 0.001769 0.005020 -0.000337 0.028003 -0.009617
# 6 -0.008492 0.001605 -0.005380 -0.005410 -0.009617 0.049494
#
#
# Mechanical properties :
#
#
# Convention : Reuss Voigt Hill
#
# Bulk Modulus (GPa) = 22.33097 44.58766 33.45932
# Shear Modulus (GPa) = 29.03174 40.85294 34.94234
#
# Velocity S-wave (km/s) = 3.32432 3.94347 3.64706
# Velocity P-wave (km/s) = 4.82029 6.14061 5.52007
#
# Compressibility (1/GPa) = 0.04478086
#
# Stress axis : x y z
#
# Youngs Moduli (GPa) = 45.05118 56.35297 114.82408
#
# Poissons Ratio (x) = -0.11367 0.02714
# Poissons Ratio (y) = -0.09087 0.42667
# Poissons Ratio (z) = 0.01065 0.20940
#
# Static dielectric constant tensor:
#      x y z
#    x 2.100420 -0.054850 -0.004290 
#    y -0.054850 2.048110 -0.056060 
#    z -0.004290 -0.056060 2.265780 
# 
# From -- ./inp_files/438581.got.cif
#   From: 2010.05.17/outbox.cif.g08.bks.cpg/sg2_220_cif.got.tgz:438581.got - 2010.06.03 11:33:40.
