data_PCOD9103892
_publ_section_title
;
Structure prediction by ZEFSAII (Michael W. Deem and Ramdas Pophale) SiO2 
 PCOD9103892
Probable space group: P -1
;
_chemical_formula_sum "Si O2"
_cell_formula_units_Z 14
_cell_length_a 12.037576
_cell_length_b 20.422203
_cell_length_c 14.585982
_cell_angle_alpha 158.509532
_cell_angle_beta 141.018210
_cell_angle_gamma 29.117566
_cell_volume 626.377830
_symmetry_space_group_name_H-M "P -1"
_symmetry_group_IT_number 2
_symmetry_cell_setting 'triclinic'
loop_
_space_group_symop_operation_xyz
x,y,z
-x,-y,-z
loop_
_atom_site_type_symbol
_atom_site_label
_atom_site_fract_x
_atom_site_fract_y
_atom_site_fract_z
Si Si1 0.121229 0.499452 0.666119
Si Si2 0.207718 0.870556 0.095466
Si Si3 0.272457 0.223527 0.924087
Si Si4 0.439057 0.586241 0.177758
Si Si5 0.022110 0.760126 0.407032
Si Si6 0.073260 0.093107 0.781935
Si Si7 0.202342 0.080652 0.182817
O O1 0.383198 0.372128 0.636667
O O2 0.000000 0.500000 0.500000
O O3 0.137487 0.309585 0.489302
O O4 0.004268 0.732060 0.953186
O O5 0.239099 0.922051 0.081995
O O6 0.457959 0.636315 0.983693
O O7 0.113511 0.064213 0.365206
O O8 0.006494 0.853840 0.929486
O O9 0.207239 0.142168 0.864412
O O10 0.550677 0.062459 0.894109
O O11 0.162720 0.192832 0.725206
O O12 0.167446 0.495013 0.195104
O O13 0.167845 0.791969 0.276396
O O14 0.500000 0.500000 0.000000
O O15 0.151984 0.847241 0.554348
#
# Coordination Sequence:
#
# PCOD9103892 Si02
#       7
#     2   2   2   2   2   2   2
#     4  11  20  41  69 100 129 164 229 272 321 395
#     4  11  23  44  68  94 133 173 223 276 331 384
#     4  11  27  43  64  98 139 176 221 267 331 407
#     4  10  20  38  69  94 126 164 219 276 324 375
#     4  11  23  45  65  98 133 176 225 268 328 396
#     4  11  23  44  68  99 134 174 215 277 338 387
#     4  11  25  43  65 101 135 172 218 276 331 397
#
# _framework density 22.350726999999999
#
# number of rings (size 3 to 8) (size 9 to 14) (size 15 to 20)
#    0.000    1.143    4.286    2.143    6.000    1.143 
#    0.000    4.286    0.000    0.000    0.000    0.000 
#    0.000    0.000    0.000    0.000    0.000    0.000 
#
# Total GULP energy -78046.186314 kJ/mol
# GULP energy per Si atom -5574.727594 kJ/mol
# Density = 2.229986 g / cm^3
# Si number density = 22.350727 Si / 1000 Ang^3
#
#
#
# Elastic Constant Matrix: (Units=GPa)
#
#
# Indices 1 2 3 4 5 6 
#
# 1 146.5944 36.8910 37.0902 -0.5760 13.0813 -7.4362
# 2 36.8910 58.6476 28.1026 -3.4169 12.7332 2.8106
# 3 37.0902 28.1026 134.4167 0.9418 16.1584 -6.8224
# 4 -0.5760 -3.4169 0.9418 23.2978 4.1042 3.9887
# 5 13.0813 12.7332 16.1584 4.1042 30.0460 -6.2138
# 6 -7.4362 2.8106 -6.8224 3.9887 -6.2138 31.2511
#
#
#
# Elastic Compliance Matrix: (Units=1/GPa)
#
#
# Indices 1 2 3 4 5 6 
#
# 1 0.008479 -0.004827 -0.001158 -0.000746 -0.000466 0.002202
# 2 -0.004827 0.024093 -0.003037 0.006174 -0.008661 -0.006488
# 3 -0.001158 -0.003037 0.008779 -0.000638 -0.002535 0.001492
# 4 -0.000746 0.006174 -0.000638 0.047167 -0.010238 -0.008928
# 5 -0.000466 -0.008661 -0.002535 -0.010238 0.041936 0.009760
# 6 0.002202 -0.006488 0.001492 -0.008928 0.009760 0.036512
#
#
# Mechanical properties :
#
#
# Convention : Reuss Voigt Hill
#
# Bulk Modulus (GPa) = 42.90144 60.42517 51.66330
# Shear Modulus (GPa) = 25.93645 32.75730 29.34687
#
# Velocity S-wave (km/s) = 3.41020 3.83247 3.62749
# Velocity P-wave (km/s) = 5.89426 6.83209 6.38043
#
# Compressibility (1/GPa) = 0.02330924
#
# Stress axis : x y z
#
# Youngs Moduli (GPa) = 117.93161 41.50502 113.91164
#
# Poissons Ratio (x) = 0.20034 0.13186
# Poissons Ratio (y) = 0.56924 0.34592
# Poissons Ratio (z) = 0.13652 0.12604
#
# Static dielectric constant tensor:
#      x y z
#    x 1.869020 0.002110 0.070680 
#    y 0.002110 1.769840 -0.008250 
#    z 0.070680 -0.008250 1.863420 
# 
# From -- ./inp_files/346496.got.cif
#   From: 2010.05.17/outbox.cif.g08.bks.cpg/sg2_174_cif.got.tgz:346496.got - 2010.06.03 11:33:40.
