data_PCOD9103722
_publ_section_title
;
Structure prediction by ZEFSAII (Michael W. Deem and Ramdas Pophale) SiO2 
 PCOD9103722
Probable space group: P -1
;
_chemical_formula_sum "Si O2"
_cell_formula_units_Z 16
_cell_length_a 17.367764
_cell_length_b 12.370583
_cell_length_c 11.448901
_cell_angle_alpha 47.030523
_cell_angle_beta 149.823196
_cell_angle_gamma 142.391407
_cell_volume 754.526537
_symmetry_space_group_name_H-M "P -1"
_symmetry_group_IT_number 2
_symmetry_cell_setting 'triclinic'
loop_
_space_group_symop_operation_xyz
x,y,z
-x,-y,-z
loop_
_atom_site_type_symbol
_atom_site_label
_atom_site_fract_x
_atom_site_fract_y
_atom_site_fract_z
Si Si1 0.692116 0.120475 0.013948
Si Si2 0.468680 0.997193 0.600830
Si Si3 0.772737 0.648486 0.764108
Si Si4 0.396064 0.526435 0.086754
Si Si5 0.389810 0.614362 0.464882
Si Si6 0.974968 0.478007 0.824857
Si Si7 0.174430 0.596436 0.572090
Si Si8 0.632508 0.866258 0.305288
O O1 0.638113 0.032820 0.879370
O O2 0.502282 0.098306 0.824559
O O3 0.849679 0.325775 0.068518
O O4 0.749232 0.031483 0.250704
O O5 0.472300 0.175099 0.499356
O O6 0.500000 0.000000 0.500000
O O7 0.293318 0.810527 0.552862
O O8 0.733770 0.608640 0.880369
O O9 0.631670 0.477972 0.621344
O O10 0.746673 0.802161 0.571954
O O11 0.961663 0.659429 0.982693
O O12 0.541600 0.475662 0.292144
O O13 0.497492 0.711378 0.152083
O O14 0.303893 0.542482 0.840069
O O15 0.192190 0.566939 0.279224
O O16 0.904128 0.474698 0.605473
O O17 0.000000 0.500000 0.500000
#
# Coordination Sequence:
#
# PCOD9103722 Si02
#       8
#     2   2   2   2   2   2   2   2
#     4  11  22  40  69 102 133 174 233 275 331 401
#     4  12  24  44  67  97 138 181 222 270 350 408
#     4  11  21  40  67 100 135 175 230 277 335 399
#     4  11  21  43  68  98 134 180 227 275 340 405
#     4  11  24  42  69  99 136 180 224 278 338 413
#     4  12  24  42  67 102 137 180 223 281 338 399
#     4  12  25  45  69  98 137 178 229 280 339 399
#     4  10  20  38  68 100 130 178 227 278 330 398
#
# _framework density 21.205351
#
# number of rings (size 3 to 8) (size 9 to 14) (size 15 to 20)
#    0.000    0.750    6.250    2.625    1.750    0.500 
#    0.000    5.625    0.000    0.000    0.000    0.000 
#    0.000    0.000    0.000    0.000    0.000    0.000 
#
# Total GULP energy -89264.418071 kJ/mol
# GULP energy per Si atom -5579.026129 kJ/mol
# Density = 2.115709 g / cm^3
# Si number density = 21.205351 Si / 1000 Ang^3
#
#
#
# Elastic Constant Matrix: (Units=GPa)
#
#
# Indices 1 2 3 4 5 6 
#
# 1 98.8726 51.9119 57.6587 -10.0305 -12.8849 6.3160
# 2 51.9119 88.2763 31.6148 -11.6562 -14.7193 21.5859
# 3 57.6587 31.6148 134.7770 -28.4618 -18.7176 7.2405
# 4 -10.0305 -11.6562 -28.4618 42.7802 -1.2507 -2.9920
# 5 -12.8849 -14.7193 -18.7176 -1.2507 44.4196 1.6707
# 6 6.3160 21.5859 7.2405 -2.9920 1.6707 25.6589
#
#
#
# Elastic Compliance Matrix: (Units=1/GPa)
#
#
# Indices 1 2 3 4 5 6 
#
# 1 0.018726 -0.010657 -0.006510 -0.002459 -0.001137 0.005980
# 2 -0.010657 0.022541 0.001800 0.003839 0.005876 -0.016783
# 3 -0.006510 0.001800 0.011932 0.006828 0.004031 -0.002745
# 4 -0.002459 0.003839 0.006828 0.028407 0.004293 -0.001518
# 5 -0.001137 0.005876 0.004031 0.004293 0.026213 -0.007007
# 6 0.005980 -0.016783 -0.002745 -0.001518 -0.007007 0.052673
#
#
# Mechanical properties :
#
#
# Convention : Reuss Voigt Hill
#
# Bulk Modulus (GPa) = 44.51440 67.14406 55.82923
# Shear Modulus (GPa) = 25.16176 34.62111 29.89144
#
# Velocity S-wave (km/s) = 3.44841 4.04500 3.75856
# Velocity P-wave (km/s) = 6.07396 7.31769 6.72464
#
# Compressibility (1/GPa) = 0.02246464
#
# Stress axis : x y z
#
# Youngs Moduli (GPa) = 53.40128 44.36367 83.81074
#
# Poissons Ratio (x) = 0.47280 0.54559
# Poissons Ratio (y) = 0.56912 -0.15087
# Poissons Ratio (z) = 0.34763 -0.07986
#
# Static dielectric constant tensor:
#      x y z
#    x 1.860850 0.018520 -0.020810 
#    y 0.018520 1.779320 -0.015890 
#    z -0.020810 -0.015890 1.816490 
# 
# From -- ./inp_files/464412.got.cif
#   From: 2010.05.17/outbox.cif.g08.bks.cpg/sg2_233_cif.got.tgz:464412.got - 2010.06.03 11:33:40.
