data_PCOD9103580
_publ_section_title
;
Structure prediction by ZEFSAII (Michael W. Deem and Ramdas Pophale) SiO2 
 PCOD9103580
Probable space group: P -1
;
_chemical_formula_sum "Si O2"
_cell_formula_units_Z 16
_cell_length_a 5.419921
_cell_length_b 26.046040
_cell_length_c 8.838214
_cell_angle_alpha 131.323881
_cell_angle_beta 66.503214
_cell_angle_gamma 127.040634
_cell_volume 747.908650
_symmetry_space_group_name_H-M "P -1"
_symmetry_group_IT_number 2
_symmetry_cell_setting 'triclinic'
loop_
_space_group_symop_operation_xyz
x,y,z
-x,-y,-z
loop_
_atom_site_type_symbol
_atom_site_label
_atom_site_fract_x
_atom_site_fract_y
_atom_site_fract_z
Si Si1 0.776927 0.623299 0.593084
Si Si2 0.174672 0.568451 0.828562
Si Si3 0.490547 0.663377 0.199864
Si Si4 0.269570 0.914712 0.953388
Si Si5 0.910757 0.301559 0.043924
Si Si6 0.492076 0.557130 0.239372
Si Si7 0.563731 0.847894 0.967786
Si Si8 0.252857 0.767132 0.601414
O O1 0.452277 0.582586 0.678788
O O2 0.713576 0.571951 0.357689
O O3 0.010426 0.645290 0.718849
O O4 0.923614 0.710606 0.653733
O O5 0.137774 0.644950 0.958988
O O6 0.864583 0.489732 0.713410
O O7 0.273773 0.582397 0.006134
O O8 0.560391 0.636653 0.292020
O O9 0.335175 0.717112 0.370395
O O10 0.793180 0.703447 0.097604
O O11 0.400913 0.897409 0.043602
O O12 0.259281 0.847190 0.712110
O O13 0.921171 0.898473 0.019505
O O14 0.500000 0.000000 0.000000
O O15 0.632525 0.215920 0.981224
O O16 0.500000 0.500000 0.000000
O O17 0.511436 0.796157 0.727752
#
# Coordination Sequence:
#
# PCOD9103580 Si02
#       8
#     2   2   2   2   2   2   2   2
#     4  10  23  39  58  86 116 160 216 258 324 377
#     4  11  23  41  58  84 120 167 217 273 322 382
#     4  11  24  40  60  88 123 166 221 264 327 376
#     4  10  20  38  67 103 132 159 205 261 319 381
#     4  10  22  40  62  87 121 168 215 261 318 382
#     4  12  24  41  57  85 125 166 214 280 332 370
#     4   9  21  37  66  95 129 165 211 255 314 383
#     4   9  22  36  63  91 121 163 210 266 308 386
#
# _framework density 21.392987999999999
#
# number of rings (size 3 to 8) (size 9 to 14) (size 15 to 20)
#    0.750    1.000    1.250    2.625    7.000    0.500 
#    0.000    0.000    0.000    1.500    0.000    0.000 
#    0.000    0.000    0.000    0.000    0.000    0.000 
#
# Total GULP energy -89190.732210 kJ/mol
# GULP energy per Si atom -5574.420763 kJ/mol
# Density = 2.134430 g / cm^3
# Si number density = 21.392988 Si / 1000 Ang^3
#
#
#
# Elastic Constant Matrix: (Units=GPa)
#
#
# Indices 1 2 3 4 5 6 
#
# 1 93.3076 47.1936 3.9750 0.2613 12.3786 8.9324
# 2 47.1936 124.2212 31.1268 11.9204 4.6951 21.0392
# 3 3.9750 31.1268 55.6875 -4.6236 -1.6639 -4.9954
# 4 0.2613 11.9204 -4.6236 23.2002 -3.6430 3.0353
# 5 12.3786 4.6951 -1.6639 -3.6430 21.7822 0.7853
# 6 8.9324 21.0392 -4.9954 3.0353 0.7853 37.0940
#
#
#
# Elastic Compliance Matrix: (Units=1/GPa)
#
#
# Indices 1 2 3 4 5 6 
#
# 1 0.014551 -0.006188 0.002460 0.002475 -0.006343 0.000269
# 2 -0.006188 0.014901 -0.009329 -0.008719 -0.001597 -0.007471
# 3 0.002460 -0.009329 0.024525 0.009311 0.003785 0.007160
# 4 0.002475 -0.008719 0.009311 0.050760 0.009629 0.001246
# 5 -0.006343 -0.001597 0.003785 0.009629 0.051719 0.001060
# 6 0.000269 -0.007471 0.007160 0.001246 0.001060 0.031971
#
#
# Mechanical properties :
#
#
# Convention : Reuss Voigt Hill
#
# Bulk Modulus (GPa) = 35.88980 48.64525 42.26753
# Shear Modulus (GPa) = 22.33858 29.14333 25.74095
#
# Velocity S-wave (km/s) = 3.23492 3.69492 3.47254
# Velocity P-wave (km/s) = 5.54669 6.40246 5.98988
#
# Compressibility (1/GPa) = 0.02786307
#
# Stress axis : x y z
#
# Youngs Moduli (GPa) = 68.72373 67.10947 40.77514
#
# Poissons Ratio (x) = 0.41526 -0.10031
# Poissons Ratio (y) = 0.42525 0.38040
# Poissons Ratio (z) = -0.16907 0.62607
#
# Static dielectric constant tensor:
#      x y z
#    x 1.867230 0.001840 -0.017020 
#    y 0.001840 1.766390 -0.016410 
#    z -0.017020 -0.016410 1.796750 
# 
# From -- ./inp_files/142659.got.cif
#   From: 2010.05.17/outbox.cif.g08.bks.cpg/sg2_72_cif.got.tgz:142659.got - 2010.06.03 11:33:40.
