data_PCOD9103388
_publ_section_title
;
Structure prediction by ZEFSAII (Michael W. Deem and Ramdas Pophale) SiO2 
 PCOD9103388
Probable space group: P -1
;
_chemical_formula_sum "Si O2"
_cell_formula_units_Z 12
_cell_length_a 17.187864
_cell_length_b 7.307593
_cell_length_c 11.525887
_cell_angle_alpha 72.829295
_cell_angle_beta 32.112938
_cell_angle_gamma 93.064526
_cell_volume 589.541525
_symmetry_space_group_name_H-M "P -1"
_symmetry_group_IT_number 2
_symmetry_cell_setting 'triclinic'
loop_
_space_group_symop_operation_xyz
x,y,z
-x,-y,-z
loop_
_atom_site_type_symbol
_atom_site_label
_atom_site_fract_x
_atom_site_fract_y
_atom_site_fract_z
Si Si1 0.061096 0.397137 0.040618
Si Si2 0.536956 0.210007 0.494471
Si Si3 0.191180 0.099716 0.837752
Si Si4 0.478713 0.834091 0.200717
Si Si5 0.204490 0.294889 0.553306
Si Si6 0.718848 0.957818 0.674613
O O1 0.014588 0.831724 0.142950
O O2 0.903251 0.215049 0.362399
O O3 0.000000 0.500000 0.000000
O O4 0.112021 0.245991 0.935762
O O5 0.376394 0.223318 0.651563
O O6 0.517058 0.177895 0.664241
O O7 0.500000 0.000000 0.500000
O O8 0.751448 0.409833 0.168287
O O9 0.236021 0.148586 0.635954
O O10 0.325342 0.570040 0.389096
O O11 0.433271 0.019837 0.193718
O O12 0.662968 0.913319 0.887900
O O13 0.264070 0.238027 0.369231
#
# Coordination Sequence:
#
# PCOD9103388 Si02
#       6
#     2   2   2   2   2   2
#     4  11  21  41  64  90 119 163 207 252 301 364
#     4  12  25  37  62  93 124 160 205 257 304 356
#     4  10  22  37  63  95 121 152 211 257 298 359
#     4  11  22  40  62  88 127 157 205 250 309 358
#     4  10  20  38  66  88 118 161 205 248 306 362
#     4  10  22  38  64  91 117 163 205 250 300 375
#
# _framework density 20.354800000000001
#
# number of rings (size 3 to 8) (size 9 to 14) (size 15 to 20)
#    0.000    1.333    3.333    2.000    7.000    0.000 
#    0.000    4.167    3.667    0.000    0.000    0.000 
#    0.000    0.000    0.000    0.000    0.000    0.000 
#
# Total GULP energy -66903.089620 kJ/mol
# GULP energy per Si atom -5575.257468 kJ/mol
# Density = 2.030847 g / cm^3
# Si number density = 20.354800 Si / 1000 Ang^3
#
#
#
# Elastic Constant Matrix: (Units=GPa)
#
#
# Indices 1 2 3 4 5 6 
#
# 1 70.6601 23.4535 30.2540 1.5737 -21.5257 10.1667
# 2 23.4535 82.6090 28.4105 3.3820 -4.9666 16.4664
# 3 30.2540 28.4105 124.4613 6.9980 1.2045 15.0189
# 4 1.5737 3.3820 6.9980 35.9325 9.0518 -5.1329
# 5 -21.5257 -4.9666 1.2045 9.0518 35.5602 6.6409
# 6 10.1667 16.4664 15.0189 -5.1329 6.6409 35.6705
#
#
#
# Elastic Compliance Matrix: (Units=1/GPa)
#
#
# Indices 1 2 3 4 5 6 
#
# 1 0.022822 -0.002429 -0.003954 -0.005187 0.016332 -0.007505
# 2 -0.002429 0.014950 -0.001963 -0.002421 0.002456 -0.006188
# 3 -0.003954 -0.001963 0.009753 -0.001207 -0.002353 -0.001809
# 4 -0.005187 -0.002421 -0.001207 0.033535 -0.013939 0.010525
# 5 0.016332 0.002456 -0.002353 -0.013939 0.044807 -0.015145
# 6 -0.007505 -0.006188 -0.001809 0.010525 -0.015145 0.038126
#
#
# Mechanical properties :
#
#
# Convention : Reuss Voigt Hill
#
# Bulk Modulus (GPa) = 32.43302 49.10738 40.77020
# Shear Modulus (GPa) = 26.18315 34.47347 30.32831
#
# Velocity S-wave (km/s) = 3.59045 4.11984 3.86422
# Velocity P-wave (km/s) = 5.75820 6.84170 6.32320
#
# Compressibility (1/GPa) = 0.03083277
#
# Stress axis : x y z
#
# Youngs Moduli (GPa) = 43.81717 66.88835 102.53522
#
# Poissons Ratio (x) = 0.16250 0.40540
# Poissons Ratio (y) = 0.10645 0.20128
# Poissons Ratio (z) = 0.17324 0.13131
#
# Static dielectric constant tensor:
#      x y z
#    x 1.895750 -0.050550 -0.081200 
#    y -0.050550 1.836560 0.012840 
#    z -0.081200 0.012840 1.863520 
# 
# From -- ./inp_files/71034.got.cif
#   From: 2010.05.17/outbox.cif.g08.bks.cpg/sg2_36_cif.got.tgz:71034.got - 2010.06.03 11:33:40.
