data_PCOD9103275
_publ_section_title
;
Structure prediction by ZEFSAII (Michael W. Deem and Ramdas Pophale) SiO2 
 PCOD9103275
Probable space group: P -1
;
_chemical_formula_sum "Si O2"
_cell_formula_units_Z 14
_cell_length_a 11.723470
_cell_length_b 10.275863
_cell_length_c 7.891595
_cell_angle_alpha 67.869606
_cell_angle_beta 115.215906
_cell_angle_gamma 144.598871
_cell_volume 497.465251
_symmetry_space_group_name_H-M "P -1"
_symmetry_group_IT_number 2
_symmetry_cell_setting 'triclinic'
loop_
_space_group_symop_operation_xyz
x,y,z
-x,-y,-z
loop_
_atom_site_type_symbol
_atom_site_label
_atom_site_fract_x
_atom_site_fract_y
_atom_site_fract_z
Si Si1 0.382341 0.104058 0.921725
Si Si2 0.729680 0.602017 0.893845
Si Si3 0.276019 0.666406 0.449855
Si Si4 0.772171 0.675579 0.506416
Si Si5 0.183310 0.053002 0.378822
Si Si6 0.084411 0.756095 0.200980
Si Si7 0.349228 0.872678 0.738144
O O1 0.577152 0.174538 0.049925
O O2 0.227421 0.940778 0.053524
O O3 0.495625 0.352987 0.879512
O O4 0.277594 0.947246 0.763402
O O5 0.809477 0.636432 0.735646
O O6 0.769808 0.803389 0.820670
O O7 0.874023 0.650102 0.091419
O O8 0.319261 0.538866 0.538207
O O9 0.089994 0.590426 0.281985
O O10 0.261702 0.701277 0.616839
O O11 0.456219 0.893346 0.349414
O O12 0.687840 0.750185 0.491542
O O13 0.960545 0.875652 0.406303
O O14 0.179336 0.895990 0.370348
#
# Coordination Sequence:
#
# PCOD9103275 Si02
#       7
#     2   2   2   2   2   2   2
#     4  10  21  40  63  95 128 167 201 266 319 372
#     4  10  21  42  65  88 132 169 202 260 318 371
#     4  10  20  38  65  95 124 166 212 262 311 376
#     4   9  20  40  66  86 128 174 206 255 324 365
#     4   9  21  42  60  89 131 168 210 259 306 380
#     4  11  24  38  66 100 126 160 220 256 311 380
#     4   9  19  39  60  90 139 158 201 267 324 366
#
# _framework density 28.142668
#
# number of rings (size 3 to 8) (size 9 to 14) (size 15 to 20)
#    0.857    1.429    1.429    0.429    2.000    2.857 
#    0.000    0.000    0.000   10.286    0.000    0.000 
#    0.000    0.000    0.000    0.000    0.000    0.000 
#
# Total GULP energy -78035.316429 kJ/mol
# GULP energy per Si atom -5573.951173 kJ/mol
# Density = 2.807861 g / cm^3
# Si number density = 28.142668 Si / 1000 Ang^3
#
#
#
# Elastic Constant Matrix: (Units=GPa)
#
#
# Indices 1 2 3 4 5 6 
#
# 1 116.1998 31.6164 32.2107 9.7937 -20.3688 -33.7287
# 2 31.6164 103.9727 25.9943 -20.5266 -3.1677 -25.6654
# 3 32.2107 25.9943 100.1953 10.3913 -26.2363 -4.9354
# 4 9.7937 -20.5266 10.3913 47.8472 5.9930 -4.3629
# 5 -20.3688 -3.1677 -26.2363 5.9930 60.1349 -4.8550
# 6 -33.7287 -25.6654 -4.9354 -4.3629 -4.8550 50.6243
#
#
#
# Elastic Compliance Matrix: (Units=1/GPa)
#
#
# Indices 1 2 3 4 5 6 
#
# 1 0.012860 -0.002075 -0.001768 -0.003003 0.004381 0.007505
# 2 -0.002075 0.014346 -0.004172 0.008296 -0.002110 0.005996
# 3 -0.001768 -0.004172 0.013502 -0.005215 0.005438 -0.001904
# 4 -0.003003 0.008296 -0.005215 0.027190 -0.005280 0.003534
# 5 0.004381 -0.002110 0.005438 -0.005280 0.021220 0.003959
# 6 0.007505 0.005996 -0.001904 0.003534 0.003959 0.028292
#
#
# Mechanical properties :
#
#
# Convention : Reuss Voigt Hill
#
# Bulk Modulus (GPa) = 40.52283 55.55675 48.03979
# Shear Modulus (GPa) = 35.29405 47.09104 41.19254
#
# Velocity S-wave (km/s) = 3.54519 4.09503 3.82999
# Velocity P-wave (km/s) = 5.58463 6.49177 6.05521
#
# Compressibility (1/GPa) = 0.02467744
#
# Stress axis : x y z
#
# Youngs Moduli (GPa) = 77.76112 69.70640 74.06132
#
# Poissons Ratio (x) = 0.14467 0.13091
# Poissons Ratio (y) = 0.16139 0.30901
# Poissons Ratio (z) = 0.13745 0.29084
#
# Static dielectric constant tensor:
#      x y z
#    x 2.180400 -0.015790 0.114150 
#    y -0.015790 2.345960 0.035070 
#    z 0.114150 0.035070 2.252000 
# 
# From -- ./inp_files/303060.got.cif
#   From: 2010.05.17/outbox.cif.g08.bks.cpg/sg2_152_cif.got.tgz:303060.got - 2010.06.03 11:33:40.
