data_PCOD9103478
_publ_section_title
;
Structure prediction by ZEFSAII (Michael W. Deem and Ramdas Pophale) SiO2 
 PCOD9103478
Probable space group: P -1
;
_chemical_formula_sum "Si O2"
_cell_formula_units_Z 13
_cell_length_a 9.254091
_cell_length_b 10.072699
_cell_length_c 16.764071
_cell_angle_alpha 132.913780
_cell_angle_beta 141.669409
_cell_angle_gamma 40.907186
_cell_volume 619.542025
_symmetry_space_group_name_H-M "P -1"
_symmetry_group_IT_number 2
_symmetry_cell_setting 'triclinic'
loop_
_space_group_symop_operation_xyz
x,y,z
-x,-y,-z
loop_
_atom_site_type_symbol
_atom_site_label
_atom_site_fract_x
_atom_site_fract_y
_atom_site_fract_z
Si Si1 0.738032 0.528140 0.153505
Si Si2 0.795949 0.847844 0.036085
Si Si3 0.662646 0.501199 0.381214
Si Si4 0.123592 0.531250 0.188446
Si Si5 0.500000 0.000000 0.500000
Si Si6 0.231231 0.251488 0.596355
Si Si7 0.960428 0.182640 0.237331
O O1 0.653664 0.708148 0.257825
O O2 0.914775 0.322228 0.197417
O O3 0.917769 0.566936 0.184109
O O4 0.500000 0.500000 0.000000
O O5 0.973615 0.704986 0.127134
O O6 0.906299 0.996810 0.116031
O O7 0.803983 0.690621 0.908855
O O8 0.500000 0.000000 0.000000
O O9 0.403904 0.525166 0.322180
O O10 0.616980 0.713498 0.402916
O O11 0.750622 0.339393 0.278267
O O12 0.921972 0.417431 0.515597
O O13 0.288676 0.030940 0.501328
O O14 0.245636 0.087129 0.361163
#
# Coordination Sequence:
#
# PCOD9103478 Si02
#       7
#     2   2   2   2   1   2   2
#     4  11  25  41  59  98 134 169 203 270 334 385
#     4  11  22  39  63  92 126 173 219 261 305 405
#     4   9  18  39  64  88 113 172 221 256 305 384
#     4  11  24  38  65  92 130 173 211 267 332 366
#     4  10  20  38  66  94 112 174 222 260 304 376
#     4   9  20  38  64  88 128 162 216 261 312 384
#     4  10  21  40  66  90 128 164 223 266 311 385
#
# _framework density 20.983243999999999
#
# number of rings (size 3 to 8) (size 9 to 14) (size 15 to 20)
#    0.000    1.846    1.538    2.769    8.615    1.231 
#    2.769    0.000    0.000    4.615    0.000    0.000 
#    0.000    0.000    0.000    0.000    0.000    0.000 
#
# Total GULP energy -72395.982073 kJ/mol
# GULP energy per Si atom -5568.921698 kJ/mol
# Density = 2.093549 g / cm^3
# Si number density = 20.983244 Si / 1000 Ang^3
#
#
#
# Elastic Constant Matrix: (Units=GPa)
#
#
# Indices 1 2 3 4 5 6 
#
# 1 92.7104 -3.2862 39.0552 6.2717 12.7775 -3.2265
# 2 -3.2862 67.1500 11.1260 12.1851 4.9308 -11.4380
# 3 39.0552 11.1260 116.2347 -2.5843 6.9267 -10.5320
# 4 6.2717 12.1851 -2.5843 28.4141 -8.7498 7.5457
# 5 12.7775 4.9308 6.9267 -8.7498 32.3215 4.5094
# 6 -3.2265 -11.4380 -10.5320 7.5457 4.5094 34.6682
#
#
#
# Elastic Compliance Matrix: (Units=1/GPa)
#
#
# Indices 1 2 3 4 5 6 
#
# 1 0.015040 0.004807 -0.004755 -0.009881 -0.009014 0.004864
# 2 0.004807 0.021433 -0.002311 -0.017004 -0.010944 0.011942
# 3 -0.004755 -0.002311 0.010572 0.002819 0.000545 0.001322
# 4 -0.009881 -0.017004 0.002819 0.058246 0.024672 -0.021560
# 5 -0.009014 -0.010944 0.000545 0.024672 0.044896 -0.015494
# 6 0.004864 0.011942 0.001322 -0.021560 -0.015494 0.040347
#
#
# Mechanical properties :
#
#
# Convention : Reuss Voigt Hill
#
# Bulk Modulus (GPa) = 23.51384 41.09834 32.30609
# Shear Modulus (GPa) = 23.89731 34.36078 29.12904
#
# Velocity S-wave (km/s) = 3.37838 4.05104 3.72990
# Velocity P-wave (km/s) = 5.14279 6.44282 5.82916
#
# Compressibility (1/GPa) = 0.04252814
#
# Stress axis : x y z
#
# Youngs Moduli (GPa) = 66.48970 46.65600 94.58684
#
# Poissons Ratio (x) = -0.22429 0.44980
# Poissons Ratio (y) = -0.31964 0.21857
# Poissons Ratio (z) = 0.31619 0.10781
#
# Static dielectric constant tensor:
#      x y z
#    x 1.825890 -0.115300 -0.018230 
#    y -0.115300 2.006550 0.111160 
#    z -0.018230 0.111160 1.779600 
# 
# From -- ./inp_files/168178.got.cif
#   From: 2010.05.17/outbox.cif.g08.bks.cpg/sg2_85_cif.got.tgz:168178.got - 2010.06.03 11:33:40.
