data_PCOD9103741
_publ_section_title
;
Structure prediction by ZEFSAII (Michael W. Deem and Ramdas Pophale) SiO2 
 PCOD9103741
Probable space group: P -1
;
_chemical_formula_sum "Si O2"
_cell_formula_units_Z 14
_cell_length_a 14.790322
_cell_length_b 5.396734
_cell_length_c 20.333598
_cell_angle_alpha 92.856625
_cell_angle_beta 157.519451
_cell_angle_gamma 87.682585
_cell_volume 619.754210
_symmetry_space_group_name_H-M "P -1"
_symmetry_group_IT_number 2
_symmetry_cell_setting 'triclinic'
loop_
_space_group_symop_operation_xyz
x,y,z
-x,-y,-z
loop_
_atom_site_type_symbol
_atom_site_label
_atom_site_fract_x
_atom_site_fract_y
_atom_site_fract_z
Si Si1 0.003899 0.811701 0.824337
Si Si2 0.804861 0.438603 0.310161
Si Si3 0.302878 0.327304 0.036814
Si Si4 0.969613 0.936997 0.400847
Si Si5 0.794007 0.993024 0.810662
Si Si6 0.553783 0.278198 0.341116
Si Si7 0.535470 0.638938 0.456003
O O1 0.886845 0.800867 0.817781
O O2 0.768505 0.814663 0.621890
O O3 0.150191 0.559349 0.912517
O O4 0.167767 0.061273 0.933436
O O5 0.555377 0.345610 0.169892
O O6 0.784613 0.707859 0.266218
O O7 0.000000 0.500000 0.500000
O O8 0.903071 0.206434 0.331636
O O9 0.379062 0.356299 0.165406
O O10 0.208719 0.824912 0.531860
O O11 0.000000 0.000000 0.500000
O O12 0.568940 0.938643 0.703157
O O13 0.713761 0.227542 0.719176
O O14 0.000000 0.000000 0.000000
O O15 0.582578 0.481250 0.420037
O O16 0.500000 0.500000 0.500000
#
# Coordination Sequence:
#
# PCOD9103741 Si02
#       7
#     2   2   2   2   2   2   2
#     4  12  27  45  69 101 155 193 239 288 380 439
#     4  10  20  38  68 104 144 171 240 307 376 403
#     4  12  25  43  75 110 138 193 248 313 355 432
#     4  10  21  38  67 106 138 178 231 319 359 416
#     4  12  26  44  74 106 148 185 257 309 351 431
#     4  12  26  40  75 107 141 187 254 298 364 422
#     4  12  28  48  69 102 155 208 237 292 374 450
#
# _framework density 22.589600999999998
#
# number of rings (size 3 to 8) (size 9 to 14) (size 15 to 20)
#    0.000    0.571    5.714    3.000    6.000    1.143 
#    0.000    0.000    0.000    5.143    0.000    0.000 
#    0.000    0.000    0.000    0.000    0.000    0.000 
#
# Total GULP energy -78118.444851 kJ/mol
# GULP energy per Si atom -5579.888918 kJ/mol
# Density = 2.253819 g / cm^3
# Si number density = 22.589601 Si / 1000 Ang^3
#
#
#
# Elastic Constant Matrix: (Units=GPa)
#
#
# Indices 1 2 3 4 5 6 
#
# 1 -94.0161 -28.8876 39.1038 45.6131 44.5661 19.7273
# 2 -28.8876 123.8030 61.6577 28.8719 12.3945 12.9683
# 3 39.1038 61.6577 134.4238 8.3184 -2.9185 1.6529
# 4 45.6131 28.8719 8.3184 33.4165 -5.8839 1.7302
# 5 44.5661 12.3945 -2.9185 -5.8839 33.5112 -0.1248
# 6 19.7273 12.9683 1.6529 1.7302 -0.1248 31.3147
#
#
#
# Elastic Compliance Matrix: (Units=1/GPa)
#
#
# Indices 1 2 3 4 5 6 
#
# 1 -0.002133 -0.003921 0.002100 0.006641 0.005645 0.002512
# 2 -0.003921 0.008772 -0.002763 -0.001225 0.001510 -0.000943
# 3 0.002100 -0.002763 0.008240 -0.002777 -0.001542 -0.000466
# 4 0.006641 -0.001225 -0.002777 0.022017 -0.004772 -0.004765
# 5 0.005645 0.001510 -0.001542 -0.004772 0.020788 -0.003754
# 6 0.002512 -0.000943 -0.000466 -0.004765 -0.003754 0.031015
#
#
# Mechanical properties :
#
#
# Convention : Reuss Voigt Hill
#
# Bulk Modulus (GPa) = 175.11035 34.21762 104.66399
# Shear Modulus (GPa) = 50.11602 25.80428 37.96015
#
# Velocity S-wave (km/s) = 4.71525 3.38347 4.10375
# Velocity P-wave (km/s) = 10.36008 5.51763 8.29986
#
# Compressibility (1/GPa) = 0.00571068
#
# Stress axis : x y z
#
# Youngs Moduli (GPa) = -468.72739 114.00257 121.36318
#
# Poissons Ratio (x) = 0.44695 -0.25482
# Poissons Ratio (y) = -1.83766 0.33530
# Poissons Ratio (z) = 0.98415 0.31496
#
# Static dielectric constant tensor:
#      x y z
#    x 1.880580 0.075100 0.003290 
#    y 0.075100 1.929050 0.071590 
#    z 0.003290 0.071590 1.654650 
# 
# From -- ./inp_files/596742.got.cif
#   From: 2010.05.17/outbox.cif.g08.bks.cpg/sg2_299_cif.got.tgz:596742.got - 2010.06.03 11:33:40.
