data_PCOD9103626
_publ_section_title
;
Structure prediction by ZEFSAII (Michael W. Deem and Ramdas Pophale) SiO2 
 PCOD9103626
Probable space group: P -1
;
_chemical_formula_sum "Si O2"
_cell_formula_units_Z 12
_cell_length_a 8.949103
_cell_length_b 9.251411
_cell_length_c 12.356415
_cell_angle_alpha 33.294749
_cell_angle_beta 69.856387
_cell_angle_gamma 81.339059
_cell_volume 508.183936
_symmetry_space_group_name_H-M "P -1"
_symmetry_group_IT_number 2
_symmetry_cell_setting 'triclinic'
loop_
_space_group_symop_operation_xyz
x,y,z
-x,-y,-z
loop_
_atom_site_type_symbol
_atom_site_label
_atom_site_fract_x
_atom_site_fract_y
_atom_site_fract_z
Si Si1 0.321007 0.183197 0.155035
Si Si2 0.096752 0.363503 0.673459
Si Si3 0.664551 0.962800 0.537702
Si Si4 0.566619 0.221328 0.748442
Si Si5 0.695997 0.542970 0.241031
Si Si6 0.044406 0.161855 0.587518
O O1 0.361706 0.262542 0.219579
O O2 0.440611 0.987783 0.218197
O O3 0.329760 0.368104 0.930458
O O4 0.123772 0.033060 0.295890
O O5 0.246686 0.593991 0.432615
O O6 0.168030 0.284399 0.816897
O O7 0.042836 0.145796 0.728376
O O8 0.962852 0.528674 0.629536
O O9 0.795504 0.906356 0.456974
O O10 0.500000 0.000000 0.500000
O O11 0.734556 0.253495 0.398275
O O12 0.466533 0.442493 0.660967
O O13 0.500000 0.000000 0.000000
#
# Coordination Sequence:
#
# PCOD9103626 Si02
#       6
#     2   2   2   2   2   2
#     4  10  23  41  63  94 125 161 211 254 304 371
#     4  10  20  38  67  91 121 169 204 251 314 363
#     4  12  25  41  64  90 126 165 205 261 312 362
#     4   9  18  35  61  93 123 154 203 256 294 360
#     4  11  22  38  68  91 123 166 205 251 317 362
#     4  10  22  41  63  92 127 159 209 257 303 372
#
# _framework density 23.613498
#
# number of rings (size 3 to 8) (size 9 to 14) (size 15 to 20)
#    0.000    1.667    3.333    2.000    2.333    2.000 
#    0.000    0.000    0.000    0.000    0.000    0.000 
#    0.000    0.000    0.000    0.000    0.000    0.000 
#
# Total GULP energy -66816.246217 kJ/mol
# GULP energy per Si atom -5568.020518 kJ/mol
# Density = 2.355975 g / cm^3
# Si number density = 23.613498 Si / 1000 Ang^3
#
#
#
# Elastic Constant Matrix: (Units=GPa)
#
#
# Indices 1 2 3 4 5 6 
#
# 1 103.4347 52.5154 29.7288 19.8239 23.9459 -8.5697
# 2 52.5154 123.6167 35.3948 19.3335 12.9217 -38.9259
# 3 29.7288 35.3948 106.8018 25.8252 13.1035 -1.4046
# 4 19.8239 19.3335 25.8252 27.0233 3.5812 13.4350
# 5 23.9459 12.9217 13.1035 3.5812 23.1361 12.5801
# 6 -8.5697 -38.9259 -1.4046 13.4350 12.5801 55.4262
#
#
#
# Elastic Compliance Matrix: (Units=1/GPa)
#
#
# Indices 1 2 3 4 5 6 
#
# 1 0.021401 0.004581 0.003973 -0.028877 -0.034108 0.021368
# 2 0.004581 0.027405 0.004875 -0.041926 -0.037375 0.038724
# 3 0.003973 0.004875 0.015671 -0.026368 -0.019982 0.015362
# 4 -0.028877 -0.041926 -0.026368 0.146330 0.095456 -0.091713
# 5 -0.034108 -0.037375 -0.019982 0.095456 0.143667 -0.087774
# 6 0.021368 0.038724 0.015362 -0.091713 -0.087774 0.091084
#
#
# Mechanical properties :
#
#
# Convention : Reuss Voigt Hill
#
# Bulk Modulus (GPa) = 10.94858 63.23680 37.09269
# Shear Modulus (GPa) = 11.13225 35.53138 23.33182
#
# Velocity S-wave (km/s) = 2.17361 3.88326 3.14677
# Velocity P-wave (km/s) = 3.30849 6.85160 5.38008
#
# Compressibility (1/GPa) = 0.09133607
#
# Stress axis : x y z
#
# Youngs Moduli (GPa) = 46.72604 36.48912 63.81152
#
# Poissons Ratio (x) = -0.16715 -0.25353
# Poissons Ratio (y) = -0.21404 -0.31109
# Poissons Ratio (z) = -0.18565 -0.17789
#
# Static dielectric constant tensor:
#      x y z
#    x 1.935610 0.060490 0.000250 
#    y 0.060490 1.874260 -0.044410 
#    z 0.000250 -0.044410 2.040350 
# 
# From -- ./inp_files/161485.got.cif
#   From: 2010.05.17/outbox.cif.g08.bks.cpg/sg2_81_cif.got.tgz:161485.got - 2010.06.03 11:33:40.
