data_PCOD9103534
_publ_section_title
;
Structure prediction by ZEFSAII (Michael W. Deem and Ramdas Pophale) SiO2 
 PCOD9103534
Probable space group: P -1
;
_chemical_formula_sum "Si O2"
_cell_formula_units_Z 16
_cell_length_a 10.260415
_cell_length_b 14.576781
_cell_length_c 15.972153
_cell_angle_alpha 53.870434
_cell_angle_beta 34.844846
_cell_angle_gamma 78.759819
_cell_volume 859.503423
_symmetry_space_group_name_H-M "P -1"
_symmetry_group_IT_number 2
_symmetry_cell_setting 'triclinic'
loop_
_space_group_symop_operation_xyz
x,y,z
-x,-y,-z
loop_
_atom_site_type_symbol
_atom_site_label
_atom_site_fract_x
_atom_site_fract_y
_atom_site_fract_z
Si Si1 0.708572 0.412877 0.644302
Si Si2 0.623404 0.929258 0.020186
Si Si3 0.600796 0.096332 0.519682
Si Si4 0.277982 0.090408 0.544886
Si Si5 0.189393 0.632910 0.945761
Si Si6 0.159873 0.936407 0.982933
Si Si7 0.175651 0.405924 0.681582
Si Si8 0.852298 0.627452 0.972054
O O1 0.581232 0.246671 0.781712
O O2 0.789657 0.506061 0.466557
O O3 0.448010 0.401390 0.834667
O O4 0.000000 0.500000 0.500000
O O5 0.705997 0.993428 0.035676
O O6 0.500000 0.000000 0.000000
O O7 0.934917 0.997348 0.778039
O O8 0.407188 0.126800 0.552052
O O9 0.646181 0.003637 0.486989
O O10 0.426996 0.003848 0.741718
O O11 0.927363 0.243366 0.277891
O O12 0.466317 0.235077 0.312757
O O13 0.169666 0.503437 0.985263
O O14 0.038893 0.605420 0.129335
O O15 0.021684 0.666032 0.951477
O O16 0.953469 0.759988 0.183120
O O17 0.000000 0.000000 0.000000
O O18 0.500000 0.500000 0.500000
#
# Coordination Sequence:
#
# PCOD9103534 Si02
#       8
#     2   2   2   2   2   2   2   2
#     4  12  27  47  67  94 139 182 220 270 336 404
#     4  12  27  46  68  96 135 182 224 270 332 401
#     4  10  20  38  66  97 129 164 221 275 325 382
#     4  10  20  39  66  93 131 170 218 270 326 387
#     4  10  22  38  66 101 131 166 216 278 330 387
#     4  12  25  40  68 104 134 173 223 277 328 389
#     4  12  25  41  67 102 140 170 221 275 334 391
#     4  10  22  39  66  97 131 173 217 268 336 387
#
# _framework density 18.615400000000001
#
# number of rings (size 3 to 8) (size 9 to 14) (size 15 to 20)
#    0.000    1.000    5.000    1.500    7.000    0.000 
#    0.000    2.500    0.000    0.000    0.000    0.000 
#    0.000    0.000    0.000    0.000    0.000    0.000 
#
# Total GULP energy -89246.233891 kJ/mol
# GULP energy per Si atom -5577.889618 kJ/mol
# Density = 1.857303 g / cm^3
# Si number density = 18.615400 Si / 1000 Ang^3
#
#
#
# Elastic Constant Matrix: (Units=GPa)
#
#
# Indices 1 2 3 4 5 6 
#
# 1 131.1163 57.5226 73.3724 -1.1650 -1.0873 -2.8393
# 2 57.5226 117.6782 75.2253 -10.6927 3.9992 4.9133
# 3 73.3724 75.2253 184.1032 -14.3758 5.1239 0.4888
# 4 -1.1650 -10.6927 -14.3758 36.4366 -1.9923 -3.3676
# 5 -1.0873 3.9992 5.1239 -1.9923 29.4660 4.3710
# 6 -2.8393 4.9133 0.4888 -3.3676 4.3710 36.8606
#
#
#
# Elastic Compliance Matrix: (Units=1/GPa)
#
#
# Indices 1 2 3 4 5 6 
#
# 1 0.010949 -0.003649 -0.003045 -0.001760 0.001151 0.001073
# 2 -0.003649 0.012880 -0.003621 0.002033 -0.000869 -0.001661
# 3 -0.003045 -0.003621 0.008316 0.002108 -0.000991 0.000448
# 4 -0.001760 0.002033 0.002108 0.029064 0.000945 0.002109
# 5 0.001151 -0.000869 -0.000991 0.000945 0.034903 -0.003835
# 6 0.001073 -0.001661 0.000448 0.002109 -0.003835 0.028075
#
#
# Mechanical properties :
#
#
# Convention : Reuss Voigt Hill
#
# Bulk Modulus (GPa) = 86.84842 93.90426 90.37634
# Shear Modulus (GPa) = 33.63512 35.67114 34.65313
#
# Velocity S-wave (km/s) = 4.25531 4.38221 4.31923
# Velocity P-wave (km/s) = 8.42015 8.72691 8.57490
#
# Compressibility (1/GPa) = 0.01151431
#
# Stress axis : x y z
#
# Youngs Moduli (GPa) = 91.33410 77.63966 120.25436
#
# Poissons Ratio (x) = 0.28334 0.36613
# Poissons Ratio (y) = 0.33332 0.43544
# Poissons Ratio (z) = 0.27808 0.28113
#
# Static dielectric constant tensor:
#      x y z
#    x 1.649740 -0.010380 0.012710 
#    y -0.010380 1.679360 0.022740 
#    z 0.012710 0.022740 1.598030 
# 
# From -- ./inp_files/186840.got.cif
#   From: 2010.05.17/outbox.cif.g08.bks.cpg/sg2_94_cif.got.tgz:186840.got - 2010.06.03 11:33:40.
