data_PCOD9103735
_publ_section_title
;
Structure prediction by ZEFSAII (Michael W. Deem and Ramdas Pophale) SiO2 
 PCOD9103735
Probable space group: P -1
;
_chemical_formula_sum "Si O2"
_cell_formula_units_Z 13
_cell_length_a 7.539078
_cell_length_b 15.293965
_cell_length_c 15.663178
_cell_angle_alpha 161.282353
_cell_angle_beta 73.866650
_cell_angle_gamma 114.505908
_cell_volume 484.745537
_symmetry_space_group_name_H-M "P -1"
_symmetry_group_IT_number 2
_symmetry_cell_setting 'triclinic'
loop_
_space_group_symop_operation_xyz
x,y,z
-x,-y,-z
loop_
_atom_site_type_symbol
_atom_site_label
_atom_site_fract_x
_atom_site_fract_y
_atom_site_fract_z
Si Si1 0.386409 0.826659 0.671469
Si Si2 0.769837 0.446369 0.742412
Si Si3 0.000000 0.000000 0.500000
Si Si4 0.251470 0.249016 0.391636
Si Si5 0.200265 0.493181 0.793072
Si Si6 0.666425 0.811364 0.220381
Si Si7 0.245941 0.829499 0.863433
O O1 0.271283 0.627934 0.420234
O O2 0.499247 0.650507 0.541149
O O3 0.230847 0.851907 0.784739
O O4 0.585323 0.171785 0.941077
O O5 0.999750 0.532583 0.828694
O O6 0.618915 0.096448 0.478649
O O7 0.716756 0.705021 0.024564
O O8 0.828547 0.642969 0.233874
O O9 0.865150 0.935024 0.371524
O O10 0.203867 0.246602 0.496629
O O11 0.181411 0.487314 0.586694
O O12 0.162541 0.980767 0.083968
O O13 0.500000 0.500000 0.000000
O O14 0.500000 0.000000 0.000000
#
# Coordination Sequence:
#
# PCOD9103735 Si02
#       7
#     2   2   1   2   2   2   2
#     4  11  24  42  76  95 140 183 221 277 351 390
#     4  11  28  42  66 104 135 168 232 280 331 405
#     4  10  26  44  70  98 136 178 228 270 340 394
#     4  11  22  40  71  99 133 180 228 274 338 403
#     4  11  25  45  68 101 137 182 224 284 335 405
#     4  11  25  46  67  96 134 175 228 285 330 399
#     4  10  20  38  68 102 130 175 232 273 329 412
#
# _framework density 26.818193000000001
#
# number of rings (size 3 to 8) (size 9 to 14) (size 15 to 20)
#    0.000    1.231    3.077    3.231    8.615    2.462 
#    0.000    1.538    0.000    0.923    0.000    0.000 
#    0.000    0.000    0.000    0.000    0.000    0.000 
#
# Total GULP energy -72463.537177 kJ/mol
# GULP energy per Si atom -5574.118244 kJ/mol
# Density = 2.675715 g / cm^3
# Si number density = 26.818193 Si / 1000 Ang^3
#
#
#
# Elastic Constant Matrix: (Units=GPa)
#
#
# Indices 1 2 3 4 5 6 
#
# 1 71.6867 10.7444 38.2139 -7.1780 10.4476 -13.2104
# 2 10.7444 88.0458 13.6520 -2.4251 8.0267 -27.4775
# 3 38.2139 13.6520 145.2707 -5.2470 -7.5984 -18.2846
# 4 -7.1780 -2.4251 -5.2470 42.0475 -1.9705 9.8637
# 5 10.4476 8.0267 -7.5984 -1.9705 45.4600 -10.3608
# 6 -13.2104 -27.4775 -18.2846 9.8637 -10.3608 30.8439
#
#
#
# Elastic Compliance Matrix: (Units=1/GPa)
#
#
# Indices 1 2 3 4 5 6 
#
# 1 0.017602 -0.000131 -0.004398 0.001565 -0.004013 0.002966
# 2 -0.000131 0.016027 0.000428 -0.002662 0.000703 0.015563
# 3 -0.004398 0.000428 0.008806 -0.000662 0.003546 0.005121
# 4 0.001565 -0.002662 -0.000662 0.026323 -0.001359 -0.010969
# 5 -0.004013 0.000703 0.003546 -0.001359 0.025620 0.010050
# 6 0.002966 0.015563 0.005121 -0.010969 0.010050 0.057475
#
#
# Mechanical properties :
#
#
# Convention : Reuss Voigt Hill
#
# Bulk Modulus (GPa) = 29.21234 47.80265 38.50750
# Shear Modulus (GPa) = 29.16018 39.82979 34.49499
#
# Velocity S-wave (km/s) = 3.30104 3.85798 3.59033
# Velocity P-wave (km/s) = 5.04436 6.14075 5.61936
#
# Compressibility (1/GPa) = 0.03423210
#
# Stress axis : x y z
#
# Youngs Moduli (GPa) = 56.81222 62.39562 113.55306
#
# Poissons Ratio (x) = 0.00820 0.49940
# Poissons Ratio (y) = 0.00747 -0.04858
# Poissons Ratio (z) = 0.24986 -0.02670
#
# Static dielectric constant tensor:
#      x y z
#    x 2.113770 0.117660 0.021510 
#    y 0.117660 2.202860 0.080290 
#    z 0.021510 0.080290 2.183500 
# 
# From -- ./inp_files/504801.got.cif
#   From: 2010.05.17/outbox.cif.g08.bks.cpg/sg2_253_cif.got.tgz:504801.got - 2010.06.03 11:33:40.
