data_PCOD9103309
_publ_section_title
;
Structure prediction by ZEFSAII (Michael W. Deem and Ramdas Pophale) SiO2 
 PCOD9103309
Probable space group: P -1
;
_chemical_formula_sum "Si O2"
_cell_formula_units_Z 16
_cell_length_a 9.413349
_cell_length_b 16.923245
_cell_length_c 5.242915
_cell_angle_alpha 89.968860
_cell_angle_beta 99.209020
_cell_angle_gamma 123.250771
_cell_volume 685.615786
_symmetry_space_group_name_H-M "P -1"
_symmetry_group_IT_number 2
_symmetry_cell_setting 'triclinic'
loop_
_space_group_symop_operation_xyz
x,y,z
-x,-y,-z
loop_
_atom_site_type_symbol
_atom_site_label
_atom_site_fract_x
_atom_site_fract_y
_atom_site_fract_z
Si Si1 0.555034 0.451084 0.226315
Si Si2 0.781150 0.623045 0.687334
Si Si3 0.105569 0.471311 0.866759
Si Si4 0.255761 0.798689 0.084365
Si Si5 0.156072 0.060019 0.340926
Si Si6 0.112173 0.694548 0.549870
Si Si7 0.913045 0.098536 0.088789
Si Si8 0.408288 0.034445 0.661741
O O1 0.666608 0.527752 0.481092
O O2 0.369992 0.363794 0.268253
O O3 0.701762 0.440853 0.147787
O O4 0.500000 0.500000 0.000000
O O5 0.944405 0.699468 0.565243
O O6 0.859707 0.596747 0.947726
O O7 0.988935 0.411582 0.590758
O O8 0.000000 0.500000 0.000000
O O9 0.237850 0.757756 0.359466
O O10 0.442926 0.895190 0.099801
O O11 0.213635 0.726792 0.843564
O O12 0.113793 0.825699 0.046490
O O13 0.338449 0.094493 0.516482
O O14 0.104864 0.130569 0.223851
O O15 0.000000 0.000000 0.500000
O O16 0.140347 0.988546 0.117587
O O17 0.767652 0.054463 0.269964
O O18 0.500000 0.000000 0.500000
#
# Coordination Sequence:
#
# PCOD9103309 Si02
#       8
#     2   2   2   2   2   2   2   2
#     4   8  16  30  61  91 115 146 201 263 300 346
#     4   9  17  37  58  93 117 156 208 255 307 367
#     4  10  20  38  65  97 123 161 213 261 317 378
#     4  12  24  38  64  94 133 168 214 266 328 382
#     4   9  20  37  59  92 123 152 216 273 317 364
#     4  11  24  39  58  96 127 170 202 265 327 388
#     4  10  21  38  62  93 121 166 219 272 316 372
#     4  11  21  37  64  98 121 166 227 272 308 377
#
# _framework density 23.336684999999999
#
# number of rings (size 3 to 8) (size 9 to 14) (size 15 to 20)
#    0.000    2.000    2.500    1.125    3.500    2.000 
#    0.000    0.000    0.000   15.000    0.000    0.000 
#    0.000    0.000    0.000    0.000    0.000    0.000 
#
# Total GULP energy -89186.879901 kJ/mol
# GULP energy per Si atom -5574.179994 kJ/mol
# Density = 2.328357 g / cm^3
# Si number density = 23.336685 Si / 1000 Ang^3
#
#
#
# Elastic Constant Matrix: (Units=GPa)
#
#
# Indices 1 2 3 4 5 6 
#
# 1 160.3504 25.9354 37.1231 13.1559 -11.8594 9.3242
# 2 25.9354 52.8392 20.0635 4.4195 -2.5351 14.6798
# 3 37.1231 20.0635 105.9555 13.7107 -6.8391 7.9630
# 4 13.1559 4.4195 13.7107 29.1425 7.4449 -2.3522
# 5 -11.8594 -2.5351 -6.8391 7.4449 48.4924 -10.5996
# 6 9.3242 14.6798 7.9630 -2.3522 -10.5996 28.4894
#
#
#
# Elastic Compliance Matrix: (Units=1/GPa)
#
#
# Indices 1 2 3 4 5 6 
#
# 1 0.007403 -0.002673 -0.001617 -0.002652 0.001820 -0.000135
# 2 -0.002673 0.024649 -0.002752 -0.001663 -0.002117 -0.011982
# 3 -0.001617 -0.002752 0.011303 -0.004648 0.001545 -0.001021
# 4 -0.002652 -0.001663 -0.004648 0.039969 -0.006689 0.003835
# 5 0.001820 -0.002117 0.001545 -0.006689 0.024050 0.008459
# 6 -0.000135 -0.011982 -0.001021 0.003835 0.008459 0.045068
#
#
# Mechanical properties :
#
#
# Convention : Reuss Voigt Hill
#
# Bulk Modulus (GPa) = 34.16268 53.93212 44.04740
# Shear Modulus (GPa) = 28.36359 36.95972 32.66165
#
# Velocity S-wave (km/s) = 3.49005 3.98397 3.74516
# Velocity P-wave (km/s) = 5.55981 6.65757 6.13330
#
# Compressibility (1/GPa) = 0.02927171
#
# Stress axis : x y z
#
# Youngs Moduli (GPa) = 135.07913 40.57031 88.46902
#
# Poissons Ratio (x) = 0.10845 0.14304
# Poissons Ratio (y) = 0.36107 0.24345
# Poissons Ratio (z) = 0.21839 0.11164
#
# Static dielectric constant tensor:
#      x y z
#    x 1.920570 -0.026720 0.021570 
#    y -0.026720 2.016840 -0.087820 
#    z 0.021570 -0.087820 1.989730 
# 
# From -- ./inp_files/51695.got.cif
#   From: 2010.05.17/outbox.cif.g08.bks.cpg/sg2_26_cif.got.tgz:51695.got - 2010.06.03 11:33:40.
