data_PCOD9103744
_publ_section_title
;
Structure prediction by ZEFSAII (Michael W. Deem and Ramdas Pophale) SiO2 
 PCOD9103744
Probable space group: P -1
;
_chemical_formula_sum "Si O2"
_cell_formula_units_Z 13
_cell_length_a 8.637504
_cell_length_b 17.995025
_cell_length_c 8.733926
_cell_angle_alpha 115.029132
_cell_angle_beta 108.669095
_cell_angle_gamma 129.442550
_cell_volume 513.087806
_symmetry_space_group_name_H-M "P -1"
_symmetry_group_IT_number 2
_symmetry_cell_setting 'triclinic'
loop_
_space_group_symop_operation_xyz
x,y,z
-x,-y,-z
loop_
_atom_site_type_symbol
_atom_site_label
_atom_site_fract_x
_atom_site_fract_y
_atom_site_fract_z
Si Si1 0.296475 0.780800 0.280121
Si Si2 0.883812 0.155105 0.937059
Si Si3 0.487300 0.812043 0.803219
Si Si4 0.580789 0.783087 0.141219
Si Si5 0.500000 0.000000 0.000000
Si Si6 0.325052 0.253529 0.381493
Si Si7 0.381686 0.538473 0.027889
O O1 0.095979 0.760086 0.096938
O O2 0.341921 0.721590 0.141097
O O3 0.694555 0.995429 0.643985
O O4 0.050623 0.654253 0.238999
O O5 0.595243 0.047312 0.887420
O O6 0.244760 0.284476 0.251213
O O7 0.466638 0.762297 0.920699
O O8 0.302057 0.818218 0.756314
O O9 0.441096 0.715388 0.587362
O O10 0.915433 0.034425 0.103543
O O11 0.518311 0.659235 0.042010
O O12 0.000000 0.000000 0.500000
O O13 0.449703 0.351367 0.662887
O O14 0.500000 0.500000 0.000000
#
# Coordination Sequence:
#
# PCOD9103744 Si02
#       7
#     2   2   2   2   1   2   2
#     4  11  26  46  69 110 148 193 239 308 364 435
#     4  10  23  41  76 101 142 190 251 287 360 440
#     4  10  21  41  73 104 134 190 245 293 350 441
#     4  12  24  47  76 102 143 200 248 293 366 451
#     4  10  20  38  68 110 130 172 250 302 338 416
#     4  10  23  45  72 104 144 192 242 298 364 440
#     4  12  30  47  71 109 155 188 242 314 373 422
#
# _framework density 25.336793
#
# number of rings (size 3 to 8) (size 9 to 14) (size 15 to 20)
#    0.000    1.231    3.077    1.385   15.077    0.615 
#    0.000    0.769    0.000    0.000    0.000    0.000 
#    0.000    0.000    0.000    0.000    0.000    0.000 
#
# Total GULP energy -72558.128678 kJ/mol
# GULP energy per Si atom -5581.394514 kJ/mol
# Density = 2.527913 g / cm^3
# Si number density = 25.336793 Si / 1000 Ang^3
#
#
#
# Elastic Constant Matrix: (Units=GPa)
#
#
# Indices 1 2 3 4 5 6 
#
# 1 78.8353 27.6648 31.6169 -6.4895 -25.7824 -12.8476
# 2 27.6648 135.1376 14.3537 -3.4760 -0.6376 -28.8464
# 3 31.6169 14.3537 65.6211 -14.5687 -26.0042 -14.7317
# 4 -6.4895 -3.4760 -14.5687 44.5004 2.9473 -2.2255
# 5 -25.7824 -0.6376 -26.0042 2.9473 43.0841 -8.1043
# 6 -12.8476 -28.8464 -14.7317 -2.2255 -8.1043 51.6404
#
#
#
# Elastic Compliance Matrix: (Units=1/GPa)
#
#
# Indices 1 2 3 4 5 6 
#
# 1 0.018941 -0.002614 -0.003640 0.000910 0.009749 0.003783
# 2 -0.002614 0.008842 0.000216 0.000630 -0.000539 0.004293
# 3 -0.003640 0.000216 0.026917 0.007763 0.015353 0.009638
# 4 0.000910 0.000630 0.007763 0.025133 0.004379 0.004564
# 5 0.009749 -0.000539 0.015353 0.004379 0.040456 0.013042
# 6 0.003783 0.004293 0.009638 0.004564 0.013042 0.027697
#
#
# Mechanical properties :
#
#
# Convention : Reuss Voigt Hill
#
# Bulk Modulus (GPa) = 23.46132 47.42940 35.44536
# Shear Modulus (GPa) = 28.69086 41.57556 35.13321
#
# Velocity S-wave (km/s) = 3.36873 4.05522 3.72781
# Velocity P-wave (km/s) = 4.94075 6.37860 5.70516
#
# Compressibility (1/GPa) = 0.04262335
#
# Stress axis : x y z
#
# Youngs Moduli (GPa) = 52.79446 113.09455 37.15158
#
# Poissons Ratio (x) = 0.29564 0.13523
# Poissons Ratio (y) = 0.13801 -0.00801
# Poissons Ratio (z) = 0.19217 -0.02437
#
# Static dielectric constant tensor:
#      x y z
#    x 2.115320 -0.001750 0.083280 
#    y -0.001750 1.992300 -0.007860 
#    z 0.083280 -0.007860 2.103020 
# 
# From -- ./inp_files/155790.got.cif
#   From: 2010.05.17/outbox.cif.g08.bks.cpg/sg2_78_cif.got.tgz:155790.got - 2010.06.03 11:33:40.
