data_PCOD9103764
_publ_section_title
;
Structure prediction by ZEFSAII (Michael W. Deem and Ramdas Pophale) SiO2 
 PCOD9103764
Probable space group: P -1
;
_chemical_formula_sum "Si O2"
_cell_formula_units_Z 16
_cell_length_a 15.336101
_cell_length_b 15.790502
_cell_length_c 8.453906
_cell_angle_alpha 60.072252
_cell_angle_beta 50.020085
_cell_angle_gamma 24.203387
_cell_volume 617.913821
_symmetry_space_group_name_H-M "P -1"
_symmetry_group_IT_number 2
_symmetry_cell_setting 'triclinic'
loop_
_space_group_symop_operation_xyz
x,y,z
-x,-y,-z
loop_
_atom_site_type_symbol
_atom_site_label
_atom_site_fract_x
_atom_site_fract_y
_atom_site_fract_z
Si Si1 0.775879 0.559601 0.721763
Si Si2 0.452272 0.175516 0.575417
Si Si3 0.065506 0.132601 0.518730
Si Si4 0.260415 0.859457 0.292801
Si Si5 0.294896 0.197364 0.269033
Si Si6 0.041206 0.620227 0.774915
Si Si7 0.053190 0.987581 0.126442
Si Si8 0.787898 0.391699 0.117274
O O1 0.614744 0.728016 0.606359
O O2 0.696357 0.692850 0.834259
O O3 0.057504 0.359514 0.511551
O O4 0.797349 0.436857 0.892970
O O5 0.727112 0.001475 0.468805
O O6 0.240081 0.381285 0.747099
O O7 0.479770 0.038096 0.698874
O O8 0.226429 0.984259 0.312198
O O9 0.935690 0.132498 0.713600
O O10 0.875930 0.359603 0.469599
O O11 0.501439 0.619467 0.296397
O O12 0.000000 0.000000 0.500000
O O13 0.284744 0.854244 0.080443
O O14 0.211073 0.221811 0.170579
O O15 0.055427 0.662728 0.887793
O O16 0.862290 0.221651 0.173860
O O17 0.000000 0.000000 0.000000
#
# Coordination Sequence:
#
# PCOD9103764 Si02
#       8
#     2   2   2   2   2   2   2   2
#     4  10  23  40  65  98 134 164 211 268 325 384
#     4  10  20  38  68  91 123 172 217 255 318 391
#     4  10  21  41  64  87 126 173 217 258 314 380
#     4  10  23  44  62  88 124 170 219 261 315 380
#     4   9  21  43  66  95 128 173 210 259 328 388
#     4  10  21  39  67  93 124 172 222 257 315 389
#     4  11  27  41  62  94 133 169 212 271 325 375
#     4  12  25  41  65  98 129 169 220 268 322 376
#
# _framework density 25.893575999999999
#
# number of rings (size 3 to 8) (size 9 to 14) (size 15 to 20)
#    0.000    1.750    2.500    0.375    7.000    5.000 
#    0.000    0.625    0.000    0.000    0.000    0.000 
#    0.000    0.000    0.000    0.000    0.000    0.000 
#
# Total GULP energy -89140.106792 kJ/mol
# GULP energy per Si atom -5571.256675 kJ/mol
# Density = 2.583464 g / cm^3
# Si number density = 25.893576 Si / 1000 Ang^3
#
#
#
# Elastic Constant Matrix: (Units=GPa)
#
#
# Indices 1 2 3 4 5 6 
#
# 1 107.7627 37.2652 7.9095 -2.3860 34.7651 10.9615
# 2 37.2652 159.5944 18.6167 -30.1371 -2.2404 18.7243
# 3 7.9095 18.6167 82.4963 -26.4272 7.8786 -2.5566
# 4 -2.3860 -30.1371 -26.4272 37.6273 -1.3430 -3.8378
# 5 34.7651 -2.2404 7.8786 -1.3430 47.5306 -8.4571
# 6 10.9615 18.7243 -2.5566 -3.8378 -8.4571 45.6708
#
#
#
# Elastic Compliance Matrix: (Units=1/GPa)
#
#
# Indices 1 2 3 4 5 6 
#
# 1 0.014770 -0.003630 -0.000683 -0.003334 -0.011766 -0.004554
# 2 -0.003630 0.008582 0.000253 0.006771 0.002938 -0.001520
# 3 -0.000683 0.000253 0.016018 0.011522 -0.001526 0.001643
# 4 -0.003334 0.006771 0.011522 0.040222 0.002429 0.002499
# 5 -0.011766 0.002938 -0.001526 0.002429 0.031450 0.007562
# 6 -0.004554 -0.001520 0.001643 0.002499 0.007562 0.025314
#
#
# Mechanical properties :
#
#
# Convention : Reuss Voigt Hill
#
# Bulk Modulus (GPa) = 31.99958 53.04845 42.52401
# Shear Modulus (GPa) = 32.28037 45.23655 38.75846
#
# Velocity S-wave (km/s) = 3.53463 4.18427 3.87309
# Velocity P-wave (km/s) = 5.38917 6.62388 6.03816
#
# Compressibility (1/GPa) = 0.03125041
#
# Stress axis : x y z
#
# Youngs Moduli (GPa) = 67.70475 116.52133 62.43026
#
# Poissons Ratio (x) = 0.42294 0.04262
# Poissons Ratio (y) = 0.24575 -0.01577
# Poissons Ratio (z) = 0.04622 -0.02943
#
# Static dielectric constant tensor:
#      x y z
#    x 2.152210 -0.000330 0.056430 
#    y -0.000330 2.007270 0.073360 
#    z 0.056430 0.073360 2.312130 
# 
# From -- ./inp_files/336732.got.cif
#   From: 2010.05.17/outbox.cif.g08.bks.cpg/sg2_169_cif.got.tgz:336732.got - 2010.06.03 11:33:40.
