data_PCOD9103148
_publ_section_title
;
Structure prediction by ZEFSAII (Michael W. Deem and Ramdas Pophale) SiO2 
 PCOD9103148
Probable space group: P -1
;
_chemical_formula_sum "Si O2"
_cell_formula_units_Z 14
_cell_length_a 13.581439
_cell_length_b 9.465521
_cell_length_c 14.979306
_cell_angle_alpha 68.862417
_cell_angle_beta 31.184102
_cell_angle_gamma 46.893120
_cell_volume 586.377212
_symmetry_space_group_name_H-M "P -1"
_symmetry_group_IT_number 2
_symmetry_cell_setting 'triclinic'
loop_
_space_group_symop_operation_xyz
x,y,z
-x,-y,-z
loop_
_atom_site_type_symbol
_atom_site_label
_atom_site_fract_x
_atom_site_fract_y
_atom_site_fract_z
Si Si1 0.622170 0.776389 0.902122
Si Si2 0.877477 0.477630 0.183685
Si Si3 0.354869 0.378050 0.909156
Si Si4 0.116314 0.001906 0.117984
Si Si5 0.904867 0.889881 0.170709
Si Si6 0.745009 0.744390 0.483766
Si Si7 0.720374 0.051931 0.530610
O O1 0.981130 0.543894 0.656880
O O2 0.543112 0.688317 0.053059
O O3 0.500000 0.000000 0.000000
O O4 0.440920 0.859260 0.932187
O O5 0.534345 0.738307 0.392146
O O6 0.920214 0.274136 0.195133
O O7 0.000000 0.500000 0.000000
O O8 0.096395 0.407510 0.104150
O O9 0.601237 0.178831 0.690459
O O10 0.172356 0.641782 0.964930
O O11 0.002844 0.969256 0.295700
O O12 0.055087 0.937954 0.093334
O O13 0.825731 0.813167 0.325561
O O14 0.591195 0.107476 0.311666
O O15 0.743383 0.858238 0.544239
#
# Coordination Sequence:
#
# PCOD9103148 Si02
#       7
#     2   2   2   2   2   2   2
#     4  11  23  39  62  90 128 175 210 252 316 390
#     4  10  20  38  65  90 122 163 208 260 315 368
#     4  10  20  39  67  89 130 169 205 253 325 372
#     4  11  23  38  64  96 127 160 218 261 310 377
#     4   9  19  36  64  95 124 163 214 265 303 369
#     4   9  19  36  61  93 127 168 210 256 319 371
#     4  10  21  37  66  97 123 163 210 268 309 368
#
# _framework density 23.875416999999999
#
# number of rings (size 3 to 8) (size 9 to 14) (size 15 to 20)
#    0.000    2.000    2.857    0.429    2.000    6.857 
#    0.000    3.571    6.286    0.000    0.000    0.000 
#    0.000    0.000    0.000    0.000    0.000    0.000 
#
# Total GULP energy -78120.481273 kJ/mol
# GULP energy per Si atom -5580.034377 kJ/mol
# Density = 2.382108 g / cm^3
# Si number density = 23.875417 Si / 1000 Ang^3
#
#
#
# Elastic Constant Matrix: (Units=GPa)
#
#
# Indices 1 2 3 4 5 6 
#
# 1 78.8705 60.4799 61.3107 12.1634 -6.1996 26.2690
# 2 60.4799 101.4642 47.4707 31.3289 -9.6893 24.5264
# 3 61.3107 47.4707 94.4517 22.1878 -3.0935 4.6763
# 4 12.1634 31.3289 22.1878 48.0416 -1.9336 7.0689
# 5 -6.1996 -9.6893 -3.0935 -1.9336 36.7678 6.5917
# 6 26.2690 24.5264 4.6763 7.0689 6.5917 43.2025
#
#
#
# Elastic Compliance Matrix: (Units=1/GPa)
#
#
# Indices 1 2 3 4 5 6 
#
# 1 0.054043 -0.016850 -0.028555 0.014264 0.007259 -0.023646
# 2 -0.016850 0.023126 0.002192 -0.011446 0.003146 -0.001728
# 3 -0.028555 0.002192 0.029513 -0.010297 -0.005053 0.015379
# 4 0.014264 -0.011446 -0.010297 0.030389 0.001236 -0.006221
# 5 0.007259 0.003146 -0.005053 0.001236 0.030782 -0.010551
# 6 -0.023646 -0.001728 0.015379 -0.006221 -0.010551 0.039469
#
#
# Mechanical properties :
#
#
# Convention : Reuss Voigt Hill
#
# Bulk Modulus (GPa) = 49.36351 68.14547 58.75449
# Shear Modulus (GPa) = 16.63898 32.63737 24.63818
#
# Velocity S-wave (km/s) = 2.64277 3.70129 3.21588
# Velocity P-wave (km/s) = 5.48020 6.84618 6.20092
#
# Compressibility (1/GPa) = 0.02025788
#
# Stress axis : x y z
#
# Youngs Moduli (GPa) = 18.50372 43.24118 33.88326
#
# Poissons Ratio (x) = 0.72859 0.96752
# Poissons Ratio (y) = 0.31178 -0.07427
# Poissons Ratio (z) = 0.52837 -0.09478
#
# Static dielectric constant tensor:
#      x y z
#    x 2.043810 -0.008660 -0.010600 
#    y -0.008660 1.923070 0.045720 
#    z -0.010600 0.045720 1.994040 
# 
# From -- ./inp_files/571955.got.cif
#   From: 2010.05.17/outbox.cif.g08.bks.cpg/sg2_286_cif.got.tgz:571955.got - 2010.06.03 11:33:40.
