data_PCOD9103535
_publ_section_title
;
Structure prediction by ZEFSAII (Michael W. Deem and Ramdas Pophale) SiO2 
 PCOD9103535
Probable space group: P -1
;
_chemical_formula_sum "Si O2"
_cell_formula_units_Z 14
_cell_length_a 20.335910
_cell_length_b 23.332964
_cell_length_c 9.084716
_cell_angle_alpha 138.326817
_cell_angle_beta 146.711431
_cell_angle_gamma 16.675812
_cell_volume 638.063500
_symmetry_space_group_name_H-M "P -1"
_symmetry_group_IT_number 2
_symmetry_cell_setting 'triclinic'
loop_
_space_group_symop_operation_xyz
x,y,z
-x,-y,-z
loop_
_atom_site_type_symbol
_atom_site_label
_atom_site_fract_x
_atom_site_fract_y
_atom_site_fract_z
Si Si1 0.870665 0.986976 0.946036
Si Si2 0.625435 0.325023 0.077384
Si Si3 0.710883 0.872188 0.792416
Si Si4 0.251486 0.230702 0.868018
Si Si5 0.142222 0.673447 0.620483
Si Si6 0.787655 0.343391 0.820257
Si Si7 0.750439 0.676017 0.651427
O O1 0.527855 0.185202 0.680320
O O2 0.859352 0.095759 0.099911
O O3 0.015323 0.830189 0.793135
O O4 0.039651 0.847931 0.142478
O O5 0.771670 0.324194 0.352756
O O6 0.356841 0.499319 0.024952
O O7 0.448788 0.434786 0.802916
O O8 0.837124 0.698270 0.752226
O O9 0.500000 0.000000 0.500000
O O10 0.511269 0.036119 0.869361
O O11 0.973916 0.762192 0.030117
O O12 0.084431 0.256065 0.667961
O O13 0.014832 0.438211 0.725981
O O14 0.339096 0.229310 0.171647
O O15 0.500000 0.500000 0.500000
#
# Coordination Sequence:
#
# PCOD9103535 Si02
#       7
#     2   2   2   2   2   2   2
#     4  11  21  42  67  99 132 178 229 277 348 406
#     4  10  22  40  64  95 136 176 221 276 336 409
#     4  12  24  45  71  99 136 185 227 280 343 406
#     4  11  24  42  68 107 137 172 231 289 338 401
#     4  10  20  38  66  97 132 173 215 278 338 396
#     4  11  27  45  65  96 136 182 230 282 340 406
#     4  11  24  41  70 106 135 175 228 288 344 402
#
# _framework density 21.941390999999999
#
# number of rings (size 3 to 8) (size 9 to 14) (size 15 to 20)
#    0.000    1.143    4.286    1.714    2.000    2.286 
#    0.000    0.000    0.000    0.000    0.000    0.000 
#    0.000    0.000    0.000    0.000    0.000    0.000 
#
# Total GULP energy -78244.088546 kJ/mol
# GULP energy per Si atom -5588.863468 kJ/mol
# Density = 2.189145 g / cm^3
# Si number density = 21.941391 Si / 1000 Ang^3
#
#
#
# Elastic Constant Matrix: (Units=GPa)
#
#
# Indices 1 2 3 4 5 6 
#
# 1 128.2203 58.9783 65.4799 -15.1519 16.2963 21.7610
# 2 58.9783 114.5360 40.2811 -17.7284 3.7035 37.2417
# 3 65.4799 40.2811 116.3308 -25.4562 3.0232 12.9244
# 4 -15.1519 -17.7284 -25.4562 32.3847 4.5571 -5.8567
# 5 16.2963 3.7035 3.0232 4.5571 33.2450 -12.6368
# 6 21.7610 37.2417 12.9244 -5.8567 -12.6368 45.6858
#
#
#
# Elastic Compliance Matrix: (Units=1/GPa)
#
#
# Indices 1 2 3 4 5 6 
#
# 1 0.014262 -0.003513 -0.006069 0.000287 -0.007727 -0.004313
# 2 -0.003513 0.015478 -0.000956 0.004701 -0.004903 -0.011427
# 3 -0.006069 -0.000956 0.013847 0.007544 0.001186 0.001048
# 4 0.000287 0.004701 0.007544 0.040073 -0.008058 -0.003195
# 5 -0.007727 -0.004903 0.001186 -0.008058 0.042250 0.017995
# 6 -0.004313 -0.011427 0.001048 -0.003195 0.017995 0.037529
#
#
# Mechanical properties :
#
#
# Convention : Reuss Voigt Hill
#
# Bulk Modulus (GPa) = 44.42346 76.50728 60.46537
# Shear Modulus (GPa) = 26.03920 35.21962 30.62941
#
# Velocity S-wave (km/s) = 3.44868 4.01080 3.74031
# Velocity P-wave (km/s) = 6.01234 7.50955 6.80226
#
# Compressibility (1/GPa) = 0.02251063
#
# Stress axis : x y z
#
# Youngs Moduli (GPa) = 70.11614 64.60862 72.21916
#
# Poissons Ratio (x) = 0.22697 0.43827
# Poissons Ratio (y) = 0.24632 0.06906
# Poissons Ratio (z) = 0.42551 0.06179
#
# Static dielectric constant tensor:
#      x y z
#    x 1.870880 -0.019760 -0.029520 
#    y -0.019760 1.811780 0.035610 
#    z -0.029520 0.035610 1.872560 
# 
# From -- ./inp_files/337857.got.cif
#   From: 2010.05.17/outbox.cif.g08.bks.cpg/sg2_169_cif.got.tgz:337857.got - 2010.06.03 11:33:40.
