data_PCOD9103996
_publ_section_title
;
Structure prediction by ZEFSAII (Michael W. Deem and Ramdas Pophale) SiO2 
 PCOD9103996
Probable space group: P -1
;
_chemical_formula_sum "Si O2"
_cell_formula_units_Z 16
_cell_length_a 10.731313
_cell_length_b 13.555832
_cell_length_c 9.245252
_cell_angle_alpha 112.215609
_cell_angle_beta 58.200400
_cell_angle_gamma 145.312117
_cell_volume 646.263967
_symmetry_space_group_name_H-M "P -1"
_symmetry_group_IT_number 2
_symmetry_cell_setting 'triclinic'
loop_
_space_group_symop_operation_xyz
x,y,z
-x,-y,-z
loop_
_atom_site_type_symbol
_atom_site_label
_atom_site_fract_x
_atom_site_fract_y
_atom_site_fract_z
Si Si1 0.746302 0.019767 0.974346
Si Si2 0.584641 0.994268 0.738780
Si Si3 0.030501 0.618252 0.197476
Si Si4 0.810106 0.704026 0.289950
Si Si5 0.295301 0.338294 0.353233
Si Si6 0.154388 0.431432 0.282939
Si Si7 0.597966 0.345150 0.013375
Si Si8 0.305677 0.695240 0.547929
O O1 0.648001 0.975248 0.843014
O O2 0.594993 0.843655 0.050053
O O3 0.022095 0.148333 0.851526
O O4 0.666889 0.086623 0.128251
O O5 0.539915 0.885970 0.577248
O O6 0.786721 0.202753 0.719058
O O7 0.901504 0.633277 0.188393
O O8 0.828418 0.446841 0.321212
O O9 0.202076 0.623968 0.035832
O O10 0.527146 0.547677 0.357057
O O11 0.848060 0.759407 0.464576
O O12 0.161036 0.322967 0.299986
O O13 0.424828 0.306170 0.207083
O O14 0.309523 0.611517 0.371850
O O15 0.887177 0.325230 0.387733
O O16 0.270986 0.499264 0.090168
#
# Coordination Sequence:
#
# PCOD9103996 Si02
#       8
#     2   2   2   2   2   2   2   2
#     4   9  20  39  58  94 132 144 209 259 306 379
#     4   9  19  36  64  99 125 153 199 277 310 353
#     4   9  19  39  62  99 120 146 217 254 300 376
#     4  10  22  38  63  90 124 158 203 265 303 368
#     4  11  23  39  62  89 125 165 202 254 311 364
#     4  10  22  41  58  93 124 159 223 246 285 397
#     4  10  22  38  63  85 124 167 193 257 310 357
#     4  10  20  38  71  86 122 172 203 258 317 350
#
# _framework density 24.757683
#
# number of rings (size 3 to 8) (size 9 to 14) (size 15 to 20)
#    0.000    2.250    1.250    1.125    5.250    1.000 
#    0.000   11.875    5.500    0.000    0.000    0.000 
#    0.000    0.000    0.000    0.000    0.000    0.000 
#
# Total GULP energy -89338.074871 kJ/mol
# GULP energy per Si atom -5583.629679 kJ/mol
# Density = 2.470133 g / cm^3
# Si number density = 24.757683 Si / 1000 Ang^3
#
#
#
# Elastic Constant Matrix: (Units=GPa)
#
#
# Indices 1 2 3 4 5 6 
#
# 1 62.4123 13.7019 13.4307 2.5920 -5.6294 -7.8322
# 2 13.7019 62.8512 -3.9857 11.7124 1.3925 1.6564
# 3 13.4307 -3.9857 97.0614 8.8703 -15.0487 -5.6301
# 4 2.5920 11.7124 8.8703 47.1721 -0.1942 8.7392
# 5 -5.6294 1.3925 -15.0487 -0.1942 27.1947 0.0424
# 6 -7.8322 1.6564 -5.6301 8.7392 0.0424 20.7502
#
#
#
# Elastic Compliance Matrix: (Units=1/GPa)
#
#
# Indices 1 2 3 4 5 6 
#
# 1 0.018560 -0.004236 -0.001756 -0.000972 0.003069 0.007270
# 2 -0.004236 0.017778 0.001514 -0.004325 -0.000979 -0.000784
# 3 -0.001756 0.001514 0.012092 -0.003241 0.006221 0.003849
# 4 -0.000972 -0.004325 -0.003241 0.025050 -0.001576 -0.011448
# 5 0.003069 -0.000979 0.006221 -0.001576 0.040883 0.003505
# 6 0.007270 -0.000784 0.003849 -0.011448 0.003505 0.056858
#
#
# Mechanical properties :
#
#
# Convention : Reuss Voigt Hill
#
# Bulk Modulus (GPa) = 25.33235 29.84654 27.58944
# Shear Modulus (GPa) = 25.86190 32.30190 29.08190
#
# Velocity S-wave (km/s) = 3.23553 3.61601 3.43105
# Velocity P-wave (km/s) = 4.92063 5.43284 5.18306
#
# Compressibility (1/GPa) = 0.03947522
#
# Stress axis : x y z
#
# Youngs Moduli (GPa) = 53.87982 56.24803 82.70004
#
# Poissons Ratio (x) = 0.23826 0.14520
# Poissons Ratio (y) = 0.22823 -0.12522
# Poissons Ratio (z) = 0.09460 -0.08517
#
# Static dielectric constant tensor:
#      x y z
#    x 1.957170 0.050590 0.022620 
#    y 0.050590 2.094950 0.059660 
#    z 0.022620 0.059660 1.939190 
# 
# From -- ./inp_files/312497.got.cif
#   From: 2010.05.17/outbox.cif.g08.bks.cpg/sg2_157_cif.got.tgz:312497.got - 2010.06.03 11:33:40.
