data_PCOD9103357
_publ_section_title
;
Structure prediction by ZEFSAII (Michael W. Deem and Ramdas Pophale) SiO2 
 PCOD9103357
Probable space group: P -1
;
_chemical_formula_sum "Si O2"
_cell_formula_units_Z 16
_cell_length_a 11.063129
_cell_length_b 15.036721
_cell_length_c 7.074736
_cell_angle_alpha 91.956969
_cell_angle_beta 71.735916
_cell_angle_gamma 39.364516
_cell_volume 629.774019
_symmetry_space_group_name_H-M "P -1"
_symmetry_group_IT_number 2
_symmetry_cell_setting 'triclinic'
loop_
_space_group_symop_operation_xyz
x,y,z
-x,-y,-z
loop_
_atom_site_type_symbol
_atom_site_label
_atom_site_fract_x
_atom_site_fract_y
_atom_site_fract_z
Si Si1 0.602214 0.606691 0.062570
Si Si2 0.467048 0.150569 0.760846
Si Si3 0.926208 0.945778 0.954699
Si Si4 0.936970 0.745413 0.114163
Si Si5 0.715571 0.538234 0.570514
Si Si6 0.561598 0.803133 0.667485
Si Si7 0.638826 0.334528 0.501849
Si Si8 0.835349 0.808738 0.615268
O O1 0.583191 0.722481 0.125574
O O2 0.403976 0.662912 0.258679
O O3 0.628845 0.569009 0.826650
O O4 0.830023 0.440996 0.039028
O O5 0.263692 0.195817 0.879256
O O6 0.500555 0.138044 0.514631
O O7 0.695235 0.978844 0.725848
O O8 0.101016 0.827388 0.689040
O O9 0.961877 0.833010 0.045636
O O10 0.655198 0.106990 0.107465
O O11 0.000000 0.000000 0.000000
O O12 0.890003 0.772648 0.362833
O O13 0.764060 0.614899 0.547988
O O14 0.506246 0.654557 0.539611
O O15 0.929017 0.352094 0.412767
O O16 0.657686 0.832281 0.730414
O O17 0.500000 0.500000 0.500000
#
# Coordination Sequence:
#
# PCOD9103357 Si02
#       8
#     2   2   2   2   2   2   2   2
#     4  11  24  44  68 103 141 180 233 286 348 405
#     4  11  19  40  73 104 137 181 230 287 349 420
#     4  12  21  39  70 100 135 189 236 277 335 413
#     4  10  20  38  66 103 138 185 228 280 350 408
#     4  11  25  46  69 105 140 178 228 293 346 410
#     4  11  20  42  72 100 140 182 231 283 350 409
#     4  12  26  47  71  98 137 192 235 276 339 416
#     4  10  21  39  70 107 139 174 229 292 352 405
#
# _framework density 25.405937999999999
#
# number of rings (size 3 to 8) (size 9 to 14) (size 15 to 20)
#    0.000    1.000    6.250    1.500    0.000    0.500 
#    4.500    1.250    0.000    0.000    0.000    0.000 
#    0.000    0.000    0.000    0.000    0.000    0.000 
#
# Total GULP energy -89501.338066 kJ/mol
# GULP energy per Si atom -5593.833629 kJ/mol
# Density = 2.534811 g / cm^3
# Si number density = 25.405938 Si / 1000 Ang^3
#
#
#
# Elastic Constant Matrix: (Units=GPa)
#
#
# Indices 1 2 3 4 5 6 
#
# 1 83.1284 39.3615 41.9938 4.5434 -16.9926 14.1915
# 2 39.3615 154.9858 34.6487 27.0789 -9.1274 21.6548
# 3 41.9938 34.6487 114.0822 15.9952 -17.3528 -5.0715
# 4 4.5434 27.0789 15.9952 47.0112 -1.3794 4.9947
# 5 -16.9926 -9.1274 -17.3528 -1.3794 39.7435 3.0690
# 6 14.1915 21.6548 -5.0715 4.9947 3.0690 53.6061
#
#
#
# Elastic Compliance Matrix: (Units=1/GPa)
#
#
# Indices 1 2 3 4 5 6 
#
# 1 0.017796 -0.002768 -0.005486 0.002379 0.005017 -0.004621
# 2 -0.002768 0.008442 -0.001043 -0.003972 0.000350 -0.002426
# 3 -0.005486 -0.001043 0.012050 -0.003239 0.002318 0.003183
# 4 0.002379 -0.003972 -0.003239 0.024592 -0.000332 -0.001604
# 5 0.005017 0.000350 0.002318 -0.000332 0.028608 -0.002857
# 6 -0.004621 -0.002426 0.003183 -0.001604 -0.002857 0.021472
#
#
# Mechanical properties :
#
#
# Convention : Reuss Voigt Hill
#
# Bulk Modulus (GPa) = 50.77505 64.91159 57.84332
# Shear Modulus (GPa) = 36.20091 43.81831 40.00961
#
# Velocity S-wave (km/s) = 3.77888 4.15749 3.97270
# Velocity P-wave (km/s) = 6.25050 6.97506 6.62270
#
# Compressibility (1/GPa) = 0.01969471
#
# Stress axis : x y z
#
# Youngs Moduli (GPa) = 56.19279 118.45775 82.98788
#
# Poissons Ratio (x) = 0.32785 0.45526
# Poissons Ratio (y) = 0.15552 0.08655
# Poissons Ratio (z) = 0.30827 0.12354
#
# Static dielectric constant tensor:
#      x y z
#    x 2.159640 0.072390 -0.006030 
#    y 0.072390 2.003920 -0.024620 
#    z -0.006030 -0.024620 2.019930 
# 
# From -- ./inp_files/272812.got.cif
#   From: 2010.05.17/outbox.cif.g08.bks.cpg/sg2_137_cif.got.tgz:272812.got - 2010.06.03 11:33:40.
