data_PCOD9103438
_publ_section_title
;
Structure prediction by ZEFSAII (Michael W. Deem and Ramdas Pophale) SiO2 
 PCOD9103438
Probable space group: P -1
;
_chemical_formula_sum "Si O2"
_cell_formula_units_Z 16
_cell_length_a 24.510930
_cell_length_b 11.623706
_cell_length_c 8.000063
_cell_angle_alpha 136.635686
_cell_angle_beta 126.029456
_cell_angle_gamma 30.616905
_cell_volume 792.480188
_symmetry_space_group_name_H-M "P -1"
_symmetry_group_IT_number 2
_symmetry_cell_setting 'triclinic'
loop_
_space_group_symop_operation_xyz
x,y,z
-x,-y,-z
loop_
_atom_site_type_symbol
_atom_site_label
_atom_site_fract_x
_atom_site_fract_y
_atom_site_fract_z
Si Si1 0.641886 0.056517 0.437853
Si Si2 0.916627 0.872963 0.621809
Si Si3 0.486728 0.722337 0.229653
Si Si4 0.681390 0.358518 0.759856
Si Si5 0.882329 0.553163 0.220232
Si Si6 0.670286 0.507774 0.537088
Si Si7 0.903097 0.183553 0.647973
Si Si8 0.468280 0.904329 0.031757
O O1 0.590262 0.093519 0.556117
O O2 0.639399 0.263267 0.651330
O O3 0.766037 0.766927 0.325706
O O4 0.574301 0.125946 0.229358
O O5 0.896188 0.720259 0.361325
O O6 0.020271 0.666829 0.708377
O O7 0.806139 0.136349 0.797335
O O8 0.929331 0.990135 0.628754
O O9 0.604501 0.563032 0.322532
O O10 0.444946 0.877913 0.145785
O O11 0.500000 0.500000 0.000000
O O12 0.680656 0.361024 0.557907
O O13 0.597557 0.659316 0.988906
O O14 0.887917 0.395924 0.927512
O O15 0.787970 0.349666 0.541502
O O16 0.595314 0.800817 0.781878
O O17 0.000000 0.000000 0.500000
#
# Coordination Sequence:
#
# PCOD9103438 Si02
#       8
#     2   2   2   2   2   2   2   2
#     4  11  22  42  67  94 132 177 213 268 334 390
#     4   9  22  40  68  98 126 176 227 266 332 394
#     4  12  25  40  63  98 132 171 221 266 327 400
#     4  10  20  38  66  91 128 176 211 265 327 392
#     4  10  21  44  67  95 131 172 227 271 328 400
#     4  11  24  42  60  96 132 173 220 270 337 397
#     4  11  24  43  67  96 134 173 219 279 335 392
#     4  12  22  39  65  93 134 170 215 268 325 395
#
# _framework density 20.189778
#
# number of rings (size 3 to 8) (size 9 to 14) (size 15 to 20)
#    0.000    1.250    3.750    2.250    0.000    2.500 
#    2.250    0.000    0.000    0.000    0.000    0.000 
#    0.000    0.000    0.000    0.000    0.000    0.000 
#
# Total GULP energy -89384.202593 kJ/mol
# GULP energy per Si atom -5586.512662 kJ/mol
# Density = 2.014382 g / cm^3
# Si number density = 20.189778 Si / 1000 Ang^3
#
#
#
# Elastic Constant Matrix: (Units=GPa)
#
#
# Indices 1 2 3 4 5 6 
#
# 1 110.4371 44.0460 44.6731 -1.7644 -10.8086 -10.3470
# 2 44.0460 124.8752 38.6974 12.7700 -7.9856 -22.0667
# 3 44.6731 38.6974 82.3363 1.5962 -7.9167 -18.2449
# 4 -1.7644 12.7700 1.5962 32.4555 1.8282 -1.0418
# 5 -10.8086 -7.9856 -7.9167 1.8282 25.6527 -0.9239
# 6 -10.3470 -22.0667 -18.2449 -1.0418 -0.9239 37.9134
#
#
#
# Elastic Compliance Matrix: (Units=1/GPa)
#
#
# Indices 1 2 3 4 5 6 
#
# 1 0.012637 -0.002943 -0.005433 0.001943 0.002566 -0.000763
# 2 -0.002943 0.011148 -0.002378 -0.004397 0.001971 0.004468
# 3 -0.005433 -0.002378 0.017741 -0.000199 0.002666 0.005730
# 4 0.001943 -0.004397 -0.000199 0.032784 -0.002994 -0.001297
# 5 0.002566 0.001971 0.002666 -0.002994 0.041860 0.004068
# 6 -0.000763 0.004468 0.005730 -0.001297 0.004068 0.031589
#
#
# Mechanical properties :
#
#
# Convention : Reuss Voigt Hill
#
# Bulk Modulus (GPa) = 49.95616 63.60905 56.78260
# Shear Modulus (GPa) = 28.41871 31.88645 30.15258
#
# Velocity S-wave (km/s) = 3.75584 3.97840 3.86872
# Velocity P-wave (km/s) = 6.60344 7.25793 6.93841
#
# Compressibility (1/GPa) = 0.02001755
#
# Stress axis : x y z
#
# Youngs Moduli (GPa) = 79.13097 89.70017 56.36739
#
# Poissons Ratio (x) = 0.26400 0.30626
# Poissons Ratio (y) = 0.23289 0.13403
# Poissons Ratio (z) = 0.42995 0.21329
#
# Static dielectric constant tensor:
#      x y z
#    x 1.742000 0.011420 -0.002610 
#    y 0.011420 1.721000 -0.008650 
#    z -0.002610 -0.008650 1.738250 
# 
# From -- ./inp_files/353740.got.cif
#   From: 2010.05.17/outbox.cif.g08.bks.cpg/sg2_177_cif.got.tgz:353740.got - 2010.06.03 11:33:40.
