data_PCOD9103743
_publ_section_title
;
Structure prediction by ZEFSAII (Michael W. Deem and Ramdas Pophale) SiO2 
 PCOD9103743
Probable space group: P -1
;
_chemical_formula_sum "Si O2"
_cell_formula_units_Z 16
_cell_length_a 15.472260
_cell_length_b 21.086680
_cell_length_c 5.250282
_cell_angle_alpha 79.015827
_cell_angle_beta 90.065240
_cell_angle_gamma 24.416456
_cell_volume 627.440986
_symmetry_space_group_name_H-M "P -1"
_symmetry_group_IT_number 2
_symmetry_cell_setting 'triclinic'
loop_
_space_group_symop_operation_xyz
x,y,z
-x,-y,-z
loop_
_atom_site_type_symbol
_atom_site_label
_atom_site_fract_x
_atom_site_fract_y
_atom_site_fract_z
Si Si1 0.726457 0.673004 0.897337
Si Si2 0.269539 0.794080 0.822368
Si Si3 0.249716 0.288173 0.633193
Si Si4 0.404643 0.358144 0.761031
Si Si5 0.084310 0.261614 0.621206
Si Si6 0.957439 0.789068 0.867428
Si Si7 0.463158 0.482473 0.264482
Si Si8 0.170549 0.975125 0.334498
O O1 0.626795 0.760850 0.558472
O O2 0.637659 0.780084 0.040379
O O3 0.675926 0.636460 0.024460
O O4 0.000000 0.500000 0.000000
O O5 0.345385 0.705697 0.631092
O O6 0.063595 0.896872 0.869104
O O7 0.203199 0.912247 0.644449
O O8 0.494294 0.647280 0.108506
O O9 0.000000 0.500000 0.500000
O O10 0.222469 0.232471 0.608998
O O11 0.173922 0.532367 0.470862
O O12 0.612410 0.187006 0.723430
O O13 0.057338 0.241529 0.371135
O O14 0.166573 0.163233 0.938805
O O15 0.874100 0.919040 0.708472
O O16 0.211593 0.625906 0.116221
O O17 0.500000 0.500000 0.500000
O O18 0.500000 0.500000 0.000000
#
# Coordination Sequence:
#
# PCOD9103743 Si02
#       8
#     2   2   2   2   2   2   2   2
#     4  10  21  37  69 106 142 167 226 301 359 406
#     4  11  26  47  72 102 143 196 248 293 345 428
#     4  10  20  38  68 108 139 170 223 303 357 412
#     4  12  25  42  74 109 138 183 246 297 352 429
#     4  12  25  43  75 109 139 180 242 295 352 423
#     4  12  27  45  69 101 147 190 234 291 358 423
#     4  12  25  43  70 100 138 181 242 295 355 401
#     4  11  28  46  68 100 150 198 238 288 361 418
#
# _framework density 25.500405000000001
#
# number of rings (size 3 to 8) (size 9 to 14) (size 15 to 20)
#    0.000    0.750    5.000    2.625    7.000    1.000 
#    0.000    0.000    0.000    4.500    0.000    0.000 
#    0.000    0.000    0.000    0.000    0.000    0.000 
#
# Total GULP energy -89592.811730 kJ/mol
# GULP energy per Si atom -5599.550733 kJ/mol
# Density = 2.544237 g / cm^3
# Si number density = 25.500405 Si / 1000 Ang^3
#
#
#
# Elastic Constant Matrix: (Units=GPa)
#
#
# Indices 1 2 3 4 5 6 
#
# 1 163.7633 50.5951 56.1061 7.9803 -20.3558 15.7132
# 2 50.5951 112.4824 38.2550 14.8118 -3.8842 12.7779
# 3 56.1061 38.2550 108.7702 40.3809 -18.0722 16.3449
# 4 7.9803 14.8118 40.3809 40.6571 7.8975 4.7254
# 5 -20.3558 -3.8842 -18.0722 7.8975 56.8261 -0.9088
# 6 15.7132 12.7779 16.3449 4.7254 -0.9088 49.5324
#
#
#
# Elastic Compliance Matrix: (Units=1/GPa)
#
#
# Indices 1 2 3 4 5 6 
#
# 1 0.008497 -0.002633 -0.004589 0.003779 0.000865 -0.000847
# 2 -0.002633 0.011032 -0.001972 -0.001270 -0.000660 -0.001251
# 3 -0.004589 -0.001972 0.022078 -0.021537 0.008186 -0.003116
# 4 0.003779 -0.001270 -0.021537 0.047914 -0.012218 0.001441
# 5 0.000865 -0.000660 0.008186 -0.012218 0.022144 -0.001234
# 6 -0.000847 -0.001251 -0.003116 0.001441 -0.001234 0.021648
#
#
# Mechanical properties :
#
#
# Convention : Reuss Voigt Hill
#
# Bulk Modulus (GPa) = 43.06713 74.99203 59.02958
# Shear Modulus (GPa) = 31.35972 45.40709 38.38340
#
# Velocity S-wave (km/s) = 3.51062 4.22434 3.88391
# Velocity P-wave (km/s) = 5.77564 7.29832 6.58117
#
# Compressibility (1/GPa) = 0.02321957
#
# Stress axis : x y z
#
# Youngs Moduli (GPa) = 117.69458 90.64748 45.29306
#
# Poissons Ratio (x) = 0.23865 0.20784
# Poissons Ratio (y) = 0.30986 0.08932
# Poissons Ratio (z) = 0.54008 0.17876
#
# Static dielectric constant tensor:
#      x y z
#    x 2.006280 -0.027150 0.029720 
#    y -0.027150 2.148870 -0.158800 
#    z 0.029720 -0.158800 2.221810 
# 
# From -- ./inp_files/99682.got.cif
#   From: 2010.05.17/outbox.cif.g08.bks.cpg/sg2_50_cif.got.tgz:99682.got - 2010.06.03 11:33:40.
