data_PCOD9103856
_publ_section_title
;
Structure prediction by ZEFSAII (Michael W. Deem and Ramdas Pophale) SiO2 
 PCOD9103856
Probable space group: P -1
;
_chemical_formula_sum "Si O2"
_cell_formula_units_Z 16
_cell_length_a 14.236947
_cell_length_b 12.179713
_cell_length_c 13.397882
_cell_angle_alpha 66.749541
_cell_angle_beta 131.765412
_cell_angle_gamma 151.644707
_cell_volume 692.500839
_symmetry_space_group_name_H-M "P -1"
_symmetry_group_IT_number 2
_symmetry_cell_setting 'triclinic'
loop_
_space_group_symop_operation_xyz
x,y,z
-x,-y,-z
loop_
_atom_site_type_symbol
_atom_site_label
_atom_site_fract_x
_atom_site_fract_y
_atom_site_fract_z
Si Si1 0.558631 0.730172 0.164696
Si Si2 0.213652 0.632588 0.189967
Si Si3 0.271914 0.708095 0.902233
Si Si4 0.655674 0.848440 0.776530
Si Si5 0.589840 0.556872 0.380304
Si Si6 0.234252 0.269968 0.971072
Si Si7 0.870446 0.716428 0.727722
Si Si8 0.680998 0.231625 0.320089
O O1 0.699313 0.781088 0.339217
O O2 0.371093 0.461872 0.088647
O O3 0.341050 0.653959 0.040749
O O4 0.791683 0.974704 0.161541
O O5 0.219481 0.494959 0.234725
O O6 0.045778 0.516158 0.216413
O O7 0.514718 0.961916 0.288179
O O8 0.000000 0.500000 0.000000
O O9 0.299258 0.707633 0.803534
O O10 0.500000 0.000000 0.000000
O O11 0.414310 0.557582 0.658222
O O12 0.782448 0.879296 0.947206
O O13 0.520591 0.853209 0.724139
O O14 0.928512 0.078548 0.809504
O O15 0.744704 0.643492 0.557529
O O16 0.267317 0.312879 0.279465
O O17 0.500000 0.500000 0.000000
O O18 0.000000 0.500000 0.500000
#
# Coordination Sequence:
#
# PCOD9103856 Si02
#       8
#     2   2   2   2   2   2   2   2
#     4  11  21  39  67  98 135 172 237 298 358 431
#     4  12  25  47  77 107 144 198 256 322 371 449
#     4  12  24  44  74 109 140 197 259 303 371 453
#     4  10  23  44  65  99 146 183 243 299 369 447
#     4  10  24  42  66  99 136 191 226 309 368 439
#     4  10  20  38  69 100 127 180 232 297 366 424
#     4  11  23  42  66 102 139 178 247 294 376 441
#     4  12  29  49  71 110 158 206 252 313 387 453
#
# _framework density 23.104665000000001
#
# number of rings (size 3 to 8) (size 9 to 14) (size 15 to 20)
#    0.000    1.000    2.500    3.375    1.750    4.500 
#   13.500    0.000    0.000    0.000    0.000    0.000 
#    0.000    0.000    0.000    0.000    0.000    0.000 
#
# Total GULP energy -89235.852348 kJ/mol
# GULP energy per Si atom -5577.240772 kJ/mol
# Density = 2.305208 g / cm^3
# Si number density = 23.104665 Si / 1000 Ang^3
#
#
#
# Elastic Constant Matrix: (Units=GPa)
#
#
# Indices 1 2 3 4 5 6 
#
# 1 104.3536 27.8272 33.8001 -1.7267 2.0281 6.0979
# 2 27.8272 102.7168 41.6499 -1.2408 -2.4316 2.1931
# 3 33.8001 41.6499 110.3057 -3.2327 -6.1004 -8.7119
# 4 -1.7267 -1.2408 -3.2327 39.2185 6.7525 6.2345
# 5 2.0281 -2.4316 -6.1004 6.7525 35.8809 2.4054
# 6 6.0979 2.1931 -8.7119 6.2345 2.4054 40.2191
#
#
#
# Elastic Compliance Matrix: (Units=1/GPa)
#
#
# Indices 1 2 3 4 5 6 
#
# 1 0.011198 -0.001797 -0.002981 0.000770 -0.001253 -0.002290
# 2 -0.001797 0.011888 -0.004020 0.000120 0.000287 -0.001282
# 3 -0.002981 -0.004020 0.011838 -0.000077 0.001712 0.003145
# 4 0.000770 0.000120 -0.000077 0.027008 -0.004861 -0.004036
# 5 -0.001253 0.000287 0.001712 -0.004861 0.029196 -0.000447
# 6 -0.002290 -0.001282 0.003145 -0.004036 -0.000447 0.026615
#
#
# Mechanical properties :
#
#
# Convention : Reuss Voigt Hill
#
# Bulk Modulus (GPa) = 57.70554 58.21450 57.96002
# Shear Modulus (GPa) = 35.43246 37.33697 36.38471
#
# Velocity S-wave (km/s) = 3.92032 4.02430 3.97265
# Velocity P-wave (km/s) = 6.74699 6.84427 6.79580
#
# Compressibility (1/GPa) = 0.01732936
#
# Stress axis : x y z
#
# Youngs Moduli (GPa) = 89.29995 84.11884 84.47529
#
# Poissons Ratio (x) = 0.15113 0.25178
# Poissons Ratio (y) = 0.16044 0.33960
# Poissons Ratio (z) = 0.26617 0.33817
#
# Static dielectric constant tensor:
#      x y z
#    x 1.878800 0.004800 0.216700 
#    y 0.004800 1.891450 0.111050 
#    z 0.216700 0.111050 1.630280 
# 
# From -- ./inp_files/532479.got.cif
#   From: 2010.05.17/outbox.cif.g08.bks.cpg/sg2_267_cif.got.tgz:532479.got - 2010.06.03 11:33:40.
