data_PCOD9103965
_publ_section_title
;
Structure prediction by ZEFSAII (Michael W. Deem and Ramdas Pophale) SiO2 
 PCOD9103965
Probable space group: P -1
;
_chemical_formula_sum "Si O2"
_cell_formula_units_Z 15
_cell_length_a 9.757339
_cell_length_b 8.396913
_cell_length_c 11.265817
_cell_angle_alpha 99.008947
_cell_angle_beta 91.958113
_cell_angle_gamma 132.606598
_cell_volume 658.391334
_symmetry_space_group_name_H-M "P -1"
_symmetry_group_IT_number 2
_symmetry_cell_setting 'triclinic'
loop_
_space_group_symop_operation_xyz
x,y,z
-x,-y,-z
loop_
_atom_site_type_symbol
_atom_site_label
_atom_site_fract_x
_atom_site_fract_y
_atom_site_fract_z
Si Si1 0.447777 0.044906 0.728043
Si Si2 0.649342 0.959035 0.889721
Si Si3 0.430854 0.621227 0.045203
Si Si4 0.984162 0.800918 0.934308
Si Si5 0.625214 0.353729 0.553273
Si Si6 0.000000 0.000000 0.500000
Si Si7 0.959137 0.245287 0.341359
Si Si8 0.349613 0.255860 0.352855
O O1 0.532882 0.152410 0.615433
O O2 0.584953 0.048771 0.812610
O O3 0.233026 0.809750 0.684386
O O4 0.447157 0.211460 0.822032
O O5 0.480632 0.773019 0.951802
O O6 0.692915 0.846001 0.789608
O O7 0.835021 0.140218 0.994638
O O8 0.211908 0.432693 0.051993
O O9 0.500000 0.500000 0.000000
O O10 0.993523 0.786688 0.791318
O O11 0.000000 0.000000 0.000000
O O12 0.521688 0.289832 0.416898
O O13 0.594640 0.510991 0.622544
O O14 0.851157 0.513457 0.578261
O O15 0.918760 0.071737 0.414345
O O16 0.174018 0.104175 0.420588
#
# Coordination Sequence:
#
# PCOD9103965 Si02
#       8
#     2   2   2   2   2   1   2   2
#     4  12  24  43  67  98 143 180 217 277 349 398
#     4  12  27  43  65 104 141 177 220 278 346 405
#     4  12  24  43  69  99 136 180 227 272 327 404
#     4  12  23  42  70  99 132 172 227 280 333 401
#     4  10  21  42  68  91 130 178 230 282 324 391
#     4  10  20  38  70  94 122 170 226 278 326 382
#     4  11  22  40  67  96 131 173 227 272 337 391
#     4  10  22  43  68  99 130 175 235 281 329 394
#
# _framework density 22.782802
#
# number of rings (size 3 to 8) (size 9 to 14) (size 15 to 20)
#    0.000    0.800    5.333    2.800    0.000    2.133 
#    7.200    0.667    0.000    0.000    0.000    0.000 
#    0.000    0.000    0.000    0.000    0.000    0.000 
#
# Total GULP energy -83691.445687 kJ/mol
# GULP energy per Si atom -5579.429712 kJ/mol
# Density = 2.273095 g / cm^3
# Si number density = 22.782802 Si / 1000 Ang^3
#
#
#
# Elastic Constant Matrix: (Units=GPa)
#
#
# Indices 1 2 3 4 5 6 
#
# 1 77.1462 29.1214 17.5213 -4.8904 17.9054 16.4848
# 2 29.1214 94.0528 43.4950 -22.2711 -6.0553 34.4833
# 3 17.5213 43.4950 121.6646 -14.9115 -4.0592 11.1033
# 4 -4.8904 -22.2711 -14.9115 47.0175 0.1070 -0.3384
# 5 17.9054 -6.0553 -4.0592 0.1070 44.5530 8.0134
# 6 16.4848 34.4833 11.1033 -0.3384 8.0134 33.5696
#
#
#
# Elastic Compliance Matrix: (Units=1/GPa)
#
#
# Indices 1 2 3 4 5 6 
#
# 1 0.017000 -0.005248 -0.000859 -0.000979 -0.007459 -0.000903
# 2 -0.005248 0.027275 -0.004983 0.010582 0.010027 -0.026079
# 3 -0.000859 -0.004983 0.010022 0.000744 0.000185 0.002189
# 4 -0.000979 0.010582 0.000744 0.026325 0.003868 -0.011294
# 5 -0.007459 0.010027 0.000185 0.003868 0.029268 -0.013646
# 6 -0.000903 -0.026079 0.002189 -0.011294 -0.013646 0.059440
#
#
# Mechanical properties :
#
#
# Convention : Reuss Voigt Hill
#
# Bulk Modulus (GPa) = 31.13572 52.57100 41.85336
# Shear Modulus (GPa) = 24.72608 38.54309 31.63459
#
# Velocity S-wave (km/s) = 3.29796 4.11757 3.73034
# Velocity P-wave (km/s) = 5.31018 6.76245 6.07983
#
# Compressibility (1/GPa) = 0.03211745
#
# Stress axis : x y z
#
# Youngs Moduli (GPa) = 58.82200 36.66425 99.77921
#
# Poissons Ratio (x) = 0.19240 0.08568
# Poissons Ratio (y) = 0.30868 0.49724
# Poissons Ratio (z) = 0.05051 0.18271
#
# Static dielectric constant tensor:
#      x y z
#    x 1.914270 -0.027210 -0.010460 
#    y -0.027210 1.841150 0.041870 
#    z -0.010460 0.041870 1.813090 
# 
# From -- ./inp_files/305452.got.cif
#   From: 2010.05.17/outbox.cif.g08.bks.cpg/sg2_153_cif.got.tgz:305452.got - 2010.06.03 11:33:40.
