data_PCOD9103134
_publ_section_title
;
Structure prediction by ZEFSAII (Michael W. Deem and Ramdas Pophale) SiO2 
 PCOD9103134
Probable space group: P -1
;
_chemical_formula_sum "Si O2"
_cell_formula_units_Z 16
_cell_length_a 12.181161
_cell_length_b 9.162652
_cell_length_c 12.136473
_cell_angle_alpha 54.900037
_cell_angle_beta 91.050325
_cell_angle_gamma 123.693618
_cell_volume 827.264181
_symmetry_space_group_name_H-M "P -1"
_symmetry_group_IT_number 2
_symmetry_cell_setting 'triclinic'
loop_
_space_group_symop_operation_xyz
x,y,z
-x,-y,-z
loop_
_atom_site_type_symbol
_atom_site_label
_atom_site_fract_x
_atom_site_fract_y
_atom_site_fract_z
Si Si1 0.663905 0.802727 0.147277
Si Si2 0.408487 0.533883 0.907486
Si Si3 0.105975 0.348058 0.081039
Si Si4 0.084356 0.521925 0.598729
Si Si5 0.426324 0.942272 0.404397
Si Si6 0.572772 0.403827 0.598380
Si Si7 0.858794 0.809010 0.329903
Si Si8 0.085688 0.656434 0.105063
O O1 0.630664 0.616168 0.138730
O O2 0.513253 0.711215 0.238851
O O3 0.759477 0.816309 0.240696
O O4 0.768460 0.070781 0.986407
O O5 0.502547 0.810063 0.759610
O O6 0.500000 0.500000 0.000000
O O7 0.258674 0.431590 0.008095
O O8 0.126494 0.527090 0.091587
O O9 0.997435 0.079949 0.243636
O O10 0.023343 0.345481 0.974499
O O11 0.251545 0.771098 0.492001
O O12 0.091471 0.315018 0.678425
O O13 0.000000 0.500000 0.500000
O O14 0.999770 0.481239 0.725524
O O15 0.451492 0.793155 0.395078
O O16 0.500000 0.000000 0.500000
O O17 0.500000 0.500000 0.500000
O O18 0.747909 0.629917 0.503097
#
# Coordination Sequence:
#
# PCOD9103134 Si02
#       8
#     2   2   2   2   2   2   2   2
#     4  10  20  38  65  89 123 163 209 252 310 373
#     4  12  26  40  59  93 133 167 208 265 323 380
#     4  10  21  40  65  95 122 158 218 260 313 374
#     4  11  24  39  60  89 128 165 206 255 324 379
#     4  11  23  41  66  92 126 172 220 263 308 383
#     4   9  18  36  63  98 121 157 210 261 308 369
#     4   9  19  37  65  89 120 162 202 256 302 378
#     4  10  21  39  68  93 119 165 211 266 307 379
#
# _framework density 19.340858999999998
#
# number of rings (size 3 to 8) (size 9 to 14) (size 15 to 20)
#    0.000    1.750    0.000    5.250    3.500    7.000 
#    4.500    1.875    0.000    0.000    0.000    0.000 
#    0.000    0.000    0.000    0.000    0.000    0.000 
#
# Total GULP energy -89378.629058 kJ/mol
# GULP energy per Si atom -5586.164316 kJ/mol
# Density = 1.929684 g / cm^3
# Si number density = 19.340859 Si / 1000 Ang^3
#
#
#
# Elastic Constant Matrix: (Units=GPa)
#
#
# Indices 1 2 3 4 5 6 
#
# 1 89.6122 58.7765 81.9914 -1.9393 -30.7320 -11.0628
# 2 58.7765 86.6426 71.4994 -30.2485 -15.9675 -12.0161
# 3 81.9914 71.4994 125.0096 -24.8293 -24.2519 -11.0618
# 4 -1.9393 -30.2485 -24.8293 34.5942 -8.4041 1.5288
# 5 -30.7320 -15.9675 -24.2519 -8.4041 32.8917 4.5426
# 6 -11.0628 -12.0161 -11.0618 1.5288 4.5426 27.2415
#
#
#
# Elastic Compliance Matrix: (Units=1/GPa)
#
#
# Indices 1 2 3 4 5 6 
#
# 1 0.055979 -0.027137 -0.026661 -0.037343 0.009877 0.000386
# 2 -0.027137 0.044211 0.002549 0.040527 0.007515 0.005989
# 3 -0.026661 0.002549 0.029243 0.022589 0.003619 0.000301
# 4 -0.037343 0.040527 0.022589 0.083740 0.022357 0.003456
# 5 0.009877 0.007515 0.003619 0.022357 0.051811 -0.001099
# 6 0.000386 0.005989 0.000301 0.003456 -0.001099 0.039618
#
#
# Mechanical properties :
#
#
# Convention : Reuss Voigt Hill
#
# Bulk Modulus (GPa) = 37.12625 80.64433 58.88529
# Shear Modulus (GPa) = 12.01691 24.87862 18.44777
#
# Velocity S-wave (km/s) = 2.49534 3.59043 3.09175
# Velocity P-wave (km/s) = 5.24783 7.67952 6.57704
#
# Compressibility (1/GPa) = 0.02693512
#
# Stress axis : x y z
#
# Youngs Moduli (GPa) = 17.86388 22.61873 34.19567
#
# Poissons Ratio (x) = 0.61380 0.91171
# Poissons Ratio (y) = 0.48477 -0.08716
# Poissons Ratio (z) = 0.47628 -0.05765
#
# Static dielectric constant tensor:
#      x y z
#    x 1.652060 0.005900 -0.007430 
#    y 0.005900 1.655360 -0.011820 
#    z -0.007430 -0.011820 1.687120 
# 
# From -- ./inp_files/256792.got.cif
#   From: 2010.05.17/outbox.cif.g08.bks.cpg/sg2_129_cif.got.tgz:256792.got - 2010.06.03 11:33:40.
