data_PCOD9103950
_publ_section_title
;
Structure prediction by ZEFSAII (Michael W. Deem and Ramdas Pophale) SiO2 
 PCOD9103950
Probable space group: P -1
;
_chemical_formula_sum "Si O2"
_cell_formula_units_Z 16
_cell_length_a 12.220136
_cell_length_b 7.188060
_cell_length_c 9.660486
_cell_angle_alpha 49.882057
_cell_angle_beta 107.086345
_cell_angle_gamma 89.476575
_cell_volume 596.977066
_symmetry_space_group_name_H-M "P -1"
_symmetry_group_IT_number 2
_symmetry_cell_setting 'triclinic'
loop_
_space_group_symop_operation_xyz
x,y,z
-x,-y,-z
loop_
_atom_site_type_symbol
_atom_site_label
_atom_site_fract_x
_atom_site_fract_y
_atom_site_fract_z
Si Si1 0.576974 0.243210 0.234534
Si Si2 0.887187 0.654740 0.968678
Si Si3 0.237720 0.411844 0.582651
Si Si4 0.836886 0.182740 0.287371
Si Si5 0.686222 0.741901 0.627777
Si Si6 0.519812 0.518662 0.334866
Si Si7 0.428266 0.164616 0.979428
Si Si8 0.945244 0.102344 0.662653
O O1 0.695802 0.225639 0.196178
O O2 0.553020 0.520605 0.161192
O O3 0.618087 0.034803 0.465089
O O4 0.473231 0.159000 0.157386
O O5 0.779511 0.680869 0.812375
O O6 0.911797 0.929724 0.854891
O O7 0.866374 0.455950 0.169093
O O8 0.000000 0.500000 0.000000
O O9 0.256886 0.301804 0.486329
O O10 0.332405 0.576138 0.546773
O O11 0.298032 0.223505 0.825175
O O12 0.108734 0.604247 0.460746
O O13 0.878358 0.068075 0.509457
O O14 0.917155 0.006557 0.283288
O O15 0.592589 0.587369 0.695728
O O16 0.500000 0.500000 0.500000
O O17 0.484967 0.841016 0.133457
#
# Coordination Sequence:
#
# PCOD9103950 Si02
#       8
#     2   2   2   2   2   2   2   2
#     4  12  20  39  64  89 123 163 212 257 303 370
#     4  10  22  40  66  92 119 163 214 261 306 367
#     4  10  22  39  60  88 133 164 199 258 317 370
#     4  10  20  38  70  90 119 161 209 267 304 355
#     4  12  22  38  61  87 130 167 200 263 316 364
#     4  10  22  36  58  90 120 163 210 246 303 375
#     4  10  21  37  58  88 127 160 198 256 314 365
#     4  10  20  42  66  91 123 160 210 258 311 371
#
# _framework density 26.801698999999999
#
# number of rings (size 3 to 8) (size 9 to 14) (size 15 to 20)
#    0.750    0.750    3.750    1.875    0.000    1.000 
#    0.000    5.625    0.000    0.000    0.000    0.000 
#    0.000    0.000    0.000    0.000    0.000    0.000 
#
# Total GULP energy -89108.526560 kJ/mol
# GULP energy per Si atom -5569.282910 kJ/mol
# Density = 2.674070 g / cm^3
# Si number density = 26.801699 Si / 1000 Ang^3
#
#
#
# Elastic Constant Matrix: (Units=GPa)
#
#
# Indices 1 2 3 4 5 6 
#
# 1 109.9757 19.1007 35.4090 -18.4801 -7.9488 -10.3095
# 2 19.1007 154.3561 24.5058 -22.4597 9.4875 -14.9620
# 3 35.4090 24.5058 120.5398 -38.0276 -5.6800 -2.1941
# 4 -18.4801 -22.4597 -38.0276 43.0847 4.9963 4.6508
# 5 -7.9488 9.4875 -5.6800 4.9963 41.7763 -10.9866
# 6 -10.3095 -14.9620 -2.1941 4.6508 -10.9866 35.7328
#
#
#
# Elastic Compliance Matrix: (Units=1/GPa)
#
#
# Indices 1 2 3 4 5 6 
#
# 1 0.010702 -0.000558 -0.002355 0.001575 0.002517 0.003278
# 2 -0.000558 0.007375 -0.000342 0.003290 -0.001708 0.001953
# 3 -0.002355 -0.000342 0.012060 0.009639 -0.000256 -0.001415
# 4 0.001575 0.003290 0.009639 0.034967 -0.004220 -0.003425
# 5 0.002517 -0.001708 -0.000256 -0.004220 0.027653 0.009047
# 6 0.003278 0.001953 -0.001415 -0.003425 0.009047 0.032889
#
#
# Mechanical properties :
#
#
# Convention : Reuss Voigt Hill
#
# Bulk Modulus (GPa) = 42.32610 60.32251 51.32430
# Shear Modulus (GPa) = 35.70585 44.50916 40.10751
#
# Velocity S-wave (km/s) = 3.65392 4.07957 3.87260
# Velocity P-wave (km/s) = 5.79898 6.68927 6.25997
#
# Compressibility (1/GPa) = 0.02362608
#
# Stress axis : x y z
#
# Youngs Moduli (GPa) = 93.44048 135.59479 82.91605
#
# Poissons Ratio (x) = 0.07568 0.19528
# Poissons Ratio (y) = 0.05216 0.02838
# Poissons Ratio (z) = 0.22007 0.04641
#
# Static dielectric constant tensor:
#      x y z
#    x 2.010590 0.044050 -0.100880 
#    y 0.044050 2.194010 -0.043070 
#    z -0.100880 -0.043070 2.137280 
# 
# From -- ./inp_files/445545.got.cif
#   From: 2010.05.17/outbox.cif.g08.bks.cpg/sg2_223_cif.got.tgz:445545.got - 2010.06.03 11:33:40.
