data_PCOD9103249
_publ_section_title
;
Structure prediction by ZEFSAII (Michael W. Deem and Ramdas Pophale) SiO2 
 PCOD9103249
Probable space group: P -1
;
_chemical_formula_sum "Si O2"
_cell_formula_units_Z 10
_cell_length_a 13.753366
_cell_length_b 14.632713
_cell_length_c 9.211237
_cell_angle_alpha 36.690218
_cell_angle_beta 26.724276
_cell_angle_gamma 30.047125
_cell_volume 413.996489
_symmetry_space_group_name_H-M "P -1"
_symmetry_group_IT_number 2
_symmetry_cell_setting 'triclinic'
loop_
_space_group_symop_operation_xyz
x,y,z
-x,-y,-z
loop_
_atom_site_type_symbol
_atom_site_label
_atom_site_fract_x
_atom_site_fract_y
_atom_site_fract_z
Si Si1 0.005295 0.331238 0.637106
Si Si2 0.138552 0.452859 0.030232
Si Si3 0.641220 0.096002 0.756262
Si Si4 0.753753 0.145887 0.238710
Si Si5 0.763665 0.838345 0.174750
O O1 0.076695 0.334098 0.371714
O O2 0.207558 0.164777 0.685974
O O3 0.000000 0.500000 0.500000
O O4 0.747211 0.331823 0.993737
O O5 0.019617 0.648208 0.016570
O O6 0.441882 0.312591 0.775356
O O7 0.000000 0.500000 0.000000
O O8 0.810014 0.081665 0.412705
O O9 0.500000 0.000000 0.000000
O O10 0.741989 0.996862 0.902353
O O11 0.485153 0.171683 0.517720
O O12 0.000000 0.000000 0.000000
#
# Coordination Sequence:
#
# PCOD9103249 Si02
#       5
#     2   2   2   2   2
#     4  10  24  42  63  99 131 168 218 267 325 383
#     4  11  20  39  67  89 126 175 211 257 326 383
#     4  10  20  38  65  94 124 170 216 259 323 383
#     4  11  23  39  67  99 127 172 221 260 329 390
#     4  10  23  44  66  92 136 167 210 277 319 382
#
# _framework density 24.154793000000002
#
# number of rings (size 3 to 8) (size 9 to 14) (size 15 to 20)
#    0.000    1.600    4.000    2.400    0.000    7.200 
#    0.000    4.000    0.000    0.000    0.000    0.000 
#    0.000    0.000    0.000    0.000    0.000    0.000 
#
# Total GULP energy -55847.616528 kJ/mol
# GULP energy per Si atom -5584.761653 kJ/mol
# Density = 2.409982 g / cm^3
# Si number density = 24.154793 Si / 1000 Ang^3
#
#
#
# Elastic Constant Matrix: (Units=GPa)
#
#
# Indices 1 2 3 4 5 6 
#
# 1 150.3118 30.4260 64.0134 -13.2661 33.1858 -26.3003
# 2 30.4260 131.0112 33.8179 16.2293 6.1082 -10.7537
# 3 64.0134 33.8179 170.3107 -9.3689 32.0243 -11.2939
# 4 -13.2661 16.2293 -9.3689 30.8558 -5.9995 5.8460
# 5 33.1858 6.1082 32.0243 -5.9995 54.0593 -19.9645
# 6 -26.3003 -10.7537 -11.2939 5.8460 -19.9645 40.0801
#
#
#
# Elastic Compliance Matrix: (Units=1/GPa)
#
#
# Indices 1 2 3 4 5 6 
#
# 1 0.009395 -0.001553 -0.002340 0.003000 -0.002641 0.003336
# 2 -0.001553 0.009365 -0.001667 -0.006359 0.001100 0.002500
# 3 -0.002340 -0.001667 0.007705 0.001888 -0.003385 -0.001773
# 4 0.003000 -0.006359 0.001888 0.038563 0.000312 -0.004675
# 5 -0.002641 0.001100 -0.003385 0.000312 0.025899 0.010464
# 6 0.003336 0.002500 -0.001773 -0.004675 0.010464 0.033204
#
#
# Mechanical properties :
#
#
# Convention : Reuss Voigt Hill
#
# Bulk Modulus (GPa) = 65.16270 78.68316 71.92293
# Shear Modulus (GPa) = 35.62091 46.55747 41.08919
#
# Velocity S-wave (km/s) = 3.84434 4.39505 4.12889
# Velocity P-wave (km/s) = 6.83674 7.64203 7.25057
#
# Compressibility (1/GPa) = 0.01534620
#
# Stress axis : x y z
#
# Youngs Moduli (GPa) = 106.43672 106.77509 129.78680
#
# Poissons Ratio (x) = 0.16577 0.30373
# Poissons Ratio (y) = 0.16524 0.21635
# Poissons Ratio (z) = 0.24909 0.17799
#
# Static dielectric constant tensor:
#      x y z
#    x 1.980730 0.027760 -0.018880 
#    y 0.027760 2.008540 -0.000670 
#    z -0.018880 -0.000670 1.989500 
# 
# From -- ./inp_files/234826.got.cif
#   From: 2010.05.17/outbox.cif.g08.bks.cpg/sg2_118_cif.got.tgz:234826.got - 2010.06.03 11:33:40.
