data_PCOD9103539
_publ_section_title
;
Structure prediction by ZEFSAII (Michael W. Deem and Ramdas Pophale) SiO2 
 PCOD9103539
Probable space group: P -1
;
_chemical_formula_sum "Si O2"
_cell_formula_units_Z 16
_cell_length_a 17.022977
_cell_length_b 9.048295
_cell_length_c 11.116812
_cell_angle_alpha 73.628022
_cell_angle_beta 107.798936
_cell_angle_gamma 44.064065
_cell_volume 740.366608
_symmetry_space_group_name_H-M "P -1"
_symmetry_group_IT_number 2
_symmetry_cell_setting 'triclinic'
loop_
_space_group_symop_operation_xyz
x,y,z
-x,-y,-z
loop_
_atom_site_type_symbol
_atom_site_label
_atom_site_fract_x
_atom_site_fract_y
_atom_site_fract_z
Si Si1 0.251411 0.419333 0.312800
Si Si2 0.044153 0.468300 0.164374
Si Si3 0.454021 0.284043 0.278173
Si Si4 0.397021 0.692168 0.532560
Si Si5 0.190254 0.636226 0.707665
Si Si6 0.627202 0.616437 0.384869
Si Si7 0.720404 0.824352 0.027629
Si Si8 0.482934 0.344319 0.013922
O O1 0.086605 0.578258 0.183249
O O2 0.283292 0.472227 0.197692
O O3 0.277967 0.486412 0.425663
O O4 0.403960 0.044458 0.501884
O O5 0.877297 0.682217 0.108945
O O6 0.219285 0.081657 0.359331
O O7 0.000000 0.500000 0.000000
O O8 0.465123 0.441251 0.291758
O O9 0.506133 0.212874 0.180165
O O10 0.500000 0.500000 0.500000
O O11 0.344560 0.610521 0.570580
O O12 0.293637 0.425850 0.681788
O O13 0.201777 0.469109 0.835553
O O14 0.289925 0.613718 0.821056
O O15 0.000000 0.000000 0.500000
O O16 0.416173 0.974836 0.193580
O O17 0.609137 0.072204 0.031248
O O18 0.500000 0.500000 0.000000
#
# Coordination Sequence:
#
# PCOD9103539 Si02
#       8
#     2   2   2   2   2   2   2   2
#     4  10  22  38  65  98 126 167 220 272 323 399
#     4  11  26  42  63  97 135 174 218 274 339 391
#     4  10  20  38  66  98 126 167 223 267 328 393
#     4  11  21  40  66  97 130 173 217 276 331 394
#     4  11  24  42  66  97 134 175 220 276 332 400
#     4  11  21  42  68  95 126 175 225 264 339 393
#     4  11  24  44  68  95 135 177 221 276 334 402
#     4  11  24  43  70  98 131 179 225 274 332 403
#
# _framework density 21.610914000000001
#
# number of rings (size 3 to 8) (size 9 to 14) (size 15 to 20)
#    0.000    1.250    1.250    6.000    5.250    2.000 
#    0.000    4.375    0.000    0.000    0.000    0.000 
#    0.000    0.000    0.000    0.000    0.000    0.000 
#
# Total GULP energy -89322.615027 kJ/mol
# GULP energy per Si atom -5582.663439 kJ/mol
# Density = 2.156173 g / cm^3
# Si number density = 21.610914 Si / 1000 Ang^3
#
#
#
# Elastic Constant Matrix: (Units=GPa)
#
#
# Indices 1 2 3 4 5 6 
#
# 1 182.1096 47.4013 69.2839 15.2955 28.8142 7.6069
# 2 47.4013 70.1059 32.4112 18.1223 14.6137 2.9329
# 3 69.2839 32.4112 90.6825 -0.0861 20.2415 3.7615
# 4 15.2955 18.1223 -0.0861 33.4444 -1.8701 -1.6628
# 5 28.8142 14.6137 20.2415 -1.8701 39.7045 0.9299
# 6 7.6069 2.9329 3.7615 -1.6628 0.9299 45.2799
#
#
#
# Elastic Compliance Matrix: (Units=1/GPa)
#
#
# Indices 1 2 3 4 5 6 
#
# 1 0.008827 -0.002012 -0.005298 -0.003182 -0.003092 -0.000966
# 2 -0.002012 0.021951 -0.005290 -0.011284 -0.004431 -0.000968
# 3 -0.005298 -0.005290 0.017629 0.005171 -0.002952 0.000019
# 4 -0.003182 -0.011284 0.005171 0.037899 0.005562 0.002113
# 5 -0.003092 -0.004431 -0.002952 0.005562 0.030813 0.000623
# 6 -0.000966 -0.000968 0.000019 0.002113 0.000623 0.022373
#
#
# Mechanical properties :
#
#
# Convention : Reuss Voigt Hill
#
# Bulk Modulus (GPa) = 43.08870 71.23230 57.16050
# Shear Modulus (GPa) = 28.99745 36.60587 32.80166
#
# Velocity S-wave (km/s) = 3.66703 4.12012 3.90016
# Velocity P-wave (km/s) = 6.15720 7.46101 6.84024
#
# Compressibility (1/GPa) = 0.02320794
#
# Stress axis : x y z
#
# Youngs Moduli (GPa) = 113.28543 45.55569 56.72401
#
# Poissons Ratio (x) = 0.09165 0.30053
# Poissons Ratio (y) = 0.22790 0.30007
# Poissons Ratio (z) = 0.60019 0.24099
#
# Static dielectric constant tensor:
#      x y z
#    x 1.790140 0.011710 -0.024430 
#    y 0.011710 1.811000 0.036650 
#    z -0.024430 0.036650 1.787500 
# 
# From -- ./inp_files/447178.got.cif
#   From: 2010.05.17/outbox.cif.g08.bks.cpg/sg2_224_cif.got.tgz:447178.got - 2010.06.03 11:33:40.
