data_PCOD9103795
_publ_section_title
;
Structure prediction by ZEFSAII (Michael W. Deem and Ramdas Pophale) SiO2 
 PCOD9103795
Probable space group: P -1
;
_chemical_formula_sum "Si O2"
_cell_formula_units_Z 16
_cell_length_a 22.645552
_cell_length_b 18.659987
_cell_length_c 12.224241
_cell_angle_alpha 145.063913
_cell_angle_beta 154.342989
_cell_angle_gamma 17.332916
_cell_volume 632.335221
_symmetry_space_group_name_H-M "P -1"
_symmetry_group_IT_number 2
_symmetry_cell_setting 'triclinic'
loop_
_space_group_symop_operation_xyz
x,y,z
-x,-y,-z
loop_
_atom_site_type_symbol
_atom_site_label
_atom_site_fract_x
_atom_site_fract_y
_atom_site_fract_z
Si Si1 0.795978 0.981706 0.122411
Si Si2 0.835627 0.427743 0.583252
Si Si3 0.588395 0.104572 0.390254
Si Si4 0.755508 0.739574 0.471283
Si Si5 0.538482 0.339506 0.301318
Si Si6 0.131694 0.357381 0.808799
Si Si7 0.995226 0.089136 0.289390
Si Si8 0.074903 0.137267 0.062704
O O1 0.524165 0.111268 0.831925
O O2 0.902306 0.905421 0.082043
O O3 0.690685 0.200229 0.265691
O O4 0.011871 0.748963 0.275819
O O5 0.576835 0.707499 0.549576
O O6 0.028047 0.365927 0.754349
O O7 0.777577 0.359289 0.316612
O O8 0.709350 0.867347 0.286666
O O9 0.856626 0.975378 0.651147
O O10 0.349750 0.285814 0.124298
O O11 0.717594 0.918922 0.628236
O O12 0.000000 0.500000 0.500000
O O13 0.873213 0.616193 0.634926
O O14 0.500000 0.500000 0.500000
O O15 0.748194 0.103094 0.436593
O O16 0.220323 0.560990 0.029594
O O17 0.915047 0.008379 0.050233
#
# Coordination Sequence:
#
# PCOD9103795 Si02
#       8
#     2   2   2   2   2   2   2   2
#     4  11  23  38  64  98 127 168 213 266 324 381
#     4  10  21  40  66  99 126 164 217 263 320 381
#     4  10  20  38  68  94 129 167 216 264 320 377
#     4  12  25  43  65  94 133 170 215 266 328 384
#     4   9  18  33  55  87 127 161 198 253 317 371
#     4  10  23  40  64  96 130 168 212 267 317 383
#     4   9  20  34  60  94 129 161 210 261 321 371
#     4  11  22  39  59  94 135 168 211 268 322 385
#
# _framework density 25.303035999999999
#
# number of rings (size 3 to 8) (size 9 to 14) (size 15 to 20)
#    0.000    1.750    1.250    3.000    5.250    6.500 
#    2.250    0.000    0.000    6.000    0.000    0.000 
#    0.000    0.000    0.000    0.000    0.000    0.000 
#
# Total GULP energy -89465.640360 kJ/mol
# GULP energy per Si atom -5591.602523 kJ/mol
# Density = 2.524545 g / cm^3
# Si number density = 25.303036 Si / 1000 Ang^3
#
#
#
# Elastic Constant Matrix: (Units=GPa)
#
#
# Indices 1 2 3 4 5 6 
#
# 1 87.9631 65.9698 35.8610 13.2934 0.6185 -22.9111
# 2 65.9698 166.8291 42.3878 24.2262 -2.8916 -40.4397
# 3 35.8610 42.3878 104.5668 22.5536 13.1908 -0.9905
# 4 13.2934 24.2262 22.5536 41.0139 7.1458 -7.0909
# 5 0.6185 -2.8916 13.1908 7.1458 29.0938 -2.1167
# 6 -22.9111 -40.4397 -0.9905 -7.0909 -2.1167 47.2787
#
#
#
# Elastic Compliance Matrix: (Units=1/GPa)
#
#
# Indices 1 2 3 4 5 6 
#
# 1 0.017953 -0.004888 -0.004304 -0.000036 0.001419 0.004487
# 2 -0.004888 0.010521 -0.002341 -0.002839 0.003367 0.006306
# 3 -0.004304 -0.002341 0.013628 -0.004569 -0.005542 -0.004736
# 4 -0.000036 -0.002839 -0.004569 0.029818 -0.005411 0.001688
# 5 0.001419 0.003367 -0.005542 -0.005411 0.038836 0.004379
# 6 0.004487 0.006306 -0.004736 0.001688 0.004379 0.029070
#
#
# Mechanical properties :
#
#
# Convention : Reuss Voigt Hill
#
# Bulk Modulus (GPa) = 52.53318 71.97738 62.25528
# Shear Modulus (GPa) = 29.54382 37.81997 33.68189
#
# Velocity S-wave (km/s) = 3.42072 3.87030 3.65244
# Velocity P-wave (km/s) = 6.03394 6.96278 6.51493
#
# Compressibility (1/GPa) = 0.01903559
#
# Stress axis : x y z
#
# Youngs Moduli (GPa) = 55.69973 95.04460 73.37660
#
# Poissons Ratio (x) = 0.46460 0.31583
# Poissons Ratio (y) = 0.27227 0.17179
# Poissons Ratio (z) = 0.23975 0.22252
#
# Static dielectric constant tensor:
#      x y z
#    x 2.017780 0.013130 -0.003670 
#    y 0.013130 2.061010 0.009720 
#    z -0.003670 0.009720 2.072490 
# 
# From -- ./inp_files/472444.got.cif
#   From: 2010.05.17/outbox.cif.g08.bks.cpg/sg2_237_cif.got.tgz:472444.got - 2010.06.03 11:33:40.
