data_PCOD9103041
_publ_section_title
;
Structure prediction by ZEFSAII (Michael W. Deem and Ramdas Pophale) SiO2 
 PCOD9103041
Probable space group: P -1
;
_chemical_formula_sum "Si O2"
_cell_formula_units_Z 15
_cell_length_a 9.514359
_cell_length_b 13.471930
_cell_length_c 15.683691
_cell_angle_alpha 25.873342
_cell_angle_beta 43.274325
_cell_angle_gamma 43.505952
_cell_volume 584.555380
_symmetry_space_group_name_H-M "P -1"
_symmetry_group_IT_number 2
_symmetry_cell_setting 'triclinic'
loop_
_space_group_symop_operation_xyz
x,y,z
-x,-y,-z
loop_
_atom_site_type_symbol
_atom_site_label
_atom_site_fract_x
_atom_site_fract_y
_atom_site_fract_z
Si Si1 0.821600 0.968991 0.929169
Si Si2 0.425594 0.776403 0.309916
Si Si3 0.929596 0.002325 0.431314
Si Si4 0.956468 0.511726 0.842365
Si Si5 0.483054 0.627057 0.000847
Si Si6 0.214895 0.564665 0.325762
Si Si7 0.000000 0.500000 0.000000
Si Si8 0.484040 0.871846 0.398888
O O1 0.763336 0.120960 0.751140
O O2 0.827979 0.161152 0.848046
O O3 0.625478 0.859964 0.121640
O O4 0.014415 0.741417 0.015808
O O5 0.500000 0.500000 0.500000
O O6 0.383243 0.882073 0.341410
O O7 0.967939 0.722320 0.611239
O O8 0.676223 0.077933 0.490444
O O9 0.000000 0.000000 0.500000
O O10 0.996854 0.224502 0.192214
O O11 0.124777 0.507499 0.846561
O O12 0.740447 0.583163 0.942770
O O13 0.333567 0.533213 0.205488
O O14 0.500000 0.500000 0.000000
O O15 0.407781 0.908113 0.814077
O O16 0.377559 0.387383 0.450941
O O17 0.000000 0.500000 0.500000
#
# Coordination Sequence:
#
# PCOD9103041 Si02
#       8
#     2   2   2   2   2   2   1   2
#     4  11  26  44  71 111 149 196 247 309 383 465
#     4  11  24  42  73 106 152 195 243 305 387 459
#     4   9  21  37  63 101 136 189 231 289 366 433
#     4  10  24  40  68 104 143 183 247 297 374 443
#     4  11  27  52  75 101 144 200 255 317 377 443
#     4  12  28  51  76 108 149 201 260 314 378 451
#     4  10  20  38  64  96 146 184 224 294 360 444
#     4  11  24  47  72 104 147 192 249 311 372 459
#
# _framework density 25.660527999999999
#
# number of rings (size 3 to 8) (size 9 to 14) (size 15 to 20)
#    0.000    1.333    2.667    0.800   11.200    2.133 
#    4.800    0.000    0.000    0.000    0.000    0.000 
#    0.000    0.000    0.000    0.000    0.000    0.000 
#
# Total GULP energy -83527.551970 kJ/mol
# GULP energy per Si atom -5568.503465 kJ/mol
# Density = 2.560212 g / cm^3
# Si number density = 25.660528 Si / 1000 Ang^3
#
#
#
# Elastic Constant Matrix: (Units=GPa)
#
#
# Indices 1 2 3 4 5 6 
#
# 1 30.1495 33.1462 32.6426 -0.4147 -0.8576 10.6004
# 2 33.1462 155.4228 84.4561 -10.8654 3.6296 11.1745
# 3 32.6426 84.4561 226.5580 -9.8833 7.1884 -0.7950
# 4 -0.4147 -10.8654 -9.8833 66.8997 -0.6377 -3.1260
# 5 -0.8576 3.6296 7.1884 -0.6377 26.7971 -4.1783
# 6 10.6004 11.1745 -0.7950 -3.1260 -4.1783 39.1029
#
#
#
# Elastic Compliance Matrix: (Units=1/GPa)
#
#
# Indices 1 2 3 4 5 6 
#
# 1 0.050734 -0.007652 -0.004656 -0.002139 0.002047 -0.011614
# 2 -0.007652 0.009500 -0.002362 0.001104 -0.000982 -0.000705
# 3 -0.004656 -0.002362 0.006032 0.000561 -0.001124 0.001985
# 4 -0.002139 0.001104 0.000561 0.015270 0.000232 0.001521
# 5 0.002047 -0.000982 -0.001124 0.000232 0.038420 0.003826
# 6 -0.011614 -0.000705 0.001985 0.001521 0.003826 0.029494
#
#
# Mechanical properties :
#
#
# Convention : Reuss Voigt Hill
#
# Bulk Modulus (GPa) = 27.08121 79.18002 53.13061
# Shear Modulus (GPa) = 26.16422 44.01897 35.09159
#
# Velocity S-wave (km/s) = 3.19663 4.14627 3.70203
# Velocity P-wave (km/s) = 4.91946 7.33797 6.24688
#
# Compressibility (1/GPa) = 0.03692597
#
# Stress axis : x y z
#
# Youngs Moduli (GPa) = 19.71060 105.25887 165.76988
#
# Poissons Ratio (x) = 0.80543 0.77189
# Poissons Ratio (y) = 0.15082 0.39158
# Poissons Ratio (z) = 0.09178 0.24864
#
# Static dielectric constant tensor:
#      x y z
#    x 1.671160 0.016890 -0.099200 
#    y 0.016890 2.198490 0.036210 
#    z -0.099200 0.036210 1.968180 
# 
# From -- ./inp_files/569650.got.cif
#   From: 2010.05.17/outbox.cif.g08.bks.cpg/sg2_285_cif.got.tgz:569650.got - 2010.06.03 11:33:40.
