data_PCOD9103959
_publ_section_title
;
Structure prediction by ZEFSAII (Michael W. Deem and Ramdas Pophale) SiO2 
 PCOD9103959
Probable space group: P -1
;
_chemical_formula_sum "Si O2"
_cell_formula_units_Z 16
_cell_length_a 11.080505
_cell_length_b 23.124986
_cell_length_c 6.317565
_cell_angle_alpha 73.776023
_cell_angle_beta 118.274495
_cell_angle_gamma 151.935156
_cell_volume 632.085109
_symmetry_space_group_name_H-M "P -1"
_symmetry_group_IT_number 2
_symmetry_cell_setting 'triclinic'
loop_
_space_group_symop_operation_xyz
x,y,z
-x,-y,-z
loop_
_atom_site_type_symbol
_atom_site_label
_atom_site_fract_x
_atom_site_fract_y
_atom_site_fract_z
Si Si1 0.656867 0.427615 0.204990
Si Si2 0.329059 0.874673 0.064624
Si Si3 0.127202 0.609512 0.098558
Si Si4 0.613736 0.796661 0.014744
Si Si5 0.758901 0.711373 0.656924
Si Si6 0.130442 0.928243 0.430825
Si Si7 0.195021 0.734032 0.718842
Si Si8 0.170200 0.308834 0.707349
O O1 0.994399 0.562840 0.270337
O O2 0.521284 0.315396 0.094870
O O3 0.466380 0.409334 0.977408
O O4 0.541497 0.382269 0.393387
O O5 0.327242 0.832194 0.899530
O O6 0.531304 0.930364 0.367576
O O7 0.991117 0.763803 0.942253
O O8 0.500000 0.000000 0.000000
O O9 0.000000 0.500000 0.000000
O O10 0.474246 0.745893 0.189926
O O11 0.014067 0.619418 0.843552
O O12 0.959235 0.916802 0.193196
O O13 0.458918 0.794715 0.788997
O O14 0.949061 0.840982 0.585556
O O15 0.713984 0.651568 0.480582
O O16 0.061660 0.839475 0.333580
O O17 0.995690 0.692208 0.429633
#
# Coordination Sequence:
#
# PCOD9103959 Si02
#       8
#     2   2   2   2   2   2   2   2
#     4  10  16  33  54  69 103 134 163 206 247 289
#     4   9  15  30  53  73  99 131 159 207 255 286
#     4   8  17  30  49  71 101 133 163 203 245 291
#     4   8  17  30  50  72  98 132 169 196 241 304
#     4   8  17  29  52  77  98 126 169 205 245 293
#     4   8  15  31  52  72  97 130 165 197 249 297
#     4   9  16  30  51  74 100 130 166 204 243 298
#     4   8  17  30  51  74  97 128 170 199 247 297
#
# _framework density 25.31305
#
# number of rings (size 3 to 8) (size 9 to 14) (size 15 to 20)
#    1.500    2.000    1.250    0.000    0.000    1.000 
#    0.000    5.625    5.500    3.000    0.000    0.000 
#    0.000    0.000    0.000    0.000    0.000    0.000 
#
# Total GULP energy -89126.551756 kJ/mol
# GULP energy per Si atom -5570.409485 kJ/mol
# Density = 2.525544 g / cm^3
# Si number density = 25.313050 Si / 1000 Ang^3
#
#
#
# Elastic Constant Matrix: (Units=GPa)
#
#
# Indices 1 2 3 4 5 6 
#
# 1 82.8672 26.9572 36.7328 1.7185 32.7208 4.2558
# 2 26.9572 65.7031 9.6036 -2.4905 3.2985 11.8428
# 3 36.7328 9.6036 92.9317 13.5203 30.2859 -9.8986
# 4 1.7185 -2.4905 13.5203 30.6269 -4.6679 2.5458
# 5 32.7208 3.2985 30.2859 -4.6679 39.3314 -1.5575
# 6 4.2558 11.8428 -9.8986 2.5458 -1.5575 39.1271
#
#
#
# Elastic Compliance Matrix: (Units=1/GPa)
#
#
# Indices 1 2 3 4 5 6 
#
# 1 0.022326 -0.007948 -0.002188 -0.003388 -0.016664 -0.001019
# 2 -0.007948 0.019715 -0.002580 0.004778 0.007284 -0.005776
# 3 -0.002188 -0.002580 0.018342 -0.010669 -0.013122 0.005831
# 4 -0.003388 0.004778 -0.010669 0.040746 0.015238 -0.005821
# 5 -0.016664 0.007284 -0.013122 0.015238 0.050484 -0.002694
# 6 -0.001019 -0.005776 0.005831 -0.005821 -0.002694 0.029164
#
#
# Mechanical properties :
#
#
# Convention : Reuss Voigt Hill
#
# Bulk Modulus (GPa) = 28.61249 43.12105 35.86677
# Shear Modulus (GPa) = 22.95078 33.03097 27.99087
#
# Velocity S-wave (km/s) = 3.01438 3.61626 3.32895
# Velocity P-wave (km/s) = 4.84183 5.87439 5.38293
#
# Compressibility (1/GPa) = 0.03494977
#
# Stress axis : x y z
#
# Youngs Moduli (GPa) = 44.79143 50.72329 54.52077
#
# Poissons Ratio (x) = 0.40317 0.11929
# Poissons Ratio (y) = 0.35602 0.14066
# Poissons Ratio (z) = 0.09800 0.13086
#
# Static dielectric constant tensor:
#      x y z
#    x 1.920730 0.125000 0.047400 
#    y 0.125000 1.857400 -0.148340 
#    z 0.047400 -0.148340 2.078580 
# 
# From -- ./inp_files/285329.got.cif
#   From: 2010.05.17/outbox.cif.g08.bks.cpg/sg2_143_cif.got.tgz:285329.got - 2010.06.03 11:33:40.
