data_PCOD9103522
_publ_section_title
;
Structure prediction by ZEFSAII (Michael W. Deem and Ramdas Pophale) SiO2 
 PCOD9103522
Probable space group: P -1
;
_chemical_formula_sum "Si O2"
_cell_formula_units_Z 14
_cell_length_a 10.258455
_cell_length_b 9.879563
_cell_length_c 9.435903
_cell_angle_alpha 85.668171
_cell_angle_beta 124.643681
_cell_angle_gamma 54.956353
_cell_volume 516.872283
_symmetry_space_group_name_H-M "P -1"
_symmetry_group_IT_number 2
_symmetry_cell_setting 'triclinic'
loop_
_space_group_symop_operation_xyz
x,y,z
-x,-y,-z
loop_
_atom_site_type_symbol
_atom_site_label
_atom_site_fract_x
_atom_site_fract_y
_atom_site_fract_z
Si Si1 0.256726 0.360729 0.301723
Si Si2 0.712339 0.137250 0.748613
Si Si3 0.941226 0.318314 0.052091
Si Si4 0.632267 0.128237 0.003072
Si Si5 0.830254 0.712912 0.220939
Si Si6 0.989233 0.236513 0.410588
Si Si7 0.846331 0.140598 0.551545
O O1 0.506164 0.177968 0.546731
O O2 0.153901 0.292774 0.171228
O O3 0.063769 0.524960 0.290539
O O4 0.265125 0.478348 0.183946
O O5 0.955735 0.890806 0.922703
O O6 0.620459 0.217748 0.842805
O O7 0.745919 0.227475 0.639625
O O8 0.895777 0.333648 0.189907
O O9 0.370480 0.274604 0.895283
O O10 0.861418 0.040542 0.232916
O O11 0.714980 0.917377 0.053776
O O12 0.896558 0.721768 0.420812
O O13 0.187837 0.991596 0.512071
O O14 0.800185 0.284031 0.395032
#
# Coordination Sequence:
#
# PCOD9103522 Si02
#       7
#     2   2   2   2   2   2   2
#     4  11  23  40  64 100 128 163 218 263 318 379
#     4  11  21  39  68  91 126 176 205 264 318 381
#     4  10  22  41  62  95 132 165 210 269 316 376
#     4  10  20  38  66  96 127 171 208 264 321 370
#     4  10  21  39  66  94 129 163 217 265 311 379
#     4   9  19  40  65  89 127 170 210 261 313 373
#     4   9  20  39  65  94 126 172 217 248 321 391
#
# _framework density 27.085998
#
# number of rings (size 3 to 8) (size 9 to 14) (size 15 to 20)
#    0.000    2.000    1.429    1.714    0.000    3.429 
#   20.571    3.571    3.143    0.000    0.000    0.000 
#    0.000    0.000    0.000    0.000    0.000    0.000 
#
# Total GULP energy -78299.406389 kJ/mol
# GULP energy per Si atom -5592.814742 kJ/mol
# Density = 2.702435 g / cm^3
# Si number density = 27.085998 Si / 1000 Ang^3
#
#
#
# Elastic Constant Matrix: (Units=GPa)
#
#
# Indices 1 2 3 4 5 6 
#
# 1 115.5318 28.1103 21.5140 2.1741 -34.3543 -23.3131
# 2 28.1103 93.2162 15.3453 0.2630 -20.0208 -5.6379
# 3 21.5140 15.3453 101.8193 16.0772 -29.0911 -14.7211
# 4 2.1741 0.2630 16.0772 31.6610 -4.5110 -8.5916
# 5 -34.3543 -20.0208 -29.0911 -4.5110 61.2368 14.7277
# 6 -23.3131 -5.6379 -14.7211 -8.5916 14.7277 33.1154
#
#
#
# Elastic Compliance Matrix: (Units=1/GPa)
#
#
# Indices 1 2 3 4 5 6 
#
# 1 0.011777 -0.002193 -0.000263 0.001673 0.004376 0.006289
# 2 -0.002193 0.012022 -0.000838 0.000610 0.002550 -0.000845
# 3 -0.000263 -0.000838 0.012403 -0.005125 0.004665 0.001782
# 4 0.001673 0.000610 -0.005125 0.036339 -0.000725 0.008754
# 5 0.004376 0.002550 0.004665 -0.000725 0.022936 -0.004800
# 6 0.006289 -0.000845 0.001782 0.008754 -0.004800 0.039678
#
#
# Mechanical properties :
#
#
# Convention : Reuss Voigt Hill
#
# Bulk Modulus (GPa) = 33.76792 48.94517 41.35655
# Shear Modulus (GPa) = 32.97858 41.57584 37.27721
#
# Velocity S-wave (km/s) = 3.49313 3.92210 3.71381
# Velocity P-wave (km/s) = 5.36314 6.21450 5.80445
#
# Compressibility (1/GPa) = 0.02961390
#
# Stress axis : x y z
#
# Youngs Moduli (GPa) = 84.91301 83.18159 80.62752
#
# Poissons Ratio (x) = 0.18239 0.02117
# Poissons Ratio (y) = 0.18619 0.06761
# Poissons Ratio (z) = 0.02230 0.06975
#
# Static dielectric constant tensor:
#      x y z
#    x 2.200430 0.053450 -0.016820 
#    y 0.053450 2.077320 0.004070 
#    z -0.016820 0.004070 2.083200 
# 
# From -- ./inp_files/200882.got.cif
#   From: 2010.05.17/outbox.cif.g08.bks.cpg/sg2_101_cif.got.tgz:200882.got - 2010.06.03 11:33:40.
