data_PCOD9103364
_publ_section_title
;
Structure prediction by ZEFSAII (Michael W. Deem and Ramdas Pophale) SiO2 
 PCOD9103364
Probable space group: P -1
;
_chemical_formula_sum "Si O2"
_cell_formula_units_Z 16
_cell_length_a 23.530426
_cell_length_b 11.468943
_cell_length_c 5.105127
_cell_angle_alpha 110.991289
_cell_angle_beta 123.954489
_cell_angle_gamma 33.472104
_cell_volume 612.576850
_symmetry_space_group_name_H-M "P -1"
_symmetry_group_IT_number 2
_symmetry_cell_setting 'triclinic'
loop_
_space_group_symop_operation_xyz
x,y,z
-x,-y,-z
loop_
_atom_site_type_symbol
_atom_site_label
_atom_site_fract_x
_atom_site_fract_y
_atom_site_fract_z
Si Si1 0.236685 0.529876 0.730008
Si Si2 0.543973 0.831036 0.683810
Si Si3 0.677995 0.130457 0.086683
Si Si4 0.953100 0.742394 0.653721
Si Si5 0.100546 0.498170 0.300550
Si Si6 0.655616 0.004192 0.413045
Si Si7 0.100405 0.914298 0.019894
Si Si8 0.354279 0.535984 0.659599
O O1 0.173386 0.513186 0.400284
O O2 0.332732 0.475096 0.795133
O O3 0.319543 0.344522 0.018408
O O4 0.132319 0.780727 0.748934
O O5 0.438413 0.964657 0.729542
O O6 0.560849 0.666877 0.475826
O O7 0.500000 0.000000 0.500000
O O8 0.620850 0.130540 0.165834
O O9 0.628284 0.345776 0.134226
O O10 0.819243 0.917709 0.352342
O O11 0.663229 0.093062 0.736342
O O12 0.029734 0.641310 0.501348
O O13 0.935214 0.888843 0.919590
O O14 0.027635 0.550357 0.904817
O O15 0.210051 0.247209 0.464891
O O16 0.225369 0.727822 0.342634
O O17 0.000000 0.000000 0.000000
#
# Coordination Sequence:
#
# PCOD9103364 Si02
#       8
#     2   2   2   2   2   2   2   2
#     4  11  25  43  75 109 150 186 242 307 371 442
#     4  11  28  49  78 108 145 186 243 313 376 427
#     4  11  28  50  74 107 149 197 250 298 355 438
#     4  11  25  43  72 108 151 195 236 304 359 439
#     4  12  26  43  74 111 147 194 248 292 377 430
#     4  12  29  49  76 104 146 199 254 302 359 429
#     4  10  20  38  66 107 145 190 238 292 369 431
#     4  10  25  44  72 107 145 193 244 299 365 434
#
# _framework density 26.119174000000001
#
# number of rings (size 3 to 8) (size 9 to 14) (size 15 to 20)
#    0.000    1.000    1.250    3.000   15.750    6.000 
#    0.000    0.000    0.000    0.000    0.000    0.000 
#    0.000    0.000    0.000    0.000    0.000    0.000 
#
# Total GULP energy -89541.985837 kJ/mol
# GULP energy per Si atom -5596.374115 kJ/mol
# Density = 2.605973 g / cm^3
# Si number density = 26.119174 Si / 1000 Ang^3
#
#
#
# Elastic Constant Matrix: (Units=GPa)
#
#
# Indices 1 2 3 4 5 6 
#
# 1 88.7494 19.7600 1.7513 -3.4349 -6.0585 -15.3919
# 2 19.7600 128.3074 23.5261 0.7698 5.8472 -12.7851
# 3 1.7513 23.5261 113.1113 -18.0776 1.8514 -3.5449
# 4 -3.4349 0.7698 -18.0776 55.7309 -1.6351 -1.3082
# 5 -6.0585 5.8472 1.8514 -1.6351 43.4872 -2.8316
# 6 -15.3919 -12.7851 -3.5449 -1.3082 -2.8316 40.9827
#
#
#
# Elastic Compliance Matrix: (Units=1/GPa)
#
#
# Indices 1 2 3 4 5 6 
#
# 1 0.012605 -0.001690 0.000436 0.001113 0.002296 0.004439
# 2 -0.001690 0.008627 -0.001821 -0.000808 -0.001232 0.001788
# 3 0.000436 -0.001821 0.009745 0.003227 0.000048 0.000545
# 4 0.001113 -0.000808 0.003227 0.019123 0.000918 0.001119
# 5 0.002296 -0.001232 0.000048 0.000918 0.023653 0.002146
# 6 0.004439 0.001788 0.000545 0.001119 0.002146 0.026857
#
#
# Mechanical properties :
#
#
# Convention : Reuss Voigt Hill
#
# Bulk Modulus (GPa) = 40.28023 46.69366 43.48695
# Shear Modulus (GPa) = 43.46461 47.04885 45.25673
#
# Velocity S-wave (km/s) = 4.08375 4.24879 4.16709
# Velocity P-wave (km/s) = 6.13932 6.47963 6.31177
#
# Compressibility (1/GPa) = 0.02482608
#
# Stress axis : x y z
#
# Youngs Moduli (GPa) = 79.33369 115.91288 102.61723
#
# Poissons Ratio (x) = 0.19591 -0.04472
# Poissons Ratio (y) = 0.13409 0.18688
# Poissons Ratio (z) = -0.03457 0.21110
#
# Static dielectric constant tensor:
#      x y z
#    x 2.267730 -0.075420 -0.085650 
#    y -0.075420 3.330910 -0.430920 
#    z -0.085650 -0.430920 2.377780 
# 
# From -- ./inp_files/126917.got.cif
#   From: 2010.05.17/outbox.cif.g08.bks.cpg/sg2_64_cif.got.tgz:126917.got - 2010.06.03 11:33:40.
