data_PCOD9103293
_publ_section_title
;
Structure prediction by ZEFSAII (Michael W. Deem and Ramdas Pophale) SiO2 
 PCOD9103293
Probable space group: P -1
;
_chemical_formula_sum "Si O2"
_cell_formula_units_Z 16
_cell_length_a 21.196957
_cell_length_b 8.890284
_cell_length_c 23.645263
_cell_angle_alpha 129.410539
_cell_angle_beta 168.123331
_cell_angle_gamma 48.230234
_cell_volume 679.746841
_symmetry_space_group_name_H-M "P -1"
_symmetry_group_IT_number 2
_symmetry_cell_setting 'triclinic'
loop_
_space_group_symop_operation_xyz
x,y,z
-x,-y,-z
loop_
_atom_site_type_symbol
_atom_site_label
_atom_site_fract_x
_atom_site_fract_y
_atom_site_fract_z
Si Si1 0.859006 0.100136 0.588112
Si Si2 0.631748 0.647198 0.111493
Si Si3 0.196357 0.737707 0.659735
Si Si4 0.511435 0.218855 0.194012
Si Si5 0.222855 0.322463 0.549702
Si Si6 0.782780 0.302608 0.959408
Si Si7 0.494780 0.208057 0.575055
Si Si8 0.382813 0.464045 0.325843
O O1 0.741384 0.156071 0.434398
O O2 0.596345 0.250025 0.435287
O O3 0.876595 0.866163 0.558974
O O4 0.204564 0.134093 0.908639
O O5 0.817925 0.780926 0.341375
O O6 0.926286 0.487690 0.298415
O O7 0.500000 0.500000 0.000000
O O8 0.382817 0.796010 0.888426
O O9 0.309724 0.801038 0.714651
O O10 0.298014 0.489091 0.697541
O O11 0.362225 0.461891 0.125713
O O12 0.537865 0.238701 0.770210
O O13 0.746163 0.192837 0.842342
O O14 0.119747 0.281769 0.280032
O O15 0.552890 0.365642 0.618193
O O16 0.500000 0.000000 0.500000
O O17 0.500000 0.500000 0.500000
O O18 0.000000 0.500000 0.000000
#
# Coordination Sequence:
#
# PCOD9103293 Si02
#       8
#     2   2   2   2   2   2   2   2
#     4  12  24  40  63  88 121 158 201 257 307 354
#     4  10  20  38  65  96 127 158 198 246 298 360
#     4   9  21  38  63  93 119 159 206 238 293 357
#     4  11  21  40  63  86 118 157 203 248 295 360
#     4   9  26  35  67  94 122 153 209 251 302 347
#     4  11  22  43  60  88 113 156 209 251 294 362
#     4  12  26  41  61  84 116 158 204 254 308 357
#     4  12  26  42  57  82 120 159 197 245 314 367
#
# _framework density 23.538176
#
# number of rings (size 3 to 8) (size 9 to 14) (size 15 to 20)
#    0.750    0.500    2.500    3.000    8.750    0.000 
#    0.000    0.000    0.000    4.500    0.000    0.000 
#    0.000    0.000    0.000    0.000    0.000    0.000 
#
# Total GULP energy -89395.495057 kJ/mol
# GULP energy per Si atom -5587.218441 kJ/mol
# Density = 2.348460 g / cm^3
# Si number density = 23.538176 Si / 1000 Ang^3
#
#
#
# Elastic Constant Matrix: (Units=GPa)
#
#
# Indices 1 2 3 4 5 6 
#
# 1 92.0523 -2.3422 39.7809 -3.3878 -0.1775 -4.6376
# 2 -2.3422 90.3593 -0.8834 9.2479 16.3842 -5.9578
# 3 39.7809 -0.8834 158.1298 -6.1572 7.0574 13.5984
# 4 -3.3878 9.2479 -6.1572 37.0013 7.7116 9.9373
# 5 -0.1775 16.3842 7.0574 7.7116 43.3368 1.4769
# 6 -4.6376 -5.9578 13.5984 9.9373 1.4769 23.9796
#
#
#
# Elastic Compliance Matrix: (Units=1/GPa)
#
#
# Indices 1 2 3 4 5 6 
#
# 1 0.012696 0.000667 -0.003693 -0.001087 0.000420 0.005140
# 2 0.000667 0.012573 -0.000516 -0.003732 -0.004185 0.005350
# 3 -0.003693 -0.000516 0.008010 0.003209 -0.001470 -0.006624
# 4 -0.001087 -0.003732 0.003209 0.033829 -0.004567 -0.016695
# 5 0.000420 -0.004185 -0.001470 -0.004567 0.025705 0.000184
# 6 0.005140 0.005350 -0.006624 -0.016695 0.000184 0.054689
#
#
# Mechanical properties :
#
#
# Convention : Reuss Voigt Hill
#
# Bulk Modulus (GPa) = 38.17614 45.96136 42.06875
# Shear Modulus (GPa) = 30.61511 41.12927 35.87219
#
# Velocity S-wave (km/s) = 3.61038 4.18466 3.90808
# Velocity P-wave (km/s) = 5.79946 6.55112 6.18672
#
# Compressibility (1/GPa) = 0.02619437
#
# Stress axis : x y z
#
# Youngs Moduli (GPa) = 78.76353 79.53804 124.83756
#
# Poissons Ratio (x) = -0.05306 0.46107
# Poissons Ratio (y) = -0.05254 0.06443
# Poissons Ratio (z) = 0.29090 0.04105
#
# Static dielectric constant tensor:
#      x y z
#    x 1.962240 -0.122300 -0.032770 
#    y -0.122300 1.983520 -0.046810 
#    z -0.032770 -0.046810 2.056890 
# 
# From -- ./inp_files/620925.got.cif
#   From: 2010.05.17/outbox.cif.g08.bks.cpg/sg2_311_cif.got.tgz:620925.got - 2010.06.03 11:33:40.
