data_PCOD9103447
_publ_section_title
;
Structure prediction by ZEFSAII (Michael W. Deem and Ramdas Pophale) SiO2 
 PCOD9103447
Probable space group: P -1
;
_chemical_formula_sum "Si O2"
_cell_formula_units_Z 16
_cell_length_a 11.593063
_cell_length_b 8.283043
_cell_length_c 14.672244
_cell_angle_alpha 40.784122
_cell_angle_beta 76.672966
_cell_angle_gamma 56.287211
_cell_volume 717.353162
_symmetry_space_group_name_H-M "P -1"
_symmetry_group_IT_number 2
_symmetry_cell_setting 'triclinic'
loop_
_space_group_symop_operation_xyz
x,y,z
-x,-y,-z
loop_
_atom_site_type_symbol
_atom_site_label
_atom_site_fract_x
_atom_site_fract_y
_atom_site_fract_z
Si Si1 0.979832 0.380456 0.150990
Si Si2 0.979745 0.870007 0.466353
Si Si3 0.454299 0.274394 0.094487
Si Si4 0.663656 0.698137 0.085847
Si Si5 0.286529 0.243820 0.643900
Si Si6 0.694895 0.968035 0.703172
Si Si7 0.672357 0.141623 0.365622
Si Si8 0.454288 0.450054 0.412281
O O1 0.813572 0.661221 0.092347
O O2 0.975372 0.083279 0.293547
O O3 0.129612 0.255198 0.231807
O O4 0.000000 0.500000 0.000000
O O5 0.120663 0.519568 0.578666
O O6 0.832831 0.883630 0.489371
O O7 0.000000 0.000000 0.500000
O O8 0.610707 0.930958 0.212096
O O9 0.369581 0.227650 0.208869
O O10 0.500000 0.500000 0.000000
O O11 0.344147 0.374276 0.987728
O O12 0.672226 0.435819 0.251826
O O13 0.500000 0.000000 0.000000
O O14 0.349943 0.386048 0.509365
O O15 0.311030 0.977714 0.688354
O O16 0.611480 0.240994 0.527286
O O17 0.629677 0.184498 0.714924
O O18 0.511413 0.282563 0.376328
#
# Coordination Sequence:
#
# PCOD9103447 Si02
#       8
#     2   2   2   2   2   2   2   2
#     4  11  22  40  64  95 128 168 220 274 331 382
#     4  11  25  41  65  97 129 171 225 276 332 394
#     4  11  22  40  61  92 128 168 213 260 331 389
#     4  11  24  39  63  95 127 171 223 272 320 394
#     4  11  23  41  66  89 132 175 211 275 332 400
#     4  10  20  38  66  92 123 171 215 276 318 390
#     4  11  23  39  61  95 131 167 214 277 334 393
#     4  10  21  38  66  94 126 165 225 262 333 392
#
# _framework density 22.304214999999999
#
# number of rings (size 3 to 8) (size 9 to 14) (size 15 to 20)
#    0.000    1.250    3.750    2.250    7.000    0.000 
#    0.000    0.000    0.000    0.750    0.000    0.000 
#    0.000    0.000    0.000    0.000    0.000    0.000 
#
# Total GULP energy -89076.748087 kJ/mol
# GULP energy per Si atom -5567.296755 kJ/mol
# Density = 2.225345 g / cm^3
# Si number density = 22.304215 Si / 1000 Ang^3
#
#
#
# Elastic Constant Matrix: (Units=GPa)
#
#
# Indices 1 2 3 4 5 6 
#
# 1 100.7564 30.8203 22.9722 -19.3665 4.8776 -26.9217
# 2 30.8203 101.5947 18.1870 -18.8385 5.9440 -22.4561
# 3 22.9722 18.1870 83.1332 -10.6183 -1.1597 -12.5916
# 4 -19.3665 -18.8385 -10.6183 28.4307 -5.1203 12.0719
# 5 4.8776 5.9440 -1.1597 -5.1203 46.7140 -6.7937
# 6 -26.9217 -22.4561 -12.5916 12.0719 -6.7937 40.9905
#
#
#
# Elastic Compliance Matrix: (Units=1/GPa)
#
#
# Indices 1 2 3 4 5 6 
#
# 1 0.013325 -0.001500 -0.001824 0.004902 0.000157 0.005951
# 2 -0.001500 0.012297 -0.001048 0.005023 -0.000317 0.003898
# 3 -0.001824 -0.001048 0.013371 0.002510 0.001192 0.001794
# 4 0.004902 0.005023 0.002510 0.046001 0.003037 -0.006302
# 5 0.000157 -0.000317 0.001192 0.003037 0.022242 0.003088
# 6 0.005951 0.003898 0.001794 -0.006302 0.003088 0.033359
#
#
# Mechanical properties :
#
#
# Convention : Reuss Voigt Hill
#
# Bulk Modulus (GPa) = 33.06021 47.71592 40.38806
# Shear Modulus (GPa) = 31.36323 37.46071 34.41197
#
# Velocity S-wave (km/s) = 3.75394 4.10266 3.93217
# Velocity P-wave (km/s) = 5.80035 6.62436 6.22600
#
# Compressibility (1/GPa) = 0.03024784
#
# Stress axis : x y z
#
# Youngs Moduli (GPa) = 75.04912 81.31889 74.78832
#
# Poissons Ratio (x) = 0.12201 0.13641
# Poissons Ratio (y) = 0.11260 0.07839
# Poissons Ratio (z) = 0.13689 0.08524
#
# Static dielectric constant tensor:
#      x y z
#    x 1.930110 -0.003020 0.004460 
#    y -0.003020 1.991550 0.064030 
#    z 0.004460 0.064030 1.926940 
# 
# From -- ./inp_files/405736.got.cif
#   From: 2010.05.17/outbox.cif.g08.bks.cpg/sg2_203_cif.got.tgz:405736.got - 2010.06.03 11:33:40.
