data_PCOD9103712
_publ_section_title
;
Structure prediction by ZEFSAII (Michael W. Deem and Ramdas Pophale) SiO2 
 PCOD9103712
Probable space group: P -1
;
_chemical_formula_sum "Si O2"
_cell_formula_units_Z 16
_cell_length_a 22.516246
_cell_length_b 6.417149
_cell_length_c 13.807408
_cell_angle_alpha 88.461468
_cell_angle_beta 20.288312
_cell_angle_gamma 90.044385
_cell_volume 689.575374
_symmetry_space_group_name_H-M "P -1"
_symmetry_group_IT_number 2
_symmetry_cell_setting 'triclinic'
loop_
_space_group_symop_operation_xyz
x,y,z
-x,-y,-z
loop_
_atom_site_type_symbol
_atom_site_label
_atom_site_fract_x
_atom_site_fract_y
_atom_site_fract_z
Si Si1 0.132428 0.504672 0.050278
Si Si2 0.593359 0.756699 0.762900
Si Si3 0.014100 0.208970 0.569732
Si Si4 0.805289 0.052301 0.284311
Si Si5 0.586081 0.153451 0.448001
Si Si6 0.269952 0.939056 0.291650
Si Si7 0.777214 0.817698 0.931467
Si Si8 0.172197 0.611408 0.607180
O O1 0.173649 0.288470 0.040956
O O2 0.020214 0.621299 0.299702
O O3 0.014632 0.493212 0.134269
O O4 0.308783 0.644278 0.759967
O O5 0.675411 0.537559 0.641804
O O6 0.693393 0.893118 0.525901
O O7 0.628741 0.863913 0.812539
O O8 0.394174 0.787460 0.050139
O O9 0.114904 0.285090 0.317857
O O10 0.134948 0.038629 0.430042
O O11 0.837660 0.063822 0.827331
O O12 0.726388 0.042916 0.298604
O O13 0.801341 0.285164 0.330495
O O14 0.000000 0.000000 0.000000
O O15 0.500000 0.000000 0.500000
O O16 0.428813 0.209824 0.757249
O O17 0.186580 0.802015 0.507161
#
# Coordination Sequence:
#
# PCOD9103712 Si02
#       8
#     2   2   2   2   2   2   2   2
#     4  12  24  44  75 102 139 188 238 291 351 428
#     4  10  21  40  65  97 138 181 227 286 344 416
#     4  11  22  43  70 102 143 182 235 290 355 419
#     4  11  27  46  70 101 140 184 233 293 352 414
#     4  12  27  49  73 100 143 188 238 291 355 421
#     4  10  20  38  67  98 139 181 228 282 349 414
#     4  11  25  45  68 102 140 185 235 293 350 417
#     4  11  23  42  70 104 137 182 235 287 353 422
#
# _framework density 23.202684000000001
#
# number of rings (size 3 to 8) (size 9 to 14) (size 15 to 20)
#    0.000    1.000    3.750    2.625    3.500    2.000 
#    4.500    0.000    0.000    0.000    0.000    0.000 
#    0.000    0.000    0.000    0.000    0.000    0.000 
#
# Total GULP energy -89451.380258 kJ/mol
# GULP energy per Si atom -5590.711266 kJ/mol
# Density = 2.314987 g / cm^3
# Si number density = 23.202684 Si / 1000 Ang^3
#
#
#
# Elastic Constant Matrix: (Units=GPa)
#
#
# Indices 1 2 3 4 5 6 
#
# 1 94.6705 28.1753 24.8595 -3.0964 -8.3926 -8.3898
# 2 28.1753 59.1351 15.6797 12.2959 -6.3092 -2.9061
# 3 24.8595 15.6797 117.9054 -4.0392 -4.2660 -7.1347
# 4 -3.0964 12.2959 -4.0392 36.9912 -8.4147 1.8159
# 5 -8.3926 -6.3092 -4.2660 -8.4147 30.1793 -3.3731
# 6 -8.3898 -2.9061 -7.1347 1.8159 -3.3731 35.1372
#
#
#
# Elastic Compliance Matrix: (Units=1/GPa)
#
#
# Indices 1 2 3 4 5 6 
#
# 1 0.013515 -0.006287 -0.001605 0.003727 0.003539 0.002528
# 2 -0.006287 0.022127 -0.001851 -0.008006 0.000429 0.000408
# 3 -0.001605 -0.001851 0.009245 0.001672 0.001092 0.001359
# 4 0.003727 -0.008006 0.001672 0.032143 0.008531 -0.000275
# 5 0.003539 0.000429 0.001092 0.008531 0.037215 0.004234
# 6 0.002528 0.000408 0.001359 -0.000275 0.004234 0.029794
#
#
# Mechanical properties :
#
#
# Convention : Reuss Voigt Hill
#
# Bulk Modulus (GPa) = 39.36753 45.46001 42.41377
# Shear Modulus (GPa) = 29.07102 33.99463 31.53283
#
# Velocity S-wave (km/s) = 3.54350 3.83184 3.69048
# Velocity P-wave (km/s) = 5.80908 6.26198 6.03978
#
# Compressibility (1/GPa) = 0.02540165
#
# Stress axis : x y z
#
# Youngs Moduli (GPa) = 73.99114 45.19319 108.16735
#
# Poissons Ratio (x) = 0.28413 0.17358
# Poissons Ratio (y) = 0.46518 0.20023
# Poissons Ratio (z) = 0.11874 0.08366
#
# Static dielectric constant tensor:
#      x y z
#    x 1.900600 0.034450 -0.027910 
#    y 0.034450 1.878440 -0.015100 
#    z -0.027910 -0.015100 1.929310 
# 
# From -- ./inp_files/542128.got.cif
#   From: 2010.05.17/outbox.cif.g08.bks.cpg/sg2_272_cif.got.tgz:542128.got - 2010.06.03 11:33:40.
