data_PCOD9103691
_publ_section_title
;
Structure prediction by ZEFSAII (Michael W. Deem and Ramdas Pophale) SiO2 
 PCOD9103691
Probable space group: P -1
;
_chemical_formula_sum "Si O2"
_cell_formula_units_Z 12
_cell_length_a 9.897501
_cell_length_b 14.860051
_cell_length_c 7.559113
_cell_angle_alpha 112.453756
_cell_angle_beta 85.539566
_cell_angle_gamma 38.385923
_cell_volume 480.891931
_symmetry_space_group_name_H-M "P -1"
_symmetry_group_IT_number 2
_symmetry_cell_setting 'triclinic'
loop_
_space_group_symop_operation_xyz
x,y,z
-x,-y,-z
loop_
_atom_site_type_symbol
_atom_site_label
_atom_site_fract_x
_atom_site_fract_y
_atom_site_fract_z
Si Si1 0.482209 0.858992 0.246227
Si Si2 0.090718 0.270828 0.777923
Si Si3 0.205373 0.070758 0.070725
Si Si4 0.319487 0.609109 0.873364
Si Si5 0.671207 0.244923 0.714045
Si Si6 0.179336 0.299313 0.415159
O O1 0.769246 0.741022 0.110294
O O2 0.509605 0.740325 0.254674
O O3 0.293585 0.053612 0.526819
O O4 0.327044 0.941596 0.136741
O O5 0.055601 0.353542 0.662586
O O6 0.846815 0.365317 0.970746
O O7 0.154379 0.214616 0.244857
O O8 0.902970 0.228110 0.137736
O O9 0.476058 0.896049 0.775228
O O10 0.369705 0.671167 0.034092
O O11 0.613927 0.359082 0.646494
O O12 0.000000 0.000000 0.500000
O O13 0.000000 0.500000 0.500000
#
# Coordination Sequence:
#
# PCOD9103691 Si02
#       6
#     2   2   2   2   2   2
#     4  10  21  40  67  92 128 162 205 257 312 371
#     4  10  20  38  67  97 120 162 210 256 307 376
#     4  10  22  40  58  96 131 156 205 266 304 365
#     4  11  24  42  66  92 127 163 214 258 308 373
#     4  11  25  43  65  89 123 173 213 252 311 377
#     4  10  22  36  61  98 133 159 200 256 321 367
#
# _framework density 24.953631999999999
#
# number of rings (size 3 to 8) (size 9 to 14) (size 15 to 20)
#    0.000    1.667    1.667    4.000    4.667    1.333 
#    0.000    0.833    0.000    0.000    0.000    0.000 
#    0.000    0.000    0.000    0.000    0.000    0.000 
#
# Total GULP energy -67091.742200 kJ/mol
# GULP energy per Si atom -5590.978517 kJ/mol
# Density = 2.489684 g / cm^3
# Si number density = 24.953632 Si / 1000 Ang^3
#
#
#
# Elastic Constant Matrix: (Units=GPa)
#
#
# Indices 1 2 3 4 5 6 
#
# 1 87.7647 18.4121 13.0805 2.1401 21.7557 1.1704
# 2 18.4121 130.5855 29.4321 -6.2298 11.7527 -7.1107
# 3 13.0805 29.4321 58.5141 5.9341 0.1939 14.4390
# 4 2.1401 -6.2298 5.9341 36.9894 11.2339 2.5449
# 5 21.7557 11.7527 0.1939 11.2339 30.2849 7.2016
# 6 1.1704 -7.1107 14.4390 2.5449 7.2016 51.8992
#
#
#
# Elastic Compliance Matrix: (Units=1/GPa)
#
#
# Indices 1 2 3 4 5 6 
#
# 1 0.015066 0.000371 -0.004520 0.003659 -0.012909 0.002580
# 2 0.000371 0.010128 -0.006583 0.004526 -0.006768 0.003928
# 3 -0.004520 -0.006583 0.024248 -0.007304 0.010409 -0.008632
# 4 0.003659 0.004526 -0.007304 0.033906 -0.017715 0.003365
# 5 -0.012909 -0.006768 0.010409 -0.017715 0.053834 -0.010133
# 6 0.002580 0.003928 -0.008632 0.003365 -0.010133 0.023391
#
#
# Mechanical properties :
#
#
# Convention : Reuss Voigt Hill
#
# Bulk Modulus (GPa) = 35.74114 44.30153 40.02133
# Shear Modulus (GPa) = 26.12849 38.23069 32.17959
#
# Velocity S-wave (km/s) = 3.23937 3.91841 3.59496
# Velocity P-wave (km/s) = 5.32405 6.18579 5.77103
#
# Compressibility (1/GPa) = 0.02797897
#
# Stress axis : x y z
#
# Youngs Moduli (GPa) = 66.37389 98.73520 41.24072
#
# Poissons Ratio (x) = -0.03666 0.18640
# Poissons Ratio (y) = -0.02464 0.27149
# Poissons Ratio (z) = 0.29999 0.64999
#
# Static dielectric constant tensor:
#      x y z
#    x 1.980430 -0.170250 -0.249690 
#    y -0.170250 2.334540 0.399190 
#    z -0.249690 0.399190 2.455050 
# 
# From -- ./inp_files/276838.got.cif
#   From: 2010.05.17/outbox.cif.g08.bks.cpg/sg2_139_cif.got.tgz:276838.got - 2010.06.03 11:33:40.
