data_PCOD9103987
_publ_section_title
;
Structure prediction by ZEFSAII (Michael W. Deem and Ramdas Pophale) SiO2 
 PCOD9103987
Probable space group: P -1
;
_chemical_formula_sum "Si O2"
_cell_formula_units_Z 15
_cell_length_a 17.066520
_cell_length_b 9.211862
_cell_length_c 9.212634
_cell_angle_alpha 130.418524
_cell_angle_beta 37.946573
_cell_angle_gamma 120.906797
_cell_volume 678.056832
_symmetry_space_group_name_H-M "P -1"
_symmetry_group_IT_number 2
_symmetry_cell_setting 'triclinic'
loop_
_space_group_symop_operation_xyz
x,y,z
-x,-y,-z
loop_
_atom_site_type_symbol
_atom_site_label
_atom_site_fract_x
_atom_site_fract_y
_atom_site_fract_z
Si Si1 0.081771 0.620948 0.344207
Si Si2 0.175911 0.853647 0.913899
Si Si3 0.137746 0.927583 0.698839
Si Si4 0.949807 0.689319 0.278862
Si Si5 0.609575 0.845977 0.216346
Si Si6 0.500000 0.500000 0.000000
Si Si7 0.292681 0.316243 0.740601
Si Si8 0.686528 0.523384 0.477298
O O1 0.135320 0.795387 0.475558
O O2 0.000000 0.500000 0.500000
O O3 0.995061 0.681432 0.373830
O O4 0.189265 0.478039 0.035295
O O5 0.182425 0.812583 0.703868
O O6 0.244815 0.680458 0.782053
O O7 0.256534 0.045450 0.939554
O O8 0.031022 0.854090 0.184875
O O9 0.222174 0.116137 0.678603
O O10 0.000000 0.000000 0.000000
O O11 0.798938 0.666914 0.462902
O O12 0.000000 0.500000 0.000000
O O13 0.629037 0.728055 0.259214
O O14 0.500000 0.000000 0.500000
O O15 0.570319 0.706166 0.056708
O O16 0.580283 0.475723 0.717104
O O17 0.364085 0.388674 0.540835
#
# Coordination Sequence:
#
# PCOD9103987 Si02
#       8
#     2   2   2   2   2   1   2   2
#     4  12  22  37  68 104 144 191 225 281 360 419
#     4  10  21  44  71  96 146 181 225 299 350 411
#     4  11  23  38  64 106 147 182 230 285 347 429
#     4  10  20  38  71 101 143 181 224 288 349 416
#     4  11  26  48  73 100 138 185 236 299 358 416
#     4  12  28  46  76  98 134 188 246 286 360 426
#     4  11  25  44  70 100 139 185 237 293 349 425
#     4  11  23  46  70 103 140 188 237 292 347 424
#
# _framework density 22.122038
#
# number of rings (size 3 to 8) (size 9 to 14) (size 15 to 20)
#    0.000    1.067    5.333    2.400    3.733    1.600 
#    0.000    2.667    0.000    0.000    0.000    0.000 
#    0.000    0.000    0.000    0.000    0.000    0.000 
#
# Total GULP energy -83610.748301 kJ/mol
# GULP energy per Si atom -5574.049887 kJ/mol
# Density = 2.207169 g / cm^3
# Si number density = 22.122038 Si / 1000 Ang^3
#
#
#
# Elastic Constant Matrix: (Units=GPa)
#
#
# Indices 1 2 3 4 5 6 
#
# 1 64.5637 31.7368 11.6528 21.6129 5.1100 4.4685
# 2 31.7368 94.6157 34.8269 -10.8436 -0.0790 8.2601
# 3 11.6528 34.8269 57.2336 -13.0568 9.5651 8.2081
# 4 21.6129 -10.8436 -13.0568 51.7768 13.2716 7.9651
# 5 5.1100 -0.0790 9.5651 13.2716 23.2571 7.8209
# 6 4.4685 8.2601 8.2081 7.9651 7.8209 53.9371
#
#
#
# Elastic Compliance Matrix: (Units=1/GPa)
#
#
# Indices 1 2 3 4 5 6 
#
# 1 0.024874 -0.008672 -0.003920 -0.014395 0.003851 0.001431
# 2 -0.008672 0.017048 -0.007783 0.004720 0.003094 -0.001854
# 3 -0.003920 -0.007783 0.028945 0.012053 -0.017217 -0.002172
# 4 -0.014395 0.004720 0.012053 0.035195 -0.020663 -0.003566
# 5 0.003851 0.003094 -0.017217 -0.020663 0.062438 -0.004175
# 6 0.001431 -0.001854 -0.002172 -0.003566 -0.004175 0.020168
#
#
# Mechanical properties :
#
#
# Convention : Reuss Voigt Hill
#
# Bulk Modulus (GPa) = 33.20416 41.42735 37.31576
# Shear Modulus (GPa) = 20.88066 35.00730 27.94398
#
# Velocity S-wave (km/s) = 3.07560 3.98233 3.55797
# Velocity P-wave (km/s) = 5.25876 6.31765 5.81237
#
# Compressibility (1/GPa) = 0.03011671
#
# Stress axis : x y z
#
# Youngs Moduli (GPa) = 40.20302 58.65835 34.54878
#
# Poissons Ratio (x) = 0.50868 0.13544
# Poissons Ratio (y) = 0.34864 0.26888
# Poissons Ratio (z) = 0.15760 0.45652
#
# Static dielectric constant tensor:
#      x y z
#    x 1.880970 0.024720 -0.029010 
#    y 0.024720 1.869810 -0.016930 
#    z -0.029010 -0.016930 1.796310 
# 
# From -- ./inp_files/215479.got.cif
#   From: 2010.05.17/outbox.cif.g08.bks.cpg/sg2_108_cif.got.tgz:215479.got - 2010.06.03 11:33:40.
