data_PCOD9103802
_publ_section_title
;
Structure prediction by ZEFSAII (Michael W. Deem and Ramdas Pophale) SiO2 
 PCOD9103802
Probable space group: P -1
;
_chemical_formula_sum "Si O2"
_cell_formula_units_Z 16
_cell_length_a 22.583770
_cell_length_b 19.071503
_cell_length_c 7.974149
_cell_angle_alpha 33.684052
_cell_angle_beta 140.856827
_cell_angle_gamma 161.430798
_cell_volume 604.890822
_symmetry_space_group_name_H-M "P -1"
_symmetry_group_IT_number 2
_symmetry_cell_setting 'triclinic'
loop_
_space_group_symop_operation_xyz
x,y,z
-x,-y,-z
loop_
_atom_site_type_symbol
_atom_site_label
_atom_site_fract_x
_atom_site_fract_y
_atom_site_fract_z
Si Si1 0.601847 0.784232 0.311179
Si Si2 0.754682 0.601942 0.190632
Si Si3 0.352841 0.876209 0.782268
Si Si4 0.383645 0.269904 0.921781
Si Si5 0.699708 0.292225 0.523247
Si Si6 0.935731 0.925888 0.276444
Si Si7 0.222013 0.494568 0.079189
Si Si8 0.828032 0.209622 0.162506
O O1 0.505747 0.538189 0.621572
O O2 0.650062 0.840733 0.107856
O O3 0.429507 0.676996 0.189525
O O4 0.778487 0.017077 0.356600
O O5 0.534894 0.371138 0.162574
O O6 0.784498 0.487543 0.458571
O O7 0.843081 0.756604 0.244576
O O8 0.857947 0.790677 0.885663
O O9 0.476283 0.044453 0.553124
O O10 0.210672 0.597015 0.982053
O O11 0.261125 0.886026 0.656649
O O12 0.500000 0.000000 0.000000
O O13 0.192603 0.102526 0.908131
O O14 0.741109 0.197131 0.847913
O O15 0.779456 0.438991 0.235228
O O16 0.914065 0.784256 0.641294
O O17 0.000000 0.500000 0.000000
#
# Coordination Sequence:
#
# PCOD9103802 Si02
#       8
#     2   2   2   2   2   2   2   2
#     4  10  21  41  67  99 139 175 225 284 337 415
#     4  11  23  43  68 103 138 178 236 288 337 417
#     4  10  20  38  68  95 122 176 225 271 334 403
#     4  10  22  42  68 102 135 187 226 280 351 401
#     4  11  23  40  70  98 129 175 229 276 347 412
#     4  10  24  41  67 102 139 182 232 286 344 405
#     4  11  20  41  69  96 132 177 228 289 333 406
#     4  11  25  45  67 101 138 178 224 289 347 409
#
# _framework density 26.451053000000002
#
# number of rings (size 3 to 8) (size 9 to 14) (size 15 to 20)
#    0.000    1.500    3.750    2.250    1.750    3.500 
#    4.500    0.625    2.750    0.000    0.000    0.000 
#    0.000    0.000    0.000    0.000    0.000    0.000 
#
# Total GULP energy -89455.201352 kJ/mol
# GULP energy per Si atom -5590.950085 kJ/mol
# Density = 2.639085 g / cm^3
# Si number density = 26.451053 Si / 1000 Ang^3
#
#
#
# Elastic Constant Matrix: (Units=GPa)
#
#
# Indices 1 2 3 4 5 6 
#
# 1 108.2328 21.9859 13.7079 -9.6432 5.3069 -18.7425
# 2 21.9859 89.6281 8.5221 -28.4112 3.4222 -1.7356
# 3 13.7079 8.5221 106.5097 -23.7083 -14.7938 12.9770
# 4 -9.6432 -28.4112 -23.7083 41.0418 -1.4487 0.6449
# 5 5.3069 3.4222 -14.7938 -1.4487 43.0324 -14.5454
# 6 -18.7425 -1.7356 12.9770 0.6449 -14.5454 35.1454
#
#
#
# Elastic Compliance Matrix: (Units=1/GPa)
#
#
# Indices 1 2 3 4 5 6 
#
# 1 0.011136 -0.002563 -0.002102 -0.000465 0.000374 0.006751
# 2 -0.002563 0.015028 0.001653 0.010764 -0.000503 -0.001641
# 3 -0.002102 0.001653 0.012260 0.007912 0.003114 -0.004423
# 4 -0.000465 0.010764 0.007912 0.036398 0.002359 -0.002329
# 5 0.000374 -0.000503 0.003114 0.002359 0.027947 0.010548
# 6 0.006751 -0.001641 -0.004423 -0.002329 0.010548 0.038014
#
#
# Mechanical properties :
#
#
# Convention : Reuss Voigt Hill
#
# Bulk Modulus (GPa) = 30.86344 43.64473 37.25408
# Shear Modulus (GPa) = 31.72477 41.18756 36.45616
#
# Velocity S-wave (km/s) = 3.46696 3.95032 3.71651
# Velocity P-wave (km/s) = 5.26497 6.11087 5.70362
#
# Compressibility (1/GPa) = 0.03240079
#
# Stress axis : x y z
#
# Youngs Moduli (GPa) = 89.80272 66.54148 81.56901
#
# Poissons Ratio (x) = 0.17052 0.17147
# Poissons Ratio (y) = 0.23012 -0.13487
# Poissons Ratio (z) = 0.18878 -0.11002
#
# Static dielectric constant tensor:
#      x y z
#    x 2.157980 0.018640 0.003340 
#    y 0.018640 2.154580 0.006170 
#    z 0.003340 0.006170 2.149730 
# 
# From -- ./inp_files/355254.got.cif
#   From: 2010.05.17/outbox.cif.g08.bks.cpg/sg2_178_cif.got.tgz:355254.got - 2010.06.03 11:33:40.
