data_PCOD9103689
_publ_section_title
;
Structure prediction by ZEFSAII (Michael W. Deem and Ramdas Pophale) SiO2 
 PCOD9103689
Probable space group: P -1
;
_chemical_formula_sum "Si O2"
_cell_formula_units_Z 16
_cell_length_a 8.861410
_cell_length_b 15.848462
_cell_length_c 18.445518
_cell_angle_alpha 149.968642
_cell_angle_beta 38.651480
_cell_angle_gamma 141.422057
_cell_volume 762.103848
_symmetry_space_group_name_H-M "P -1"
_symmetry_group_IT_number 2
_symmetry_cell_setting 'triclinic'
loop_
_space_group_symop_operation_xyz
x,y,z
-x,-y,-z
loop_
_atom_site_type_symbol
_atom_site_label
_atom_site_fract_x
_atom_site_fract_y
_atom_site_fract_z
Si Si1 0.667042 0.038910 0.094588
Si Si2 0.998204 0.024220 0.198679
Si Si3 0.985714 0.338669 0.830535
Si Si4 0.980015 0.582068 0.761950
Si Si5 0.907018 0.982791 0.681217
Si Si6 0.133286 0.433017 0.464873
Si Si7 0.259499 0.394965 0.620832
Si Si8 0.603905 0.782541 0.060666
O O1 0.378950 0.034247 0.198205
O O2 0.843778 0.230795 0.201414
O O3 0.670098 0.878960 0.028402
O O4 0.790244 0.039251 0.969657
O O5 0.944519 0.988783 0.277280
O O6 0.114230 0.235235 0.304985
O O7 0.746166 0.932096 0.177212
O O8 0.698538 0.281248 0.863460
O O9 0.188073 0.392024 0.729668
O O10 0.007755 0.163041 0.730669
O O11 0.000000 0.500000 0.000000
O O12 0.958261 0.431897 0.599311
O O13 0.137103 0.530999 0.729613
O O14 0.721638 0.623032 0.906653
O O15 0.868111 0.801216 0.514934
O O16 0.431152 0.539786 0.452363
O O17 0.000000 0.500000 0.500000
#
# Coordination Sequence:
#
# PCOD9103689 Si02
#       8
#     2   2   2   2   2   2   2   2
#     4  10  20  38  67  96 140 173 211 273 334 388
#     4  11  22  38  68 105 130 171 217 275 339 382
#     4  11  29  48  71  90 127 186 233 269 323 396
#     4  11  21  41  68 100 137 169 215 276 335 393
#     4  11  23  45  65  96 135 176 223 267 337 396
#     4  12  24  38  70 105 140 167 218 267 339 403
#     4  12  26  46  66  98 140 179 214 275 333 396
#     4  10  24  45  66  98 138 175 224 273 326 386
#
# _framework density 20.994513999999999
#
# number of rings (size 3 to 8) (size 9 to 14) (size 15 to 20)
#    0.000    1.000    2.500    4.875   10.500    0.500 
#    0.000    0.625    0.000    0.000    0.000    0.000 
#    0.000    0.000    0.000    0.000    0.000    0.000 
#
# Total GULP energy -89328.392645 kJ/mol
# GULP energy per Si atom -5583.024540 kJ/mol
# Density = 2.094673 g / cm^3
# Si number density = 20.994514 Si / 1000 Ang^3
#
#
#
# Elastic Constant Matrix: (Units=GPa)
#
#
# Indices 1 2 3 4 5 6 
#
# 1 70.1315 12.0502 22.1917 -2.4996 4.9344 -15.9937
# 2 12.0502 23.5441 19.1219 6.4361 -7.4180 1.2605
# 3 22.1917 19.1219 106.4550 14.1319 11.9883 -8.1959
# 4 -2.4996 6.4361 14.1319 22.0290 -2.3683 1.2356
# 5 4.9344 -7.4180 11.9883 -2.3683 39.6603 9.5672
# 6 -15.9937 1.2605 -8.1959 1.2356 9.5672 17.3616
#
#
#
# Elastic Compliance Matrix: (Units=1/GPa)
#
#
# Indices 1 2 3 4 5 6 
#
# 1 0.028246 -0.026536 0.003449 0.004501 -0.018809 0.039620
# 2 -0.026536 0.089379 -0.018388 -0.009655 0.039663 -0.060784
# 3 0.003449 -0.018388 0.016090 -0.007215 -0.014079 0.020380
# 4 0.004501 -0.009655 -0.007215 0.054068 0.004180 -0.004710
# 5 -0.018809 0.039663 -0.014079 0.004180 0.053084 -0.056403
# 6 0.039620 -0.060784 0.020380 -0.004710 -0.056403 0.139547
#
#
# Mechanical properties :
#
#
# Convention : Reuss Voigt Hill
#
# Bulk Modulus (GPa) = 19.69799 34.09537 26.89668
# Shear Modulus (GPa) = 10.41050 25.59462 18.00256
#
# Velocity S-wave (km/s) = 2.22922 3.49536 2.93147
# Velocity P-wave (km/s) = 4.00359 5.70662 4.92921
#
# Compressibility (1/GPa) = 0.05076661
#
# Stress axis : x y z
#
# Youngs Moduli (GPa) = 35.40293 11.18834 62.15147
#
# Poissons Ratio (x) = 0.29689 -0.21437
# Poissons Ratio (y) = 0.93944 1.14281
# Poissons Ratio (z) = -0.12211 0.20573
#
# Static dielectric constant tensor:
#      x y z
#    x 1.818970 0.002750 -0.010840 
#    y 0.002750 1.778690 0.015920 
#    z -0.010840 0.015920 1.747130 
# 
# From -- ./inp_files/226113.got.cif
#   From: 2010.05.17/outbox.cif.g08.bks.cpg/sg2_114_cif.got.tgz:226113.got - 2010.06.03 11:33:40.
