data_PCOD9103109
_publ_section_title
;
Structure prediction by ZEFSAII (Michael W. Deem and Ramdas Pophale) SiO2 
 PCOD9103109
Probable space group: P -1
;
_chemical_formula_sum "Si O2"
_cell_formula_units_Z 16
_cell_length_a 15.181473
_cell_length_b 9.077488
_cell_length_c 8.192099
_cell_angle_alpha 121.645290
_cell_angle_beta 87.394202
_cell_angle_gamma 55.609642
_cell_volume 692.893386
_symmetry_space_group_name_H-M "P -1"
_symmetry_group_IT_number 2
_symmetry_cell_setting 'triclinic'
loop_
_space_group_symop_operation_xyz
x,y,z
-x,-y,-z
loop_
_atom_site_type_symbol
_atom_site_label
_atom_site_fract_x
_atom_site_fract_y
_atom_site_fract_z
Si Si1 0.168870 0.301702 0.354050
Si Si2 0.491788 0.477977 0.680906
Si Si3 0.340865 0.440762 0.899529
Si Si4 0.743316 0.186471 0.588631
Si Si5 0.542847 0.088334 0.922661
Si Si6 0.882757 0.392891 0.159930
Si Si7 0.098187 0.920427 0.754281
Si Si8 0.964844 0.793475 0.531779
O O1 0.130890 0.438608 0.609511
O O2 0.117990 0.176986 0.299236
O O3 0.089260 0.513726 0.351550
O O4 0.312231 0.126120 0.231509
O O5 0.500000 0.500000 0.500000
O O6 0.391506 0.486251 0.770256
O O7 0.623714 0.235795 0.597513
O O8 0.475261 0.691572 0.882857
O O9 0.457355 0.191490 0.830013
O O10 0.232040 0.462683 0.866553
O O11 0.285916 0.643962 0.161488
O O12 0.775759 0.232805 0.442187
O O13 0.870841 0.923193 0.467883
O O14 0.500000 0.000000 0.000000
O O15 0.877339 0.222924 0.168750
O O16 0.017194 0.199281 0.958308
O O17 0.009655 0.921888 0.650897
#
# Coordination Sequence:
#
# PCOD9103109 Si02
#       8
#     2   2   2   2   2   2   2   2
#     4  10  23  41  60  89 135 167 208 253 336 387
#     4  11  25  45  70  98 126 169 224 272 316 382
#     4  11  23  41  72  94 126 175 222 263 320 386
#     4  11  21  39  68  95 123 160 222 268 311 383
#     4  11  26  43  65  96 134 176 212 263 335 393
#     4  10  22  38  64  92 125 165 215 265 318 369
#     4  10  21  37  65  93 124 161 219 269 318 364
#     4  10  20  38  65  86 120 172 206 260 315 383
#
# _framework density 23.091577000000001
#
# number of rings (size 3 to 8) (size 9 to 14) (size 15 to 20)
#    0.000    1.500    1.250    4.125    8.750    0.500 
#    6.750    0.625    0.000    0.000    0.000    0.000 
#    0.000    0.000    0.000    0.000    0.000    0.000 
#
# Total GULP energy -89374.604180 kJ/mol
# GULP energy per Si atom -5585.912761 kJ/mol
# Density = 2.303902 g / cm^3
# Si number density = 23.091577 Si / 1000 Ang^3
#
#
#
# Elastic Constant Matrix: (Units=GPa)
#
#
# Indices 1 2 3 4 5 6 
#
# 1 76.1488 10.9374 27.0749 9.9675 -16.9950 -19.2895
# 2 10.9374 96.3863 16.8885 7.5033 -11.1087 -26.7036
# 3 27.0749 16.8885 82.2100 -3.0740 -25.7826 -6.1201
# 4 9.9675 7.5033 -3.0740 28.1728 -1.4791 -6.2744
# 5 -16.9950 -11.1087 -25.7826 -1.4791 33.1830 0.9160
# 6 -19.2895 -26.7036 -6.1201 -6.2744 0.9160 47.2010
#
#
#
# Elastic Compliance Matrix: (Units=1/GPa)
#
#
# Indices 1 2 3 4 5 6 
#
# 1 0.018244 0.001756 -0.004058 -0.005457 0.006340 0.007075
# 2 0.001756 0.013177 -0.001649 -0.002431 0.003713 0.007564
# 3 -0.004058 -0.001649 0.017509 0.004382 0.011168 0.000045
# 4 -0.005457 -0.002431 0.004382 0.039104 0.001480 0.002132
# 5 0.006340 0.003713 0.011168 0.001480 0.043217 0.005497
# 6 0.007075 0.007564 0.000045 0.002132 0.005497 0.028539
#
#
# Mechanical properties :
#
#
# Convention : Reuss Voigt Hill
#
# Bulk Modulus (GPa) = 24.37322 40.50517 32.43920
# Shear Modulus (GPa) = 27.56821 35.03432 31.30126
#
# Velocity S-wave (km/s) = 3.45898 3.89934 3.68574
# Velocity P-wave (km/s) = 5.15080 6.15242 5.67376
#
# Compressibility (1/GPa) = 0.04102863
#
# Stress axis : x y z
#
# Youngs Moduli (GPa) = 54.81154 75.88875 57.11412
#
# Poissons Ratio (x) = -0.13329 0.23179
# Poissons Ratio (y) = -0.09627 0.09418
# Poissons Ratio (z) = 0.22244 0.12514
#
# Static dielectric constant tensor:
#      x y z
#    x 1.883710 0.022140 -0.025440 
#    y 0.022140 1.968740 -0.001610 
#    z -0.025440 -0.001610 1.891390 
# 
# From -- ./inp_files/299484.got.cif
#   From: 2010.05.17/outbox.cif.g08.bks.cpg/sg2_150_cif.got.tgz:299484.got - 2010.06.03 11:33:40.
