data_PCOD9103742
_publ_section_title
;
Structure prediction by ZEFSAII (Michael W. Deem and Ramdas Pophale) SiO2 
 PCOD9103742
Probable space group: P -1
;
_chemical_formula_sum "Si O2"
_cell_formula_units_Z 14
_cell_length_a 9.756061
_cell_length_b 11.954416
_cell_length_c 6.786744
_cell_angle_alpha 63.579158
_cell_angle_beta 54.341097
_cell_angle_gamma 92.055575
_cell_volume 526.393009
_symmetry_space_group_name_H-M "P -1"
_symmetry_group_IT_number 2
_symmetry_cell_setting 'triclinic'
loop_
_space_group_symop_operation_xyz
x,y,z
-x,-y,-z
loop_
_atom_site_type_symbol
_atom_site_label
_atom_site_fract_x
_atom_site_fract_y
_atom_site_fract_z
Si Si1 0.491935 0.178782 0.495741
Si Si2 0.891971 0.594201 0.045942
Si Si3 0.750203 0.152442 0.544410
Si Si4 0.259868 0.857339 0.931687
Si Si5 0.837617 0.723429 0.362541
Si Si6 0.497047 0.175384 0.990183
Si Si7 0.629225 0.591472 0.989023
O O1 0.337124 0.243416 0.572508
O O2 0.553577 0.198745 0.175626
O O3 0.554389 0.190069 0.683369
O O4 0.367190 0.018453 0.721032
O O5 0.699422 0.519360 0.151704
O O6 0.031140 0.745934 0.737361
O O7 0.841684 0.607978 0.301075
O O8 0.000000 0.500000 0.000000
O O9 0.721654 0.174711 0.806883
O O10 0.665102 0.983226 0.746177
O O11 0.716634 0.183355 0.298597
O O12 0.045073 0.833475 0.106828
O O13 0.809008 0.669804 0.648335
O O14 0.432172 0.299863 0.946784
O O15 0.500000 0.500000 0.000000
#
# Coordination Sequence:
#
# PCOD9103742 Si02
#       7
#     2   2   2   2   2   2   2
#     4  10  20  38  68 106 145 183 232 299 365 440
#     4  12  30  48  73 110 149 198 251 311 371 449
#     4  10  22  44  73 104 148 193 242 311 373 434
#     4  10  20  38  68 106 145 183 232 299 365 440
#     4  12  25  44  76 104 145 202 248 300 370 444
#     4  10  22  44  73 104 148 193 242 311 373 434
#     4  12  30  48  73 110 149 198 251 311 371 449
#
# _framework density 26.596094999999998
#
# number of rings (size 3 to 8) (size 9 to 14) (size 15 to 20)
#    0.000    1.143    2.857    2.143    6.000    2.857 
#    0.000    0.000    0.000    0.000    0.000    0.000 
#    0.000    0.000    0.000    0.000    0.000    0.000 
#
# Total GULP energy -78009.315194 kJ/mol
# GULP energy per Si atom -5572.093942 kJ/mol
# Density = 2.653556 g / cm^3
# Si number density = 26.596095 Si / 1000 Ang^3
#
#
#
# Elastic Constant Matrix: (Units=GPa)
#
#
# Indices 1 2 3 4 5 6 
#
# 1 190.3058 66.3499 30.4372 16.4729 27.8900 31.4319
# 2 66.3499 153.7293 26.5278 49.7686 -1.7861 -13.6529
# 3 30.4372 26.5278 122.9439 40.3168 -3.4643 11.2344
# 4 16.4729 49.7686 40.3168 58.9073 9.2089 1.3646
# 5 27.8900 -1.7861 -3.4643 9.2089 57.8079 4.0399
# 6 31.4319 -13.6529 11.2344 1.3646 4.0399 47.5097
#
#
#
# Elastic Compliance Matrix: (Units=1/GPa)
#
#
# Indices 1 2 3 4 5 6 
#
# 1 0.009013 -0.005694 -0.002025 0.004600 -0.004901 -0.006836
# 2 -0.005694 0.013082 0.001894 -0.011643 0.004629 0.007019
# 3 -0.002025 0.001894 0.011470 -0.009377 0.003275 -0.000838
# 4 0.004600 -0.011643 -0.009377 0.033319 -0.008139 -0.004437
# 5 -0.004901 0.004629 0.003275 -0.008139 0.021143 0.002234
# 6 -0.006836 0.007019 -0.000838 -0.004437 0.002234 0.027723
#
#
# Mechanical properties :
#
#
# Convention : Reuss Voigt Hill
#
# Bulk Modulus (GPa) = 45.63013 79.28987 62.46000
# Shear Modulus (GPa) = 37.11835 55.75591 46.43713
#
# Velocity S-wave (km/s) = 3.73987 4.58361 4.18307
# Velocity P-wave (km/s) = 5.98688 7.60854 6.84590
#
# Compressibility (1/GPa) = 0.02191534
#
# Stress axis : x y z
#
# Youngs Moduli (GPa) = 110.95446 76.44068 87.18286
#
# Poissons Ratio (x) = 0.43524 0.17653
# Poissons Ratio (y) = 0.63176 -0.16512
# Poissons Ratio (z) = 0.22466 -0.14477
#
# Static dielectric constant tensor:
#      x y z
#    x 2.326450 0.054850 0.270260 
#    y 0.054850 2.008900 0.146520 
#    z 0.270260 0.146520 2.360240 
# 
# From -- ./inp_files/65798.got.cif
#   From: 2010.05.17/outbox.cif.g08.bks.cpg/sg2_33_cif.got.tgz:65798.got - 2010.06.03 11:33:40.
