data_PCOD9103398
_publ_section_title
;
Structure prediction by ZEFSAII (Michael W. Deem and Ramdas Pophale) SiO2 
 PCOD9103398
Probable space group: P -1
;
_chemical_formula_sum "Si O2"
_cell_formula_units_Z 16
_cell_length_a 16.306469
_cell_length_b 22.072421
_cell_length_c 9.490584
_cell_angle_alpha 44.400523
_cell_angle_beta 45.158903
_cell_angle_gamma 20.205617
_cell_volume 816.951643
_symmetry_space_group_name_H-M "P -1"
_symmetry_group_IT_number 2
_symmetry_cell_setting 'triclinic'
loop_
_space_group_symop_operation_xyz
x,y,z
-x,-y,-z
loop_
_atom_site_type_symbol
_atom_site_label
_atom_site_fract_x
_atom_site_fract_y
_atom_site_fract_z
Si Si1 0.089396 0.060939 0.823551
Si Si2 0.693796 0.243314 0.817414
Si Si3 0.687559 0.902010 0.814273
Si Si4 0.595555 0.151121 0.470684
Si Si5 0.239945 0.163853 0.473951
Si Si6 0.925284 0.455782 0.602680
Si Si7 0.967599 0.112480 0.426081
Si Si8 0.138429 0.632510 0.917612
O O1 0.251608 0.921558 0.727798
O O2 0.136931 0.132174 0.662946
O O3 0.188779 0.930712 0.038300
O O4 0.823921 0.211350 0.840032
O O5 0.781609 0.228621 0.589495
O O6 0.408372 0.432284 0.873256
O O7 0.740549 0.818400 0.742341
O O8 0.944021 0.747381 0.836687
O O9 0.563269 0.070208 0.625115
O O10 0.500000 0.000000 0.000000
O O11 0.347811 0.361320 0.422900
O O12 0.766489 0.045668 0.572139
O O13 0.079117 0.329380 0.491857
O O14 0.500000 0.000000 0.500000
O O15 0.000000 0.500000 0.500000
O O16 0.937387 0.377989 0.842884
O O17 0.884309 0.250824 0.209583
O O18 0.000000 0.000000 0.500000
#
# Coordination Sequence:
#
# PCOD9103398 Si02
#       8
#     2   2   2   2   2   2   2   2
#     4   9  19  39  62  92 121 168 211 262 314 383
#     4  10  20  38  66  88 128 168 212 257 325 381
#     4  10  21  43  64  89 127 168 211 266 327 379
#     4   9  19  39  60  84 121 166 202 255 316 374
#     4  11  24  40  66  93 129 170 221 264 326 384
#     4  12  24  41  65  95 126 166 219 270 314 384
#     4  10  23  38  58  91 132 160 204 262 323 383
#     4  11  23  40  67  93 124 173 212 265 329 383
#
# _framework density 19.585001999999999
#
# number of rings (size 3 to 8) (size 9 to 14) (size 15 to 20)
#    0.000    1.750    1.250    4.125    1.750    2.000 
#    0.000    3.750    0.000    0.000    0.000    0.000 
#    0.000    0.000    0.000    0.000    0.000    0.000 
#
# Total GULP energy -89165.320437 kJ/mol
# GULP energy per Si atom -5572.832527 kJ/mol
# Density = 1.954043 g / cm^3
# Si number density = 19.585002 Si / 1000 Ang^3
#
#
#
# Elastic Constant Matrix: (Units=GPa)
#
#
# Indices 1 2 3 4 5 6 
#
# 1 91.3094 47.3421 27.7509 6.8643 -1.6058 13.3332
# 2 47.3421 114.4749 22.0851 5.4294 16.7847 -4.3645
# 3 27.7509 22.0851 115.5319 -3.1720 -2.9792 9.4807
# 4 6.8643 5.4294 -3.1720 23.1621 -0.5275 -2.6935
# 5 -1.6058 16.7847 -2.9792 -0.5275 25.4917 -1.6685
# 6 13.3332 -4.3645 9.4807 -2.6935 -1.6685 31.3812
#
#
#
# Elastic Compliance Matrix: (Units=1/GPa)
#
#
# Indices 1 2 3 4 5 6 
#
# 1 0.016992 -0.007490 -0.001999 -0.004338 0.005171 -0.007755
# 2 -0.007490 0.013726 -0.001498 -0.000838 -0.009376 0.004973
# 3 -0.001999 -0.001498 0.009693 0.002081 0.001905 -0.002007
# 4 -0.004338 -0.000838 0.002081 0.045576 0.001799 0.005105
# 5 0.005171 -0.009376 0.001905 0.001799 0.045891 -0.001482
# 6 -0.007755 0.004973 -0.002007 0.005105 -0.001482 0.036818
#
#
# Mechanical properties :
#
#
# Convention : Reuss Voigt Hill
#
# Bulk Modulus (GPa) = 54.23562 57.29693 55.76628
# Shear Modulus (GPa) = 25.40456 30.94955 28.17706
#
# Velocity S-wave (km/s) = 3.60550 3.97957 3.79714
# Velocity P-wave (km/s) = 6.71456 7.10176 6.91087
#
# Compressibility (1/GPa) = 0.01843807
#
# Stress axis : x y z
#
# Youngs Moduli (GPa) = 58.85150 72.85428 103.16595
#
# Poissons Ratio (x) = 0.54564 0.20625
# Poissons Ratio (y) = 0.44077 0.15452
# Poissons Ratio (z) = 0.11765 0.10912
#
# Static dielectric constant tensor:
#      x y z
#    x 1.775000 0.017230 0.009780 
#    y 0.017230 1.713150 0.014720 
#    z 0.009780 0.014720 1.772940 
# 
# From -- ./inp_files/225190.got.cif
#   From: 2010.05.17/outbox.cif.g08.bks.cpg/sg2_113_cif.got.tgz:225190.got - 2010.06.03 11:33:40.
