data_PCOD9103025
_publ_section_title
;
Structure prediction by ZEFSAII (Michael W. Deem and Ramdas Pophale) SiO2 
 PCOD9103025
Probable space group: P -1
;
_chemical_formula_sum "Si O2"
_cell_formula_units_Z 14
_cell_length_a 12.165577
_cell_length_b 8.029933
_cell_length_c 9.320207
_cell_angle_alpha 126.430770
_cell_angle_beta 57.002088
_cell_angle_gamma 90.223407
_cell_volume 541.141617
_symmetry_space_group_name_H-M "P -1"
_symmetry_group_IT_number 2
_symmetry_cell_setting 'triclinic'
loop_
_space_group_symop_operation_xyz
x,y,z
-x,-y,-z
loop_
_atom_site_type_symbol
_atom_site_label
_atom_site_fract_x
_atom_site_fract_y
_atom_site_fract_z
Si Si1 0.161009 0.578687 0.679139
Si Si2 0.376140 0.315352 0.634424
Si Si3 0.446559 0.096652 0.923176
Si Si4 0.892312 0.752767 0.136847
Si Si5 0.365600 0.659071 0.032683
Si Si6 0.173156 0.159884 0.285447
Si Si7 0.849437 0.230255 0.509150
O O1 0.269050 0.523788 0.708824
O O2 0.173718 0.328185 0.498089
O O3 0.213455 0.667413 0.550143
O O4 0.989899 0.751347 0.930435
O O5 0.267899 0.234899 0.753177
O O6 0.486515 0.106473 0.347026
O O7 0.437641 0.432439 0.764210
O O8 0.518004 0.269403 0.942184
O O9 0.270174 0.195091 0.109806
O O10 0.500000 0.000000 0.000000
O O11 0.877558 0.963906 0.354814
O O12 0.000000 0.500000 0.000000
O O13 0.254618 0.644849 0.219847
O O14 0.258140 0.888749 0.132195
O O15 0.004705 0.233865 0.408317
#
# Coordination Sequence:
#
# PCOD9103025 Si02
#       7
#     2   2   2   2   2   2   2
#     4  11  22  39  63  99 137 169 209 282 332 387
#     4  11  21  42  70  99 126 173 228 270 320 390
#     4  10  21  42  67  95 132 169 227 275 311 388
#     4  10  20  38  64  96 130 166 222 272 313 385
#     4  11  22  41  71  98 124 175 225 270 323 387
#     4  11  22  40  64  96 133 169 224 265 325 388
#     4  12  23  40  66 101 135 170 213 276 341 383
#
# _framework density 25.871231999999999
#
# number of rings (size 3 to 8) (size 9 to 14) (size 15 to 20)
#    0.000    1.143    4.286    4.714    0.000    2.286 
#    2.571    0.714    0.000    1.714    0.000    3.000 
#    0.000    0.000    0.000    0.000    0.000    0.000 
#
# Total GULP energy -78489.426135 kJ/mol
# GULP energy per Si atom -5606.387581 kJ/mol
# Density = 2.581235 g / cm^3
# Si number density = 25.871232 Si / 1000 Ang^3
#
#
#
# Elastic Constant Matrix: (Units=GPa)
#
#
# Indices 1 2 3 4 5 6 
#
# 1 112.0019 45.1195 69.6685 -2.9818 -8.7703 14.2123
# 2 45.1195 100.7065 43.4095 -15.9251 4.7169 16.4491
# 3 69.6685 43.4095 206.8953 -5.8345 7.5536 26.5447
# 4 -2.9818 -15.9251 -5.8345 51.4502 17.5109 0.2746
# 5 -8.7703 4.7169 7.5536 17.5109 51.1084 -3.5753
# 6 14.2123 16.4491 26.5447 0.2746 -3.5753 26.8712
#
#
#
# Elastic Compliance Matrix: (Units=1/GPa)
#
#
# Indices 1 2 3 4 5 6 
#
# 1 0.013562 -0.005128 -0.003760 -0.002692 0.004298 0.000279
# 2 -0.005128 0.014516 -0.000121 0.005805 -0.004662 -0.006733
# 3 -0.003760 -0.000121 0.006911 0.001405 -0.002494 -0.005111
# 4 -0.002692 0.005805 0.001405 0.024672 -0.010015 -0.005102
# 5 0.004298 -0.004662 -0.002494 -0.010015 0.024987 0.006471
# 6 0.000279 -0.006733 -0.005111 -0.005102 0.006471 0.047151
#
#
# Mechanical properties :
#
#
# Convention : Reuss Voigt Hill
#
# Bulk Modulus (GPa) = 58.92289 81.77764 70.35027
# Shear Modulus (GPa) = 32.15975 43.31302 37.73639
#
# Velocity S-wave (km/s) = 3.52954 4.09611 3.82334
# Velocity P-wave (km/s) = 6.27974 7.35180 6.83681
#
# Compressibility (1/GPa) = 0.01697133
#
# Stress axis : x y z
#
# Youngs Moduli (GPa) = 73.73320 68.89085 144.69463
#
# Poissons Ratio (x) = 0.35330 0.54399
# Poissons Ratio (y) = 0.37814 0.01749
# Poissons Ratio (z) = 0.27721 0.00833
#
# Static dielectric constant tensor:
#      x y z
#    x 2.013720 -0.035850 -0.012560 
#    y -0.035850 2.072800 -0.010840 
#    z -0.012560 -0.010840 2.024690 
# 
# From -- ./inp_files/296328.got.cif
#   From: 2010.05.17/outbox.cif.g08.bks.cpg/sg2_149_cif.got.tgz:296328.got - 2010.06.03 11:33:40.
