data_PCOD9103196
_publ_section_title
;
Structure prediction by ZEFSAII (Michael W. Deem and Ramdas Pophale) SiO2 
 PCOD9103196
Probable space group: P -1
;
_chemical_formula_sum "Si O2"
_cell_formula_units_Z 16
_cell_length_a 16.499779
_cell_length_b 5.328678
_cell_length_c 14.484097
_cell_angle_alpha 80.358767
_cell_angle_beta 147.644921
_cell_angle_gamma 105.257023
_cell_volume 653.780345
_symmetry_space_group_name_H-M "P -1"
_symmetry_group_IT_number 2
_symmetry_cell_setting 'triclinic'
loop_
_space_group_symop_operation_xyz
x,y,z
-x,-y,-z
loop_
_atom_site_type_symbol
_atom_site_label
_atom_site_fract_x
_atom_site_fract_y
_atom_site_fract_z
Si Si1 0.578957 0.401215 0.224968
Si Si2 0.294138 0.071776 0.047071
Si Si3 0.363188 0.539482 0.230039
Si Si4 0.222685 0.117088 0.598763
Si Si5 0.624860 0.849404 0.580659
Si Si6 0.801879 0.229793 0.586550
Si Si7 0.826918 0.356283 0.309912
Si Si8 0.950332 0.322934 0.252014
O O1 0.600794 0.712151 0.238586
O O2 0.657053 0.341067 0.401741
O O3 0.686041 0.397166 0.237018
O O4 0.421078 0.183784 0.083169
O O5 0.314245 0.807622 0.136914
O O6 0.322251 0.326340 0.123036
O O7 0.127024 0.952269 0.850524
O O8 0.537745 0.666315 0.425412
O O9 0.308609 0.345080 0.276984
O O10 0.096884 0.288531 0.455610
O O11 0.190035 0.942470 0.486398
O O12 0.185570 0.949246 0.664814
O O13 0.500000 0.000000 0.500000
O O14 0.754194 0.067310 0.642357
O O15 0.961624 0.444103 0.742386
O O16 0.826839 0.403278 0.197798
O O17 0.000000 0.500000 0.500000
#
# Coordination Sequence:
#
# PCOD9103196 Si02
#       8
#     2   2   2   2   2   2   2   2
#     4  10  21  37  64  90 129 168 222 274 318 384
#     4  12  26  45  63  99 140 178 209 267 345 392
#     4  11  24  42  69  96 135 168 215 273 326 393
#     4  10  20  38  65  92 124 173 225 276 311 382
#     4  11  21  42  75 103 125 164 228 275 323 383
#     4  10  20  39  65  98 121 166 223 267 323 388
#     4  11  20  38  63  96 125 168 230 278 314 370
#     4  11  25  39  64  91 135 176 216 265 334 397
#
# _framework density 24.473051000000002
#
# number of rings (size 3 to 8) (size 9 to 14) (size 15 to 20)
#    0.000    1.250    6.250    1.125    3.500    3.500 
#    0.000    1.875    0.000    0.000    0.000    0.000 
#    0.000    0.000    0.000    0.000    0.000    0.000 
#
# Total GULP energy -89140.751788 kJ/mol
# GULP energy per Si atom -5571.296987 kJ/mol
# Density = 2.441735 g / cm^3
# Si number density = 24.473051 Si / 1000 Ang^3
#
#
#
# Elastic Constant Matrix: (Units=GPa)
#
#
# Indices 1 2 3 4 5 6 
#
# 1 68.0673 42.8342 40.0094 18.0362 -1.1793 15.6069
# 2 42.8342 149.3468 45.7026 34.0179 14.0218 34.8559
# 3 40.0094 45.7026 80.9608 40.6316 2.9554 13.2703
# 4 18.0362 34.0179 40.6316 50.4958 5.2488 3.7170
# 5 -1.1793 14.0218 2.9554 5.2488 21.5283 18.9950
# 6 15.6069 34.8559 13.2703 3.7170 18.9950 51.7943
#
#
#
# Elastic Compliance Matrix: (Units=1/GPa)
#
#
# Indices 1 2 3 4 5 6 
#
# 1 0.023992 -0.003709 -0.009715 0.001139 0.010110 -0.006034
# 2 -0.003709 0.010276 -0.000998 -0.004285 -0.001620 -0.004641
# 3 -0.009715 -0.000998 0.027061 -0.017772 0.003774 -0.003443
# 4 0.001139 -0.004285 -0.017772 0.037130 -0.011335 0.008587
# 5 0.010110 -0.001620 0.003774 -0.011335 0.077121 -0.030393
# 6 -0.006034 -0.004641 -0.003443 0.008587 -0.030393 0.035661
#
#
# Mechanical properties :
#
#
# Convention : Reuss Voigt Hill
#
# Bulk Modulus (GPa) = 30.78090 61.71859 46.24974
# Shear Modulus (GPa) = 19.92722 36.08560 28.00641
#
# Velocity S-wave (km/s) = 2.85660 3.84409 3.38653
# Velocity P-wave (km/s) = 4.84613 6.70645 5.85071
#
# Compressibility (1/GPa) = 0.03248768
#
# Stress axis : x y z
#
# Youngs Moduli (GPa) = 41.68022 97.31308 36.95308
#
# Poissons Ratio (x) = 0.36091 0.35899
# Poissons Ratio (y) = 0.15458 0.03686
# Poissons Ratio (z) = 0.40491 0.09708
#
# Static dielectric constant tensor:
#      x y z
#    x 2.066430 -0.072690 0.046990 
#    y -0.072690 2.074270 -0.032130 
#    z 0.046990 -0.032130 1.970300 
# 
# From -- ./inp_files/43352.got.cif
#   From: 2010.05.17/outbox.cif.g08.bks.cpg/sg2_22_cif.got.tgz:43352.got - 2010.06.03 11:33:40.
