data_PCOD9103427
_publ_section_title
;
Structure prediction by ZEFSAII (Michael W. Deem and Ramdas Pophale) SiO2 
 PCOD9103427
Probable space group: P -1
;
_chemical_formula_sum "Si O2"
_cell_formula_units_Z 16
_cell_length_a 9.399873
_cell_length_b 15.915393
_cell_length_c 8.116008
_cell_angle_alpha 74.280853
_cell_angle_beta 83.881335
_cell_angle_gamma 38.600504
_cell_volume 717.916399
_symmetry_space_group_name_H-M "P -1"
_symmetry_group_IT_number 2
_symmetry_cell_setting 'triclinic'
loop_
_space_group_symop_operation_xyz
x,y,z
-x,-y,-z
loop_
_atom_site_type_symbol
_atom_site_label
_atom_site_fract_x
_atom_site_fract_y
_atom_site_fract_z
Si Si1 0.181374 0.408712 0.378574
Si Si2 0.957093 0.950734 0.178004
Si Si3 0.843379 0.460931 0.199749
Si Si4 0.771043 0.880261 0.036150
Si Si5 0.189738 0.157092 0.311302
Si Si6 0.428669 0.893562 0.627930
Si Si7 0.191224 0.579481 0.152150
Si Si8 0.602422 0.374774 0.674985
O O1 0.401215 0.239498 0.445701
O O2 0.281366 0.456174 0.311928
O O3 0.000000 0.500000 0.500000
O O4 0.022938 0.452418 0.219370
O O5 0.188876 0.792688 0.307648
O O6 0.759230 0.074333 0.268208
O O7 0.832427 0.928663 0.120846
O O8 0.000000 0.000000 0.000000
O O9 0.608577 0.584235 0.261455
O O10 0.974831 0.311581 0.332302
O O11 0.794334 0.458339 0.018497
O O12 0.864836 0.854070 0.855036
O O13 0.918842 0.724649 0.150964
O O14 0.500000 0.000000 0.000000
O O15 0.386419 0.137709 0.272678
O O16 0.283496 0.036512 0.476391
O O17 0.310890 0.610629 0.182873
O O18 0.500000 0.500000 0.500000
#
# Coordination Sequence:
#
# PCOD9103427 Si02
#       8
#     2   2   2   2   2   2   2   2
#     4  11  24  39  61  95 127 164 212 273 330 370
#     4  11  25  42  64  98 134 171 211 264 328 386
#     4  10  21  40  65  91 124 166 214 268 320 377
#     4  10  20  38  66  91 121 164 217 264 314 382
#     4   9  19  38  65  94 117 166 217 265 314 373
#     4  10  21  39  63  91 132 162 209 268 318 380
#     4  10  23  39  62  93 125 166 218 259 317 392
#     4  11  23  42  67  90 131 177 216 260 317 396
#
# _framework density 22.286715999999998
#
# number of rings (size 3 to 8) (size 9 to 14) (size 15 to 20)
#    0.000    1.750    1.250    2.250    3.500    3.000 
#    2.250    0.625    0.000    0.000    0.000    0.000 
#    0.000    0.000    0.000    0.000    0.000    0.000 
#
# Total GULP energy -89191.854164 kJ/mol
# GULP energy per Si atom -5574.490885 kJ/mol
# Density = 2.223599 g / cm^3
# Si number density = 22.286716 Si / 1000 Ang^3
#
#
#
# Elastic Constant Matrix: (Units=GPa)
#
#
# Indices 1 2 3 4 5 6 
#
# 1 34.5723 19.7117 -0.4389 -3.8231 -6.4649 -14.4846
# 2 19.7117 123.5340 29.1349 3.7663 -10.5908 -22.6899
# 3 -0.4389 29.1349 47.6843 -3.9686 -2.1151 -2.4461
# 4 -3.8231 3.7663 -3.9686 28.7162 0.3801 1.6917
# 5 -6.4649 -10.5908 -2.1151 0.3801 33.4099 4.2754
# 6 -14.4846 -22.6899 -2.4461 1.6917 4.2754 32.9516
#
#
#
# Elastic Compliance Matrix: (Units=1/GPa)
#
#
# Indices 1 2 3 4 5 6 
#
# 1 0.038608 -0.004553 0.004480 0.005513 0.004547 0.013295
# 2 -0.004553 0.011785 -0.007172 -0.003492 0.001732 0.005535
# 3 0.004480 -0.007172 0.025770 0.005175 0.000341 -0.001366
# 4 0.005513 -0.003492 0.005175 0.036818 0.000060 -0.001495
# 5 0.004547 0.001732 0.000341 0.000060 0.031493 -0.000873
# 6 0.013295 0.005535 -0.001366 -0.001495 -0.000873 0.040092
#
#
# Mechanical properties :
#
#
# Convention : Reuss Voigt Hill
#
# Bulk Modulus (GPa) = 16.21484 33.62288 24.91886
# Shear Modulus (GPa) = 22.76725 29.50773 26.13749
#
# Velocity S-wave (km/s) = 3.19965 3.64264 3.42831
# Velocity P-wave (km/s) = 4.57622 5.72809 5.18424
#
# Compressibility (1/GPa) = 0.06167190
#
# Stress axis : x y z
#
# Youngs Moduli (GPa) = 25.90140 84.85617 38.80428
#
# Poissons Ratio (x) = 0.38638 -0.17384
# Poissons Ratio (y) = 0.11794 0.27831
# Poissons Ratio (z) = -0.11604 0.60860
#
# Static dielectric constant tensor:
#      x y z
#    x 1.868980 0.004550 -0.092710 
#    y 0.004550 1.868130 -0.034400 
#    z -0.092710 -0.034400 2.131110 
# 
# From -- ./inp_files/206324.got.cif
#   From: 2010.05.17/outbox.cif.g08.bks.cpg/sg2_104_cif.got.tgz:206324.got - 2010.06.03 11:33:40.
