data_PCOD9103800
_publ_section_title
;
Structure prediction by ZEFSAII (Michael W. Deem and Ramdas Pophale) SiO2 
 PCOD9103800
Probable space group: P -1
;
_chemical_formula_sum "Si O2"
_cell_formula_units_Z 16
_cell_length_a 27.232830
_cell_length_b 5.040060
_cell_length_c 11.594637
_cell_angle_alpha 51.528263
_cell_angle_beta 31.912053
_cell_angle_gamma 56.598065
_cell_volume 657.663654
_symmetry_space_group_name_H-M "P -1"
_symmetry_group_IT_number 2
_symmetry_cell_setting 'triclinic'
loop_
_space_group_symop_operation_xyz
x,y,z
-x,-y,-z
loop_
_atom_site_type_symbol
_atom_site_label
_atom_site_fract_x
_atom_site_fract_y
_atom_site_fract_z
Si Si1 0.230731 0.266636 0.772588
Si Si2 0.892381 0.985765 0.748613
Si Si3 0.202394 0.173868 0.477227
Si Si4 0.622500 0.202221 0.727866
Si Si5 0.376886 0.716115 0.712581
Si Si6 0.790317 0.661289 0.847800
Si Si7 0.481875 0.230600 0.788766
Si Si8 0.890372 0.504088 0.224063
O O1 0.307517 0.498945 0.500304
O O2 0.167410 0.186239 0.809740
O O3 0.299612 0.020070 0.777522
O O4 0.145325 0.330216 0.016576
O O5 0.836650 0.942469 0.753425
O O6 0.859557 0.322430 0.794973
O O7 0.000000 0.000000 0.500000
O O8 0.221690 0.250572 0.285648
O O9 0.141828 0.450449 0.593217
O O10 0.302990 0.115324 0.353370
O O11 0.144979 0.832401 0.675717
O O12 0.548589 0.266291 0.756254
O O13 0.573433 0.097928 0.973206
O O14 0.419512 0.570587 0.786603
O O15 0.455793 0.808438 0.439917
O O16 0.311841 0.417005 0.880055
O O17 0.000000 0.500000 0.000000
#
# Coordination Sequence:
#
# PCOD9103800 Si02
#       8
#     2   2   2   2   2   2   2   2
#     4  10  24  42  66  98 142 180 234 294 354 414
#     4  11  25  43  68 101 134 183 235 288 343 418
#     4  11  23  43  68  97 141 180 227 285 351 407
#     4  10  21  40  64 100 135 185 227 289 354 409
#     4  10  21  40  64 100 135 185 227 289 354 409
#     4  11  23  43  68  97 141 180 227 285 351 407
#     4  10  20  38  68  94 138 178 238 286 340 436
#     4  11  25  43  68 101 134 183 235 288 343 418
#
# _framework density 24.328544000000001
#
# number of rings (size 3 to 8) (size 9 to 14) (size 15 to 20)
#    0.000    1.500    1.250    3.000    3.500    4.000 
#    0.000    2.500    0.000    0.000    0.000    0.000 
#    0.000    0.000    0.000    0.000    0.000    0.000 
#
# Total GULP energy -89130.808270 kJ/mol
# GULP energy per Si atom -5570.675517 kJ/mol
# Density = 2.427317 g / cm^3
# Si number density = 24.328544 Si / 1000 Ang^3
#
#
#
# Elastic Constant Matrix: (Units=GPa)
#
#
# Indices 1 2 3 4 5 6 
#
# 1 122.4727 30.0645 83.0239 -12.3923 7.0109 -11.6027
# 2 30.0645 36.2661 47.1355 -8.5237 5.2155 -0.9627
# 3 83.0239 47.1355 200.8763 0.7373 2.8759 -24.6484
# 4 -12.3923 -8.5237 0.7373 24.3369 -6.1540 6.6339
# 5 7.0109 5.2155 2.8759 -6.1540 43.9179 1.3787
# 6 -11.6027 -0.9627 -24.6484 6.6339 1.3787 31.1682
#
#
#
# Elastic Compliance Matrix: (Units=1/GPa)
#
#
# Indices 1 2 3 4 5 6 
#
# 1 0.012533 -0.003368 -0.004400 0.005186 -0.000586 0.000004
# 2 -0.003368 0.050741 -0.012219 0.019722 -0.001501 -0.013481
# 3 -0.004400 -0.012219 0.010733 -0.009168 -0.000099 0.008428
# 4 0.005186 0.019722 -0.009168 0.057093 0.005968 -0.017126
# 5 -0.000586 -0.001501 -0.000099 0.005968 0.023968 -0.002673
# 6 0.000004 -0.013481 0.008428 -0.017126 -0.002673 0.042098
#
#
# Mechanical properties :
#
#
# Convention : Reuss Voigt Hill
#
# Bulk Modulus (GPa) = 29.38342 75.56253 52.47298
# Shear Modulus (GPa) = 20.12187 33.17734 26.64961
#
# Velocity S-wave (km/s) = 2.87904 3.69687 3.31328
# Velocity P-wave (km/s) = 4.81204 7.02489 6.02100
#
# Compressibility (1/GPa) = 0.03403280
#
# Stress axis : x y z
#
# Youngs Moduli (GPa) = 79.78746 19.70791 93.16843
#
# Poissons Ratio (x) = 0.06638 0.40994
# Poissons Ratio (y) = 0.26873 1.13846
# Poissons Ratio (z) = 0.35106 0.24082
#
# Static dielectric constant tensor:
#      x y z
#    x 1.969950 -0.065670 0.070610 
#    y -0.065670 2.085870 -0.083350 
#    z 0.070610 -0.083350 1.995680 
# 
# From -- ./inp_files/475967.got.cif
#   From: 2010.05.17/outbox.cif.g08.bks.cpg/sg2_238_cif.got.tgz:475967.got - 2010.06.03 11:33:40.
