data_PCOD9103956
_publ_section_title
;
Structure prediction by ZEFSAII (Michael W. Deem and Ramdas Pophale) SiO2 
 PCOD9103956
Probable space group: P -1
;
_chemical_formula_sum "Si O2"
_cell_formula_units_Z 14
_cell_length_a 9.072385
_cell_length_b 21.228720
_cell_length_c 17.868757
_cell_angle_alpha 16.629589
_cell_angle_beta 143.882132
_cell_angle_gamma 141.029290
_cell_volume 580.415214
_symmetry_space_group_name_H-M "P -1"
_symmetry_group_IT_number 2
_symmetry_cell_setting 'triclinic'
loop_
_space_group_symop_operation_xyz
x,y,z
-x,-y,-z
loop_
_atom_site_type_symbol
_atom_site_label
_atom_site_fract_x
_atom_site_fract_y
_atom_site_fract_z
Si Si1 0.507452 0.476582 0.806413
Si Si2 0.787252 0.734516 0.501776
Si Si3 0.005707 0.744288 0.275949
Si Si4 0.861271 0.662710 0.458771
Si Si5 0.002354 0.824906 0.882315
Si Si6 0.278041 0.454220 0.020832
Si Si7 0.199751 0.079672 0.149517
O O1 0.652555 0.561195 0.697252
O O2 0.254031 0.615866 0.541185
O O3 0.631790 0.542760 0.860671
O O4 0.456897 0.211563 0.085603
O O5 0.695597 0.751412 0.358657
O O6 0.068758 0.641242 0.718741
O O7 0.799056 0.975895 0.268360
O O8 0.798821 0.662268 0.345579
O O9 0.977229 0.764375 0.151739
O O10 0.000000 0.000000 0.000000
O O11 0.898124 0.411385 0.782893
O O12 0.107970 0.831038 0.374843
O O13 0.833791 0.889010 0.811648
O O14 0.851111 0.771182 0.806072
O O15 0.500000 0.500000 0.000000
#
# Coordination Sequence:
#
# PCOD9103956 Si02
#       7
#     2   2   2   2   2   2   2
#     4  12  22  41  65  99 129 161 209 271 319 359
#     4  10  24  41  62  97 136 160 202 264 326 372
#     4  10  21  41  67  93 122 168 223 258 300 380
#     4   9  19  41  63  89 123 167 210 249 308 379
#     4  10  20  42  63  90 129 168 207 253 313 383
#     4  11  22  43  67  93 126 167 217 253 309 393
#     4  10  20  38  70  91 122 166 218 262 302 374
#
# _framework density 24.120664000000001
#
# number of rings (size 3 to 8) (size 9 to 14) (size 15 to 20)
#    0.000    1.714    2.857    1.714    0.000    1.143 
#   18.000    7.143    0.000    0.000    0.000    0.000 
#    0.000    0.000    0.000    0.000    0.000    0.000 
#
# Total GULP energy -77954.160180 kJ/mol
# GULP energy per Si atom -5568.154299 kJ/mol
# Density = 2.406576 g / cm^3
# Si number density = 24.120664 Si / 1000 Ang^3
#
#
#
# Elastic Constant Matrix: (Units=GPa)
#
#
# Indices 1 2 3 4 5 6 
#
# 1 55.7276 46.6802 -12.4506 8.5384 -45.1332 -71.6087
# 2 46.6802 42.6576 63.5172 -28.1592 9.7378 36.3039
# 3 -12.4506 63.5172 57.4949 -2.3096 -23.9910 -64.4327
# 4 8.5384 -28.1592 -2.3096 46.4885 5.4305 16.5552
# 5 -45.1332 9.7378 -23.9910 5.4305 31.3731 -41.1897
# 6 -71.6087 36.3039 -64.4327 16.5552 -41.1897 -104.0109
#
#
#
# Elastic Compliance Matrix: (Units=1/GPa)
#
#
# Indices 1 2 3 4 5 6 
#
# 1 0.011511 -0.002456 -0.002941 -0.001112 0.003878 -0.008673
# 2 -0.002456 0.032535 -0.011419 0.011827 0.002946 0.020837
# 3 -0.002941 -0.011419 0.015905 -0.001367 -0.002686 -0.010968
# 4 -0.001112 0.011827 -0.001367 0.025363 0.001402 0.009222
# 5 0.003878 0.002946 -0.002686 0.001402 0.022741 -0.008760
# 6 -0.008673 0.020837 -0.010968 0.009222 -0.008760 0.015361
#
#
# Mechanical properties :
#
#
# Convention : Reuss Voigt Hill
#
# Bulk Modulus (GPa) = 37.99568 39.04154 38.51861
# Shear Modulus (GPa) = 30.15328 -1.35432 14.39948
#
# Velocity S-wave (km/s) = 3.53951 -0.75013 2.44596
# Velocity P-wave (km/s) = 5.70006 3.93329 4.89702
#
# Compressibility (1/GPa) = 0.02631878
#
# Stress axis : x y z
#
# Youngs Moduli (GPa) = 86.87423 30.73638 62.87494
#
# Poissons Ratio (x) = 0.07548 0.18489
# Poissons Ratio (y) = 0.21335 0.71799
# Poissons Ratio (z) = 0.25546 0.35099
#
# Static dielectric constant tensor:
#      x y z
#    x 2.020320 -0.058650 -0.001890 
#    y -0.058650 2.178040 -0.013170 
#    z -0.001890 -0.013170 1.905650 
# 
# From -- ./inp_files/562598.got.cif
#   From: 2010.05.17/outbox.cif.g08.bks.cpg/sg2_282_cif.got.tgz:562598.got - 2010.06.03 11:33:40.
