data_PCOD9103002
_publ_section_title
;
Structure prediction by ZEFSAII (Michael W. Deem and Ramdas Pophale) SiO2 
 PCOD9103002
Probable space group: P -1
;
_chemical_formula_sum "Si O2"
_cell_formula_units_Z 16
_cell_length_a 16.393618
_cell_length_b 8.331127
_cell_length_c 11.435091
_cell_angle_alpha 91.821218
_cell_angle_beta 58.603663
_cell_angle_gamma 44.271421
_cell_volume 682.855954
_symmetry_space_group_name_H-M "P -1"
_symmetry_group_IT_number 2
_symmetry_cell_setting 'triclinic'
loop_
_space_group_symop_operation_xyz
x,y,z
-x,-y,-z
loop_
_atom_site_type_symbol
_atom_site_label
_atom_site_fract_x
_atom_site_fract_y
_atom_site_fract_z
Si Si1 0.249176 0.176448 0.558678
Si Si2 0.346775 0.660087 0.209163
Si Si3 0.766605 0.464142 0.338767
Si Si4 0.438056 0.809781 0.749664
Si Si5 0.160716 0.389959 0.132043
Si Si6 0.142808 0.797107 0.159182
Si Si7 0.219644 0.193999 0.334313
Si Si8 0.632890 0.443360 0.239426
O O1 0.244064 0.328469 0.658149
O O2 0.277610 0.209373 0.405988
O O3 0.045482 0.389980 0.715831
O O4 0.423577 0.805815 0.432400
O O5 0.436935 0.429722 0.239516
O O6 0.196242 0.782982 0.247250
O O7 0.271469 0.936626 0.318498
O O8 0.500000 0.500000 0.000000
O O9 0.580738 0.682043 0.551127
O O10 0.763974 0.364126 0.220449
O O11 0.950999 0.151665 0.266331
O O12 0.352957 0.768102 0.758518
O O13 0.281527 0.150904 0.928081
O O14 0.136268 0.615250 0.158205
O O15 0.268454 0.182342 0.167481
O O16 0.303118 0.617578 0.942982
O O17 0.000000 0.500000 0.500000
#
# Coordination Sequence:
#
# PCOD9103002 Si02
#       8
#     2   2   2   2   2   2   2   2
#     4  11  23  45  69  99 137 180 230 276 339 399
#     4  12  22  43  71  99 137 177 218 283 346 403
#     4  12  28  45  69 101 136 184 232 276 332 405
#     4  12  25  44  70 102 139 178 228 279 341 402
#     4  11  25  42  69 104 139 178 220 281 343 408
#     4  12  26  44  70 104 136 177 230 277 342 405
#     4  10  20  38  64  95 135 174 210 270 339 395
#     4  12  24  49  71  96 138 182 228 285 333 397
#
# _framework density 23.431004000000001
#
# number of rings (size 3 to 8) (size 9 to 14) (size 15 to 20)
#    0.000    0.500    3.750    4.875    3.500    1.000 
#    0.000    1.875    0.000    0.000    0.000    0.000 
#    0.000    0.000    0.000    0.000    0.000    0.000 
#
# Total GULP energy -89563.726468 kJ/mol
# GULP energy per Si atom -5597.732904 kJ/mol
# Density = 2.337767 g / cm^3
# Si number density = 23.431004 Si / 1000 Ang^3
#
#
#
# Elastic Constant Matrix: (Units=GPa)
#
#
# Indices 1 2 3 4 5 6 
#
# 1 129.7958 14.3692 20.5493 7.3253 15.7895 1.6094
# 2 14.3692 43.4596 20.5182 13.9259 0.4602 4.1476
# 3 20.5493 20.5182 87.2441 11.6480 5.5151 -3.6512
# 4 7.3253 13.9259 11.6480 39.8345 6.0843 2.9901
# 5 15.7895 0.4602 5.5151 6.0843 32.6224 -2.3118
# 6 1.6094 4.1476 -3.6512 2.9901 -2.3118 38.7541
#
#
#
# Elastic Compliance Matrix: (Units=1/GPa)
#
#
# Indices 1 2 3 4 5 6 
#
# 1 0.008638 -0.002218 -0.001310 0.000219 -0.004005 -0.000501
# 2 -0.002218 0.029301 -0.005542 -0.008466 0.002982 -0.002735
# 3 -0.001310 -0.005542 0.013459 -0.001738 -0.001098 0.001984
# 4 0.000219 -0.008466 -0.001738 0.029484 -0.005324 -0.001859
# 5 -0.004005 0.002982 -0.001098 -0.005324 0.033883 0.002176
# 6 -0.000501 -0.002735 0.001984 -0.001859 0.002176 0.026577
#
#
# Mechanical properties :
#
#
# Convention : Reuss Voigt Hill
#
# Bulk Modulus (GPa) = 30.06644 41.26367 35.66505
# Shear Modulus (GPa) = 29.31387 35.91302 32.61345
#
# Velocity S-wave (km/s) = 3.54089 3.91924 3.73486
# Velocity P-wave (km/s) = 5.43847 6.17491 5.81835
#
# Compressibility (1/GPa) = 0.03325968
#
# Stress axis : x y z
#
# Youngs Moduli (GPa) = 115.76306 34.12800 74.30240
#
# Poissons Ratio (x) = 0.07568 0.09735
# Poissons Ratio (y) = 0.25671 0.41175
# Poissons Ratio (z) = 0.15167 0.18912
#
# Static dielectric constant tensor:
#      x y z
#    x 1.894850 -0.060100 0.011640 
#    y -0.060100 1.831930 -0.072690 
#    z 0.011640 -0.072690 1.832080 
# 
# From -- ./inp_files/245675.got.cif
#   From: 2010.05.17/outbox.cif.g08.bks.cpg/sg2_123_cif.got.tgz:245675.got - 2010.06.03 11:33:40.
