data_PCOD9103970
_publ_section_title
;
Structure prediction by ZEFSAII (Michael W. Deem and Ramdas Pophale) SiO2 
 PCOD9103970
Probable space group: P -1
;
_chemical_formula_sum "Si O2"
_cell_formula_units_Z 12
_cell_length_a 9.452846
_cell_length_b 8.136902
_cell_length_c 9.211603
_cell_angle_alpha 69.757250
_cell_angle_beta 115.122020
_cell_angle_gamma 132.931035
_cell_volume 467.964174
_symmetry_space_group_name_H-M "P -1"
_symmetry_group_IT_number 2
_symmetry_cell_setting 'triclinic'
loop_
_space_group_symop_operation_xyz
x,y,z
-x,-y,-z
loop_
_atom_site_type_symbol
_atom_site_label
_atom_site_fract_x
_atom_site_fract_y
_atom_site_fract_z
Si Si1 0.659898 0.979029 0.637564
Si Si2 0.127105 0.665385 0.868156
Si Si3 0.743058 0.605921 0.972146
Si Si4 0.204044 0.994923 0.001543
Si Si5 0.019130 0.315113 0.499959
Si Si6 0.549971 0.525935 0.344343
O O1 0.749926 0.075432 0.806368
O O2 0.833314 0.085934 0.561923
O O3 0.500000 0.000000 0.500000
O O4 0.540001 0.717836 0.678460
O O5 0.001510 0.666419 0.685830
O O6 0.227954 0.558863 0.883627
O O7 0.265982 0.915734 0.919339
O O8 0.000000 0.500000 0.000000
O O9 0.590160 0.450228 0.822802
O O10 0.704499 0.745494 0.018893
O O11 0.959383 0.826489 0.934760
O O12 0.000000 0.500000 0.500000
O O13 0.212827 0.333218 0.610517
O O14 0.500000 0.500000 0.500000
#
# Coordination Sequence:
#
# PCOD9103970 Si02
#       6
#     2   2   2   2   2   2
#     4  11  24  43  72  96 137 185 231 286 344 408
#     4  10  20  38  70  94 136 184 222 283 348 409
#     4   9  19  36  64  95 129 180 220 277 347 400
#     4   9  19  39  66  93 137 181 224 284 346 407
#     4  12  24  44  73 105 135 188 235 278 353 425
#     4  11  24  42  71 102 142 179 230 290 352 409
#
# _framework density 25.642987999999999
#
# number of rings (size 3 to 8) (size 9 to 14) (size 15 to 20)
#    0.000    1.667    1.667    4.000    2.333    0.667 
#    0.000    5.833    3.667    0.000    0.000    0.000 
#    0.000    0.000    0.000    0.000    0.000    0.000 
#
# Total GULP energy -67079.594534 kJ/mol
# GULP energy per Si atom -5589.966211 kJ/mol
# Density = 2.558462 g / cm^3
# Si number density = 25.642988 Si / 1000 Ang^3
#
#
#
# Elastic Constant Matrix: (Units=GPa)
#
#
# Indices 1 2 3 4 5 6 
#
# 1 98.3169 33.0869 38.6765 20.7464 8.0345 17.1078
# 2 33.0869 75.4683 27.1656 12.7773 -0.9259 -3.8755
# 3 38.6765 27.1656 186.2717 28.4347 14.4202 14.6624
# 4 20.7464 12.7773 28.4347 31.1519 -2.3180 -0.7321
# 5 8.0345 -0.9259 14.4202 -2.3180 43.8974 8.3405
# 6 17.1078 -3.8755 14.6624 -0.7321 8.3405 63.1016
#
#
#
# Elastic Compliance Matrix: (Units=1/GPa)
#
#
# Indices 1 2 3 4 5 6 
#
# 1 0.014549 -0.005135 -0.000697 -0.007200 -0.002183 -0.003893
# 2 -0.005135 0.016456 -0.001319 -0.001982 0.001134 0.002536
# 3 -0.000697 -0.001319 0.006795 -0.005388 -0.002180 -0.001245
# 4 -0.007200 -0.001982 -0.005388 0.043051 0.004758 0.002953
# 5 -0.002183 0.001134 -0.002180 0.004758 0.024556 -0.002022
# 6 -0.003893 0.002536 -0.001245 0.002953 -0.002022 0.017650
#
#
# Mechanical properties :
#
#
# Convention : Reuss Voigt Hill
#
# Bulk Modulus (GPa) = 42.55687 61.99057 52.27372
# Shear Modulus (GPa) = 34.43743 45.03871 39.73807
#
# Velocity S-wave (km/s) = 3.66861 4.19546 3.94085
# Velocity P-wave (km/s) = 5.88021 6.90624 6.41378
#
# Compressibility (1/GPa) = 0.02349797
#
# Stress axis : x y z
#
# Youngs Moduli (GPa) = 68.73433 60.76682 147.16786
#
# Poissons Ratio (x) = 0.31204 0.10264
# Poissons Ratio (y) = 0.35296 0.19405
# Poissons Ratio (z) = 0.04794 0.08012
#
# Static dielectric constant tensor:
#      x y z
#    x 2.208780 -0.048110 0.117150 
#    y -0.048110 2.030830 -0.004220 
#    z 0.117150 -0.004220 2.273100 
# 
# From -- ./inp_files/158231.got.cif
#   From: 2010.05.17/outbox.cif.g08.bks.cpg/sg2_80_cif.got.tgz:158231.got - 2010.06.03 11:33:40.
