data_PCOD9103396
_publ_section_title
;
Structure prediction by ZEFSAII (Michael W. Deem and Ramdas Pophale) SiO2 
 PCOD9103396
Probable space group: P -1
;
_chemical_formula_sum "Si O2"
_cell_formula_units_Z 16
_cell_length_a 9.208585
_cell_length_b 24.571031
_cell_length_c 13.811845
_cell_angle_alpha 158.208543
_cell_angle_beta 128.581633
_cell_angle_gamma 39.519269
_cell_volume 679.080598
_symmetry_space_group_name_H-M "P -1"
_symmetry_group_IT_number 2
_symmetry_cell_setting 'triclinic'
loop_
_space_group_symop_operation_xyz
x,y,z
-x,-y,-z
loop_
_atom_site_type_symbol
_atom_site_label
_atom_site_fract_x
_atom_site_fract_y
_atom_site_fract_z
Si Si1 0.387775 0.155052 0.294897
Si Si2 0.556357 0.274807 0.229043
Si Si3 0.219994 0.016368 0.331228
Si Si4 0.751487 0.567144 0.464621
Si Si5 0.587793 0.387998 0.000790
Si Si6 0.693306 0.701956 0.142595
Si Si7 0.132263 0.600671 0.441748
Si Si8 0.760261 0.191365 0.557309
O O1 0.265195 0.358422 0.525593
O O2 0.612581 0.114789 0.378025
O O3 0.149694 0.211844 0.340849
O O4 0.500000 0.000000 0.000000
O O5 0.464271 0.262324 0.272415
O O6 0.303876 0.449956 0.353527
O O7 0.714256 0.336403 0.419908
O O8 0.719849 0.088177 0.919161
O O9 0.185511 0.209284 0.627074
O O10 0.000039 0.056272 0.366265
O O11 0.463169 0.863340 0.244233
O O12 0.000000 0.500000 0.500000
O O13 0.717455 0.410830 0.179297
O O14 0.425851 0.338216 0.891105
O O15 0.785969 0.235218 0.749964
O O16 0.401136 0.599344 0.219670
O O17 0.867687 0.517235 0.839023
#
# Coordination Sequence:
#
# PCOD9103396 Si02
#       8
#     2   2   2   2   2   2   2   2
#     4  11  24  41  61  95 130 167 208 261 322 373
#     4  10  20  39  63  95 122 160 207 266 315 362
#     4  10  23  39  64  94 129 159 212 271 313 366
#     4  11  22  39  66  95 122 164 218 261 306 378
#     4  10  23  42  62  91 124 171 218 247 319 388
#     4  10  22  40  64  94 120 167 218 260 314 371
#     4  10  20  38  66  88 126 164 207 255 316 380
#     4  10  24  43  61  90 132 171 206 261 319 383
#
# _framework density 23.561268999999999
#
# number of rings (size 3 to 8) (size 9 to 14) (size 15 to 20)
#    0.000    1.750    2.500    0.750    5.250    4.000 
#    2.250    1.875    0.000    0.000    0.000    0.000 
#    0.000    0.000    0.000    0.000    0.000    0.000 
#
# Total GULP energy -89429.410425 kJ/mol
# GULP energy per Si atom -5589.338152 kJ/mol
# Density = 2.350764 g / cm^3
# Si number density = 23.561269 Si / 1000 Ang^3
#
#
#
# Elastic Constant Matrix: (Units=GPa)
#
#
# Indices 1 2 3 4 5 6 
#
# 1 103.2071 19.4501 28.8693 0.9890 -26.3789 -23.5244
# 2 19.4501 46.5597 29.9879 -2.0543 -8.9117 -14.6332
# 3 28.8693 29.9879 116.1152 -19.8779 -26.4677 -24.5192
# 4 0.9890 -2.0543 -19.8779 24.8259 3.5235 2.0034
# 5 -26.3789 -8.9117 -26.4677 3.5235 42.0924 7.0582
# 6 -23.5244 -14.6332 -24.5192 2.0034 7.0582 34.3165
#
#
#
# Elastic Compliance Matrix: (Units=1/GPa)
#
#
# Indices 1 2 3 4 5 6 
#
# 1 0.013522 -0.002130 -0.000170 -0.002399 0.006952 0.006950
# 2 -0.002130 0.028037 -0.005790 -0.002770 0.000103 0.006499
# 3 -0.000170 -0.005790 0.014423 0.009757 0.005925 0.005931
# 4 -0.002399 -0.002770 0.009757 0.047874 -0.000196 0.001391
# 5 0.006952 0.000103 0.005925 -0.000196 0.031444 0.002587
# 6 0.006950 0.006499 0.005931 0.001391 0.002587 0.040301
#
#
# Mechanical properties :
#
#
# Convention : Reuss Voigt Hill
#
# Bulk Modulus (GPa) = 25.12457 46.94407 36.03432
# Shear Modulus (GPa) = 24.38450 32.75194 28.56822
#
# Velocity S-wave (km/s) = 3.22054 3.73242 3.48589
# Velocity P-wave (km/s) = 4.95134 6.20823 5.61506
#
# Compressibility (1/GPa) = 0.03980167
#
# Stress axis : x y z
#
# Youngs Moduli (GPa) = 73.95252 35.66778 69.33324
#
# Poissons Ratio (x) = 0.07598 0.01182
# Poissons Ratio (y) = 0.15753 0.40141
# Poissons Ratio (z) = 0.01260 0.20650
#
# Static dielectric constant tensor:
#      x y z
#    x 1.880190 0.017020 0.042350 
#    y 0.017020 1.935740 0.013490 
#    z 0.042350 0.013490 1.915910 
# 
# From -- ./inp_files/205648.got.cif
#   From: 2010.05.17/outbox.cif.g08.bks.cpg/sg2_103_cif.got.tgz:205648.got - 2010.06.03 11:33:40.
