data_PCOD9103120
_publ_section_title
;
Structure prediction by ZEFSAII (Michael W. Deem and Ramdas Pophale) SiO2 
 PCOD9103120
Probable space group: P -1
;
_chemical_formula_sum "Si O2"
_cell_formula_units_Z 14
_cell_length_a 9.075922
_cell_length_b 7.551632
_cell_length_c 20.475048
_cell_angle_alpha 42.671510
_cell_angle_beta 38.538539
_cell_angle_gamma 67.361117
_cell_volume 529.112315
_symmetry_space_group_name_H-M "P -1"
_symmetry_group_IT_number 2
_symmetry_cell_setting 'triclinic'
loop_
_space_group_symop_operation_xyz
x,y,z
-x,-y,-z
loop_
_atom_site_type_symbol
_atom_site_label
_atom_site_fract_x
_atom_site_fract_y
_atom_site_fract_z
Si Si1 0.655838 0.980930 0.887203
Si Si2 0.864936 0.502787 0.978793
Si Si3 0.751536 0.697998 0.596416
Si Si4 0.772697 0.578121 0.477161
Si Si5 0.697284 0.797393 0.731110
Si Si6 0.891479 0.433994 0.850984
Si Si7 0.619029 0.242183 0.490717
O O1 0.775493 0.757752 0.927235
O O2 0.392631 0.849286 0.969224
O O3 0.910508 0.252031 0.694077
O O4 0.500000 0.000000 0.000000
O O5 0.583941 0.219774 0.156078
O O6 0.013676 0.492656 0.864573
O O7 0.000000 0.500000 0.000000
O O8 0.704989 0.521833 0.592823
O O9 0.668751 0.612658 0.723940
O O10 0.656273 0.951375 0.550662
O O11 0.068755 0.881147 0.443226
O O12 0.629613 0.333908 0.537451
O O13 0.646164 0.796793 0.441710
O O14 0.788161 0.661750 0.796789
O O15 0.125701 0.487379 0.704730
#
# Coordination Sequence:
#
# PCOD9103120 Si02
#       7
#     2   2   2   2   2   2   2
#     4  11  21  40  67  90 127 174 209 252 326 386
#     4  11  24  38  68  97 122 162 221 268 316 377
#     4  10  20  38  65  87 128 169 211 259 318 380
#     4  11  22  37  64  95 127 168 210 267 323 373
#     4   9  20  38  60  93 124 163 216 254 311 391
#     4  10  20  43  64  87 126 169 210 260 315 388
#     4  10  22  37  62  96 128 159 216 265 318 381
#
# _framework density 26.459412
#
# number of rings (size 3 to 8) (size 9 to 14) (size 15 to 20)
#    0.000    1.714    1.429    4.714    4.000    0.000 
#    0.000    7.143    6.286    0.000    0.000    0.000 
#    0.000    0.000    0.000    0.000    0.000    0.000 
#
# Total GULP energy -78211.543724 kJ/mol
# GULP energy per Si atom -5586.538837 kJ/mol
# Density = 2.639919 g / cm^3
# Si number density = 26.459412 Si / 1000 Ang^3
#
#
#
# Elastic Constant Matrix: (Units=GPa)
#
#
# Indices 1 2 3 4 5 6 
#
# 1 167.1462 34.2340 51.2009 24.1447 29.2734 30.8646
# 2 34.2340 72.3789 32.3838 28.2055 26.4572 22.9029
# 3 51.2009 32.3838 121.6615 2.5746 9.8705 22.2896
# 4 24.1447 28.2055 2.5746 42.5168 12.5825 9.9681
# 5 29.2734 26.4572 9.8705 12.5825 57.7921 20.6186
# 6 30.8646 22.9029 22.2896 9.9681 20.6186 43.4000
#
#
#
# Elastic Compliance Matrix: (Units=1/GPa)
#
#
# Indices 1 2 3 4 5 6 
#
# 1 0.008127 0.000367 -0.002768 -0.003426 -0.002074 -0.002779
# 2 0.000367 0.024951 -0.005138 -0.013528 -0.006075 -0.004796
# 3 -0.002768 -0.005138 0.011037 0.004422 0.001952 -0.002932
# 4 -0.003426 -0.013528 0.004422 0.034329 -0.000113 -0.000527
# 5 -0.002074 -0.006075 0.001952 -0.000113 0.023485 -0.007453
# 6 -0.002779 -0.004796 -0.002932 -0.000527 -0.007453 0.032717
#
#
# Mechanical properties :
#
#
# Convention : Reuss Voigt Hill
#
# Bulk Modulus (GPa) = 34.43796 66.31377 50.37587
# Shear Modulus (GPa) = 31.36687 44.96632 38.16659
#
# Velocity S-wave (km/s) = 3.44680 4.12690 3.80209
# Velocity P-wave (km/s) = 5.37441 6.91559 6.19312
#
# Compressibility (1/GPa) = 0.02903772
#
# Stress axis : x y z
#
# Youngs Moduli (GPa) = 123.04928 40.07797 90.60244
#
# Poissons Ratio (x) = -0.01472 0.25078
# Poissons Ratio (y) = -0.04519 0.46554
# Poissons Ratio (z) = 0.34059 0.20593
#
# Static dielectric constant tensor:
#      x y z
#    x 2.135450 0.082770 0.052670 
#    y 0.082770 2.376420 -0.017860 
#    z 0.052670 -0.017860 2.089830 
# 
# From -- ./inp_files/556940.got.cif
#   From: 2010.05.17/outbox.cif.g08.bks.cpg/sg2_279_cif.got.tgz:556940.got - 2010.06.03 11:33:40.
