data_PCOD9103091
_publ_section_title
;
Structure prediction by ZEFSAII (Michael W. Deem and Ramdas Pophale) SiO2 
 PCOD9103091
Probable space group: P -1
;
_chemical_formula_sum "Si O2"
_cell_formula_units_Z 16
_cell_length_a 11.505865
_cell_length_b 8.945052
_cell_length_c 13.642321
_cell_angle_alpha 108.673032
_cell_angle_beta 109.557183
_cell_angle_gamma 130.076180
_cell_volume 677.677842
_symmetry_space_group_name_H-M "P -1"
_symmetry_group_IT_number 2
_symmetry_cell_setting 'triclinic'
loop_
_space_group_symop_operation_xyz
x,y,z
-x,-y,-z
loop_
_atom_site_type_symbol
_atom_site_label
_atom_site_fract_x
_atom_site_fract_y
_atom_site_fract_z
Si Si1 0.421332 0.802944 0.348508
Si Si2 0.614937 0.909563 0.014697
Si Si3 0.315522 0.175872 0.269565
Si Si4 0.871994 0.864093 0.082524
Si Si5 0.293281 0.174063 0.485439
Si Si6 0.550991 0.805600 0.205910
Si Si7 0.809406 0.757736 0.274799
Si Si8 0.088563 0.684992 0.966434
O O1 0.530013 0.753215 0.399858
O O2 0.544236 0.947579 0.306663
O O3 0.151209 0.527797 0.197885
O O4 0.500000 0.000000 0.500000
O O5 0.783390 0.941110 0.050779
O O6 0.597678 0.903771 0.126897
O O7 0.378488 0.582014 0.839312
O O8 0.741233 0.185073 0.047833
O O9 0.257494 0.067758 0.342752
O O10 0.570320 0.514393 0.416089
O O11 0.129290 0.109675 0.177071
O O12 0.260240 0.987819 0.134917
O O13 0.849753 0.822846 0.183814
O O14 0.701816 0.544882 0.930355
O O15 0.051891 0.953239 0.419480
O O16 0.709441 0.824969 0.283680
O O17 0.000000 0.500000 0.000000
#
# Coordination Sequence:
#
# PCOD9103091 Si02
#       8
#     2   2   2   2   2   2   2   2
#     4  12  26  44  68  93 139 186 231 281 341 398
#     4   9  19  37  68 102 132 174 224 282 342 407
#     4  10  20  38  65 102 136 175 223 283 342 401
#     4   8  14  32  64  99 131 164 217 278 334 407
#     4  10  22  38  67 107 142 172 217 281 349 412
#     4   9  18  38  66 100 135 174 221 278 345 408
#     4   8  17  35  65 106 143 163 209 278 353 412
#     4  12  26  44  68  92 132 187 243 282 333 400
#
# _framework density 23.610039
#
# number of rings (size 3 to 8) (size 9 to 14) (size 15 to 20)
#    0.000    2.250    1.250    3.000    3.500    2.500 
#    0.000    1.250    0.000    0.000    0.000    0.000 
#    0.000    0.000    0.000    0.000    0.000    0.000 
#
# Total GULP energy -89176.818225 kJ/mol
# GULP energy per Si atom -5573.551139 kJ/mol
# Density = 2.355630 g / cm^3
# Si number density = 23.610039 Si / 1000 Ang^3
#
#
#
# Elastic Constant Matrix: (Units=GPa)
#
#
# Indices 1 2 3 4 5 6 
#
# 1 69.7068 36.1572 49.5110 0.6615 -2.6633 22.8364
# 2 36.1572 123.7055 49.1641 -0.5432 4.3958 28.6252
# 3 49.5110 49.1641 122.7629 -16.6458 16.1100 26.4541
# 4 0.6615 -0.5432 -16.6458 28.1936 11.3740 6.8873
# 5 -2.6633 4.3958 16.1100 11.3740 53.3343 -11.1208
# 6 22.8364 28.6252 26.4541 6.8873 -11.1208 32.1360
#
#
#
# Elastic Compliance Matrix: (Units=1/GPa)
#
#
# Indices 1 2 3 4 5 6 
#
# 1 0.023858 -0.002622 -0.009563 -0.007546 0.005212 -0.003326
# 2 -0.002622 0.011563 0.000013 0.004747 -0.004391 -0.010985
# 3 -0.009563 0.000013 0.023735 0.028048 -0.018907 -0.025309
# 4 -0.007546 0.004747 0.028048 0.079961 -0.037122 -0.051939
# 5 0.005212 -0.004391 -0.018907 -0.037122 0.040898 0.037881
# 6 -0.003326 -0.010985 -0.025309 -0.051939 0.037881 0.088341
#
#
# Mechanical properties :
#
#
# Convention : Reuss Voigt Hill
#
# Bulk Modulus (GPa) = 28.72294 65.09330 46.90812
# Shear Modulus (GPa) = 16.43100 34.82232 25.62666
#
# Velocity S-wave (km/s) = 2.64092 3.84460 3.29814
# Velocity P-wave (km/s) = 4.63586 6.88026 5.86640
#
# Compressibility (1/GPa) = 0.03481538
#
# Stress axis : x y z
#
# Youngs Moduli (GPa) = 41.91447 86.47948 42.13177
#
# Poissons Ratio (x) = 0.22671 0.40289
# Poissons Ratio (y) = 0.10988 -0.00057
# Poissons Ratio (z) = 0.40081 -0.00116
#
# Static dielectric constant tensor:
#      x y z
#    x 1.964800 -0.011690 -0.019250 
#    y -0.011690 2.024960 -0.051810 
#    z -0.019250 -0.051810 1.916950 
# 
# From -- ./inp_files/515953.got.cif
#   From: 2010.05.17/outbox.cif.g08.bks.cpg/sg2_258_cif.got.tgz:515953.got - 2010.06.03 11:33:40.
