data_PCOD9103099
_publ_section_title
;
Structure prediction by ZEFSAII (Michael W. Deem and Ramdas Pophale) SiO2 
 PCOD9103099
Probable space group: P -1
;
_chemical_formula_sum "Si O2"
_cell_formula_units_Z 14
_cell_length_a 14.368580
_cell_length_b 7.158689
_cell_length_c 6.445127
_cell_angle_alpha 117.698554
_cell_angle_beta 123.536481
_cell_angle_gamma 58.303470
_cell_volume 455.705196
_symmetry_space_group_name_H-M "P -1"
_symmetry_group_IT_number 2
_symmetry_cell_setting 'triclinic'
loop_
_space_group_symop_operation_xyz
x,y,z
-x,-y,-z
loop_
_atom_site_type_symbol
_atom_site_label
_atom_site_fract_x
_atom_site_fract_y
_atom_site_fract_z
Si Si1 0.256468 0.306602 0.605128
Si Si2 0.447860 0.409358 0.037188
Si Si3 0.208858 0.815931 0.699296
Si Si4 0.527518 0.319684 0.565501
Si Si5 0.081257 0.457671 0.818810
Si Si6 0.314681 0.147714 0.165376
Si Si7 0.015649 0.855136 0.197399
O O1 0.258322 0.547182 0.644931
O O2 0.134536 0.373982 0.616308
O O3 0.284744 0.128943 0.363630
O O4 0.372934 0.242273 0.863578
O O5 0.537566 0.372594 0.345250
O O6 0.355494 0.630165 0.179743
O O7 0.495164 0.363230 0.824996
O O8 0.137497 0.883076 0.429586
O O9 0.103030 0.933285 0.794297
O O10 0.300838 0.943708 0.911731
O O11 0.440200 0.182753 0.352240
O O12 0.000348 0.328079 0.748372
O O13 0.201949 0.363009 0.061004
O O14 0.023400 0.723494 0.927222
#
# Coordination Sequence:
#
# PCOD9103099 Si02
#       7
#     2   2   2   2   2   2   2
#     4  12  21  37  62  89 113 154 195 240 288 345
#     4   9  17  32  59  86 111 145 189 234 283 336
#     4  10  23  38  57  87 119 152 191 249 285 339
#     4   8  17  32  60  82 109 155 185 230 286 348
#     4  10  20  38  65  80 113 163 196 233 295 340
#     4  11  20  39  58  88 118 152 195 235 292 345
#     4   9  20  43  56  81 122 155 193 245 288 340
#
# _framework density 30.721616999999998
#
# number of rings (size 3 to 8) (size 9 to 14) (size 15 to 20)
#    0.857    1.143    4.286    0.000    0.000    1.143 
#    7.714    0.714    0.000    3.429    0.000    0.000 
#    0.000    0.000    0.000    0.000    0.000    0.000 
#
# Total GULP energy -77942.656885 kJ/mol
# GULP energy per Si atom -5567.332635 kJ/mol
# Density = 3.065169 g / cm^3
# Si number density = 30.721617 Si / 1000 Ang^3
#
#
#
# Elastic Constant Matrix: (Units=GPa)
#
#
# Indices 1 2 3 4 5 6 
#
# 1 128.4813 8.5031 58.9794 4.8906 -6.5165 25.6893
# 2 8.5031 68.9194 21.7761 16.4338 7.4516 -3.5037
# 3 58.9794 21.7761 244.6526 30.3019 22.2733 9.0552
# 4 4.8906 16.4338 30.3019 49.0181 -1.3571 1.3386
# 5 -6.5165 7.4516 22.2733 -1.3571 58.3149 0.6064
# 6 25.6893 -3.5037 9.0552 1.3386 0.6064 49.1641
#
#
#
# Elastic Compliance Matrix: (Units=1/GPa)
#
#
# Indices 1 2 3 4 5 6 
#
# 1 0.010070 -0.001231 -0.002487 0.001145 0.002311 -0.004951
# 2 -0.001231 0.016380 -0.000384 -0.005249 -0.002227 0.002052
# 3 -0.002487 -0.000384 0.005285 -0.002965 -0.002320 0.000408
# 4 0.001145 -0.005249 -0.002965 0.023979 0.002501 -0.001110
# 5 0.002311 -0.002227 -0.002320 0.002501 0.018648 -0.001237
# 6 -0.004951 0.002052 0.000408 -0.001110 -0.001237 0.023044
#
#
# Mechanical properties :
#
#
# Convention : Reuss Voigt Hill
#
# Bulk Modulus (GPa) = 42.49929 68.95230 55.72579
# Shear Modulus (GPa) = 44.07131 54.81907 49.44519
#
# Velocity S-wave (km/s) = 3.79164 4.22878 4.01616
# Velocity P-wave (km/s) = 5.74738 6.80708 6.29955
#
# Compressibility (1/GPa) = 0.02352980
#
# Stress axis : x y z
#
# Youngs Moduli (GPa) = 99.30600 61.05130 189.23011
#
# Poissons Ratio (x) = 0.07516 0.47059
# Poissons Ratio (y) = 0.12225 0.07270
# Poissons Ratio (z) = 0.24696 0.02346
#
# Static dielectric constant tensor:
#      x y z
#    x 2.355960 0.022890 -0.060520 
#    y 0.022890 2.619150 -0.257180 
#    z -0.060520 -0.257180 2.554640 
# 
# From -- ./inp_files/41904.got.cif
#   From: 2010.05.17/outbox.cif.g08.bks.cpg/sg2_21_cif.got.tgz:41904.got - 2010.06.03 11:33:40.
