data_PCOD9103714
_publ_section_title
;
Structure prediction by ZEFSAII (Michael W. Deem and Ramdas Pophale) SiO2 
 PCOD9103714
Probable space group: P -1
;
_chemical_formula_sum "Si O2"
_cell_formula_units_Z 14
_cell_length_a 16.336639
_cell_length_b 8.428257
_cell_length_c 9.358498
_cell_angle_alpha 31.967163
_cell_angle_beta 122.700548
_cell_angle_gamma 123.109919
_cell_volume 562.791958
_symmetry_space_group_name_H-M "P -1"
_symmetry_group_IT_number 2
_symmetry_cell_setting 'triclinic'
loop_
_space_group_symop_operation_xyz
x,y,z
-x,-y,-z
loop_
_atom_site_type_symbol
_atom_site_label
_atom_site_fract_x
_atom_site_fract_y
_atom_site_fract_z
Si Si1 0.431148 0.739374 0.914862
Si Si2 0.006182 0.450275 0.873926
Si Si3 0.129897 0.987545 0.416421
Si Si4 0.739185 0.355990 0.397339
Si Si5 0.209119 0.933473 0.061708
Si Si6 0.458869 0.620466 0.515650
Si Si7 0.293702 0.056840 0.750226
O O1 0.362619 0.663650 0.770458
O O2 0.523878 0.016745 0.761921
O O3 0.363769 0.869492 0.871923
O O4 0.469742 0.454902 0.233838
O O5 0.091391 0.250316 0.093515
O O6 0.038686 0.761651 0.579203
O O7 0.900873 0.260789 0.870878
O O8 0.000000 0.500000 0.000000
O O9 0.187618 0.797521 0.513359
O O10 0.207044 0.109893 0.521859
O O11 0.787909 0.706726 0.202101
O O12 0.725459 0.160551 0.677824
O O13 0.246534 0.875622 0.982886
O O14 0.500000 0.500000 0.500000
O O15 0.356540 0.379694 0.615492
#
# Coordination Sequence:
#
# PCOD9103714 Si02
#       7
#     2   2   2   2   2   2   2
#     4  10  22  43  66  92 132 168 215 263 315 385
#     4  12  25  43  68  99 129 161 220 274 322 366
#     4  11  25  44  69  91 131 175 213 263 321 387
#     4  11  26  45  64  96 132 177 212 257 326 386
#     4  12  26  42  65  95 134 165 218 271 316 385
#     4  10  20  38  67  99 125 163 219 269 308 377
#     4  10  23  40  67  97 124 169 217 266 322 370
#
# _framework density 24.875978
#
# number of rings (size 3 to 8) (size 9 to 14) (size 15 to 20)
#    0.000    1.143    1.429    4.714    2.000   13.714 
#    0.000    4.286    0.000    0.000    0.000    0.000 
#    0.000    0.000    0.000    0.000    0.000    0.000 
#
# Total GULP energy -78562.340685 kJ/mol
# GULP energy per Si atom -5611.595763 kJ/mol
# Density = 2.481936 g / cm^3
# Si number density = 24.875978 Si / 1000 Ang^3
#
#
#
# Elastic Constant Matrix: (Units=GPa)
#
#
# Indices 1 2 3 4 5 6 
#
# 1 75.1728 24.8197 7.5742 9.2819 -4.5908 5.7931
# 2 24.8197 83.7210 15.9938 13.3994 6.5597 12.4883
# 3 7.5742 15.9938 110.3089 12.5168 2.2157 -10.4306
# 4 9.2819 13.3994 12.5168 42.5494 -3.2764 -1.3532
# 5 -4.5908 6.5597 2.2157 -3.2764 18.6981 -1.9307
# 6 5.7931 12.4883 -10.4306 -1.3532 -1.9307 33.0413
#
#
#
# Elastic Compliance Matrix: (Units=1/GPa)
#
#
# Indices 1 2 3 4 5 6 
#
# 1 0.015393 -0.004515 -0.000424 -0.001450 0.005068 -0.000889
# 2 -0.004515 0.015926 -0.001970 -0.004264 -0.007879 -0.006485
# 3 -0.000424 -0.001970 0.010000 -0.002151 -0.000577 0.003854
# 4 -0.001450 -0.004264 -0.002151 0.026362 0.006286 0.002634
# 5 0.005068 -0.007879 -0.000577 0.006286 0.059241 0.005626
# 6 -0.000889 -0.006485 0.003854 0.002634 0.005626 0.034526
#
#
# Mechanical properties :
#
#
# Convention : Reuss Voigt Hill
#
# Bulk Modulus (GPa) = 36.36100 40.66424 38.51262
# Shear Modulus (GPa) = 27.11020 33.57875 30.34448
#
# Velocity S-wave (km/s) = 3.30482 3.67801 3.49640
# Velocity P-wave (km/s) = 5.40472 5.86680 5.64049
#
# Compressibility (1/GPa) = 0.02750199
#
# Stress axis : x y z
#
# Youngs Moduli (GPa) = 64.96450 62.78887 99.99704
#
# Poissons Ratio (x) = 0.28348 0.04237
# Poissons Ratio (y) = 0.29330 0.19703
# Poissons Ratio (z) = 0.02753 0.12371
#
# Static dielectric constant tensor:
#      x y z
#    x 2.025430 -0.015730 0.017910 
#    y -0.015730 1.922810 0.012460 
#    z 0.017910 0.012460 1.897340 
# 
# From -- ./inp_files/216916.got.cif
#   From: 2010.05.17/outbox.cif.g08.bks.cpg/sg2_109_cif.got.tgz:216916.got - 2010.06.03 11:33:40.
