data_PCOD9103146
_publ_section_title
;
Structure prediction by ZEFSAII (Michael W. Deem and Ramdas Pophale) SiO2 
 PCOD9103146
Probable space group: P -1
;
_chemical_formula_sum "Si O2"
_cell_formula_units_Z 15
_cell_length_a 6.692079
_cell_length_b 9.475494
_cell_length_c 13.238465
_cell_angle_alpha 81.224995
_cell_angle_beta 117.401620
_cell_angle_gamma 120.787059
_cell_volume 636.444444
_symmetry_space_group_name_H-M "P -1"
_symmetry_group_IT_number 2
_symmetry_cell_setting 'triclinic'
loop_
_space_group_symop_operation_xyz
x,y,z
-x,-y,-z
loop_
_atom_site_type_symbol
_atom_site_label
_atom_site_fract_x
_atom_site_fract_y
_atom_site_fract_z
Si Si1 0.500000 0.000000 0.000000
Si Si2 0.452756 0.706465 0.153750
Si Si3 0.975198 0.225415 0.788904
Si Si4 0.676634 0.720958 0.406764
Si Si5 0.768749 0.171794 0.532732
Si Si6 0.762746 0.601705 0.987284
Si Si7 0.889172 0.879983 0.842641
Si Si8 0.491543 0.338540 0.394285
O O1 0.596009 0.171516 0.939317
O O2 0.193690 0.942169 0.906458
O O3 0.736531 0.732664 0.183453
O O4 0.512638 0.754698 0.280801
O O5 0.256234 0.516956 0.094897
O O6 0.015474 0.339586 0.881908
O O7 0.851687 0.245310 0.656318
O O8 0.840579 0.034362 0.813165
O O9 0.605183 0.532319 0.387130
O O10 0.603698 0.715495 0.507046
O O11 0.985758 0.838871 0.449605
O O12 0.712664 0.289178 0.436158
O O13 0.500000 0.000000 0.500000
O O14 0.500000 0.500000 0.000000
O O15 0.774291 0.764879 0.926828
O O16 0.742022 0.767765 0.724530
#
# Coordination Sequence:
#
# PCOD9103146 Si02
#       8
#     1   2   2   2   2   2   2   2
#     4  10  24  40  60  90 126 172 210 268 338 380
#     4   9  19  41  64  87 132 166 215 276 320 394
#     4   9  20  38  61  94 127 168 214 269 328 387
#     4  10  23  44  67  98 135 174 224 276 326 394
#     4  11  22  42  67  98 135 174 220 274 329 395
#     4  10  20  38  65  90 118 170 216 269 335 383
#     4  11  21  42  63  89 135 168 220 275 325 399
#     4  11  23  43  69  96 132 181 220 271 334 390
#
# _framework density 23.568435999999998
#
# number of rings (size 3 to 8) (size 9 to 14) (size 15 to 20)
#    0.000    1.867    2.667    0.800    0.000    2.133 
#    7.200    1.333    0.000    0.000    0.000    0.000 
#    0.000    0.000    0.000    0.000    0.000    0.000 
#
# Total GULP energy -83625.865053 kJ/mol
# GULP energy per Si atom -5575.057670 kJ/mol
# Density = 2.351479 g / cm^3
# Si number density = 23.568436 Si / 1000 Ang^3
#
#
#
# Elastic Constant Matrix: (Units=GPa)
#
#
# Indices 1 2 3 4 5 6 
#
# 1 53.1768 3.2465 25.5422 12.0709 5.6186 6.7063
# 2 3.2465 84.7561 23.2434 2.4089 5.8868 11.3052
# 3 25.5422 23.2434 140.2325 8.1366 15.5886 2.2726
# 4 12.0709 2.4089 8.1366 38.1892 -0.6937 5.1173
# 5 5.6186 5.8868 15.5886 -0.6937 46.3856 -1.3161
# 6 6.7063 11.3052 2.2726 5.1173 -1.3161 29.4522
#
#
#
# Elastic Compliance Matrix: (Units=1/GPa)
#
#
# Indices 1 2 3 4 5 6 
#
# 1 0.022575 0.001009 -0.003664 -0.005875 -0.001841 -0.004306
# 2 0.001009 0.013118 -0.002138 -0.000023 -0.001215 -0.005151
# 3 -0.003664 -0.002138 0.008408 -0.000674 -0.002091 0.001030
# 4 -0.005875 -0.000023 -0.000674 0.028683 0.001270 -0.003528
# 5 -0.001841 -0.001215 -0.002091 0.001270 0.022710 0.001841
# 6 -0.004306 -0.005151 0.001030 -0.003528 0.001841 0.037527
#
#
# Mechanical properties :
#
#
# Convention : Reuss Voigt Hill
#
# Bulk Modulus (GPa) = 28.97280 42.46996 35.72138
# Shear Modulus (GPa) = 32.44416 37.88097 35.16257
#
# Velocity S-wave (km/s) = 3.71427 4.01343 3.86675
# Velocity P-wave (km/s) = 5.54204 6.28775 5.92663
#
# Compressibility (1/GPa) = 0.03451513
#
# Stress axis : x y z
#
# Youngs Moduli (GPa) = 44.29766 76.22896 118.93912
#
# Poissons Ratio (x) = -0.07694 0.43576
# Poissons Ratio (y) = -0.04471 0.25433
# Poissons Ratio (z) = 0.16229 0.16300
#
# Static dielectric constant tensor:
#      x y z
#    x 1.974410 0.009850 -0.018240 
#    y 0.009850 1.889210 0.014890 
#    z -0.018240 0.014890 1.879930 
# 
# From -- ./inp_files/392485.got.cif
#   From: 2010.05.17/outbox.cif.g08.bks.cpg/sg2_197_cif.got.tgz:392485.got - 2010.06.03 11:33:40.
