data_PCOD9103883
_publ_section_title
;
Structure prediction by ZEFSAII (Michael W. Deem and Ramdas Pophale) SiO2 
 PCOD9103883
Probable space group: P -1
;
_chemical_formula_sum "Si O2"
_cell_formula_units_Z 14
_cell_length_a 8.205783
_cell_length_b 8.225047
_cell_length_c 14.945628
_cell_angle_alpha 101.128401
_cell_angle_beta 52.425241
_cell_angle_gamma 73.235225
_cell_volume 668.960059
_symmetry_space_group_name_H-M "P -1"
_symmetry_group_IT_number 2
_symmetry_cell_setting 'triclinic'
loop_
_space_group_symop_operation_xyz
x,y,z
-x,-y,-z
loop_
_atom_site_type_symbol
_atom_site_label
_atom_site_fract_x
_atom_site_fract_y
_atom_site_fract_z
Si Si1 0.017077 0.207672 0.935578
Si Si2 0.214028 0.437061 0.824849
Si Si3 0.930757 0.912620 0.596356
Si Si4 0.577048 0.274554 0.851961
Si Si5 0.530247 0.816489 0.737391
Si Si6 0.441236 0.536458 0.420124
Si Si7 0.493992 0.308563 0.077383
O O1 0.060252 0.334851 0.861446
O O2 0.259011 0.001942 0.843984
O O3 0.941881 0.341735 0.064202
O O4 0.782432 0.204581 0.985627
O O5 0.399849 0.323704 0.832495
O O6 0.369604 0.419830 0.686170
O O7 0.719946 0.869282 0.641849
O O8 0.171392 0.716417 0.520566
O O9 0.820808 0.075680 0.727576
O O10 0.000000 0.000000 0.500000
O O11 0.606903 0.460660 0.864672
O O12 0.464912 0.257734 0.980774
O O13 0.540036 0.643348 0.659648
O O14 0.598333 0.750130 0.811435
O O15 0.500000 0.500000 0.500000
#
# Coordination Sequence:
#
# PCOD9103883 Si02
#       7
#     2   2   2   2   2   2   2
#     4  10  20  38  69  92 127 164 201 272 328 375
#     4  10  20  44  63  92 129 165 209 261 326 382
#     4  12  24  46  69  86 134 182 213 256 314 390
#     4  10  20  41  64  93 126 168 215 254 321 384
#     4  12  23  43  65  95 127 168 213 271 326 368
#     4  12  27  45  62  96 131 170 221 266 309 382
#     4  10  22  38  65 100 129 156 212 273 320 377
#
# _framework density 20.928006
#
# number of rings (size 3 to 8) (size 9 to 14) (size 15 to 20)
#    0.000    1.143    5.714    0.857    2.000    0.571 
#   12.857    1.429    0.000    0.000    0.000    0.000 
#    0.000    0.000    0.000    0.000    0.000    0.000 
#
# Total GULP energy -78262.197812 kJ/mol
# GULP energy per Si atom -5590.156987 kJ/mol
# Density = 2.088037 g / cm^3
# Si number density = 20.928006 Si / 1000 Ang^3
#
#
#
# Elastic Constant Matrix: (Units=GPa)
#
#
# Indices 1 2 3 4 5 6 
#
# 1 41.3811 36.4058 35.9184 -15.5485 -2.0652 -11.6894
# 2 36.4058 93.1121 60.7746 10.2239 3.2991 -12.5027
# 3 35.9184 60.7746 128.7106 7.2157 1.4500 -8.4378
# 4 -15.5485 10.2239 7.2157 64.6747 -9.1639 -12.8137
# 5 -2.0652 3.2991 1.4500 -9.1639 35.9927 -7.0951
# 6 -11.6894 -12.5027 -8.4378 -12.8137 -7.0951 25.5077
#
#
#
# Elastic Compliance Matrix: (Units=1/GPa)
#
#
# Indices 1 2 3 4 5 6 
#
# 1 0.088827 -0.025336 -0.011985 0.041314 0.028891 0.053114
# 2 -0.025336 0.023521 -0.003894 -0.012604 -0.008655 -0.010109
# 3 -0.011985 -0.003894 0.012850 -0.005599 -0.003649 -0.006978
# 4 0.041314 -0.012604 -0.005599 0.037976 0.020452 0.035669
# 5 0.028891 -0.008655 -0.003649 0.020452 0.041421 0.029586
# 6 0.053114 -0.010109 -0.006978 0.035669 0.029586 0.082429
#
#
# Mechanical properties :
#
#
# Convention : Reuss Voigt Hill
#
# Bulk Modulus (GPa) = 23.38203 58.82236 41.10220
# Shear Modulus (GPa) = 13.03065 33.90867 23.46966
#
# Velocity S-wave (km/s) = 2.49799 4.02960 3.35244
# Velocity P-wave (km/s) = 4.41778 7.05821 5.88791
#
# Compressibility (1/GPa) = 0.04276788
#
# Stress axis : x y z
#
# Youngs Moduli (GPa) = 11.25781 42.51525 77.81925
#
# Poissons Ratio (x) = 1.07717 0.93265
# Poissons Ratio (y) = 0.28523 0.30306
# Poissons Ratio (z) = 0.13492 0.16557
#
# Static dielectric constant tensor:
#      x y z
#    x 1.760920 0.012060 0.000580 
#    y 0.012060 1.780490 -0.004730 
#    z 0.000580 -0.004730 1.742190 
# 
# From -- ./inp_files/402645.got.cif
#   From: 2010.05.17/outbox.cif.g08.bks.cpg/sg2_202_cif.got.tgz:402645.got - 2010.06.03 11:33:40.
