data_PCOD9103251
_publ_section_title
;
Structure prediction by ZEFSAII (Michael W. Deem and Ramdas Pophale) SiO2 
 PCOD9103251
Probable space group: P -1
;
_chemical_formula_sum "Si O2"
_cell_formula_units_Z 14
_cell_length_a 9.749350
_cell_length_b 11.976226
_cell_length_c 14.375528
_cell_angle_alpha 123.715859
_cell_angle_beta 25.777518
_cell_angle_gamma 126.897118
_cell_volume 583.239905
_symmetry_space_group_name_H-M "P -1"
_symmetry_group_IT_number 2
_symmetry_cell_setting 'triclinic'
loop_
_space_group_symop_operation_xyz
x,y,z
-x,-y,-z
loop_
_atom_site_type_symbol
_atom_site_label
_atom_site_fract_x
_atom_site_fract_y
_atom_site_fract_z
Si Si1 0.390830 0.846815 0.038860
Si Si2 0.558449 0.748017 0.377169
Si Si3 0.793678 0.676524 0.814115
Si Si4 0.350650 0.205614 0.323654
Si Si5 0.261330 0.398211 0.973119
Si Si6 0.194946 0.057766 0.523632
Si Si7 0.266947 0.505327 0.757190
O O1 0.634763 0.795101 0.929975
O O2 0.379811 0.768844 0.912049
O O3 0.065627 0.850851 0.292222
O O4 0.500000 0.000000 0.000000
O O5 0.727933 0.717955 0.164457
O O6 0.676051 0.894425 0.430080
O O7 0.622079 0.633222 0.357450
O O8 0.174542 0.714889 0.575930
O O9 0.585273 0.530348 0.828000
O O10 0.750665 0.660678 0.943550
O O11 0.435603 0.117966 0.318355
O O12 0.400091 0.366537 0.390802
O O13 0.012715 0.103393 0.439744
O O14 0.954935 0.463317 0.176528
O O15 0.000000 0.500000 0.000000
#
# Coordination Sequence:
#
# PCOD9103251 Si02
#       7
#     2   2   2   2   2   2   2
#     4  10  21  40  63  85 118 166 213 256 306 373
#     4  11  22  38  63  96 127 160 209 264 314 371
#     4  11  23  38  60  93 129 164 206 261 323 371
#     4  10  21  39  64  91 123 161 212 262 307 378
#     4  10  22  38  59  93 131 163 203 260 318 379
#     4  10  22  39  65  93 120 166 213 255 316 379
#     4  10  20  38  65  94 125 165 209 257 315 377
#
# _framework density 24.003844999999998
#
# number of rings (size 3 to 8) (size 9 to 14) (size 15 to 20)
#    0.000    1.714    0.000    5.571    0.000    5.714 
#    0.000    2.857    0.000   35.143    0.000    0.000 
#    0.000    0.000    0.000    0.000    0.000    0.000 
#
# Total GULP energy -78076.183244 kJ/mol
# GULP energy per Si atom -5576.870232 kJ/mol
# Density = 2.394921 g / cm^3
# Si number density = 24.003845 Si / 1000 Ang^3
#
#
#
# Elastic Constant Matrix: (Units=GPa)
#
#
# Indices 1 2 3 4 5 6 
#
# 1 119.1973 40.6710 31.8533 6.3086 4.3794 -0.4517
# 2 40.6710 116.3984 6.5638 -20.6360 -9.5898 12.5209
# 3 31.8533 6.5638 79.4096 2.3847 -16.3176 -5.5337
# 4 6.3086 -20.6360 2.3847 17.1574 -5.0923 -5.5223
# 5 4.3794 -9.5898 -16.3176 -5.0923 33.6963 7.2190
# 6 -0.4517 12.5209 -5.5337 -5.5223 7.2190 44.3446
#
#
#
# Elastic Compliance Matrix: (Units=1/GPa)
#
#
# Indices 1 2 3 4 5 6 
#
# 1 0.014536 -0.008883 -0.006650 -0.017825 -0.010617 0.001335
# 2 -0.008883 0.017615 0.003682 0.026628 0.012693 -0.003355
# 3 -0.006650 0.003682 0.017059 0.007919 0.011335 0.000162
# 4 -0.017825 0.026628 0.007919 0.104959 0.029249 0.001597
# 5 -0.010617 0.012693 0.011335 0.029249 0.045886 -0.006105
# 6 0.001335 -0.003355 0.000162 0.001597 -0.006105 0.024725
#
#
# Mechanical properties :
#
#
# Convention : Reuss Voigt Hill
#
# Bulk Modulus (GPa) = 39.20311 52.57573 45.88942
# Shear Modulus (GPa) = 19.45661 34.76748 27.11204
#
# Velocity S-wave (km/s) = 2.85013 3.80993 3.36443
# Velocity P-wave (km/s) = 5.21521 6.42687 5.85248
#
# Compressibility (1/GPa) = 0.02550818
#
# Stress axis : x y z
#
# Youngs Moduli (GPa) = 68.79550 56.77111 58.62115
#
# Poissons Ratio (x) = 0.50427 0.38982
# Poissons Ratio (y) = 0.61108 -0.21584
# Poissons Ratio (z) = 0.45748 -0.20902
#
# Static dielectric constant tensor:
#      x y z
#    x 2.010120 0.071530 0.101900 
#    y 0.071530 1.944390 0.023710 
#    z 0.101900 0.023710 2.041790 
# 
# From -- ./inp_files/499268.got.cif
#   From: 2010.05.17/outbox.cif.g08.bks.cpg/sg2_250_cif.got.tgz:499268.got - 2010.06.03 11:33:40.
