data_PCOD9103981
_publ_section_title
;
Structure prediction by ZEFSAII (Michael W. Deem and Ramdas Pophale) SiO2 
 PCOD9103981
Probable space group: P -1
;
_chemical_formula_sum "Si O2"
_cell_formula_units_Z 13
_cell_length_a 8.899628
_cell_length_b 9.340721
_cell_length_c 12.321442
_cell_angle_alpha 114.220279
_cell_angle_beta 47.521715
_cell_angle_gamma 81.656289
_cell_volume 536.341628
_symmetry_space_group_name_H-M "P -1"
_symmetry_group_IT_number 2
_symmetry_cell_setting 'triclinic'
loop_
_space_group_symop_operation_xyz
x,y,z
-x,-y,-z
loop_
_atom_site_type_symbol
_atom_site_label
_atom_site_fract_x
_atom_site_fract_y
_atom_site_fract_z
Si Si1 0.993776 0.454659 0.332432
Si Si2 0.594320 0.383953 0.557291
Si Si3 0.994793 0.614821 0.936255
Si Si4 0.252873 0.795155 0.122487
Si Si5 0.864566 0.991909 0.170212
Si Si6 0.500000 0.000000 0.000000
Si Si7 0.781743 0.339660 0.677980
O O1 0.225333 0.228310 0.184881
O O2 0.012633 0.617390 0.425586
O O3 0.731918 0.482227 0.491208
O O4 0.039386 0.457549 0.182362
O O5 0.284215 0.550051 0.767287
O O6 0.719431 0.277118 0.579013
O O7 0.663004 0.214931 0.385483
O O8 0.000000 0.500000 0.000000
O O9 0.784815 0.856137 0.128406
O O10 0.154704 0.791127 0.287444
O O11 0.055900 0.869294 0.140987
O O12 0.341870 0.931276 0.114938
O O13 0.508142 0.564543 0.902735
O O14 0.000000 0.000000 0.000000
#
# Coordination Sequence:
#
# PCOD9103981 Si02
#       7
#     2   2   2   2   2   1   2
#     4  11  23  44  71 106 140 193 241 296 360 432
#     4  12  25  45  75 109 142 194 247 295 362 439
#     4  12  27  47  75 103 147 194 240 304 363 432
#     4  10  20  41  66 101 139 188 229 299 352 425
#     4  12  24  45  72 102 142 190 239 297 359 424
#     4  10  20  38  70  98 144 182 238 282 366 412
#     4  10  23  41  73 100 143 184 242 295 362 418
#
# _framework density 24.238282999999999
#
# number of rings (size 3 to 8) (size 9 to 14) (size 15 to 20)
#    0.000    0.923    4.615    1.846    4.308    1.231 
#    0.000    1.538    0.000    0.000    0.000    0.000 
#    0.000    0.000    0.000    0.000    0.000    0.000 
#
# Total GULP energy -72519.012694 kJ/mol
# GULP energy per Si atom -5578.385592 kJ/mol
# Density = 2.418312 g / cm^3
# Si number density = 24.238283 Si / 1000 Ang^3
#
#
#
# Elastic Constant Matrix: (Units=GPa)
#
#
# Indices 1 2 3 4 5 6 
#
# 1 69.3211 9.1503 29.7543 7.3990 17.6406 -17.0074
# 2 9.1503 111.9088 21.0217 -10.1032 17.2760 -19.4161
# 3 29.7543 21.0217 84.6226 0.0462 19.7136 -2.3906
# 4 7.3990 -10.1032 0.0462 25.2189 -3.4141 8.3259
# 5 17.6406 17.2760 19.7136 -3.4141 45.2550 -9.2517
# 6 -17.0074 -19.4161 -2.3906 8.3259 -9.2517 46.4159
#
#
#
# Elastic Compliance Matrix: (Units=1/GPa)
#
#
# Indices 1 2 3 4 5 6 
#
# 1 0.021384 0.000830 -0.006349 -0.009418 -0.004843 0.008580
# 2 0.000830 0.010520 -0.002236 0.002435 -0.002432 0.003668
# 3 -0.006349 -0.002236 0.015437 0.001567 -0.004002 -0.003546
# 4 -0.009418 0.002435 0.001567 0.047208 0.003553 -0.010111
# 5 -0.004843 -0.002432 -0.004002 0.003553 0.027294 0.001805
# 6 0.008580 0.003668 -0.003546 -0.010111 0.001805 0.028213
#
#
# Mechanical properties :
#
#
# Convention : Reuss Voigt Hill
#
# Bulk Modulus (GPa) = 31.41774 42.85612 37.13693
# Shear Modulus (GPa) = 28.38083 37.10638 32.74360
#
# Velocity S-wave (km/s) = 3.42557 3.91692 3.67945
# Velocity P-wave (km/s) = 5.35128 6.17866 5.77979
#
# Compressibility (1/GPa) = 0.03182915
#
# Stress axis : x y z
#
# Youngs Moduli (GPa) = 46.76417 95.05993 64.78131
#
# Poissons Ratio (x) = -0.07892 0.41131
# Poissons Ratio (y) = -0.03882 0.14488
# Poissons Ratio (z) = 0.29692 0.21259
#
# Static dielectric constant tensor:
#      x y z
#    x 2.009770 0.017330 0.017910 
#    y 0.017330 1.907010 -0.002680 
#    z 0.017910 -0.002680 1.943330 
# 
# From -- ./inp_files/175848.got.cif
#   From: 2010.05.17/outbox.cif.g08.bks.cpg/sg2_88_cif.got.tgz:175848.got - 2010.06.03 11:33:40.
