data_PCOD9103638
_publ_section_title
;
Structure prediction by ZEFSAII (Michael W. Deem and Ramdas Pophale) SiO2 
 PCOD9103638
Probable space group: P -1
;
_chemical_formula_sum "Si O2"
_cell_formula_units_Z 12
_cell_length_a 8.577548
_cell_length_b 15.404897
_cell_length_c 11.980897
_cell_angle_alpha 152.356578
_cell_angle_beta 46.241163
_cell_angle_gamma 124.008678
_cell_volume 523.738157
_symmetry_space_group_name_H-M "P -1"
_symmetry_group_IT_number 2
_symmetry_cell_setting 'triclinic'
loop_
_space_group_symop_operation_xyz
x,y,z
-x,-y,-z
loop_
_atom_site_type_symbol
_atom_site_label
_atom_site_fract_x
_atom_site_fract_y
_atom_site_fract_z
Si Si1 0.538131 0.390643 0.738100
Si Si2 0.005084 0.241338 0.408163
Si Si3 0.341552 0.276359 0.092430
Si Si4 0.193786 0.849964 0.284295
Si Si5 0.091806 0.087200 0.811931
Si Si6 0.952398 0.603896 0.998770
O O1 0.593403 0.534325 0.779168
O O2 0.303063 0.327669 0.765490
O O3 0.761650 0.247164 0.483502
O O4 0.500000 0.500000 0.000000
O O5 0.159812 0.304180 0.308729
O O6 0.075453 0.026629 0.171193
O O7 0.991981 0.394651 0.688813
O O8 0.566890 0.162388 0.898615
O O9 0.247269 0.167355 0.913526
O O10 0.109291 0.652600 0.075371
O O11 0.214195 0.921067 0.481382
O O12 0.000000 0.000000 0.500000
O O13 0.000273 0.261151 0.975243
#
# Coordination Sequence:
#
# PCOD9103638 Si02
#       6
#     2   2   2   2   2   2
#     4  10  20  38  67  92 122 163 209 261 300 369
#     4  11  24  39  67  97 129 164 204 266 316 369
#     4  12  23  41  66  97 126 166 212 255 323 371
#     4  10  24  41  65  92 125 170 212 263 303 373
#     4  11  23  41  67  91 127 167 213 255 309 377
#     4  10  23  44  63  96 127 162 218 254 313 372
#
# _framework density 22.912213000000001
#
# number of rings (size 3 to 8) (size 9 to 14) (size 15 to 20)
#    0.000    1.333    3.333    3.500    4.667    3.333 
#    0.000    3.333    0.000    0.000    0.000    0.000 
#    0.000    0.000    0.000    0.000    0.000    0.000 
#
# Total GULP energy -67027.502382 kJ/mol
# GULP energy per Si atom -5585.625199 kJ/mol
# Density = 2.286006 g / cm^3
# Si number density = 22.912213 Si / 1000 Ang^3
#
#
#
# Elastic Constant Matrix: (Units=GPa)
#
#
# Indices 1 2 3 4 5 6 
#
# 1 91.5196 7.9630 38.4268 -12.8032 20.9690 9.2681
# 2 7.9630 116.3223 11.5195 0.3501 5.3144 -24.7605
# 3 38.4268 11.5195 44.2693 -5.3779 9.3538 -0.3948
# 4 -12.8032 0.3501 -5.3779 49.0788 4.9774 -1.6934
# 5 20.9690 5.3144 9.3538 4.9774 30.9903 15.9494
# 6 9.2681 -24.7605 -0.3948 -1.6934 15.9494 24.6801
#
#
#
# Elastic Compliance Matrix: (Units=1/GPa)
#
#
# Indices 1 2 3 4 5 6 
#
# 1 0.020058 0.000226 -0.015019 0.004460 -0.009091 -0.001365
# 2 0.000226 0.014647 -0.000129 0.002418 -0.015908 0.025054
# 3 -0.015019 -0.000129 0.037312 0.001211 -0.006680 0.010508
# 4 0.004460 0.002418 0.001211 0.023362 -0.013143 0.010867
# 5 -0.009091 -0.015908 -0.006680 -0.013143 0.078290 -0.064149
# 6 -0.001365 0.025054 0.010508 0.010867 -0.064149 0.108537
#
#
# Mechanical properties :
#
#
# Convention : Reuss Voigt Hill
#
# Bulk Modulus (GPa) = 23.71219 40.88108 32.29664
# Shear Modulus (GPa) = 15.33235 33.89663 24.61449
#
# Velocity S-wave (km/s) = 2.58965 3.85049 3.28120
# Velocity P-wave (km/s) = 4.39470 6.13592 5.33680
#
# Compressibility (1/GPa) = 0.04217240
#
# Stress axis : x y z
#
# Youngs Moduli (GPa) = 49.85427 68.27507 26.80113
#
# Poissons Ratio (x) = -0.01540 0.40253
# Poissons Ratio (y) = -0.01125 0.00344
# Poissons Ratio (z) = 0.74878 0.00878
#
# Static dielectric constant tensor:
#      x y z
#    x 1.876640 -0.045670 -0.000350 
#    y -0.045670 1.948460 0.047770 
#    z -0.000350 0.047770 1.868950 
# 
# From -- ./inp_files/265805.got.cif
#   From: 2010.05.17/outbox.cif.g08.bks.cpg/sg2_133_cif.got.tgz:265805.got - 2010.06.03 11:33:40.
