data_PCOD9103325
_publ_section_title
;
Structure prediction by ZEFSAII (Michael W. Deem and Ramdas Pophale) SiO2 
 PCOD9103325
Probable space group: P -1
;
_chemical_formula_sum "Si O2"
_cell_formula_units_Z 14
_cell_length_a 11.673646
_cell_length_b 20.317011
_cell_length_c 7.933785
_cell_angle_alpha 59.905892
_cell_angle_beta 117.205856
_cell_angle_gamma 157.364320
_cell_volume 626.494699
_symmetry_space_group_name_H-M "P -1"
_symmetry_group_IT_number 2
_symmetry_cell_setting 'triclinic'
loop_
_space_group_symop_operation_xyz
x,y,z
-x,-y,-z
loop_
_atom_site_type_symbol
_atom_site_label
_atom_site_fract_x
_atom_site_fract_y
_atom_site_fract_z
Si Si1 0.190979 0.209937 0.505257
Si Si2 0.420816 0.873526 0.172224
Si Si3 0.716125 0.422782 0.778979
Si Si4 0.718318 0.941986 0.981389
Si Si5 0.778723 0.839911 0.769619
Si Si6 0.337312 0.988682 0.472588
Si Si7 0.105343 0.491548 0.848789
O O1 0.519394 0.374497 0.595601
O O2 0.205973 0.209372 0.314917
O O3 0.981165 0.023519 0.644477
O O4 0.011406 0.187445 0.481914
O O5 0.601854 0.917226 0.107834
O O6 0.505571 0.906934 0.379924
O O7 0.082188 0.667794 0.181437
O O8 0.500000 0.000000 0.000000
O O9 0.463832 0.232150 0.926446
O O10 0.937868 0.484000 0.750195
O O11 0.887134 0.537867 0.916132
O O12 0.640365 0.945800 0.758340
O O13 0.068231 0.117663 0.020320
O O14 0.436246 0.677385 0.766719
O O15 0.500000 0.000000 0.500000
#
# Coordination Sequence:
#
# PCOD9103325 Si02
#       7
#     2   2   2   2   2   2   2
#     4  10  21  38  64  96 132 164 208 255 318 387
#     4  11  23  44  62  89 126 169 219 258 307 375
#     4   9  20  40  62  98 128 160 202 266 326 374
#     4  10  20  40  68  90 130 162 206 262 317 382
#     4  10  20  38  65  98 128 163 203 265 325 371
#     4  12  23  38  68  92 116 177 221 247 306 381
#     4  10  21  38  62  96 126 164 205 265 323 367
#
# _framework density 22.346556
#
# number of rings (size 3 to 8) (size 9 to 14) (size 15 to 20)
#    0.000    1.714    2.857    1.714    2.000    2.857 
#    7.714    0.714    0.000    2.571    0.000    0.000 
#    0.000    0.000    0.000    0.000    0.000    0.000 
#
# Total GULP energy -78160.364947 kJ/mol
# GULP energy per Si atom -5582.883210 kJ/mol
# Density = 2.229569 g / cm^3
# Si number density = 22.346556 Si / 1000 Ang^3
#
#
#
# Elastic Constant Matrix: (Units=GPa)
#
#
# Indices 1 2 3 4 5 6 
#
# 1 109.3999 23.5573 34.7019 12.1155 -22.0270 21.9242
# 2 23.5573 103.4284 44.0222 30.8686 -0.3672 27.4817
# 3 34.7019 44.0222 127.2972 40.6902 -11.1189 -2.1035
# 4 12.1155 30.8686 40.6902 36.0239 2.9551 -5.8379
# 5 -22.0270 -0.3672 -11.1189 2.9551 33.0704 5.7352
# 6 21.9242 27.4817 -2.1035 -5.8379 5.7352 31.3571
#
#
#
# Elastic Compliance Matrix: (Units=1/GPa)
#
#
# Indices 1 2 3 4 5 6 
#
# 1 0.019705 0.010383 -0.001008 -0.020978 0.020069 -0.030521
# 2 0.010383 0.030854 -0.000431 -0.038203 0.018294 -0.044788
# 3 -0.001008 -0.000431 0.013716 -0.015561 0.005660 -0.001929
# 4 -0.020978 -0.038203 -0.015561 0.100404 -0.041322 0.073355
# 5 0.020069 0.018294 0.005660 -0.041322 0.057717 -0.047935
# 6 -0.030521 -0.044788 -0.001929 0.073355 -0.047935 0.114778
#
#
# Mechanical properties :
#
#
# Convention : Reuss Voigt Hill
#
# Bulk Modulus (GPa) = 12.17106 60.52093 36.34599
# Shear Modulus (GPa) = 14.42264 35.94654 25.18459
#
# Velocity S-wave (km/s) = 2.54324 4.01508 3.36073
# Velocity P-wave (km/s) = 3.75266 6.97396 5.59994
#
# Compressibility (1/GPa) = 0.08216210
#
# Stress axis : x y z
#
# Youngs Moduli (GPa) = 50.74781 32.41020 72.90574
#
# Poissons Ratio (x) = -0.33651 0.07351
# Poissons Ratio (y) = -0.52690 0.03145
# Poissons Ratio (z) = 0.05117 0.01398
#
# Static dielectric constant tensor:
#      x y z
#    x 1.893370 0.033930 -0.026450 
#    y 0.033930 1.854800 0.019420 
#    z -0.026450 0.019420 1.892370 
# 
# From -- ./inp_files/281870.got.cif
#   From: 2010.05.17/outbox.cif.g08.bks.cpg/sg2_141_cif.got.tgz:281870.got - 2010.06.03 11:33:40.
