data_PCOD9103738
_publ_section_title
;
Structure prediction by ZEFSAII (Michael W. Deem and Ramdas Pophale) SiO2 
 PCOD9103738
Probable space group: P -1
;
_chemical_formula_sum "Si O2"
_cell_formula_units_Z 13
_cell_length_a 11.214007
_cell_length_b 16.174197
_cell_length_c 7.767084
_cell_angle_alpha 58.258333
_cell_angle_beta 132.061029
_cell_angle_gamma 149.898981
_cell_volume 519.115364
_symmetry_space_group_name_H-M "P -1"
_symmetry_group_IT_number 2
_symmetry_cell_setting 'triclinic'
loop_
_space_group_symop_operation_xyz
x,y,z
-x,-y,-z
loop_
_atom_site_type_symbol
_atom_site_label
_atom_site_fract_x
_atom_site_fract_y
_atom_site_fract_z
Si Si1 0.123802 0.716451 0.846181
Si Si2 0.881806 0.777604 0.749827
Si Si3 0.500000 0.500000 0.000000
Si Si4 0.118897 0.792439 0.388363
Si Si5 0.219705 0.046795 0.055865
Si Si6 0.420694 0.679482 0.318220
Si Si7 0.301326 0.690489 0.560897
O O1 0.211211 0.801504 0.653786
O O2 0.046021 0.770405 0.828413
O O3 0.843864 0.516606 0.766981
O O4 0.348426 0.749626 0.093574
O O5 0.686466 0.634438 0.866058
O O6 0.689562 0.746143 0.469037
O O7 0.093480 0.955695 0.851771
O O8 0.211722 0.369922 0.756809
O O9 0.232401 0.769692 0.388365
O O10 0.230510 0.951312 0.274352
O O11 0.512153 0.241024 0.166011
O O12 0.000000 0.000000 0.000000
O O13 0.437105 0.710442 0.504348
O O14 0.000000 0.500000 0.500000
#
# Coordination Sequence:
#
# PCOD9103738 Si02
#       7
#     2   2   1   2   2   2   2
#     4  11  24  42  67 109 149 190 233 300 361 439
#     4  11  22  45  70 100 149 190 240 298 361 421
#     4  10  20  38  68 104 132 188 240 288 350 420
#     4  11  24  43  70 106 142 190 241 297 367 419
#     4  11  25  47  72 103 143 184 247 306 354 426
#     4  11  22  41  69 105 145 188 240 291 354 432
#     4  12  23  46  76 104 137 185 250 295 354 434
#
# _framework density 25.042603
#
# number of rings (size 3 to 8) (size 9 to 14) (size 15 to 20)
#    0.000    0.923    4.615    2.769    2.154    0.000 
#    2.769    3.846    0.000    0.000    0.000    0.000 
#    0.000    0.000    0.000    0.000    0.000    0.000 
#
# Total GULP energy -72530.802916 kJ/mol
# GULP energy per Si atom -5579.292532 kJ/mol
# Density = 2.498560 g / cm^3
# Si number density = 25.042603 Si / 1000 Ang^3
#
#
#
# Elastic Constant Matrix: (Units=GPa)
#
#
# Indices 1 2 3 4 5 6 
#
# 1 109.6222 28.9954 30.1460 -0.0594 21.0580 -25.2744
# 2 28.9954 92.8747 33.7978 31.1195 23.3225 1.2820
# 3 30.1460 33.7978 148.0440 3.3030 21.1174 -4.2625
# 4 -0.0594 31.1195 3.3030 58.2797 -4.2518 10.1457
# 5 21.0580 23.3225 21.1174 -4.2518 30.6521 -1.8495
# 6 -25.2744 1.2820 -4.2625 10.1457 -1.8495 41.5739
#
#
#
# Elastic Compliance Matrix: (Units=1/GPa)
#
#
# Indices 1 2 3 4 5 6 
#
# 1 0.012906 -0.001941 -0.001050 -0.000688 -0.006298 0.007686
# 2 -0.001941 0.019161 -0.001793 -0.011148 -0.013547 0.000163
# 3 -0.001050 -0.001793 0.007840 0.000272 -0.003277 0.000009
# 4 -0.000688 -0.011148 0.000272 0.024938 0.011889 -0.005604
# 5 -0.006298 -0.013547 -0.003277 0.011889 0.050901 -0.004384
# 6 0.007686 0.000163 0.000009 -0.005604 -0.004384 0.029895
#
#
# Mechanical properties :
#
#
# Convention : Reuss Voigt Hill
#
# Bulk Modulus (GPa) = 32.96222 59.60213 46.28217
# Shear Modulus (GPa) = 30.24420 43.27459 36.75939
#
# Velocity S-wave (km/s) = 3.47898 4.16148 3.83544
# Velocity P-wave (km/s) = 5.41561 6.85146 6.17541
#
# Compressibility (1/GPa) = 0.03033777
#
# Stress axis : x y z
#
# Youngs Moduli (GPa) = 77.48412 52.18978 127.55795
#
# Poissons Ratio (x) = 0.10130 0.13392
# Poissons Ratio (y) = 0.15040 0.22875
# Poissons Ratio (z) = 0.08135 0.09359
#
# Static dielectric constant tensor:
#      x y z
#    x 2.043280 -0.012140 0.053620 
#    y -0.012140 2.014740 -0.018810 
#    z 0.053620 -0.018810 2.045260 
# 
# From -- ./inp_files/150854.got.cif
#   From: 2010.05.17/outbox.cif.g08.bks.cpg/sg2_76_cif.got.tgz:150854.got - 2010.06.03 11:33:40.
