data_PCOD9103145
_publ_section_title
;
Structure prediction by ZEFSAII (Michael W. Deem and Ramdas Pophale) SiO2 
 PCOD9103145
Probable space group: P -1
;
_chemical_formula_sum "Si O2"
_cell_formula_units_Z 13
_cell_length_a 9.204041
_cell_length_b 10.643218
_cell_length_c 8.029615
_cell_angle_alpha 54.169130
_cell_angle_beta 73.855197
_cell_angle_gamma 110.555188
_cell_volume 460.276359
_symmetry_space_group_name_H-M "P -1"
_symmetry_group_IT_number 2
_symmetry_cell_setting 'triclinic'
loop_
_space_group_symop_operation_xyz
x,y,z
-x,-y,-z
loop_
_atom_site_type_symbol
_atom_site_label
_atom_site_fract_x
_atom_site_fract_y
_atom_site_fract_z
Si Si1 0.529479 0.764060 0.821732
Si Si2 0.150821 0.272828 0.273653
Si Si3 0.503760 0.732447 0.482001
Si Si4 0.961165 0.685173 0.048194
Si Si5 0.778923 0.342430 0.790813
Si Si6 0.500000 0.000000 0.000000
Si Si7 0.873059 0.753092 0.340597
O O1 0.713120 0.777360 0.794279
O O2 0.548194 0.836064 0.571430
O O3 0.325810 0.518775 0.070014
O O4 0.462780 0.831185 0.942559
O O5 0.052490 0.157317 0.568024
O O6 0.999548 0.235118 0.214111
O O7 0.274989 0.516635 0.727425
O O8 0.530453 0.868281 0.220651
O O9 0.657770 0.693722 0.444396
O O10 0.984772 0.835688 0.063461
O O11 0.096827 0.636653 0.109471
O O12 0.833890 0.540244 0.537292
O O13 0.752634 0.201491 0.763025
#
# Coordination Sequence:
#
# PCOD9103145 Si02
#       7
#     2   2   2   2   2   1   2
#     4   8  17  36  59  85 118 155 190 246 288 363
#     4   8  17  32  60  95 112 142 207 244 292 339
#     4  10  22  39  65  87 116 156 206 233 304 348
#     4  11  20  36  65  93 117 153 197 254 287 346
#     4  11  23  38  60  90 123 150 202 239 305 344
#     4  12  26  38  56  90 122 160 196 244 292 368
#     4  10  20  38  65  90 115 160 196 246 287 364
#
# _framework density 28.243903
#
# number of rings (size 3 to 8) (size 9 to 14) (size 15 to 20)
#    0.000    2.154    1.538    3.692    2.154    6.154 
#    0.000    0.769    0.000    1.846    0.000    0.000 
#    0.000    0.000    0.000    0.000    0.000    0.000 
#
# Total GULP energy -72592.227309 kJ/mol
# GULP energy per Si atom -5584.017485 kJ/mol
# Density = 2.817962 g / cm^3
# Si number density = 28.243903 Si / 1000 Ang^3
#
#
#
# Elastic Constant Matrix: (Units=GPa)
#
#
# Indices 1 2 3 4 5 6 
#
# 1 174.5502 59.1959 56.9751 15.1473 31.1623 24.5099
# 2 59.1959 90.6683 41.4368 5.8955 4.0451 19.4797
# 3 56.9751 41.4368 108.2443 23.3030 39.3606 13.5362
# 4 15.1473 5.8955 23.3030 66.1110 13.5351 6.9202
# 5 31.1623 4.0451 39.3606 13.5351 48.6022 21.9277
# 6 24.5099 19.4797 13.5362 6.9202 21.9277 48.2741
#
#
#
# Elastic Compliance Matrix: (Units=1/GPa)
#
#
# Indices 1 2 3 4 5 6 
#
# 1 0.008475 -0.004791 -0.001093 -0.000294 -0.003970 -0.000218
# 2 -0.004791 0.019117 -0.008148 0.000758 0.011659 -0.008401
# 3 -0.001093 -0.008148 0.018444 -0.002995 -0.015493 0.006138
# 4 -0.000294 0.000758 -0.002995 0.016618 -0.001649 -0.000950
# 5 -0.003970 0.011659 -0.015493 -0.001649 0.043145 -0.017706
# 6 -0.000218 -0.008401 0.006138 -0.000950 -0.017706 0.030674
#
#
# Mechanical properties :
#
#
# Convention : Reuss Voigt Hill
#
# Bulk Modulus (GPa) = 55.64395 76.51980 66.08187
# Shear Modulus (GPa) = 29.32085 46.98781 38.15433
#
# Velocity S-wave (km/s) = 3.22550 4.08320 3.67943
# Velocity P-wave (km/s) = 5.79791 7.02719 6.44194
#
# Compressibility (1/GPa) = 0.01797141
#
# Stress axis : x y z
#
# Youngs Moduli (GPa) = 117.98853 52.31075 54.21927
#
# Poissons Ratio (x) = 0.25062 0.05926
# Poissons Ratio (y) = 0.56527 0.44179
# Poissons Ratio (z) = 0.12895 0.42624
#
# Static dielectric constant tensor:
#      x y z
#    x 2.117440 1.266360 -0.058880 
#    y 1.266360 -12.290660 -0.794340 
#    z -0.058880 -0.794340 2.221420 
# 
# From -- ./inp_files/151704.got.cif
#   From: 2010.05.17/outbox.cif.g08.bks.cpg/sg2_76_cif.got.tgz:151704.got - 2010.06.03 11:33:40.
