data_PCOD9103621
_publ_section_title
;
Structure prediction by ZEFSAII (Michael W. Deem and Ramdas Pophale) SiO2 
 PCOD9103621
Probable space group: P -1
;
_chemical_formula_sum "Si O2"
_cell_formula_units_Z 14
_cell_length_a 17.792831
_cell_length_b 9.015314
_cell_length_c 11.149365
_cell_angle_alpha 70.375877
_cell_angle_beta 136.646233
_cell_angle_gamma 141.332132
_cell_volume 645.358835
_symmetry_space_group_name_H-M "P -1"
_symmetry_group_IT_number 2
_symmetry_cell_setting 'triclinic'
loop_
_space_group_symop_operation_xyz
x,y,z
-x,-y,-z
loop_
_atom_site_type_symbol
_atom_site_label
_atom_site_fract_x
_atom_site_fract_y
_atom_site_fract_z
Si Si1 0.603735 0.774888 0.488362
Si Si2 0.790835 0.613062 0.467069
Si Si3 0.164004 0.217318 0.842163
Si Si4 0.015474 0.338481 0.523425
Si Si5 0.058825 0.900524 0.038675
Si Si6 0.657438 0.313200 0.645991
Si Si7 0.609427 0.721824 0.225320
O O1 0.500000 0.500000 0.500000
O O2 0.460248 0.742885 0.368180
O O3 0.626562 0.774208 0.374634
O O4 0.802717 0.022719 0.727902
O O5 0.828772 0.521743 0.438664
O O6 0.709526 0.466860 0.541962
O O7 0.647924 0.585847 0.276597
O O8 0.006147 0.946056 0.646573
O O9 0.075349 0.289996 0.715459
O O10 0.390850 0.506695 0.995842
O O11 0.162199 0.094773 0.986590
O O12 0.000000 0.500000 0.500000
O O13 0.796060 0.036088 0.305187
O O14 0.878471 0.569919 0.886426
O O15 0.000000 0.000000 0.000000
O O16 0.500000 0.000000 0.500000
#
# Coordination Sequence:
#
# PCOD9103621 Si02
#       7
#     2   2   2   2   2   2   2
#     4  12  20  38  68  96 123 162 212 262 308 385
#     4  10  22  42  61  90 126 161 213 265 306 374
#     4  10  20  38  67  91 117 164 215 258 309 375
#     4  11  26  41  59  89 130 167 206 265 317 371
#     4  11  19  37  65  96 124 165 216 254 308 379
#     4  11  24  38  61  95 135 165 203 262 325 377
#     4  11  21  40  70  94 117 166 218 257 312 372
#
# _framework density 21.693356999999999
#
# number of rings (size 3 to 8) (size 9 to 14) (size 15 to 20)
#    0.000    1.143    4.286    3.429    2.000    3.429 
#    0.000    0.000    9.429    0.000    0.000    0.000 
#    0.000    0.000    0.000    0.000    0.000    0.000 
#
# Total GULP energy -77972.546342 kJ/mol
# GULP energy per Si atom -5569.467596 kJ/mol
# Density = 2.164398 g / cm^3
# Si number density = 21.693357 Si / 1000 Ang^3
#
#
#
# Elastic Constant Matrix: (Units=GPa)
#
#
# Indices 1 2 3 4 5 6 
#
# 1 133.3711 28.3245 23.5530 -6.6215 2.6298 -2.3495
# 2 28.3245 50.7276 40.3147 14.3672 2.9729 -5.3414
# 3 23.5530 40.3147 138.3524 15.0400 15.8156 -0.7394
# 4 -6.6215 14.3672 15.0400 33.3015 9.7403 -6.6298
# 5 2.6298 2.9729 15.8156 9.7403 38.8419 -3.8523
# 6 -2.3495 -5.3414 -0.7394 -6.6298 -3.8523 33.6361
#
#
#
# Elastic Compliance Matrix: (Units=1/GPa)
#
#
# Indices 1 2 3 4 5 6 
#
# 1 0.009149 -0.006331 -0.000112 0.005082 -0.001316 0.000482
# 2 -0.006331 0.032956 -0.007630 -0.012824 0.004488 0.002610
# 3 -0.000112 -0.007630 0.009912 -0.000490 -0.003470 -0.001496
# 4 0.005082 -0.012824 -0.000490 0.040408 -0.008774 0.005267
# 5 -0.001316 0.004488 -0.003470 -0.008774 0.029320 0.002173
# 6 0.000482 0.002610 -0.001496 0.005267 0.002173 0.031432
#
#
# Mechanical properties :
#
#
# Convention : Reuss Voigt Hill
#
# Bulk Modulus (GPa) = 41.89255 56.31505 49.10380
# Shear Modulus (GPa) = 26.41589 36.50648 31.46118
#
# Velocity S-wave (km/s) = 3.49333 4.10670 3.81237
# Velocity P-wave (km/s) = 5.96861 6.96438 6.48563
#
# Compressibility (1/GPa) = 0.02387060
#
# Stress axis : x y z
#
# Youngs Moduli (GPa) = 109.30277 30.34371 100.88393
#
# Poissons Ratio (x) = 0.19209 0.01133
# Poissons Ratio (y) = 0.69195 0.76978
# Poissons Ratio (z) = 0.01227 0.23153
#
# Static dielectric constant tensor:
#      x y z
#    x 1.861710 0.127380 -0.029700 
#    y 0.127380 2.077410 -0.031070 
#    z -0.029700 -0.031070 1.822970 
# 
# From -- ./inp_files/273431.got.cif
#   From: 2010.05.17/outbox.cif.g08.bks.cpg/sg2_137_cif.got.tgz:273431.got - 2010.06.03 11:33:40.
