data_PCOD9103144
_publ_section_title
;
Structure prediction by ZEFSAII (Michael W. Deem and Ramdas Pophale) SiO2 
 PCOD9103144
Probable space group: P -1
;
_chemical_formula_sum "Si O2"
_cell_formula_units_Z 16
_cell_length_a 16.605562
_cell_length_b 17.548625
_cell_length_c 9.198750
_cell_angle_alpha 25.846809
_cell_angle_beta 37.359642
_cell_angle_gamma 35.863495
_cell_volume 661.756540
_symmetry_space_group_name_H-M "P -1"
_symmetry_group_IT_number 2
_symmetry_cell_setting 'triclinic'
loop_
_space_group_symop_operation_xyz
x,y,z
-x,-y,-z
loop_
_atom_site_type_symbol
_atom_site_label
_atom_site_fract_x
_atom_site_fract_y
_atom_site_fract_z
Si Si1 0.339560 0.350663 0.761470
Si Si2 0.083527 0.719714 0.785834
Si Si3 0.643632 0.636572 0.611553
Si Si4 0.124914 0.296699 0.367819
Si Si5 0.813606 0.832027 0.182418
Si Si6 0.320107 0.792653 0.771177
Si Si7 0.330583 0.818493 0.390017
Si Si8 0.128193 0.769370 0.325713
O O1 0.325463 0.300072 0.701371
O O2 0.503927 0.305414 0.634159
O O3 0.256426 0.572834 0.511396
O O4 0.264594 0.250200 0.147967
O O5 0.226981 0.711816 0.673538
O O6 0.073677 0.837430 0.448626
O O7 0.083894 0.515714 0.092720
O O8 0.951954 0.807461 0.930633
O O9 0.751228 0.670696 0.510524
O O10 0.477105 0.754380 0.676136
O O11 0.668757 0.418036 0.931187
O O12 0.153233 0.182100 0.672192
O O13 0.995413 0.277278 0.497953
O O14 0.695983 0.019431 0.968595
O O15 0.296318 0.893744 0.475827
O O16 0.197112 0.866537 0.940979
#
# Coordination Sequence:
#
# PCOD9103144 Si02
#       8
#     2   2   2   2   2   2   2   2
#     4   9  20  38  60  88 116 145 191 246 291 336
#     4  11  22  39  61  85 116 154 197 242 284 337
#     4   9  18  36  61  86 113 149 193 239 283 337
#     4  11  22  38  64  87 113 152 198 246 283 336
#     4  12  24  38  58  87 123 158 192 230 287 354
#     4   9  18  36  61  86 113 146 192 241 286 338
#     4  11  24  39  57  87 125 156 185 234 295 352
#     4  10  20  38  65  90 110 145 201 251 286 330
#
# _framework density 24.178077999999999
#
# number of rings (size 3 to 8) (size 9 to 14) (size 15 to 20)
#    0.000    1.750    0.000    6.750    0.000    5.500 
#    0.000    3.750    0.000    0.000    0.000    0.000 
#    0.000    0.000    0.000    0.000    0.000    0.000 
#
# Total GULP energy -89627.935995 kJ/mol
# GULP energy per Si atom -5601.746000 kJ/mol
# Density = 2.412305 g / cm^3
# Si number density = 24.178078 Si / 1000 Ang^3
#
#
#
# Elastic Constant Matrix: (Units=GPa)
#
#
# Indices 1 2 3 4 5 6 
#
# 1 126.7264 48.5527 25.0650 16.3992 6.1325 -5.0342
# 2 48.5527 72.8838 24.9405 13.4952 -13.5187 -6.7175
# 3 25.0650 24.9405 92.5163 7.8476 11.6270 2.0547
# 4 16.3992 13.4952 7.8476 38.2795 -8.4533 2.4140
# 5 6.1325 -13.5187 11.6270 -8.4533 41.1248 1.2288
# 6 -5.0342 -6.7175 2.0547 2.4140 1.2288 26.7334
#
#
#
# Elastic Compliance Matrix: (Units=1/GPa)
#
#
# Indices 1 2 3 4 5 6 
#
# 1 0.011679 -0.007996 -0.000109 -0.003322 -0.005044 0.000730
# 2 -0.007996 0.023474 -0.005350 -0.001851 0.009906 0.004516
# 3 -0.000109 -0.005350 0.013220 -0.001941 -0.005821 -0.001938
# 4 -0.003322 -0.001851 -0.001941 0.030349 0.006793 -0.003994
# 5 -0.005044 0.009906 -0.005821 0.006793 0.031369 -0.000069
# 6 0.000730 0.004516 -0.001938 -0.003994 -0.000069 0.039191
#
#
# Mechanical properties :
#
#
# Convention : Reuss Voigt Hill
#
# Bulk Modulus (GPa) = 46.59247 54.36032 50.47640
# Shear Modulus (GPa) = 27.27066 34.13211 30.70139
#
# Velocity S-wave (km/s) = 3.36208 3.76133 3.56729
# Velocity P-wave (km/s) = 5.86377 6.43394 6.15546
#
# Compressibility (1/GPa) = 0.02146270
#
# Stress axis : x y z
#
# Youngs Moduli (GPa) = 85.62319 42.60008 75.64323
#
# Poissons Ratio (x) = 0.34063 0.00826
# Poissons Ratio (y) = 0.68464 0.40470
# Poissons Ratio (z) = 0.00935 0.22791
#
# Static dielectric constant tensor:
#      x y z
#    x 1.864930 0.035410 0.015880 
#    y 0.035410 1.922630 -0.037060 
#    z 0.015880 -0.037060 1.993850 
# 
# From -- ./inp_files/260773.got.cif
#   From: 2010.05.17/outbox.cif.g08.bks.cpg/sg2_131_cif.got.tgz:260773.got - 2010.06.03 11:33:40.
