data_PCOD9103294
_publ_section_title
;
Structure prediction by ZEFSAII (Michael W. Deem and Ramdas Pophale) SiO2 
 PCOD9103294
Probable space group: P -1
;
_chemical_formula_sum "Si O2"
_cell_formula_units_Z 14
_cell_length_a 21.269367
_cell_length_b 12.312228
_cell_length_c 20.787792
_cell_angle_alpha 27.514079
_cell_angle_beta 19.974770
_cell_angle_gamma 17.350439
_cell_volume 551.791912
_symmetry_space_group_name_H-M "P -1"
_symmetry_group_IT_number 2
_symmetry_cell_setting 'triclinic'
loop_
_space_group_symop_operation_xyz
x,y,z
-x,-y,-z
loop_
_atom_site_type_symbol
_atom_site_label
_atom_site_fract_x
_atom_site_fract_y
_atom_site_fract_z
Si Si1 0.167136 0.524350 0.978099
Si Si2 0.313037 0.401782 0.293502
Si Si3 0.190350 0.373517 0.287393
Si Si4 0.769965 0.520740 0.196970
Si Si5 0.325749 0.671488 0.925609
Si Si6 0.342891 0.679584 0.339809
Si Si7 0.751672 0.548553 0.335325
O O1 0.141836 0.672870 0.853980
O O2 0.488357 0.251098 0.836935
O O3 0.056310 0.365036 0.159767
O O4 0.937895 0.887185 0.051573
O O5 0.184087 0.527162 0.280176
O O6 0.461208 0.484408 0.137051
O O7 0.078426 0.534633 0.498709
O O8 0.560358 0.962181 0.285647
O O9 0.471470 0.938383 0.249122
O O10 0.204452 0.532834 0.129989
O O11 0.764747 0.391849 0.337906
O O12 0.000000 0.500000 0.000000
O O13 0.512382 0.521565 0.761306
O O14 0.401460 0.436667 0.468115
O O15 0.000000 0.000000 0.500000
#
# Coordination Sequence:
#
# PCOD9103294 Si02
#       7
#     2   2   2   2   2   2   2
#     4  10  23  44  67  92 122 172 208 259 327 363
#     4   9  20  38  66  97 121 164 209 261 320 366
#     4  10  20  38  65  96 129 157 207 266 316 370
#     4   9  20  39  68  93 121 163 205 261 326 365
#     4  11  24  41  64  93 128 167 211 257 307 380
#     4  12  28  41  60  96 130 171 218 252 306 380
#     4   9  21  44  64  91 129 162 209 262 315 381
#
# _framework density 25.371883
#
# number of rings (size 3 to 8) (size 9 to 14) (size 15 to 20)
#    0.000    2.000    0.000    2.571    6.000    4.571 
#    0.000    0.000    0.000    0.000    0.000    0.000 
#    0.000    0.000    0.000    0.000    0.000    0.000 
#
# Total GULP energy -78319.660413 kJ/mol
# GULP energy per Si atom -5594.261458 kJ/mol
# Density = 2.531414 g / cm^3
# Si number density = 25.371883 Si / 1000 Ang^3
#
#
#
# Elastic Constant Matrix: (Units=GPa)
#
#
# Indices 1 2 3 4 5 6 
#
# 1 103.2173 24.8339 50.3914 6.0631 18.2947 12.1467
# 2 24.8339 39.1243 37.5727 14.5644 8.3299 1.9863
# 3 50.3914 37.5727 162.1794 21.1191 13.8354 4.0819
# 4 6.0631 14.5644 21.1191 44.1326 -7.6218 4.2246
# 5 18.2947 8.3299 13.8354 -7.6218 64.7149 12.8947
# 6 12.1467 1.9863 4.0819 4.2246 12.8947 21.4274
#
#
#
# Elastic Compliance Matrix: (Units=1/GPa)
#
#
# Indices 1 2 3 4 5 6 
#
# 1 0.013253 -0.005970 -0.002747 0.001904 -0.000920 -0.006258
# 2 -0.005970 0.039490 -0.005630 -0.010860 -0.004609 0.005711
# 3 -0.002747 -0.005630 0.008649 -0.002190 -0.000884 0.001395
# 4 0.001904 -0.010860 -0.002190 0.029069 0.006618 -0.009370
# 5 -0.000920 -0.004609 -0.000884 0.006618 0.019670 -0.012025
# 6 -0.006258 0.005711 0.001395 -0.009370 -0.012025 0.058506
#
#
# Mechanical properties :
#
#
# Convention : Reuss Voigt Hill
#
# Bulk Modulus (GPa) = 30.58208 58.90188 44.74198
# Shear Modulus (GPa) = 24.01180 38.83650 31.42415
#
# Velocity S-wave (km/s) = 3.07969 3.91665 3.52311
# Velocity P-wave (km/s) = 4.97249 6.61206 5.85000
#
# Compressibility (1/GPa) = 0.03269888
#
# Stress axis : x y z
#
# Youngs Moduli (GPa) = 75.45277 25.32290 115.61601
#
# Poissons Ratio (x) = 0.15117 0.31759
# Poissons Ratio (y) = 0.45043 0.65094
# Poissons Ratio (z) = 0.20726 0.14257
#
# Static dielectric constant tensor:
#      x y z
#    x 2.107220 0.013120 0.013970 
#    y 0.013120 2.010980 0.018330 
#    z 0.013970 0.018330 1.985640 
# 
# From -- ./inp_files/185626.got.cif
#   From: 2010.05.17/outbox.cif.g08.bks.cpg/sg2_93_cif.got.tgz:185626.got - 2010.06.03 11:33:40.
