data_PCOD9103189
_publ_section_title
;
Structure prediction by ZEFSAII (Michael W. Deem and Ramdas Pophale) SiO2 
 PCOD9103189
Probable space group: P -1
;
_chemical_formula_sum "Si O2"
_cell_formula_units_Z 16
_cell_length_a 13.245756
_cell_length_b 11.515015
_cell_length_c 8.214514
_cell_angle_alpha 79.271610
_cell_angle_beta 127.478766
_cell_angle_gamma 126.914448
_cell_volume 762.564440
_symmetry_space_group_name_H-M "P -1"
_symmetry_group_IT_number 2
_symmetry_cell_setting 'triclinic'
loop_
_space_group_symop_operation_xyz
x,y,z
-x,-y,-z
loop_
_atom_site_type_symbol
_atom_site_label
_atom_site_fract_x
_atom_site_fract_y
_atom_site_fract_z
Si Si1 0.653611 0.590124 0.479455
Si Si2 0.899764 0.412453 0.086656
Si Si3 0.850765 0.765156 0.932463
Si Si4 0.556015 0.326958 0.672805
Si Si5 0.844182 0.981683 0.059572
Si Si6 0.044030 0.697323 0.322388
Si Si7 0.357959 0.006776 0.398148
Si Si8 0.995415 0.226920 0.376914
O O1 0.607090 0.429441 0.530805
O O2 0.520220 0.613864 0.299835
O O3 0.813408 0.678368 0.501244
O O4 0.710189 0.674311 0.688382
O O5 0.917933 0.283767 0.170724
O O6 0.002520 0.536272 0.299634
O O7 0.714342 0.350550 0.894806
O O8 0.000000 0.500000 0.000000
O O9 0.903860 0.671671 0.077935
O O10 0.815666 0.828429 0.033922
O O11 0.000795 0.897615 0.935106
O O12 0.422986 0.149956 0.540665
O O13 0.700589 0.968933 0.834721
O O14 0.895844 0.052313 0.270361
O O15 0.029245 0.742976 0.473781
O O16 0.211660 0.845461 0.374849
O O17 0.500000 0.000000 0.500000
#
# Coordination Sequence:
#
# PCOD9103189 Si02
#       8
#     2   2   2   2   2   2   2   2
#     4  10  20  38  65  92 119 154 210 260 299 355
#     4  12  21  42  66  90 116 164 216 249 291 369
#     4   9  16  36  60  85 114 153 208 245 285 354
#     4  11  21  37  67  93 118 154 212 263 297 344
#     4   9  18  34  59  87 115 154 203 247 286 357
#     4  11  24  39  62  91 124 163 198 253 306 369
#     4  11  22  38  62  91 121 158 211 251 303 361
#     4  11  23  39  63  91 125 162 204 247 312 368
#
# _framework density 20.981835
#
# number of rings (size 3 to 8) (size 9 to 14) (size 15 to 20)
#    0.000    1.500    3.750    3.375    1.750    0.500 
#    0.000    3.125    0.000    0.000    0.000    0.000 
#    0.000    0.000    0.000    0.000    0.000    0.000 
#
# Total GULP energy -89196.904256 kJ/mol
# GULP energy per Si atom -5574.806516 kJ/mol
# Density = 2.093408 g / cm^3
# Si number density = 20.981835 Si / 1000 Ang^3
#
#
#
# Elastic Constant Matrix: (Units=GPa)
#
#
# Indices 1 2 3 4 5 6 
#
# 1 99.8129 9.7437 29.2924 5.3736 8.7011 -2.0624
# 2 9.7437 40.1399 3.2900 16.1126 7.8980 -15.4713
# 3 29.2924 3.2900 51.3150 11.2009 8.0697 8.0507
# 4 5.3736 16.1126 11.2009 25.9291 -7.2470 -5.3987
# 5 8.7011 7.8980 8.0697 -7.2470 51.0948 7.4005
# 6 -2.0624 -15.4713 8.0507 -5.3987 7.4005 26.3271
#
#
#
# Elastic Compliance Matrix: (Units=1/GPa)
#
#
# Indices 1 2 3 4 5 6 
#
# 1 0.012534 -0.002295 -0.007941 0.002682 -0.000545 0.002765
# 2 -0.002295 0.052014 0.003337 -0.032246 -0.016726 0.027455
# 3 -0.007941 0.003337 0.029739 -0.016662 -0.004801 -0.009822
# 4 0.002682 -0.032246 -0.016662 0.069255 0.017619 -0.004395
# 5 -0.000545 -0.016726 -0.004801 0.017619 0.027313 -0.012469
# 6 0.002765 0.027455 -0.009822 -0.004395 -0.012469 0.059942
#
#
# Mechanical properties :
#
#
# Convention : Reuss Voigt Hill
#
# Bulk Modulus (GPa) = 12.42422 30.65780 21.54101
# Shear Modulus (GPa) = 17.15709 30.59965 23.87837
#
# Velocity S-wave (km/s) = 2.86267 3.82303 3.37716
# Velocity P-wave (km/s) = 4.10619 5.84215 5.04933
#
# Compressibility (1/GPa) = 0.08048792
#
# Stress axis : x y z
#
# Youngs Moduli (GPa) = 79.78606 19.22569 33.62549
#
# Poissons Ratio (x) = 0.04413 0.26702
# Poissons Ratio (y) = 0.18315 -0.11221
# Poissons Ratio (z) = 0.63357 -0.06416
#
# Static dielectric constant tensor:
#      x y z
#    x 1.791460 -0.050640 0.033110 
#    y -0.050640 1.817820 0.032190 
#    z 0.033110 0.032190 1.801490 
# 
# From -- ./inp_files/262410.got.cif
#   From: 2010.05.17/outbox.cif.g08.bks.cpg/sg2_132_cif.got.tgz:262410.got - 2010.06.03 11:33:40.
