data_PCOD9103069
_publ_section_title
;
Structure prediction by ZEFSAII (Michael W. Deem and Ramdas Pophale) SiO2 
 PCOD9103069
Probable space group: P -1
;
_chemical_formula_sum "Si O2"
_cell_formula_units_Z 16
_cell_length_a 14.379024
_cell_length_b 9.961308
_cell_length_c 7.607855
_cell_angle_alpha 83.616464
_cell_angle_beta 78.742757
_cell_angle_gamma 137.015214
_cell_volume 674.059436
_symmetry_space_group_name_H-M "P -1"
_symmetry_group_IT_number 2
_symmetry_cell_setting 'triclinic'
loop_
_space_group_symop_operation_xyz
x,y,z
-x,-y,-z
loop_
_atom_site_type_symbol
_atom_site_label
_atom_site_fract_x
_atom_site_fract_y
_atom_site_fract_z
Si Si1 0.528928 0.221374 0.849761
Si Si2 0.846260 0.803283 0.979389
Si Si3 0.912735 0.274542 0.632083
Si Si4 0.356757 0.390768 0.361250
Si Si5 0.417583 0.992345 0.283923
Si Si6 0.936652 0.088861 0.360904
Si Si7 0.429543 0.611915 0.668678
Si Si8 0.197521 0.949520 0.946874
O O1 0.612596 0.455676 0.807411
O O2 0.603354 0.190798 0.701678
O O3 0.518046 0.145413 0.057658
O O4 0.358582 0.056265 0.869981
O O5 0.914270 0.817869 0.776059
O O6 0.774130 0.872471 0.998675
O O7 0.732159 0.580465 0.154196
O O8 0.000000 0.000000 0.000000
O O9 0.967161 0.209822 0.504334
O O10 0.911295 0.245323 0.846020
O O11 0.000000 0.500000 0.500000
O O12 0.741203 0.111833 0.667152
O O13 0.416654 0.534821 0.491603
O O14 0.454473 0.365702 0.286909
O O15 0.193887 0.159399 0.506596
O O16 0.501700 0.163029 0.383311
O O17 0.870827 0.102219 0.214910
#
# Coordination Sequence:
#
# PCOD9103069 Si02
#       8
#     2   2   2   2   2   2   2   2
#     4  10  22  40  64  94 135 170 222 270 332 389
#     4  10  20  38  64  98 134 168 214 275 334 386
#     4  11  26  45  65  92 136 178 225 271 329 403
#     4  11  20  37  68  97 122 169 222 270 320 391
#     4  10  24  42  62  95 134 174 220 274 328 395
#     4  11  23  43  69 100 132 170 226 275 333 397
#     4  11  20  38  67  94 130 167 220 273 322 391
#     4  10  21  43  67  93 133 174 215 281 328 387
#
# _framework density 23.736778000000001
#
# number of rings (size 3 to 8) (size 9 to 14) (size 15 to 20)
#    0.000    1.500    5.000    0.750    0.000    7.000 
#    0.000    0.000    0.000    0.000    0.000    0.000 
#    0.000    0.000    0.000    0.000    0.000    0.000 
#
# Total GULP energy -89459.346478 kJ/mol
# GULP energy per Si atom -5591.209155 kJ/mol
# Density = 2.368275 g / cm^3
# Si number density = 23.736778 Si / 1000 Ang^3
#
#
#
# Elastic Constant Matrix: (Units=GPa)
#
#
# Indices 1 2 3 4 5 6 
#
# 1 45.5367 -3.1717 3.2688 18.1421 -5.8895 -1.6842
# 2 -3.1717 76.1382 14.2661 -1.9361 -2.8938 -6.1760
# 3 3.2688 14.2661 102.2375 1.9968 5.6999 8.1944
# 4 18.1421 -1.9361 1.9968 31.8360 -6.9267 -1.9297
# 5 -5.8895 -2.8938 5.6999 -6.9267 46.7277 8.7582
# 6 -1.6842 -6.1760 8.1944 -1.9297 8.7582 36.4305
#
#
#
# Elastic Compliance Matrix: (Units=1/GPa)
#
#
# Indices 1 2 3 4 5 6 
#
# 1 0.028606 0.001045 -0.000867 -0.015863 0.001324 0.000536
# 2 0.001045 0.013873 -0.002251 0.000743 0.000862 0.002739
# 3 -0.000867 -0.002251 0.010403 -0.000698 -0.001148 -0.002523
# 4 -0.015863 0.000743 -0.000698 0.041486 0.004141 0.000752
# 5 0.001324 0.000862 -0.001148 0.004141 0.023296 -0.004916
# 6 0.000536 0.002739 -0.002523 0.000752 -0.004916 0.029728
#
#
# Mechanical properties :
#
#
# Convention : Reuss Voigt Hill
#
# Bulk Modulus (GPa) = 20.51945 28.07099 24.29522
# Shear Modulus (GPa) = 29.80003 36.96879 33.38441
#
# Velocity S-wave (km/s) = 3.54706 3.95073 3.75432
# Velocity P-wave (km/s) = 5.04369 5.71513 5.38988
#
# Compressibility (1/GPa) = 0.04873424
#
# Stress axis : x y z
#
# Youngs Moduli (GPa) = 34.95727 72.08155 96.12734
#
# Poissons Ratio (x) = -0.07530 0.08338
# Poissons Ratio (y) = -0.03652 0.21642
# Poissons Ratio (z) = 0.03032 0.16228
#
# Static dielectric constant tensor:
#      x y z
#    x 1.960490 -0.008930 0.078550 
#    y -0.008930 1.933110 0.048690 
#    z 0.078550 0.048690 1.964710 
# 
# From -- ./inp_files/298225.got.cif
#   From: 2010.05.17/outbox.cif.g08.bks.cpg/sg2_150_cif.got.tgz:298225.got - 2010.06.03 11:33:40.
