data_PCOD9103643
_publ_section_title
;
Structure prediction by ZEFSAII (Michael W. Deem and Ramdas Pophale) SiO2 
 PCOD9103643
Probable space group: P -1
;
_chemical_formula_sum "Si O2"
_cell_formula_units_Z 16
_cell_length_a 15.880498
_cell_length_b 9.361176
_cell_length_c 11.951809
_cell_angle_alpha 142.488529
_cell_angle_beta 136.020488
_cell_angle_gamma 49.322899
_cell_volume 737.363148
_symmetry_space_group_name_H-M "P -1"
_symmetry_group_IT_number 2
_symmetry_cell_setting 'triclinic'
loop_
_space_group_symop_operation_xyz
x,y,z
-x,-y,-z
loop_
_atom_site_type_symbol
_atom_site_label
_atom_site_fract_x
_atom_site_fract_y
_atom_site_fract_z
Si Si1 0.481615 0.838944 0.624871
Si Si2 0.610051 0.148264 0.692973
Si Si3 0.798390 0.647346 0.114563
Si Si4 0.124806 0.914584 0.137633
Si Si5 0.125875 0.926479 0.642401
Si Si6 0.357271 0.617889 0.574504
Si Si7 0.966043 0.736000 0.538983
Si Si8 0.534654 0.669033 0.976504
O O1 0.394622 0.800738 0.413856
O O2 0.422328 0.749413 0.623172
O O3 0.608653 0.659318 0.601932
O O4 0.491335 0.112228 0.826323
O O5 0.575040 0.393224 0.881639
O O6 0.500000 0.000000 0.500000
O O7 0.753087 0.036484 0.780630
O O8 0.873154 0.705027 0.331351
O O9 0.821129 0.828311 0.151030
O O10 0.653725 0.702778 0.038759
O O11 0.847443 0.364779 0.976122
O O12 0.104390 0.061840 0.322606
O O13 0.000000 0.000000 0.000000
O O14 0.216877 0.735718 0.535447
O O15 0.087678 0.811072 0.648068
O O16 0.000000 0.000000 0.500000
O O17 0.421964 0.661850 0.780930
O O18 0.000000 0.500000 0.500000
#
# Coordination Sequence:
#
# PCOD9103643 Si02
#       8
#     2   2   2   2   2   2   2   2
#     4  10  20  38  67  92 126 173 207 270 341 388
#     4  10  24  42  62  95 135 170 219 280 332 399
#     4  10  21  42  65  96 132 170 221 278 327 399
#     4  11  23  43  69  93 129 182 230 272 332 406
#     4  10  23  41  65  96 136 170 222 275 322 401
#     4  10  21  39  63  99 126 162 217 271 330 392
#     4  11  23  42  67  91 132 185 212 265 343 387
#     4  10  20  39  67  93 127 168 214 271 340 388
#
# _framework density 21.698941999999999
#
# number of rings (size 3 to 8) (size 9 to 14) (size 15 to 20)
#    0.000    1.750    2.500    1.125    1.750    3.000 
#    2.250    0.000    0.000    0.000    0.000    0.000 
#    0.000    0.000    0.000    0.000    0.000    0.000 
#
# Total GULP energy -89290.203034 kJ/mol
# GULP energy per Si atom -5580.637690 kJ/mol
# Density = 2.164955 g / cm^3
# Si number density = 21.698942 Si / 1000 Ang^3
#
#
#
# Elastic Constant Matrix: (Units=GPa)
#
#
# Indices 1 2 3 4 5 6 
#
# 1 110.5868 74.5801 45.4952 27.4690 19.2840 -16.6091
# 2 74.5801 95.1550 38.8611 24.0187 -3.9837 -30.3061
# 3 45.4952 38.8611 121.5484 42.7019 -12.2094 -21.8436
# 4 27.4690 24.0187 42.7019 45.8286 -6.8226 -1.7149
# 5 19.2840 -3.9837 -12.2094 -6.8226 40.7153 5.6199
# 6 -16.6091 -30.3061 -21.8436 -1.7149 5.6199 51.0120
#
#
#
# Elastic Compliance Matrix: (Units=1/GPa)
#
#
# Indices 1 2 3 4 5 6 
#
# 1 0.029508 -0.021936 -0.004960 -0.004362 -0.017826 -0.003731
# 2 -0.021936 0.031677 0.002629 -0.003678 0.012095 0.011347
# 3 -0.004960 0.002629 0.014538 -0.011101 0.004372 0.005317
# 4 -0.004362 -0.003678 -0.011101 0.037264 0.005689 -0.007733
# 5 -0.017826 0.012095 0.004372 0.005689 0.036531 -0.000580
# 6 -0.003731 0.011347 0.005317 -0.007733 -0.000580 0.027210
#
#
# Mechanical properties :
#
#
# Convention : Reuss Voigt Hill
#
# Bulk Modulus (GPa) = 36.77922 71.68478 54.23200
# Shear Modulus (GPa) = 21.33784 38.73476 30.03630
#
# Velocity S-wave (km/s) = 3.13926 4.22963 3.72456
# Velocity P-wave (km/s) = 5.48876 7.54724 6.59876
#
# Compressibility (1/GPa) = 0.02718926
#
# Stress axis : x y z
#
# Youngs Moduli (GPa) = 33.88867 31.56889 68.78553
#
# Poissons Ratio (x) = 0.69249 0.34120
# Poissons Ratio (y) = 0.74337 -0.18085
# Poissons Ratio (z) = 0.16810 -0.08300
#
# Static dielectric constant tensor:
#      x y z
#    x 1.816420 0.041560 0.050570 
#    y 0.041560 1.860870 0.050000 
#    z 0.050570 0.050000 1.812140 
# 
# From -- ./inp_files/448399.got.cif
#   From: 2010.05.17/outbox.cif.g08.bks.cpg/sg2_225_cif.got.tgz:448399.got - 2010.06.03 11:33:40.
