data_PCOD9103746
_publ_section_title
;
Structure prediction by ZEFSAII (Michael W. Deem and Ramdas Pophale) SiO2 
 PCOD9103746
Probable space group: P -1
;
_chemical_formula_sum "Si O2"
_cell_formula_units_Z 14
_cell_length_a 7.251138
_cell_length_b 11.351581
_cell_length_c 18.050086
_cell_angle_alpha 153.776938
_cell_angle_beta 69.335801
_cell_angle_gamma 113.896294
_cell_volume 600.020183
_symmetry_space_group_name_H-M "P -1"
_symmetry_group_IT_number 2
_symmetry_cell_setting 'triclinic'
loop_
_space_group_symop_operation_xyz
x,y,z
-x,-y,-z
loop_
_atom_site_type_symbol
_atom_site_label
_atom_site_fract_x
_atom_site_fract_y
_atom_site_fract_z
Si Si1 0.078799 0.260435 0.295333
Si Si2 0.680211 0.186472 0.993898
Si Si3 0.729334 0.641787 0.125529
Si Si4 0.734833 0.461695 0.856123
Si Si5 0.751139 0.036902 0.116700
Si Si6 0.003586 0.783378 0.552109
Si Si7 0.885195 0.527375 0.277361
O O1 0.141812 0.554678 0.413226
O O2 0.839504 0.161828 0.253568
O O3 0.115746 0.270275 0.383465
O O4 0.173227 0.011234 0.115197
O O5 0.473715 0.974039 0.885691
O O6 0.737719 0.368159 0.015167
O O7 0.701518 0.420676 0.186364
O O8 0.499411 0.689655 0.190804
O O9 0.874880 0.908517 0.287364
O O10 0.781510 0.577984 0.997904
O O11 0.917665 0.349386 0.730736
O O12 0.736154 0.718090 0.947092
O O13 0.892899 0.242835 0.158078
O O14 0.879169 0.719032 0.457420
#
# Coordination Sequence:
#
# PCOD9103746 Si02
#       7
#     2   2   2   2   2   2   2
#     4  10  21  42  67  91 122 173 210 253 307 372
#     4  11  23  39  70  94 120 166 220 252 304 375
#     4  10  22  41  64  95 124 165 215 256 300 386
#     4  10  20  38  68  87 121 172 215 248 305 374
#     4  10  20  39  67  93 123 156 223 262 291 365
#     4  10  22  39  64  91 136 163 199 261 324 365
#     4  11  22  37  63  94 128 167 201 262 320 366
#
# _framework density 23.332547999999999
#
# number of rings (size 3 to 8) (size 9 to 14) (size 15 to 20)
#    0.000    1.714    2.857    0.857    2.000    3.429 
#    0.000    6.429    6.286    0.000    0.000    0.000 
#    0.000    0.000    0.000    0.000    0.000    0.000 
#
# Total GULP energy -77951.217268 kJ/mol
# GULP energy per Si atom -5567.944091 kJ/mol
# Density = 2.327944 g / cm^3
# Si number density = 23.332548 Si / 1000 Ang^3
#
#
#
# Elastic Constant Matrix: (Units=GPa)
#
#
# Indices 1 2 3 4 5 6 
#
# 1 51.0749 3.2204 27.8036 -7.1808 20.8801 1.1120
# 2 3.2204 88.1030 13.5363 -5.7725 0.2555 -5.1231
# 3 27.8036 13.5363 100.0330 -13.7790 27.3338 -0.3547
# 4 -7.1808 -5.7725 -13.7790 37.6330 -14.3474 4.6360
# 5 20.8801 0.2555 27.3338 -14.3474 22.8170 3.4166
# 6 1.1120 -5.1231 -0.3547 4.6360 3.4166 24.8151
#
#
#
# Elastic Compliance Matrix: (Units=1/GPa)
#
#
# Indices 1 2 3 4 5 6 
#
# 1 0.033271 -0.001318 -0.000391 -0.008246 -0.035853 0.004708
# 2 -0.001318 0.011989 -0.002350 0.002602 0.005332 0.001281
# 3 -0.000391 -0.002350 0.015702 -0.003004 -0.020791 0.003181
# 4 -0.008246 0.002602 -0.003004 0.040367 0.038288 -0.011949
# 5 -0.035853 0.005332 -0.020791 0.038288 0.128927 -0.022494
# 6 0.004708 0.001281 0.003181 -0.011949 -0.022494 0.045726
#
#
# Mechanical properties :
#
#
# Convention : Reuss Voigt Hill
#
# Bulk Modulus (GPa) = 18.92424 36.48126 27.70275
# Shear Modulus (GPa) = 16.57189 30.02975 23.30082
#
# Velocity S-wave (km/s) = 2.66794 3.59142 3.16355
# Velocity P-wave (km/s) = 4.19748 5.73297 5.02423
#
# Compressibility (1/GPa) = 0.05284228
#
# Stress axis : x y z
#
# Youngs Moduli (GPa) = 30.05663 83.40949 63.68592
#
# Poissons Ratio (x) = 0.10997 0.02493
# Poissons Ratio (y) = 0.03963 0.14965
# Poissons Ratio (z) = 0.01177 0.19599
#
# Static dielectric constant tensor:
#      x y z
#    x 1.991560 0.014180 -0.016230 
#    y 0.014180 1.899540 -0.039250 
#    z -0.016230 -0.039250 1.924870 
# 
# From -- ./inp_files/559387.got.cif
#   From: 2010.05.17/outbox.cif.g08.bks.cpg/sg2_280_cif.got.tgz:559387.got - 2010.06.03 11:33:40.
