data_PCOD9103019
_publ_section_title
;
Structure prediction by ZEFSAII (Michael W. Deem and Ramdas Pophale) SiO2 
 PCOD9103019
Probable space group: P -1
;
_chemical_formula_sum "Si O2"
_cell_formula_units_Z 12
_cell_length_a 10.404102
_cell_length_b 11.997664
_cell_length_c 5.210553
_cell_angle_alpha 102.548209
_cell_angle_beta 56.023668
_cell_angle_gamma 115.020100
_cell_volume 488.590057
_symmetry_space_group_name_H-M "P -1"
_symmetry_group_IT_number 2
_symmetry_cell_setting 'triclinic'
loop_
_space_group_symop_operation_xyz
x,y,z
-x,-y,-z
loop_
_atom_site_type_symbol
_atom_site_label
_atom_site_fract_x
_atom_site_fract_y
_atom_site_fract_z
Si Si1 0.123045 0.840760 0.329768
Si Si2 0.587641 0.406629 0.606100
Si Si3 0.688138 0.014065 0.305711
Si Si4 0.880316 0.865614 0.969041
Si Si5 0.241656 0.624924 0.093632
Si Si6 0.772106 0.613197 0.169883
O O1 0.129749 0.705888 0.254479
O O2 0.943656 0.844725 0.608724
O O3 0.233799 0.914998 0.484681
O O4 0.211990 0.910471 0.012549
O O5 0.649292 0.360042 0.765345
O O6 0.704183 0.550703 0.487918
O O7 0.399016 0.400837 0.798848
O O8 0.632580 0.342495 0.274317
O O9 0.500000 0.000000 0.500000
O O10 0.704739 0.881293 0.195532
O O11 0.884075 0.754105 0.082962
O O12 0.000000 0.000000 0.000000
O O13 0.145983 0.478090 0.086940
#
# Coordination Sequence:
#
# PCOD9103019 Si02
#       6
#     2   2   2   2   2   2
#     4  11  24  44  65  95 139 166 220 276 331 397
#     4   9  20  38  60 104 125 165 215 281 321 384
#     4  11  25  45  68  96 124 183 228 271 316 388
#     4  10  24  47  65  96 140 181 217 266 334 402
#     4  10  20  38  64  96 128 161 215 273 336 373
#     4   9  21  38  66  94 134 167 219 267 339 376
#
# _framework density 24.560465000000001
#
# number of rings (size 3 to 8) (size 9 to 14) (size 15 to 20)
#    1.000    1.000    0.000    2.500    4.667    0.667 
#   12.000    0.833    0.000    0.000    0.000    0.000 
#    0.000    0.000    0.000    0.000    0.000    0.000 
#
# Total GULP energy -67073.611229 kJ/mol
# GULP energy per Si atom -5589.467602 kJ/mol
# Density = 2.450456 g / cm^3
# Si number density = 24.560465 Si / 1000 Ang^3
#
#
#
# Elastic Constant Matrix: (Units=GPa)
#
#
# Indices 1 2 3 4 5 6 
#
# 1 55.8510 22.2285 52.9542 9.0179 9.4749 -11.0808
# 2 22.2285 143.8435 54.6810 22.8741 -7.3835 -21.6168
# 3 52.9542 54.6810 142.3608 8.2773 9.0798 -15.1909
# 4 9.0179 22.8741 8.2773 38.3950 -18.4183 -16.2574
# 5 9.4749 -7.3835 9.0798 -18.4183 53.8273 4.3416
# 6 -11.0808 -21.6168 -15.1909 -16.2574 4.3416 32.6793
#
#
#
# Elastic Compliance Matrix: (Units=1/GPa)
#
#
# Indices 1 2 3 4 5 6 
#
# 1 0.030250 0.000491 -0.010316 -0.006709 -0.006076 0.003256
# 2 0.000491 0.009092 -0.003176 -0.003472 0.000271 0.002941
# 3 -0.010316 -0.003176 0.012072 0.002177 0.000000 0.001095
# 4 -0.006709 -0.003472 0.002177 0.042390 0.013574 0.015725
# 5 -0.006076 0.000271 0.000000 0.013574 0.024196 0.001658
# 6 0.003256 0.002941 0.001095 0.015725 0.001658 0.041762
#
#
# Mechanical properties :
#
#
# Convention : Reuss Voigt Hill
#
# Bulk Modulus (GPa) = 39.35213 66.86474 53.10843
# Shear Modulus (GPa) = 25.74226 39.12644 32.43435
#
# Velocity S-wave (km/s) = 3.24098 3.99565 3.63794
# Velocity P-wave (km/s) = 5.48293 6.96926 6.27030
#
# Compressibility (1/GPa) = 0.02541159
#
# Stress axis : x y z
#
# Youngs Moduli (GPa) = 33.05780 109.99268 82.83643
#
# Poissons Ratio (x) = -0.05404 0.85452
# Poissons Ratio (y) = -0.01624 0.26313
# Poissons Ratio (z) = 0.34102 0.34939
#
# Static dielectric constant tensor:
#      x y z
#    x 2.020970 0.023700 -0.029310 
#    y 0.023700 1.998260 0.000090 
#    z -0.029310 0.000090 1.954190 
# 
# From -- ./inp_files/71578.got.cif
#   From: 2010.05.17/outbox.cif.g08.bks.cpg/sg2_36_cif.got.tgz:71578.got - 2010.06.03 11:33:40.
