data_PCOD9103232
_publ_section_title
;
Structure prediction by ZEFSAII (Michael W. Deem and Ramdas Pophale) SiO2 
 PCOD9103232
Probable space group: P -1
;
_chemical_formula_sum "Si O2"
_cell_formula_units_Z 16
_cell_length_a 14.616437
_cell_length_b 9.203460
_cell_length_c 8.953095
_cell_angle_alpha 109.736222
_cell_angle_beta 40.119971
_cell_angle_gamma 105.447726
_cell_volume 730.439259
_symmetry_space_group_name_H-M "P -1"
_symmetry_group_IT_number 2
_symmetry_cell_setting 'triclinic'
loop_
_space_group_symop_operation_xyz
x,y,z
-x,-y,-z
loop_
_atom_site_type_symbol
_atom_site_label
_atom_site_fract_x
_atom_site_fract_y
_atom_site_fract_z
Si Si1 0.788096 0.863815 0.816880
Si Si2 0.632203 0.412844 0.619246
Si Si3 0.950725 0.332393 0.557057
Si Si4 0.487011 0.279849 0.039901
Si Si5 0.196751 0.120891 0.835236
Si Si6 0.106048 0.777199 0.739246
Si Si7 0.498299 0.830393 0.520359
Si Si8 0.710578 0.183049 0.950065
O O1 0.634945 0.806783 0.930620
O O2 0.911805 0.749466 0.575826
O O3 0.791088 0.870689 0.996107
O O4 0.807801 0.032888 0.781966
O O5 0.590711 0.590198 0.719213
O O6 0.793435 0.358400 0.375064
O O7 0.532242 0.304836 0.605383
O O8 0.592375 0.366489 0.822818
O O9 0.904459 0.240750 0.432838
O O10 0.000000 0.500000 0.500000
O O11 0.815585 0.325632 0.832160
O O12 0.587834 0.175181 0.976659
O O13 0.345498 0.183643 0.609639
O O14 0.175316 0.942641 0.752464
O O15 0.056048 0.213370 0.998732
O O16 0.373095 0.816208 0.790676
O O17 0.500000 0.000000 0.500000
#
# Coordination Sequence:
#
# PCOD9103232 Si02
#       8
#     2   2   2   2   2   2   2   2
#     4  11  22  42  67  96 137 173 226 279 335 398
#     4  11  21  40  64  96 139 183 218 277 336 407
#     4  11  25  43  67  98 137 179 223 279 345 401
#     4  11  24  38  66 102 135 172 228 276 342 398
#     4  10  21  37  64 100 126 182 215 273 330 402
#     4  10  20  38  65  93 130 173 228 262 332 399
#     4  12  22  42  69  97 141 177 223 274 342 397
#     4  12  25  42  68 104 131 177 233 280 328 406
#
# _framework density 21.904629
#
# number of rings (size 3 to 8) (size 9 to 14) (size 15 to 20)
#    0.000    1.000    5.000    1.500    1.750    1.500 
#    0.000    2.500    0.000    4.500    0.000    0.000 
#    0.000    0.000    0.000    0.000    0.000    0.000 
#
# Total GULP energy -89424.650533 kJ/mol
# GULP energy per Si atom -5589.040658 kJ/mol
# Density = 2.185477 g / cm^3
# Si number density = 21.904629 Si / 1000 Ang^3
#
#
#
# Elastic Constant Matrix: (Units=GPa)
#
#
# Indices 1 2 3 4 5 6 
#
# 1 75.5081 34.6702 32.6222 5.9271 -20.1013 0.4584
# 2 34.6702 84.2360 47.7372 -3.2977 -7.1450 2.4361
# 3 32.6222 47.7372 110.0835 -5.4081 -27.7800 1.2483
# 4 5.9271 -3.2977 -5.4081 34.8298 -0.6563 0.3628
# 5 -20.1013 -7.1450 -27.7800 -0.6563 43.9771 8.1620
# 6 0.4584 2.4361 1.2483 0.3628 8.1620 17.9310
#
#
#
# Elastic Compliance Matrix: (Units=1/GPa)
#
#
# Indices 1 2 3 4 5 6 
#
# 1 0.019068 -0.006708 -0.001021 -0.003869 0.007446 -0.002816
# 2 -0.006708 0.018275 -0.006999 0.001697 -0.004531 0.000204
# 3 -0.001021 -0.006999 0.014693 0.001992 0.008436 -0.003926
# 4 -0.003869 0.001697 0.001992 0.029858 0.000408 -0.001060
# 5 0.007446 -0.004531 0.008436 0.000408 0.033613 -0.015470
# 6 -0.002816 0.000204 -0.003926 -0.001060 -0.015470 0.063150
#
#
# Mechanical properties :
#
#
# Convention : Reuss Voigt Hill
#
# Bulk Modulus (GPa) = 44.28789 55.54298 49.91543
# Shear Modulus (GPa) = 23.18684 29.66745 26.42714
#
# Velocity S-wave (km/s) = 3.25704 3.68420 3.47719
# Velocity P-wave (km/s) = 5.86574 6.59618 6.24165
#
# Compressibility (1/GPa) = 0.02257954
#
# Stress axis : x y z
#
# Youngs Moduli (GPa) = 52.44517 54.71930 68.05924
#
# Poissons Ratio (x) = 0.36705 0.06948
# Poissons Ratio (y) = 0.35179 0.47637
# Poissons Ratio (z) = 0.05354 0.38300
#
# Static dielectric constant tensor:
#      x y z
#    x 1.803520 -0.012420 -0.018130 
#    y -0.012420 1.796640 0.007660 
#    z -0.018130 0.007660 1.863010 
# 
# From -- ./inp_files/299047.got.cif
#   From: 2010.05.17/outbox.cif.g08.bks.cpg/sg2_150_cif.got.tgz:299047.got - 2010.06.03 11:33:40.
