data_PCOD9103895
_publ_section_title
;
Structure prediction by ZEFSAII (Michael W. Deem and Ramdas Pophale) SiO2 
 PCOD9103895
Probable space group: P -1
;
_chemical_formula_sum "Si O2"
_cell_formula_units_Z 14
_cell_length_a 11.756501
_cell_length_b 18.344622
_cell_length_c 8.311644
_cell_angle_alpha 79.102585
_cell_angle_beta 96.188456
_cell_angle_gamma 28.113605
_cell_volume 667.685936
_symmetry_space_group_name_H-M "P -1"
_symmetry_group_IT_number 2
_symmetry_cell_setting 'triclinic'
loop_
_space_group_symop_operation_xyz
x,y,z
-x,-y,-z
loop_
_atom_site_type_symbol
_atom_site_label
_atom_site_fract_x
_atom_site_fract_y
_atom_site_fract_z
Si Si1 0.934094 0.906549 0.923380
Si Si2 0.262974 0.575309 0.981201
Si Si3 0.169442 0.733738 0.364584
Si Si4 0.173159 0.823812 0.653231
Si Si5 0.750066 0.791498 0.686582
Si Si6 0.264871 0.288510 0.571962
Si Si7 0.356975 0.066496 0.784362
O O1 0.054200 0.874685 0.793170
O O2 0.576860 0.128014 0.764868
O O3 0.021433 0.767693 0.962937
O O4 0.087974 0.831706 0.150675
O O5 0.466994 0.393858 0.180681
O O6 0.500000 0.500000 0.000000
O O7 0.066990 0.645633 0.795184
O O8 0.500000 0.500000 0.500000
O O9 0.128789 0.795169 0.507769
O O10 0.926284 0.815467 0.292236
O O11 0.000000 0.000000 0.500000
O O12 0.730272 0.726246 0.614882
O O13 0.500000 0.000000 0.500000
O O14 0.618769 0.864433 0.814779
O O15 0.239472 0.216484 0.639747
O O16 0.000000 0.500000 0.500000
O O17 0.500000 0.000000 0.000000
#
# Coordination Sequence:
#
# PCOD9103895 Si02
#       7
#     2   2   2   2   2   2   2
#     4  11  22  46  68  98 142 176 236 285 329 422
#     4  10  20  39  70  98 130 178 232 277 329 416
#     4  12  25  41  74 104 130 186 238 275 342 420
#     4  11  27  44  68 105 141 177 226 291 353 399
#     4  10  20  38  69  95 127 183 226 272 342 406
#     4  11  24  41  66 102 137 174 225 290 347 395
#     4  11  22  42  68  94 133 175 234 279 329 418
#
# _framework density 20.967941
#
# number of rings (size 3 to 8) (size 9 to 14) (size 15 to 20)
#    0.000    1.143    5.714    0.857    6.000    2.857 
#    0.000    0.714    0.000    0.000    0.000    0.000 
#    0.000    0.000    0.000    0.000    0.000    0.000 
#
# Total GULP energy -77940.564634 kJ/mol
# GULP energy per Si atom -5567.183188 kJ/mol
# Density = 2.092022 g / cm^3
# Si number density = 20.967941 Si / 1000 Ang^3
#
#
#
# Elastic Constant Matrix: (Units=GPa)
#
#
# Indices 1 2 3 4 5 6 
#
# 1 45.0937 23.0506 30.4615 -6.5034 -1.6794 -8.3932
# 2 23.0506 128.8855 53.6204 -11.1641 -1.6505 7.7802
# 3 30.4615 53.6204 155.8563 -7.3930 12.9441 -3.3326
# 4 -6.5034 -11.1641 -7.3930 52.9632 -2.5753 -5.9879
# 5 -1.6794 -1.6505 12.9441 -2.5753 39.0990 -3.7461
# 6 -8.3932 7.7802 -3.3326 -5.9879 -3.7461 26.2503
#
#
#
# Elastic Compliance Matrix: (Units=1/GPa)
#
#
# Indices 1 2 3 4 5 6 
#
# 1 0.029983 -0.003837 -0.004442 0.003754 0.003953 0.011580
# 2 -0.003837 0.009941 -0.002791 0.000797 0.000826 -0.004228
# 3 -0.004442 -0.002791 0.008500 -0.000097 -0.003127 0.000018
# 4 0.003754 0.000797 -0.000097 0.020264 0.002125 0.005877
# 5 0.003953 0.000826 -0.003127 0.002125 0.027437 0.005022
# 6 0.011580 -0.004228 0.000018 0.005877 0.005022 0.045110
#
#
# Mechanical properties :
#
#
# Convention : Reuss Voigt Hill
#
# Bulk Modulus (GPa) = 38.04913 60.45560 49.25236
# Shear Modulus (GPa) = 29.04634 38.50937 33.77785
#
# Velocity S-wave (km/s) = 3.72596 4.29019 4.01799
# Velocity P-wave (km/s) = 6.05773 7.30999 6.71312
#
# Compressibility (1/GPa) = 0.02628181
#
# Stress axis : x y z
#
# Youngs Moduli (GPa) = 33.35269 100.59097 117.64336
#
# Poissons Ratio (x) = 0.38600 0.52262
# Poissons Ratio (y) = 0.12798 0.32839
# Poissons Ratio (z) = 0.14817 0.28079
#
# Static dielectric constant tensor:
#      x y z
#    x 1.778590 -0.066230 -0.041620 
#    y -0.066230 1.813210 0.095610 
#    z -0.041620 0.095610 1.885630 
# 
# From -- ./inp_files/277931.got.cif
#   From: 2010.05.17/outbox.cif.g08.bks.cpg/sg2_139_cif.got.tgz:277931.got - 2010.06.03 11:33:40.
