data_PCOD9103066
_publ_section_title
;
Structure prediction by ZEFSAII (Michael W. Deem and Ramdas Pophale) SiO2 
 PCOD9103066
Probable space group: P -1
;
_chemical_formula_sum "Si O2"
_cell_formula_units_Z 16
_cell_length_a 5.201015
_cell_length_b 18.641049
_cell_length_c 8.980166
_cell_angle_alpha 94.927001
_cell_angle_beta 110.229421
_cell_angle_gamma 63.107635
_cell_volume 726.005742
_symmetry_space_group_name_H-M "P -1"
_symmetry_group_IT_number 2
_symmetry_cell_setting 'triclinic'
loop_
_space_group_symop_operation_xyz
x,y,z
-x,-y,-z
loop_
_atom_site_type_symbol
_atom_site_label
_atom_site_fract_x
_atom_site_fract_y
_atom_site_fract_z
Si Si1 0.525164 0.429219 0.603960
Si Si2 0.051892 0.300538 0.884853
Si Si3 0.262308 0.541108 0.827283
Si Si4 0.602845 0.817789 0.552424
Si Si5 0.342469 0.688650 0.898022
Si Si6 0.337640 0.986909 0.611467
Si Si7 0.622310 0.673252 0.679814
Si Si8 0.926238 0.842957 0.331930
O O1 0.500000 0.500000 0.500000
O O2 0.831151 0.376317 0.751206
O O3 0.285449 0.477662 0.695186
O O4 0.475499 0.364458 0.484178
O O5 0.890051 0.299012 0.010138
O O6 0.363946 0.308699 0.964818
O O7 0.100153 0.218048 0.801029
O O8 0.906765 0.596938 0.799553
O O9 0.500000 0.500000 0.000000
O O10 0.377323 0.605938 0.812324
O O11 0.750501 0.732036 0.646404
O O12 0.798393 0.825153 0.456966
O O13 0.277190 0.827276 0.422769
O O14 0.528985 0.891873 0.665305
O O15 0.358600 0.730370 0.752324
O O16 0.277876 0.060948 0.722329
O O17 0.500000 0.000000 0.500000
O O18 0.000000 0.000000 0.500000
#
# Coordination Sequence:
#
# PCOD9103066 Si02
#       8
#     2   2   2   2   2   2   2   2
#     4  12  26  40  66  97 125 162 221 280 328 363
#     4  12  26  44  66  92 127 176 212 264 316 394
#     4  12  26  46  63  88 125 175 217 263 324 390
#     4  10  21  36  66  99 131 159 206 269 327 368
#     4  12  26  46  62  87 127 178 216 251 325 387
#     4   8  16  33  58  95 132 162 193 253 324 386
#     4  12  26  43  67  95 131 166 220 276 323 373
#     4  10  20  38  64  98 131 163 209 258 319 388
#
# _framework density 22.038392999999999
#
# number of rings (size 3 to 8) (size 9 to 14) (size 15 to 20)
#    0.000    1.000    5.000    1.125    5.250    1.000 
#    0.000    0.000    0.000    1.500    0.000    0.000 
#    0.000    0.000    0.000    0.000    0.000    0.000 
#
# Total GULP energy -89150.428515 kJ/mol
# GULP energy per Si atom -5571.901782 kJ/mol
# Density = 2.198823 g / cm^3
# Si number density = 22.038393 Si / 1000 Ang^3
#
#
#
# Elastic Constant Matrix: (Units=GPa)
#
#
# Indices 1 2 3 4 5 6 
#
# 1 121.5191 -0.9505 21.2082 2.8912 -1.8644 2.0430
# 2 -0.9505 112.9276 35.6912 20.5873 -8.4768 -3.9823
# 3 21.2082 35.6912 88.6973 12.4418 -9.1777 -13.0186
# 4 2.8912 20.5873 12.4418 26.0578 -1.1935 -5.1162
# 5 -1.8644 -8.4768 -9.1777 -1.1935 25.5071 3.3159
# 6 2.0430 -3.9823 -13.0186 -5.1162 3.3159 26.4049
#
#
#
# Elastic Compliance Matrix: (Units=1/GPa)
#
#
# Indices 1 2 3 4 5 6 
#
# 1 0.008760 0.001024 -0.002653 -0.000903 0.000248 -0.002038
# 2 0.001024 0.011609 -0.003880 -0.007722 0.002441 -0.002044
# 3 -0.002653 -0.003880 0.015034 -0.002468 0.003007 0.006177
# 4 -0.000903 -0.007722 -0.002468 0.047044 -0.002240 0.007085
# 5 0.000248 0.002441 0.003007 -0.002240 0.041507 -0.003815
# 6 -0.002038 -0.002044 0.006177 0.007085 -0.003815 0.042618
#
#
# Mechanical properties :
#
#
# Convention : Reuss Voigt Hill
#
# Bulk Modulus (GPa) = 41.01217 48.33797 44.67507
# Shear Modulus (GPa) = 26.92216 33.40698 30.16457
#
# Velocity S-wave (km/s) = 3.49893 3.89762 3.70365
# Velocity P-wave (km/s) = 5.91382 6.49895 6.21328
#
# Compressibility (1/GPa) = 0.02438301
#
# Stress axis : x y z
#
# Youngs Moduli (GPa) = 114.15848 86.13801 66.51554
#
# Poissons Ratio (x) = -0.08817 0.17648
# Poissons Ratio (y) = -0.11685 0.25811
# Poissons Ratio (z) = 0.30288 0.33426
#
# Static dielectric constant tensor:
#      x y z
#    x 1.993600 0.007110 -0.051960 
#    y 0.007110 1.880770 -0.038130 
#    z -0.051960 -0.038130 1.859980 
# 
# From -- ./inp_files/139173.got.cif
#   From: 2010.05.17/outbox.cif.g08.bks.cpg/sg2_70_cif.got.tgz:139173.got - 2010.06.03 11:33:40.
