data_PCOD9103971
_publ_section_title
;
Structure prediction by ZEFSAII (Michael W. Deem and Ramdas Pophale) SiO2 
 PCOD9103971
Probable space group: P -1
;
_chemical_formula_sum "Si O2"
_cell_formula_units_Z 14
_cell_length_a 7.008464
_cell_length_b 16.281628
_cell_length_c 11.612991
_cell_angle_alpha 32.557962
_cell_angle_beta 112.589823
_cell_angle_gamma 126.822532
_cell_volume 547.870677
_symmetry_space_group_name_H-M "P -1"
_symmetry_group_IT_number 2
_symmetry_cell_setting 'triclinic'
loop_
_space_group_symop_operation_xyz
x,y,z
-x,-y,-z
loop_
_atom_site_type_symbol
_atom_site_label
_atom_site_fract_x
_atom_site_fract_y
_atom_site_fract_z
Si Si1 0.939421 0.342030 0.080208
Si Si2 0.438624 0.308151 0.966120
Si Si3 0.526896 0.350231 0.461113
Si Si4 0.762843 0.032082 0.558852
Si Si5 0.180114 0.799976 0.378360
Si Si6 0.951674 0.414660 0.747782
Si Si7 0.389841 0.166167 0.878154
O O1 0.946019 0.179976 0.332709
O O2 0.661485 0.277673 0.056085
O O3 0.059527 0.400810 0.912668
O O4 0.000000 0.500000 0.000000
O O5 0.546310 0.519558 0.765507
O O6 0.350006 0.255462 0.875507
O O7 0.256015 0.155647 0.197230
O O8 0.584426 0.222005 0.551776
O O9 0.363121 0.235836 0.667083
O O10 0.816221 0.510096 0.372755
O O11 0.825923 0.129844 0.581315
O O12 0.500000 0.000000 0.500000
O O13 0.944379 0.594201 0.551187
O O14 0.225170 0.949987 0.118536
O O15 0.685087 0.241544 0.858172
#
# Coordination Sequence:
#
# PCOD9103971 Si02
#       7
#     2   2   2   2   2   2   2
#     4  10  16  33  54  72  98 137 176 211 252 314
#     4   9  20  32  54  79 102 136 173 216 267 302
#     4  10  19  35  51  78 112 132 168 228 261 291
#     4   9  17  33  54  74  97 139 176 210 255 318
#     4   9  19  32  55  79 104 134 184 208 251 319
#     4   9  20  31  55  79 103 133 185 204 254 316
#     4  10  18  35  57  74 104 148 175 201 258 320
#
# _framework density 25.553474999999999
#
# number of rings (size 3 to 8) (size 9 to 14) (size 15 to 20)
#    0.857    1.714    1.429    2.143    0.000    0.000 
#    0.000    8.571    0.000    3.429    0.000    0.000 
#    0.000    0.000    0.000    0.000    0.000    0.000 
#
# Total GULP energy -78045.508222 kJ/mol
# GULP energy per Si atom -5574.679159 kJ/mol
# Density = 2.549531 g / cm^3
# Si number density = 25.553475 Si / 1000 Ang^3
#
#
#
# Elastic Constant Matrix: (Units=GPa)
#
#
# Indices 1 2 3 4 5 6 
#
# 1 45.0404 6.8280 34.1028 2.3069 6.3578 -3.4913
# 2 6.8280 62.8026 25.2834 7.9948 -8.1846 -1.7373
# 3 34.1028 25.2834 231.4878 1.7197 -22.2893 -28.5701
# 4 2.3069 7.9948 1.7197 25.3177 -6.4856 -3.4068
# 5 6.3578 -8.1846 -22.2893 -6.4856 34.0216 -7.9923
# 6 -3.4913 -1.7373 -28.5701 -3.4068 -7.9923 20.8586
#
#
#
# Elastic Compliance Matrix: (Units=1/GPa)
#
#
# Indices 1 2 3 4 5 6 
#
# 1 0.029093 -0.001726 -0.006787 -0.006780 -0.014204 -0.011120
# 2 -0.001726 0.017619 -0.001467 -0.004738 0.002550 -0.000628
# 3 -0.006787 -0.001467 0.008403 0.005414 0.011064 0.015375
# 4 -0.006780 -0.004738 0.005414 0.048576 0.017782 0.020634
# 5 -0.014204 0.002550 0.011064 0.017782 0.051686 0.035698
# 6 -0.011120 -0.000628 0.015375 0.020634 0.035698 0.084135
#
#
# Mechanical properties :
#
#
# Convention : Reuss Voigt Hill
#
# Bulk Modulus (GPa) = 28.44586 52.41770 40.43178
# Shear Modulus (GPa) = 18.43720 34.24735 26.34227
#
# Velocity S-wave (km/s) = 2.68902 3.66488 3.21420
# Velocity P-wave (km/s) = 4.56039 6.20209 5.44348
#
# Compressibility (1/GPa) = 0.03515450
#
# Stress axis : x y z
#
# Youngs Moduli (GPa) = 34.37229 56.75629 119.00997
#
# Poissons Ratio (x) = 0.09798 0.80774
# Poissons Ratio (y) = 0.05934 0.17457
# Poissons Ratio (z) = 0.23329 0.08325
#
# Static dielectric constant tensor:
#      x y z
#    x 2.094630 0.055820 -0.036730 
#    y 0.055820 2.010690 0.055570 
#    z -0.036730 0.055570 2.210460 
# 
# From -- ./inp_files/402691.got.cif
#   From: 2010.05.17/outbox.cif.g08.bks.cpg/sg2_202_cif.got.tgz:402691.got - 2010.06.03 11:33:40.
