data_PCOD9103400
_publ_section_title
;
Structure prediction by ZEFSAII (Michael W. Deem and Ramdas Pophale) SiO2 
 PCOD9103400
Probable space group: P -1
;
_chemical_formula_sum "Si O2"
_cell_formula_units_Z 16
_cell_length_a 12.694675
_cell_length_b 12.832659
_cell_length_c 5.251850
_cell_angle_alpha 59.689106
_cell_angle_beta 96.799163
_cell_angle_gamma 84.877284
_cell_volume 722.240505
_symmetry_space_group_name_H-M "P -1"
_symmetry_group_IT_number 2
_symmetry_cell_setting 'triclinic'
loop_
_space_group_symop_operation_xyz
x,y,z
-x,-y,-z
loop_
_atom_site_type_symbol
_atom_site_label
_atom_site_fract_x
_atom_site_fract_y
_atom_site_fract_z
Si Si1 0.521140 0.637396 0.387775
Si Si2 0.510233 0.200567 0.336764
Si Si3 0.123306 0.544110 0.662239
Si Si4 0.028917 0.318606 0.887473
Si Si5 0.199800 0.189102 0.759219
Si Si6 0.326406 0.051272 0.357679
Si Si7 0.082361 0.087999 0.477101
Si Si8 0.767289 0.566159 0.689472
O O1 0.500000 0.500000 0.500000
O O2 0.466172 0.721501 0.503487
O O3 0.642707 0.608827 0.556081
O O4 0.505211 0.713100 0.025320
O O5 0.401779 0.137962 0.407458
O O6 0.606275 0.085355 0.461509
O O7 0.035689 0.455500 0.805873
O O8 0.188088 0.498391 0.480319
O O9 0.052734 0.669577 0.388186
O O10 0.198749 0.524551 0.953316
O O11 0.148211 0.268396 0.883011
O O12 0.014638 0.219275 0.209343
O O13 0.117142 0.102241 0.759689
O O14 0.198034 0.300291 0.423491
O O15 0.307012 0.107238 0.996473
O O16 0.205021 0.055027 0.431540
O O17 0.000000 0.000000 0.500000
#
# Coordination Sequence:
#
# PCOD9103400 Si02
#       8
#     2   2   2   2   2   2   2   2
#     4  12  26  46  68 102 143 181 220 284 367 420
#     4  11  25  45  77 105 137 179 237 295 339 413
#     4  10  21  36  63  94 121 165 224 275 314 391
#     4   9  21  35  57  92 124 166 217 274 324 390
#     4  10  20  38  66  88 133 173 225 276 340 407
#     4  10  24  42  71 108 129 181 238 296 338 405
#     4  11  23  41  63  94 140 180 220 278 354 417
#     4  11  21  39  65  93 127 171 225 272 337 401
#
# _framework density 22.153283999999999
#
# number of rings (size 3 to 8) (size 9 to 14) (size 15 to 20)
#    0.000    1.500    2.500    1.875    5.250    4.500 
#    2.250    2.500    0.000    0.000    0.000    0.000 
#    0.000    0.000    0.000    0.000    0.000    0.000 
#
# Total GULP energy -89084.343241 kJ/mol
# GULP energy per Si atom -5567.771453 kJ/mol
# Density = 2.210286 g / cm^3
# Si number density = 22.153284 Si / 1000 Ang^3
#
#
#
# Elastic Constant Matrix: (Units=GPa)
#
#
# Indices 1 2 3 4 5 6 
#
# 1 50.6156 27.6650 16.5020 -1.1673 9.1512 -5.8858
# 2 27.6650 115.0995 40.8164 10.1731 -8.5356 5.2828
# 3 16.5020 40.8164 133.0006 10.4598 17.7790 -11.8882
# 4 -1.1673 10.1731 10.4598 32.0480 -8.2557 -0.0113
# 5 9.1512 -8.5356 17.7790 -8.2557 24.1647 1.1282
# 6 -5.8858 5.2828 -11.8882 -0.0113 1.1282 35.5102
#
#
#
# Elastic Compliance Matrix: (Units=1/GPa)
#
#
# Indices 1 2 3 4 5 6 
#
# 1 0.027494 -0.008746 0.002072 -0.000933 -0.015674 0.007049
# 2 -0.008746 0.013863 -0.005373 0.000257 0.012516 -0.005708
# 3 0.002072 -0.005373 0.011609 -0.005442 -0.013337 0.005451
# 4 -0.000933 0.000257 -0.005442 0.037324 0.017318 -0.002553
# 5 -0.015674 0.012516 -0.013337 0.017318 0.067986 -0.011079
# 6 0.007049 -0.005708 0.005451 -0.002553 -0.011079 0.032355
#
#
# Mechanical properties :
#
#
# Convention : Reuss Voigt Hill
#
# Bulk Modulus (GPa) = 34.63749 52.07581 43.35665
# Shear Modulus (GPa) = 22.28670 32.59339 27.44004
#
# Velocity S-wave (km/s) = 3.17523 3.83987 3.52326
# Velocity P-wave (km/s) = 5.39556 6.57401 6.01372
#
# Compressibility (1/GPa) = 0.02887045
#
# Stress axis : x y z
#
# Youngs Moduli (GPa) = 36.37184 72.13354 86.14312
#
# Poissons Ratio (x) = 0.63090 -0.17845
# Poissons Ratio (y) = 0.31812 0.46283
# Poissons Ratio (z) = -0.07535 0.38756
#
# Static dielectric constant tensor:
#      x y z
#    x 1.935030 -0.003110 -0.018220 
#    y -0.003110 1.992580 0.016250 
#    z -0.018220 0.016250 1.883330 
# 
# From -- ./inp_files/94486.got.cif
#   From: 2010.05.17/outbox.cif.g08.bks.cpg/sg2_48_cif.got.tgz:94486.got - 2010.06.03 11:33:40.
