data_PCOD9103333
_publ_section_title
;
Structure prediction by ZEFSAII (Michael W. Deem and Ramdas Pophale) SiO2 
 PCOD9103333
Probable space group: P -1
;
_chemical_formula_sum "Si O2"
_cell_formula_units_Z 11
_cell_length_a 11.600643
_cell_length_b 7.655960
_cell_length_c 9.170422
_cell_angle_alpha 62.836215
_cell_angle_beta 49.446120
_cell_angle_gamma 38.582325
_cell_volume 383.618198
_symmetry_space_group_name_H-M "P -1"
_symmetry_group_IT_number 2
_symmetry_cell_setting 'triclinic'
loop_
_space_group_symop_operation_xyz
x,y,z
-x,-y,-z
loop_
_atom_site_type_symbol
_atom_site_label
_atom_site_fract_x
_atom_site_fract_y
_atom_site_fract_z
Si Si1 0.500000 0.000000 0.000000
Si Si2 0.829577 0.933717 0.303865
Si Si3 0.993140 0.796225 0.906725
Si Si4 0.350918 0.722797 0.218920
Si Si5 0.320317 0.418146 0.566793
Si Si6 0.743879 0.600799 0.684641
O O1 0.366096 0.151253 0.206315
O O2 0.522888 0.733246 0.105244
O O3 0.015429 0.677674 0.355646
O O4 0.891305 0.107865 0.188427
O O5 0.577007 0.167941 0.464080
O O6 0.876746 0.836451 0.133219
O O7 0.181871 0.494068 0.792491
O O8 0.822492 0.989930 0.841353
O O9 0.269942 0.688634 0.446544
O O10 0.389344 0.483570 0.188127
O O11 0.254836 0.346598 0.507923
#
# Coordination Sequence:
#
# PCOD9103333 Si02
#       6
#     1   2   2   2   2   2
#     4  12  20  40  66 100 128 172 218 266 320 388
#     4  10  21  36  67 102 122 172 224 252 331 388
#     4  10  20  38  65  99 131 167 217 269 318 388
#     4   9  22  37  67  93 128 172 215 260 325 381
#     4  10  21  42  66  96 133 169 214 270 324 378
#     4   9  23  40  66  95 129 169 218 264 318 388
#
# _framework density 28.674344000000001
#
# number of rings (size 3 to 8) (size 9 to 14) (size 15 to 20)
#    1.091    1.091    0.000    2.727    7.636    0.000 
#    0.000    4.545    0.000    2.182    0.000    0.000 
#    0.000    0.000    0.000    0.000    0.000    0.000 
#
# Total GULP energy -61360.768554 kJ/mol
# GULP energy per Si atom -5578.251687 kJ/mol
# Density = 2.860908 g / cm^3
# Si number density = 28.674344 Si / 1000 Ang^3
#
#
#
# Elastic Constant Matrix: (Units=GPa)
#
#
# Indices 1 2 3 4 5 6 
#
# 1 91.8678 45.0546 21.4052 3.9096 37.6294 -12.2355
# 2 45.0546 120.5090 49.6090 4.5383 9.7398 -19.4046
# 3 21.4052 49.6090 173.5261 21.3876 40.1010 -31.5518
# 4 3.9096 4.5383 21.3876 40.5268 18.0731 -9.9614
# 5 37.6294 9.7398 40.1010 18.0731 42.8482 1.1839
# 6 -12.2355 -19.4046 -31.5518 -9.9614 1.1839 40.5474
#
#
#
# Elastic Compliance Matrix: (Units=1/GPa)
#
#
# Indices 1 2 3 4 5 6 
#
# 1 0.034198 -0.011159 0.010769 0.017119 -0.045317 0.018888
# 2 -0.011159 0.013375 -0.005656 -0.004369 0.013975 -0.002850
# 3 0.010769 -0.005656 0.013024 0.006324 -0.023385 0.012914
# 4 0.017119 -0.004369 0.006324 0.041989 -0.038207 0.019427
# 5 -0.045317 0.013975 -0.023385 -0.038207 0.098995 -0.037460
# 6 0.018888 -0.002850 0.012914 0.019427 -0.037460 0.044914
#
#
# Mechanical properties :
#
#
# Convention : Reuss Voigt Hill
#
# Bulk Modulus (GPa) = 20.61725 68.67118 44.64422
# Shear Modulus (GPa) = 18.19788 42.77341 30.48564
#
# Velocity S-wave (km/s) = 2.52194 3.86644 3.26416
# Velocity P-wave (km/s) = 3.96055 6.62820 5.45981
#
# Compressibility (1/GPa) = 0.04850307
#
# Stress axis : x y z
#
# Youngs Moduli (GPa) = 29.24138 74.76617 76.77957
#
# Poissons Ratio (x) = 0.83435 -0.82682
# Poissons Ratio (y) = 0.32632 0.43430
# Poissons Ratio (z) = -0.31489 0.42291
#
# Static dielectric constant tensor:
#      x y z
#    x 2.524050 -0.032940 0.110510 
#    y -0.032940 2.248170 -0.233270 
#    z 0.110510 -0.233270 2.563910 
# 
# From -- ./inp_files/414615.got.cif
#   From: 2010.05.17/outbox.cif.g08.bks.cpg/sg2_208_cif.got.tgz:414615.got - 2010.06.03 11:33:40.
