data_PCOD9103726
_publ_section_title
;
Structure prediction by ZEFSAII (Michael W. Deem and Ramdas Pophale) SiO2 
 PCOD9103726
Probable space group: P -1
;
_chemical_formula_sum "Si O2"
_cell_formula_units_Z 13
_cell_length_a 7.094562
_cell_length_b 8.060767
_cell_length_c 14.484391
_cell_angle_alpha 99.972383
_cell_angle_beta 92.753331
_cell_angle_gamma 143.279423
_cell_volume 462.580631
_symmetry_space_group_name_H-M "P -1"
_symmetry_group_IT_number 2
_symmetry_cell_setting 'triclinic'
loop_
_space_group_symop_operation_xyz
x,y,z
-x,-y,-z
loop_
_atom_site_type_symbol
_atom_site_label
_atom_site_fract_x
_atom_site_fract_y
_atom_site_fract_z
Si Si1 0.397545 0.602012 0.053672
Si Si2 0.500000 0.000000 0.000000
Si Si3 0.144771 0.412477 0.496711
Si Si4 0.536174 0.779085 0.380213
Si Si5 0.355520 0.065632 0.185629
Si Si6 0.092630 0.236415 0.178882
Si Si7 0.021487 0.681070 0.318467
O O1 0.096308 0.348194 0.094305
O O2 0.500000 0.500000 0.000000
O O3 0.378482 0.714999 0.979796
O O4 0.709642 0.902601 0.151571
O O5 0.672216 0.087566 0.910146
O O6 0.137139 0.352389 0.597352
O O7 0.000000 0.500000 0.500000
O O8 0.482802 0.676821 0.473935
O O9 0.912416 0.110843 0.406864
O O10 0.325084 0.504045 0.282059
O O11 0.346346 0.818645 0.369538
O O12 0.271397 0.190777 0.162528
O O13 0.739243 0.340914 0.251327
O O14 0.125686 0.864985 0.250452
#
# Coordination Sequence:
#
# PCOD9103726 Si02
#       7
#     2   1   2   2   2   2   2
#     4  12  26  48  72 102 141 184 234 292 349 414
#     4  12  28  46  76 102 134 186 240 278 360 410
#     4  10  20  38  68 100 134 176 232 290 343 416
#     4  11  21  40  69  98 134 182 230 286 353 410
#     4  12  26  42  66  97 138 179 229 288 343 414
#     4  12  26  47  67 102 145 182 228 291 358 409
#     4  11  22  42  65  98 131 175 232 284 338 413
#
# _framework density 28.103207999999999
#
# number of rings (size 3 to 8) (size 9 to 14) (size 15 to 20)
#    0.000    0.615    1.538    8.769    0.000    1.231 
#    0.000    4.615    0.000    0.000    0.000    0.000 
#    0.000    0.000    0.000    0.000    0.000    0.000 
#
# Total GULP energy -72704.331080 kJ/mol
# GULP energy per Si atom -5592.640852 kJ/mol
# Density = 2.803924 g / cm^3
# Si number density = 28.103208 Si / 1000 Ang^3
#
#
#
# Elastic Constant Matrix: (Units=GPa)
#
#
# Indices 1 2 3 4 5 6 
#
# 1 91.5484 9.0495 17.2077 -10.0848 -10.2941 -28.6863
# 2 9.0495 187.5851 53.1962 -7.4186 0.7018 -4.7483
# 3 17.2077 53.1962 139.8078 1.8044 -6.5263 -9.4841
# 4 -10.0848 -7.4186 1.8044 70.3807 -1.4868 5.8032
# 5 -10.2941 0.7018 -6.5263 -1.4868 38.7274 5.9230
# 6 -28.6863 -4.7483 -9.4841 5.8032 5.9230 37.9211
#
#
#
# Elastic Compliance Matrix: (Units=1/GPa)
#
#
# Indices 1 2 3 4 5 6 
#
# 1 0.014760 -0.000129 -0.000978 0.001320 0.002228 0.010355
# 2 -0.000129 0.006020 -0.002303 0.000659 -0.000515 0.000060
# 3 -0.000978 -0.002303 0.008271 -0.000655 0.001000 0.000984
# 4 0.001320 0.000659 -0.000655 0.014627 0.001016 -0.001480
# 5 0.002228 -0.000515 0.001000 0.001016 0.027014 -0.002504
# 6 0.010355 0.000060 0.000984 -0.001480 -0.002504 0.035075
#
#
# Mechanical properties :
#
#
# Convention : Reuss Voigt Hill
#
# Bulk Modulus (GPa) = 44.98176 64.20534 54.59355
# Shear Modulus (GPa) = 41.66723 52.03836 46.85280
#
# Velocity S-wave (km/s) = 3.85470 4.30779 4.08753
# Velocity P-wave (km/s) = 5.98767 6.90207 6.46107
#
# Compressibility (1/GPa) = 0.02223123
#
# Stress axis : x y z
#
# Youngs Moduli (GPa) = 67.74864 166.11901 120.89945
#
# Poissons Ratio (x) = 0.02137 0.11828
# Poissons Ratio (y) = 0.00872 0.27845
# Poissons Ratio (z) = 0.06628 0.38260
#
# Static dielectric constant tensor:
#      x y z
#    x 2.257510 -0.033730 0.041300 
#    y -0.033730 2.076790 -0.007940 
#    z 0.041300 -0.007940 2.159550 
# 
# From -- ./inp_files/201685.got.cif
#   From: 2010.05.17/outbox.cif.g08.bks.cpg/sg2_101_cif.got.tgz:201685.got - 2010.06.03 11:33:40.
