data_PCOD9103921
_publ_section_title
;
Structure prediction by ZEFSAII (Michael W. Deem and Ramdas Pophale) SiO2 
 PCOD9103921
Probable space group: P -1
;
_chemical_formula_sum "Si O2"
_cell_formula_units_Z 15
_cell_length_a 11.376052
_cell_length_b 11.609354
_cell_length_c 7.676897
_cell_angle_alpha 91.130071
_cell_angle_beta 38.202039
_cell_angle_gamma 95.282614
_cell_volume 622.071095
_symmetry_space_group_name_H-M "P -1"
_symmetry_group_IT_number 2
_symmetry_cell_setting 'triclinic'
loop_
_space_group_symop_operation_xyz
x,y,z
-x,-y,-z
loop_
_atom_site_type_symbol
_atom_site_label
_atom_site_fract_x
_atom_site_fract_y
_atom_site_fract_z
Si Si1 0.000000 0.500000 0.000000
Si Si2 0.252258 0.540729 0.064954
Si Si3 0.595688 0.124696 0.833839
Si Si4 0.527334 0.707238 0.533934
Si Si5 0.042571 0.743343 0.441098
Si Si6 0.680287 0.096929 0.332409
Si Si7 0.947207 0.767796 0.160045
Si Si8 0.653317 0.693170 0.999519
O O1 0.879517 0.498021 0.952117
O O2 0.004201 0.645224 0.013167
O O3 0.446691 0.605552 0.754048
O O4 0.141797 0.624949 0.315426
O O5 0.308312 0.433866 0.109448
O O6 0.783843 0.158596 0.727207
O O7 0.656909 0.118773 0.563141
O O8 0.458746 0.227076 0.990900
O O9 0.500000 0.000000 0.000000
O O10 0.371804 0.795541 0.719326
O O11 0.731625 0.772416 0.350045
O O12 0.545982 0.671991 0.309054
O O13 0.946150 0.752236 0.367750
O O14 0.871274 0.752484 0.776133
O O15 0.500000 0.000000 0.500000
O O16 0.908868 0.115020 0.040034
#
# Coordination Sequence:
#
# PCOD9103921 Si02
#       8
#     1   2   2   2   2   2   2   2
#     4  10  20  38  70 100 144 170 228 282 346 402
#     4  11  23  42  72 104 147 186 227 289 343 435
#     4  11  27  46  70  97 141 183 231 298 351 410
#     4  11  23  43  71 105 134 178 239 283 347 414
#     4  11  25  44  66 103 148 180 226 282 361 412
#     4  11  24  46  73  98 134 183 241 287 345 411
#     4  11  23  40  71 101 134 183 226 286 341 417
#     4  11  25  43  68 105 135 187 227 282 354 415
#
# _framework density 24.112998999999999
#
# number of rings (size 3 to 8) (size 9 to 14) (size 15 to 20)
#    0.000    1.067    4.000    2.400    1.867    1.600 
#    2.400    0.000    0.000    0.000    0.000    0.000 
#    0.000    0.000    0.000    0.000    0.000    0.000 
#
# Total GULP energy -83551.490241 kJ/mol
# GULP energy per Si atom -5570.099349 kJ/mol
# Density = 2.405812 g / cm^3
# Si number density = 24.112999 Si / 1000 Ang^3
#
#
#
# Elastic Constant Matrix: (Units=GPa)
#
#
# Indices 1 2 3 4 5 6 
#
# 1 79.0430 19.3287 8.9216 -7.7891 -14.4146 5.5289
# 2 19.3287 36.0583 9.7418 -23.9226 1.4342 -2.0397
# 3 8.9216 9.7418 102.1446 -19.4449 -8.1581 -1.3186
# 4 -7.7891 -23.9226 -19.4449 31.7400 6.4319 1.0040
# 5 -14.4146 1.4342 -8.1581 6.4319 31.3097 -7.0677
# 6 5.5289 -2.0397 -1.3186 1.0040 -7.0677 48.5970
#
#
#
# Elastic Compliance Matrix: (Units=1/GPa)
#
#
# Indices 1 2 3 4 5 6 
#
# 1 0.018029 -0.017714 -0.001287 -0.011914 0.011002 -0.000983
# 2 -0.017714 0.077897 0.003981 0.061469 -0.023143 0.000757
# 3 -0.001287 0.003981 0.011378 0.009573 0.000330 0.000472
# 4 -0.011914 0.061469 0.009573 0.085594 -0.023617 -0.001008
# 5 0.011002 -0.023143 0.000330 -0.023617 0.044058 0.004681
# 6 -0.000983 0.000757 0.000472 -0.001008 0.004681 0.021436
#
#
# Mechanical properties :
#
#
# Convention : Reuss Voigt Hill
#
# Bulk Modulus (GPa) = 12.94264 32.58111 22.76188
# Shear Modulus (GPa) = 15.91404 34.27960 25.09682
#
# Velocity S-wave (km/s) = 2.57179 3.77453 3.22964
# Velocity P-wave (km/s) = 3.76802 5.70415 4.83401
#
# Compressibility (1/GPa) = 0.07726398
#
# Stress axis : x y z
#
# Youngs Moduli (GPa) = 55.46478 12.83741 87.89176
#
# Poissons Ratio (x) = 0.22740 0.11314
# Poissons Ratio (y) = 0.98250 -0.34990
# Poissons Ratio (z) = 0.07140 -0.05111
#
# Static dielectric constant tensor:
#      x y z
#    x 1.592460 -0.872640 1.635320 
#    y -0.872640 -0.619530 4.870530 
#    z 1.635320 4.870530 -7.216670 
# 
# From -- ./inp_files/253424.got.cif
#   From: 2010.05.17/outbox.cif.g08.bks.cpg/sg2_127_cif.got.tgz:253424.got - 2010.06.03 11:33:40.
