data_PCOD9103336
_publ_section_title
;
Structure prediction by ZEFSAII (Michael W. Deem and Ramdas Pophale) SiO2 
 PCOD9103336
Probable space group: P -1
;
_chemical_formula_sum "Si O2"
_cell_formula_units_Z 14
_cell_length_a 20.178659
_cell_length_b 5.201398
_cell_length_c 6.755191
_cell_angle_alpha 111.933155
_cell_angle_beta 114.185777
_cell_angle_gamma 98.513680
_cell_volume 560.697591
_symmetry_space_group_name_H-M "P -1"
_symmetry_group_IT_number 2
_symmetry_cell_setting 'triclinic'
loop_
_space_group_symop_operation_xyz
x,y,z
-x,-y,-z
loop_
_atom_site_type_symbol
_atom_site_label
_atom_site_fract_x
_atom_site_fract_y
_atom_site_fract_z
Si Si1 0.007786 0.688451 0.365529
Si Si2 0.280056 0.003305 0.061890
Si Si3 0.178492 0.028457 0.619376
Si Si4 0.742201 0.551695 0.524510
Si Si5 0.576300 0.250656 0.252994
Si Si6 0.157699 0.506479 0.029869
Si Si7 0.429385 0.111669 0.487129
O O1 0.000000 0.500000 0.500000
O O2 0.931978 0.522373 0.092874
O O3 0.000000 0.000000 0.500000
O O4 0.094864 0.773564 0.417732
O O5 0.284849 0.292268 0.277404
O O6 0.364604 0.996705 0.206343
O O7 0.210985 0.755840 0.020374
O O8 0.252387 0.975471 0.794068
O O9 0.205383 0.226600 0.513438
O O10 0.160970 0.214705 0.837646
O O11 0.657511 0.392297 0.276268
O O12 0.799667 0.433757 0.688845
O O13 0.551350 0.535085 0.360776
O O14 0.603498 0.072478 0.406830
O O15 0.500000 0.000000 0.000000
O O16 0.500000 0.000000 0.500000
#
# Coordination Sequence:
#
# PCOD9103336 Si02
#       7
#     2   2   2   2   2   2   2
#     4  10  20  38  65  99 139 176 228 283 337 406
#     4  10  21  42  67  92 138 180 225 288 350 412
#     4  10  22  40  67  99 131 186 230 277 347 422
#     4  10  23  42  66  98 137 178 234 286 350 423
#     4  11  24  47  69 100 142 182 232 305 360 415
#     4  10  20  40  66  91 139 184 223 285 344 408
#     4  11  24  46  71 100 137 185 238 290 363 434
#
# _framework density 24.968896000000001
#
# number of rings (size 3 to 8) (size 9 to 14) (size 15 to 20)
#    0.000    1.714    2.857    0.857    0.000    2.857 
#    7.714    0.714    0.000    0.000    0.000    0.000 
#    0.000    0.000    0.000    0.000    0.000    0.000 
#
# Total GULP energy -78149.808502 kJ/mol
# GULP energy per Si atom -5582.129179 kJ/mol
# Density = 2.491207 g / cm^3
# Si number density = 24.968896 Si / 1000 Ang^3
#
#
#
# Elastic Constant Matrix: (Units=GPa)
#
#
# Indices 1 2 3 4 5 6 
#
# 1 126.2660 23.2724 41.4629 20.2633 27.7674 -2.5618
# 2 23.2724 131.3387 51.2653 -3.6340 15.6770 7.5722
# 3 41.4629 51.2653 185.4675 4.9119 27.4133 -0.9094
# 4 20.2633 -3.6340 4.9119 51.0976 7.6730 2.4910
# 5 27.7674 15.6770 27.4133 7.6730 43.9115 5.3972
# 6 -2.5618 7.5722 -0.9094 2.4910 5.3972 48.2087
#
#
#
# Elastic Compliance Matrix: (Units=1/GPa)
#
#
# Indices 1 2 3 4 5 6 
#
# 1 0.010117 -0.000912 -0.001188 -0.003290 -0.004925 0.001380
# 2 -0.000912 0.008878 -0.002093 0.001468 -0.001370 -0.001405
# 3 -0.001188 -0.002093 0.006643 0.000062 -0.002745 0.000695
# 4 -0.003290 0.001468 0.000062 0.021345 -0.002055 -0.001277
# 5 -0.004925 -0.001370 -0.002745 -0.002055 0.028845 -0.003222
# 6 0.001380 -0.001405 0.000695 -0.001277 -0.003222 0.021477
#
#
# Mechanical properties :
#
#
# Convention : Reuss Voigt Hill
#
# Bulk Modulus (GPa) = 57.96333 75.00816 66.48575
# Shear Modulus (GPa) = 44.86653 50.44834 47.65743
#
# Velocity S-wave (km/s) = 4.24358 4.49982 4.37357
# Velocity P-wave (km/s) = 6.87570 7.55669 7.22423
#
# Compressibility (1/GPa) = 0.01725229
#
# Stress axis : x y z
#
# Youngs Moduli (GPa) = 98.84334 112.64178 150.52329
#
# Poissons Ratio (x) = 0.10270 0.17880
# Poissons Ratio (y) = 0.09012 0.31510
# Poissons Ratio (z) = 0.11741 0.23580
#
# Static dielectric constant tensor:
#      x y z
#    x 2.139510 -0.102670 -0.053280 
#    y -0.102670 2.101200 0.133080 
#    z -0.053280 0.133080 2.165120 
# 
# From -- ./inp_files/114836.got.cif
#   From: 2010.05.17/outbox.cif.g08.bks.cpg/sg2_58_cif.got.tgz:114836.got - 2010.06.03 11:33:40.
