data_PCOD9103301
_publ_section_title
;
Structure prediction by ZEFSAII (Michael W. Deem and Ramdas Pophale) SiO2 
 PCOD9103301
Probable space group: P -1
;
_chemical_formula_sum "Si O2"
_cell_formula_units_Z 14
_cell_length_a 10.687852
_cell_length_b 10.621630
_cell_length_c 13.118861
_cell_angle_alpha 120.197225
_cell_angle_beta 136.338855
_cell_angle_gamma 31.871797
_cell_volume 516.941129
_symmetry_space_group_name_H-M "P -1"
_symmetry_group_IT_number 2
_symmetry_cell_setting 'triclinic'
loop_
_space_group_symop_operation_xyz
x,y,z
-x,-y,-z
loop_
_atom_site_type_symbol
_atom_site_label
_atom_site_fract_x
_atom_site_fract_y
_atom_site_fract_z
Si Si1 0.304439 0.252665 0.140338
Si Si2 0.267186 0.946899 0.273639
Si Si3 0.624954 0.818122 0.621204
Si Si4 0.020866 0.159841 0.905376
Si Si5 0.987952 0.148458 0.658312
Si Si6 0.488069 0.555405 0.131120
Si Si7 0.022853 0.786816 0.537906
O O1 0.254878 0.321428 0.258358
O O2 0.633901 0.094733 0.228635
O O3 0.316042 0.068390 0.057917
O O4 0.000000 0.500000 0.000000
O O5 0.176252 0.172727 0.293699
O O6 0.527197 0.787790 0.452118
O O7 0.390915 0.789515 0.180122
O O8 0.002046 0.001505 0.169635
O O9 0.284745 0.103076 0.572690
O O10 0.787050 0.353980 0.937251
O O11 0.897084 0.271754 0.763936
O O12 0.903816 0.032901 0.562452
O O13 0.858784 0.310483 0.547051
O O14 0.748846 0.376226 0.299928
O O15 0.500000 0.500000 0.000000
#
# Coordination Sequence:
#
# PCOD9103301 Si02
#       7
#     2   2   2   2   2   2   2
#     4  11  24  40  66  98 134 172 221 285 337 394
#     4   9  22  42  66  97 130 183 219 271 335 397
#     4  10  21  43  66  98 132 176 226 273 330 410
#     4  10  22  43  63 100 132 182 217 276 336 395
#     4  10  21  40  67  93 131 179 227 269 333 403
#     4  10  23  40  64 100 137 177 217 277 336 389
#     4  10  20  38  65  96 132 174 223 276 329 395
#
# _framework density 27.082388000000002
#
# number of rings (size 3 to 8) (size 9 to 14) (size 15 to 20)
#    0.857    1.143    1.429    1.286    0.000    6.286 
#    0.000    2.857    0.000    0.000    0.000    0.000 
#    0.000    0.000    0.000    0.000    0.000    0.000 
#
# Total GULP energy -78175.670921 kJ/mol
# GULP energy per Si atom -5583.976494 kJ/mol
# Density = 2.702075 g / cm^3
# Si number density = 27.082388 Si / 1000 Ang^3
#
#
#
# Elastic Constant Matrix: (Units=GPa)
#
#
# Indices 1 2 3 4 5 6 
#
# 1 133.6476 29.2187 66.0176 14.3433 -10.0683 -4.9575
# 2 29.2187 52.6812 58.3976 27.5155 -21.0323 -0.2020
# 3 66.0176 58.3976 214.1347 21.5374 -33.2724 -8.3639
# 4 14.3433 27.5155 21.5374 68.3156 -8.2953 -11.3287
# 5 -10.0683 -21.0323 -33.2724 -8.2953 77.0392 21.4990
# 6 -4.9575 -0.2020 -8.3639 -11.3287 21.4990 34.3212
#
#
#
# Elastic Compliance Matrix: (Units=1/GPa)
#
#
# Indices 1 2 3 4 5 6 
#
# 1 0.009174 -0.003303 -0.002039 0.000174 -0.000977 0.001478
# 2 -0.003303 0.040217 -0.007586 -0.014067 0.009253 -0.012529
# 3 -0.002039 -0.007586 0.007366 0.001494 0.000558 0.001599
# 4 0.000174 -0.014067 0.001494 0.020930 -0.003553 0.009441
# 5 -0.000977 0.009253 0.000558 -0.003553 0.018845 -0.012928
# 6 0.001478 -0.012529 0.001599 0.009441 -0.012928 0.040881
#
#
# Mechanical properties :
#
#
# Convention : Reuss Voigt Hill
#
# Bulk Modulus (GPa) = 32.36166 78.63682 55.49924
# Shear Modulus (GPa) = 28.80667 52.39049 40.59858
#
# Velocity S-wave (km/s) = 3.26493 4.40305 3.87599
# Velocity P-wave (km/s) = 5.11745 7.41271 6.36933
#
# Compressibility (1/GPa) = 0.03090076
#
# Stress axis : x y z
#
# Youngs Moduli (GPa) = 108.99890 24.86525 135.75041
#
# Poissons Ratio (x) = 0.08213 0.27683
# Poissons Ratio (y) = 0.36003 1.02982
# Poissons Ratio (z) = 0.22228 0.18863
#
# Static dielectric constant tensor:
#      x y z
#    x 2.114410 0.014640 -0.015270 
#    y 0.014640 2.280270 -0.030950 
#    z -0.015270 -0.030950 2.078940 
# 
# From -- ./inp_files/325756.got.cif
#   From: 2010.05.17/outbox.cif.g08.bks.cpg/sg2_163_cif.got.tgz:325756.got - 2010.06.03 11:33:40.
