data_PCOD9103586
_publ_section_title
;
Structure prediction by ZEFSAII (Michael W. Deem and Ramdas Pophale) SiO2 
 PCOD9103586
Probable space group: P -1
;
_chemical_formula_sum "Si O2"
_cell_formula_units_Z 16
_cell_length_a 22.518015
_cell_length_b 8.850001
_cell_length_c 8.281205
_cell_angle_alpha 47.463989
_cell_angle_beta 134.061498
_cell_angle_gamma 146.744279
_cell_volume 631.341451
_symmetry_space_group_name_H-M "P -1"
_symmetry_group_IT_number 2
_symmetry_cell_setting 'triclinic'
loop_
_space_group_symop_operation_xyz
x,y,z
-x,-y,-z
loop_
_atom_site_type_symbol
_atom_site_label
_atom_site_fract_x
_atom_site_fract_y
_atom_site_fract_z
Si Si1 0.271568 0.192261 0.584433
Si Si2 0.670043 0.686990 0.054237
Si Si3 0.170647 0.974198 0.192558
Si Si4 0.066564 0.439265 0.558602
Si Si5 0.522173 0.802116 0.622830
Si Si6 0.958327 0.866922 0.836443
Si Si7 0.240480 0.661088 0.980938
Si Si8 0.498626 0.974502 0.828743
O O1 0.211830 0.124115 0.343542
O O2 0.405637 0.476203 0.614004
O O3 0.247344 0.914661 0.779220
O O4 0.255575 0.253401 0.693199
O O5 0.734159 0.814742 0.912856
O O6 0.611608 0.811368 0.874241
O O7 0.567295 0.347346 0.101926
O O8 0.130472 0.672540 0.371679
O O9 0.054852 0.870287 0.974208
O O10 0.973523 0.102371 0.594830
O O11 0.164049 0.452123 0.138048
O O12 0.000000 0.500000 0.500000
O O13 0.500000 0.000000 0.500000
O O14 0.565817 0.939927 0.429046
O O15 0.166136 0.484103 0.808456
O O16 0.000000 0.000000 0.000000
O O17 0.367444 0.795097 0.131269
O O18 0.500000 0.000000 0.000000
#
# Coordination Sequence:
#
# PCOD9103586 Si02
#       8
#     2   2   2   2   2   2   2   2
#     4  11  24  46  72  99 147 190 235 292 367 423
#     4  12  27  49  68 109 156 179 242 311 348 437
#     4  11  25  44  76 106 136 196 239 296 370 425
#     4  10  20  38  67 105 136 182 237 296 356 421
#     4  12  25  45  71  97 149 199 234 290 368 426
#     4  10  21  40  70 105 140 182 251 294 354 441
#     4  10  22  40  70  99 141 192 234 292 362 424
#     4  12  27  41  69 112 145 186 248 295 357 441
#
# _framework density 25.342862
#
# number of rings (size 3 to 8) (size 9 to 14) (size 15 to 20)
#    0.000    1.000    5.000    1.875   10.500    1.000 
#    0.000    0.625    0.000    1.500    0.000    0.000 
#    0.000    0.000    0.000    0.000    0.000    0.000 
#
# Total GULP energy -89227.215057 kJ/mol
# GULP energy per Si atom -5576.700941 kJ/mol
# Density = 2.528518 g / cm^3
# Si number density = 25.342862 Si / 1000 Ang^3
#
#
#
# Elastic Constant Matrix: (Units=GPa)
#
#
# Indices 1 2 3 4 5 6 
#
# 1 57.3793 57.4723 50.5566 0.8898 -9.0502 22.9906
# 2 57.4723 153.8865 73.7749 -17.8453 -1.2876 30.7070
# 3 50.5566 73.7749 167.0397 -13.9601 -5.8562 19.2348
# 4 0.8898 -17.8453 -13.9601 63.1903 3.5230 -4.2857
# 5 -9.0502 -1.2876 -5.8562 3.5230 37.5436 -0.8565
# 6 22.9906 30.7070 19.2348 -4.2857 -0.8565 38.4186
#
#
#
# Elastic Compliance Matrix: (Units=1/GPa)
#
#
# Indices 1 2 3 4 5 6 
#
# 1 0.039421 -0.009685 -0.006348 -0.006056 0.008448 -0.013158
# 2 -0.009685 0.011818 -0.001842 0.003044 -0.002558 -0.002445
# 3 -0.006348 -0.001842 0.008718 0.001588 -0.000358 0.001076
# 4 -0.006056 0.003044 0.001588 0.017426 -0.002691 0.002280
# 5 0.008448 -0.002558 -0.000358 -0.002691 0.028724 -0.002492
# 6 -0.013158 -0.002445 0.001076 0.002280 -0.002492 0.035518
#
#
# Mechanical properties :
#
#
# Convention : Reuss Voigt Hill
#
# Bulk Modulus (GPa) = 41.31257 82.43480 61.87369
# Shear Modulus (GPa) = 26.96234 40.93062 33.94648
#
# Velocity S-wave (km/s) = 3.26529 4.02316 3.66387
# Velocity P-wave (km/s) = 5.52748 7.36067 6.50894
#
# Compressibility (1/GPa) = 0.02420571
#
# Stress axis : x y z
#
# Youngs Moduli (GPa) = 25.36732 84.61710 114.70723
#
# Poissons Ratio (x) = 0.81952 0.72821
# Poissons Ratio (y) = 0.24568 0.21129
# Poissons Ratio (z) = 0.16104 0.15586
#
# Static dielectric constant tensor:
#      x y z
#    x 2.874320 0.274080 0.132700 
#    y 0.274080 2.276090 0.116360 
#    z 0.132700 0.116360 2.138280 
# 
# From -- ./inp_files/343332.got.cif
#   From: 2010.05.17/outbox.cif.g08.bks.cpg/sg2_172_cif.got.tgz:343332.got - 2010.06.03 11:33:40.
