data_PCOD9103585
_publ_section_title
;
Structure prediction by ZEFSAII (Michael W. Deem and Ramdas Pophale) SiO2 
 PCOD9103585
Probable space group: P -1
;
_chemical_formula_sum "Si O2"
_cell_formula_units_Z 13
_cell_length_a 11.705364
_cell_length_b 7.591821
_cell_length_c 13.969930
_cell_angle_alpha 72.433709
_cell_angle_beta 149.555158
_cell_angle_gamma 94.197877
_cell_volume 552.962422
_symmetry_space_group_name_H-M "P -1"
_symmetry_group_IT_number 2
_symmetry_cell_setting 'triclinic'
loop_
_space_group_symop_operation_xyz
x,y,z
-x,-y,-z
loop_
_atom_site_type_symbol
_atom_site_label
_atom_site_fract_x
_atom_site_fract_y
_atom_site_fract_z
Si Si1 0.634138 0.292923 0.864609
Si Si2 0.000000 0.000000 0.000000
Si Si3 0.902180 0.722525 0.680203
Si Si4 0.081261 0.508247 0.450063
Si Si5 0.757256 0.510241 0.768293
Si Si6 0.204417 0.150813 0.954083
Si Si7 0.545952 0.866184 0.684751
O O1 0.721639 0.310300 0.813246
O O2 0.369931 0.459209 0.664607
O O3 0.554452 0.700199 0.641599
O O4 0.623672 0.077959 0.908126
O O5 0.004390 0.116082 0.882648
O O6 0.943351 0.660688 0.610173
O O7 0.151291 0.697605 0.916582
O O8 0.704867 0.944952 0.516842
O O9 0.793846 0.569474 0.677897
O O10 0.000000 0.500000 0.500000
O O11 0.915359 0.713584 0.244222
O O12 0.240198 0.055237 0.199706
O O13 0.000000 0.500000 0.000000
O O14 0.360334 0.229559 0.126404
#
# Coordination Sequence:
#
# PCOD9103585 Si02
#       7
#     2   1   2   2   2   2   2
#     4  11  25  43  68 105 132 176 229 280 351 400
#     4   8  18  32  66 102 128 176 210 256 352 390
#     4  11  24  42  66 103 141 174 226 280 340 417
#     4  12  28  49  70  93 133 191 235 280 331 395
#     4  10  21  35  64 106 142 171 214 272 349 414
#     4  10  22  41  69  99 137 171 224 281 332 410
#     4  10  20  38  67 104 144 178 210 274 356 408
#
# _framework density 23.509734999999999
#
# number of rings (size 3 to 8) (size 9 to 14) (size 15 to 20)
#    0.923    0.615    1.538    4.154    6.462    1.846 
#    0.000    0.769    0.000    0.000    0.000    0.000 
#    0.000    0.000    0.000    0.000    0.000    0.000 
#
# Total GULP energy -72482.321853 kJ/mol
# GULP energy per Si atom -5575.563219 kJ/mol
# Density = 2.345623 g / cm^3
# Si number density = 23.509735 Si / 1000 Ang^3
#
#
#
# Elastic Constant Matrix: (Units=GPa)
#
#
# Indices 1 2 3 4 5 6 
#
# 1 57.3045 5.2194 29.0772 18.4140 -16.2826 -25.4227
# 2 5.2194 76.9445 21.0859 2.3929 -10.1279 -9.8153
# 3 29.0772 21.0859 141.2667 6.5973 -12.0480 -11.6234
# 4 18.4140 2.3929 6.5973 46.2718 4.1984 -6.6547
# 5 -16.2826 -10.1279 -12.0480 4.1984 42.6363 13.1386
# 6 -25.4227 -9.8153 -11.6234 -6.6547 13.1386 33.9856
#
#
#
# Elastic Compliance Matrix: (Units=1/GPa)
#
#
# Indices 1 2 3 4 5 6 
#
# 1 0.033736 0.002763 -0.004626 -0.010759 0.007273 0.019534
# 2 0.002763 0.014305 -0.002073 -0.001180 0.002683 0.004221
# 3 -0.004626 -0.002073 0.008244 0.000549 0.000415 -0.001293
# 4 -0.010759 -0.001180 0.000549 0.026421 -0.006701 -0.000437
# 5 0.007273 0.002683 0.000415 -0.006701 0.029620 -0.006406
# 6 0.019534 0.004221 -0.001293 -0.000437 -0.006406 0.047204
#
#
# Mechanical properties :
#
#
# Convention : Reuss Voigt Hill
#
# Bulk Modulus (GPa) = 20.65549 42.92007 31.78778
# Shear Modulus (GPa) = 27.24194 39.25427 33.24811
#
# Velocity S-wave (km/s) = 3.40774 4.09063 3.76470
# Velocity P-wave (km/s) = 4.92834 6.37236 5.69629
#
# Compressibility (1/GPa) = 0.04841328
#
# Stress axis : x y z
#
# Youngs Moduli (GPa) = 29.64160 69.90417 121.30318
#
# Poissons Ratio (x) = -0.19315 0.56121
# Poissons Ratio (y) = -0.08190 0.25143
# Poissons Ratio (z) = 0.13714 0.14489
#
# Static dielectric constant tensor:
#      x y z
#    x 1.811070 0.126210 -0.050300 
#    y 0.126210 2.074090 0.092290 
#    z -0.050300 0.092290 1.893530 
# 
# From -- ./inp_files/429819.got.cif
#   From: 2010.05.17/outbox.cif.g08.bks.cpg/sg2_215_cif.got.tgz:429819.got - 2010.06.03 11:33:40.
