data_PCOD9103257
_publ_section_title
;
Structure prediction by ZEFSAII (Michael W. Deem and Ramdas Pophale) SiO2 
 PCOD9103257
Probable space group: P -1
;
_chemical_formula_sum "Si O2"
_cell_formula_units_Z 16
_cell_length_a 26.025764
_cell_length_b 8.675914
_cell_length_c 9.346157
_cell_angle_alpha 76.692617
_cell_angle_beta 136.467981
_cell_angle_gamma 136.718247
_cell_volume 773.676250
_symmetry_space_group_name_H-M "P -1"
_symmetry_group_IT_number 2
_symmetry_cell_setting 'triclinic'
loop_
_space_group_symop_operation_xyz
x,y,z
-x,-y,-z
loop_
_atom_site_type_symbol
_atom_site_label
_atom_site_fract_x
_atom_site_fract_y
_atom_site_fract_z
Si Si1 0.754330 0.208663 0.189276
Si Si2 0.915564 0.693230 0.878978
Si Si3 0.531122 0.476241 0.217725
Si Si4 0.352891 0.612657 0.655840
Si Si5 0.550095 0.735786 0.456817
Si Si6 0.847808 0.320680 0.045119
Si Si7 0.031715 0.451028 0.215812
Si Si8 0.375479 0.706079 0.001691
O O1 0.846050 0.339539 0.206937
O O2 0.829966 0.280242 0.470003
O O3 0.727700 0.350501 0.124772
O O4 0.609993 0.861625 0.948420
O O5 0.758503 0.463367 0.606010
O O6 0.954615 0.691194 0.804494
O O7 0.930912 0.600628 0.063075
O O8 0.000000 0.000000 0.000000
O O9 0.642238 0.537995 0.395856
O O10 0.574619 0.694699 0.362814
O O11 0.500000 0.500000 0.000000
O O12 0.328088 0.545230 0.789800
O O13 0.498853 0.954879 0.857966
O O14 0.500000 0.500000 0.500000
O O15 0.438384 0.676552 0.229803
O O16 0.691136 0.049996 0.736615
O O17 0.911655 0.271145 0.124592
O O18 0.000000 0.500000 0.000000
#
# Coordination Sequence:
#
# PCOD9103257 Si02
#       8
#     2   2   2   2   2   2   2   2
#     4  11  23  45  65  98 133 178 217 267 341 387
#     4  11  24  43  65  96 122 175 227 269 322 386
#     4  11  24  35  67 101 130 169 219 268 322 398
#     4  10  20  38  65  94 127 166 219 277 319 381
#     4  12  24  43  63 104 138 167 212 269 344 394
#     4  11  25  44  65  94 141 171 213 274 330 393
#     4  10  24  43  70  92 127 177 223 276 318 385
#     4  10  21  39  68  93 131 169 212 273 332 386
#
# _framework density 20.680485999999998
#
# number of rings (size 3 to 8) (size 9 to 14) (size 15 to 20)
#    0.000    1.250    5.000    0.375    5.250    2.500 
#    0.000    0.625    0.000    0.000    0.000    0.000 
#    0.000    0.000    0.000    0.000    0.000    0.000 
#
# Total GULP energy -89243.142128 kJ/mol
# GULP energy per Si atom -5577.696383 kJ/mol
# Density = 2.063342 g / cm^3
# Si number density = 20.680486 Si / 1000 Ang^3
#
#
#
# Elastic Constant Matrix: (Units=GPa)
#
#
# Indices 1 2 3 4 5 6 
#
# 1 152.5279 19.9436 34.0181 -12.5540 1.1714 8.0578
# 2 19.9436 54.7098 -4.2385 -8.0296 -7.2717 3.3310
# 3 34.0181 -4.2385 64.4862 -10.6817 -6.1747 -7.2018
# 4 -12.5540 -8.0296 -10.6817 24.0938 -6.4287 1.8086
# 5 1.1714 -7.2717 -6.1747 -6.4287 39.0783 -4.0636
# 6 8.0578 3.3310 -7.2018 1.8086 -4.0636 24.1724
#
#
#
# Elastic Compliance Matrix: (Units=1/GPa)
#
#
# Indices 1 2 3 4 5 6 
#
# 1 0.008476 -0.003397 -0.005251 0.000735 -0.002044 -0.004320
# 2 -0.003397 0.022298 0.005564 0.009927 0.006775 0.000114
# 3 -0.005251 0.005564 0.021894 0.010134 0.007146 0.007950
# 4 0.000735 0.009927 0.010134 0.052952 0.012083 -0.000524
# 5 -0.002044 0.006775 0.007146 0.012083 0.030666 0.006128
# 6 -0.004320 0.000114 0.007950 -0.000524 0.006128 0.046232
#
#
# Mechanical properties :
#
#
# Convention : Reuss Voigt Hill
#
# Bulk Modulus (GPa) = 21.50632 41.24116 31.37374
# Shear Modulus (GPa) = 24.48735 32.26892 28.37814
#
# Velocity S-wave (km/s) = 3.44478 3.95442 3.70837
# Velocity P-wave (km/s) = 5.12288 6.39025 5.79134
#
# Compressibility (1/GPa) = 0.04649797
#
# Stress axis : x y z
#
# Youngs Moduli (GPa) = 117.98043 44.84656 45.67523
#
# Poissons Ratio (x) = 0.15236 0.23985
# Poissons Ratio (y) = 0.40083 -0.25412
# Poissons Ratio (z) = 0.61953 -0.24950
#
# Static dielectric constant tensor:
#      x y z
#    x 3.214560 -0.295100 -0.602600 
#    y -0.295100 1.787270 0.104470 
#    z -0.602600 0.104470 2.020190 
# 
# From -- ./inp_files/175210.got.cif
#   From: 2010.05.17/outbox.cif.g08.bks.cpg/sg2_88_cif.got.tgz:175210.got - 2010.06.03 11:33:40.
