data_PCOD9103381
_publ_section_title
;
Structure prediction by ZEFSAII (Michael W. Deem and Ramdas Pophale) SiO2 
 PCOD9103381
Probable space group: P -1
;
_chemical_formula_sum "Si O2"
_cell_formula_units_Z 15
_cell_length_a 8.719553
_cell_length_b 7.081991
_cell_length_c 9.493114
_cell_angle_alpha 77.554109
_cell_angle_beta 75.182557
_cell_angle_gamma 88.512296
_cell_volume 553.140576
_symmetry_space_group_name_H-M "P -1"
_symmetry_group_IT_number 2
_symmetry_cell_setting 'triclinic'
loop_
_space_group_symop_operation_xyz
x,y,z
-x,-y,-z
loop_
_atom_site_type_symbol
_atom_site_label
_atom_site_fract_x
_atom_site_fract_y
_atom_site_fract_z
Si Si1 0.142666 0.230725 0.814198
Si Si2 0.500000 0.500000 0.500000
Si Si3 0.838306 0.005530 0.873332
Si Si4 0.022318 0.815531 0.627018
Si Si5 0.659524 0.469000 0.167901
Si Si6 0.769109 0.574291 0.632594
Si Si7 0.396477 0.708970 0.073222
Si Si8 0.320205 0.052430 0.550941
O O1 0.170197 0.441820 0.840596
O O2 0.280907 0.184746 0.675641
O O3 0.970815 0.181258 0.797787
O O4 0.159023 0.074299 0.957759
O O5 0.565107 0.440089 0.339303
O O6 0.679279 0.464491 0.542107
O O7 0.668064 0.096732 0.874020
O O8 0.908698 0.845730 0.782312
O O9 0.957477 0.622540 0.598664
O O10 0.202444 0.867009 0.621242
O O11 0.000000 0.000000 0.500000
O O12 0.573006 0.650589 0.081035
O O13 0.640924 0.302784 0.082644
O O14 0.705715 0.465694 0.802742
O O15 0.715198 0.797184 0.589377
O O16 0.500000 0.000000 0.500000
#
# Coordination Sequence:
#
# PCOD9103381 Si02
#       8
#     2   1   2   2   2   2   2   2
#     4  10  21  40  65  88 129 167 212 271 317 382
#     4  10  20  38  66  86 138 170 208 258 332 380
#     4  10  22  41  64  95 125 167 219 267 323 386
#     4   9  20  40  65  91 129 167 216 271 320 380
#     4  10  21  39  62  91 128 174 207 267 323 385
#     4  10  20  41  63  93 131 172 209 271 321 386
#     4  10  23  39  64  93 129 166 217 264 328 385
#     4  10  21  38  66  97 126 168 221 268 324 385
#
# _framework density 27.117881000000001
#
# number of rings (size 3 to 8) (size 9 to 14) (size 15 to 20)
#    0.000    2.133    1.333    0.800    0.000    6.400 
#    0.000    8.667    0.000    0.000    0.000    0.000 
#    0.000    0.000    0.000    0.000    0.000    0.000 
#
# Total GULP energy -83575.683254 kJ/mol
# GULP energy per Si atom -5571.712217 kJ/mol
# Density = 2.705616 g / cm^3
# Si number density = 27.117881 Si / 1000 Ang^3
#
#
#
# Elastic Constant Matrix: (Units=GPa)
#
#
# Indices 1 2 3 4 5 6 
#
# 1 94.5872 21.4082 18.0725 32.7838 2.6122 12.2182
# 2 21.4082 72.5620 20.3281 21.7108 -7.9716 3.7203
# 3 18.0725 20.3281 162.0624 23.3695 -2.2299 -7.4033
# 4 32.7838 21.7108 23.3695 38.3703 4.6051 4.2786
# 5 2.6122 -7.9716 -2.2299 4.6051 27.1771 9.2707
# 6 12.2182 3.7203 -7.4033 4.2786 9.2707 56.3845
#
#
#
# Elastic Compliance Matrix: (Units=1/GPa)
#
#
# Indices 1 2 3 4 5 6 
#
# 1 0.015400 -0.000431 0.000094 -0.012860 0.001453 -0.002559
# 2 -0.000431 0.018060 -0.000729 -0.010128 0.007564 -0.001669
# 3 0.000094 -0.000729 0.006900 -0.004075 0.000646 0.001137
# 4 -0.012860 -0.010128 -0.004075 0.046376 -0.010301 0.001094
# 5 0.001453 0.007564 0.000646 -0.010301 0.043071 -0.007029
# 6 -0.002559 -0.001669 0.001137 0.001094 -0.007029 0.019622
#
#
# Mechanical properties :
#
#
# Convention : Reuss Voigt Hill
#
# Bulk Modulus (GPa) = 26.15932 49.86994 38.01463
# Shear Modulus (GPa) = 30.43174 42.34656 36.38915
#
# Velocity S-wave (km/s) = 3.35356 3.95596 3.66715
# Velocity P-wave (km/s) = 4.96615 6.26866 5.65503
#
# Compressibility (1/GPa) = 0.03822730
#
# Stress axis : x y z
#
# Youngs Moduli (GPa) = 64.93703 55.37205 144.93255
#
# Poissons Ratio (x) = 0.02388 -0.01367
# Poissons Ratio (y) = 0.02800 0.10564
# Poissons Ratio (z) = -0.00612 0.04036
#
# Static dielectric constant tensor:
#      x y z
#    x 2.333980 0.056520 0.028460 
#    y 0.056520 2.257060 -0.012390 
#    z 0.028460 -0.012390 2.132070 
# 
# From -- ./inp_files/153836.got.cif
#   From: 2010.05.17/outbox.cif.g08.bks.cpg/sg2_77_cif.got.tgz:153836.got - 2010.06.03 11:33:40.
