data_PCOD9103408
_publ_section_title
;
Structure prediction by ZEFSAII (Michael W. Deem and Ramdas Pophale) SiO2 
 PCOD9103408
Probable space group: P -1
;
_chemical_formula_sum "Si O2"
_cell_formula_units_Z 12
_cell_length_a 14.132869
_cell_length_b 7.989774
_cell_length_c 11.526246
_cell_angle_alpha 69.568633
_cell_angle_beta 149.758663
_cell_angle_gamma 122.146268
_cell_volume 536.023073
_symmetry_space_group_name_H-M "P -1"
_symmetry_group_IT_number 2
_symmetry_cell_setting 'triclinic'
loop_
_space_group_symop_operation_xyz
x,y,z
-x,-y,-z
loop_
_atom_site_type_symbol
_atom_site_label
_atom_site_fract_x
_atom_site_fract_y
_atom_site_fract_z
Si Si1 0.682541 0.961850 0.984353
Si Si2 0.188278 0.387866 0.752446
Si Si3 0.094226 0.597159 0.953540
Si Si4 0.191072 0.965641 0.651518
Si Si5 0.467987 0.626623 0.201076
Si Si6 0.308463 0.608616 0.579720
O O1 0.456166 0.847500 0.706054
O O2 0.748994 0.785775 0.104706
O O3 0.856638 0.168652 0.059006
O O4 0.674179 0.023968 0.093757
O O5 0.278002 0.488825 0.698255
O O6 0.931594 0.251430 0.492247
O O7 0.304792 0.552715 0.935622
O O8 0.918988 0.462887 0.703208
O O9 0.322817 0.615648 0.157954
O O10 0.000000 0.500000 0.000000
O O11 0.333215 0.152243 0.672824
O O12 0.000000 0.000000 0.500000
O O13 0.565357 0.473190 0.348654
#
# Coordination Sequence:
#
# PCOD9103408 Si02
#       6
#     2   2   2   2   2   2
#     4  10  19  38  65  92 128 159 196 264 317 365
#     4  10  18  37  68 102 126 151 197 262 336 375
#     4  12  29  44  58  89 129 176 222 247 288 373
#     4  10  16  32  63  97 126 147 188 250 324 374
#     4  11  22  40  66  96 126 162 203 257 326 369
#     4  11  20  43  66  92 130 159 197 271 314 372
#
# _framework density 22.387097000000001
#
# number of rings (size 3 to 8) (size 9 to 14) (size 15 to 20)
#    0.000    1.333    6.667    2.000    0.000    4.000 
#    0.000    3.333    0.000    0.000    0.000    0.000 
#    0.000    0.000    0.000    0.000    0.000    0.000 
#
# Total GULP energy -67074.925874 kJ/mol
# GULP energy per Si atom -5589.577156 kJ/mol
# Density = 2.233614 g / cm^3
# Si number density = 22.387097 Si / 1000 Ang^3
#
#
#
# Elastic Constant Matrix: (Units=GPa)
#
#
# Indices 1 2 3 4 5 6 
#
# 1 106.2007 34.1591 14.4826 -2.8208 24.1590 29.9629
# 2 34.1591 101.1393 29.4200 37.4505 -10.2362 20.1089
# 3 14.4826 29.4200 69.6495 33.1539 12.8214 5.5852
# 4 -2.8208 37.4505 33.1539 49.6310 -6.3594 4.3110
# 5 24.1590 -10.2362 12.8214 -6.3594 28.6298 -2.9355
# 6 29.9629 20.1089 5.5852 4.3110 -2.9355 37.1687
#
#
#
# Elastic Compliance Matrix: (Units=1/GPa)
#
#
# Indices 1 2 3 4 5 6 
#
# 1 0.021808 -0.009200 0.002618 0.004774 -0.023383 -0.015397
# 2 -0.009200 0.019622 -0.003633 -0.011096 0.013914 -0.000267
# 3 0.002618 -0.003633 0.028078 -0.018158 -0.020514 -0.003878
# 4 0.004774 -0.011096 -0.018158 0.042082 0.009561 0.000757
# 5 -0.023383 0.013914 -0.020514 0.009561 0.072899 0.019053
# 6 -0.015397 -0.000267 -0.003878 0.000757 0.019053 0.041460
#
#
# Mechanical properties :
#
#
# Convention : Reuss Voigt Hill
#
# Bulk Modulus (GPa) = 20.37616 48.12366 34.24991
# Shear Modulus (GPa) = 19.03027 36.34778 27.68902
#
# Velocity S-wave (km/s) = 2.91873 4.03377 3.52067
# Velocity P-wave (km/s) = 4.52550 6.57555 5.64438
#
# Compressibility (1/GPa) = 0.04907696
#
# Stress axis : x y z
#
# Youngs Moduli (GPa) = 45.85395 50.96445 35.61446
#
# Poissons Ratio (x) = 0.46889 -0.09324
# Poissons Ratio (y) = 0.42187 0.12940
# Poissons Ratio (z) = -0.12004 0.18517
#
# Static dielectric constant tensor:
#      x y z
#    x 1.865570 -0.074440 0.074350 
#    y -0.074440 1.860250 0.004620 
#    z 0.074350 0.004620 1.961450 
# 
# From -- ./inp_files/308268.got.cif
#   From: 2010.05.17/outbox.cif.g08.bks.cpg/sg2_155_cif.got.tgz:308268.got - 2010.06.03 11:33:40.
