data_PCOD9103112
_publ_section_title
;
Structure prediction by ZEFSAII (Michael W. Deem and Ramdas Pophale) SiO2 
 PCOD9103112
Probable space group: P -1
;
_chemical_formula_sum "Si O2"
_cell_formula_units_Z 14
_cell_length_a 9.599094
_cell_length_b 13.464403
_cell_length_c 9.280380
_cell_angle_alpha 112.140949
_cell_angle_beta 117.174085
_cell_angle_gamma 116.555124
_cell_volume 652.161334
_symmetry_space_group_name_H-M "P -1"
_symmetry_group_IT_number 2
_symmetry_cell_setting 'triclinic'
loop_
_space_group_symop_operation_xyz
x,y,z
-x,-y,-z
loop_
_atom_site_type_symbol
_atom_site_label
_atom_site_fract_x
_atom_site_fract_y
_atom_site_fract_z
Si Si1 0.837131 0.205314 0.850221
Si Si2 0.288325 0.597536 0.777534
Si Si3 0.835804 0.617426 0.159623
Si Si4 0.617496 0.308737 0.705845
Si Si5 0.133990 0.489686 0.344049
Si Si6 0.799625 0.838343 0.222821
Si Si7 0.125793 0.009271 0.199203
O O1 0.671251 0.225559 0.771307
O O2 0.928425 0.240858 0.747860
O O3 0.756564 0.049577 0.788631
O O4 0.056550 0.346810 0.137930
O O5 0.168116 0.434084 0.711666
O O6 0.314284 0.582334 0.612744
O O7 0.103152 0.594440 0.731082
O O8 0.544951 0.762319 0.048804
O O9 0.734437 0.684665 0.157907
O O10 0.705991 0.456373 0.919685
O O11 0.771109 0.385956 0.672082
O O12 0.346086 0.187304 0.467400
O O13 0.000000 0.000000 0.500000
O O14 0.917290 0.890415 0.150966
O O15 0.000000 0.000000 0.000000
#
# Coordination Sequence:
#
# PCOD9103112 Si02
#       7
#     2   2   2   2   2   2   2
#     4  10  20  39  63  90 116 156 205 248 294 350
#     4  11  20  38  58  91 124 152 197 246 300 354
#     4  10  20  38  65  87 112 159 205 241 293 353
#     4  11  19  41  66  87 117 156 208 250 288 355
#     4  10  21  35  65  90 116 151 201 256 293 340
#     4  11  25  40  58  88 126 163 193 238 304 370
#     4  11  25  40  60  89 125 159 198 247 303 351
#
# _framework density 21.467081
#
# number of rings (size 3 to 8) (size 9 to 14) (size 15 to 20)
#    0.000    1.429    2.857    3.429    0.000    2.286 
#    0.000    4.286    0.000    4.286    0.000    0.000 
#    0.000    0.000    0.000    0.000    0.000    0.000 
#
# Total GULP energy -77981.062172 kJ/mol
# GULP energy per Si atom -5570.075869 kJ/mol
# Density = 2.141822 g / cm^3
# Si number density = 21.467081 Si / 1000 Ang^3
#
#
#
# Elastic Constant Matrix: (Units=GPa)
#
#
# Indices 1 2 3 4 5 6 
#
# 1 56.7931 13.6869 18.5142 -3.3941 -1.2105 0.3716
# 2 13.6869 94.3017 42.1940 -15.4545 -18.2524 -16.6681
# 3 18.5142 42.1940 99.5369 -13.7964 6.6389 -9.0694
# 4 -3.3941 -15.4545 -13.7964 26.5215 15.5718 -3.5191
# 5 -1.2105 -18.2524 6.6389 15.5718 30.5268 -2.4605
# 6 0.3716 -16.6681 -9.0694 -3.5191 -2.4605 25.3634
#
#
#
# Elastic Compliance Matrix: (Units=1/GPa)
#
#
# Indices 1 2 3 4 5 6 
#
# 1 0.019068 -0.001868 -0.003193 -0.001054 0.000651 -0.002732
# 2 -0.001868 0.018877 -0.007490 0.000392 0.013538 0.011122
# 3 -0.003193 -0.007490 0.016668 0.012636 -0.014560 0.001425
# 4 -0.001054 0.000392 0.012636 0.066775 -0.035764 0.010586
# 5 0.000651 0.013538 -0.014560 -0.035764 0.062676 0.004799
# 6 -0.002732 0.011122 0.001425 0.010586 0.004799 0.049220
#
#
# Mechanical properties :
#
#
# Convention : Reuss Voigt Hill
#
# Bulk Modulus (GPa) = 33.88696 44.38018 39.13357
# Shear Modulus (GPa) = 18.64120 28.23144 23.43632
#
# Velocity S-wave (km/s) = 2.95000 3.63037 3.30772
# Velocity P-wave (km/s) = 5.23671 6.18799 5.73212
#
# Compressibility (1/GPa) = 0.02950987
#
# Stress axis : x y z
#
# Youngs Moduli (GPa) = 52.44455 52.97409 59.99598
#
# Poissons Ratio (x) = 0.09898 0.19157
# Poissons Ratio (y) = 0.09799 0.44936
# Poissons Ratio (z) = 0.16746 0.39677
#
# Static dielectric constant tensor:
#      x y z
#    x 1.903670 -0.030100 0.022770 
#    y -0.030100 1.827760 -0.013180 
#    z 0.022770 -0.013180 1.838580 
# 
# From -- ./inp_files/189569.got.cif
#   From: 2010.05.17/outbox.cif.g08.bks.cpg/sg2_95_cif.got.tgz:189569.got - 2010.06.03 11:33:40.
