data_PCOD9103075
_publ_section_title
;
Structure prediction by ZEFSAII (Michael W. Deem and Ramdas Pophale) SiO2 
 PCOD9103075
Probable space group: P -1
;
_chemical_formula_sum "Si O2"
_cell_formula_units_Z 16
_cell_length_a 15.086879
_cell_length_b 5.531300
_cell_length_c 17.409163
_cell_angle_alpha 77.488610
_cell_angle_beta 30.442542
_cell_angle_gamma 66.142510
_cell_volume 645.276117
_symmetry_space_group_name_H-M "P -1"
_symmetry_group_IT_number 2
_symmetry_cell_setting 'triclinic'
loop_
_space_group_symop_operation_xyz
x,y,z
-x,-y,-z
loop_
_atom_site_type_symbol
_atom_site_label
_atom_site_fract_x
_atom_site_fract_y
_atom_site_fract_z
Si Si1 0.882271 0.517004 0.661038
Si Si2 0.007916 0.122355 0.901733
Si Si3 0.203192 0.435172 0.539059
Si Si4 0.731458 0.179838 0.413576
Si Si5 0.362591 0.177969 0.661667
Si Si6 0.652306 0.224912 0.864841
Si Si7 0.398674 0.827170 0.812297
Si Si8 0.524580 0.967440 0.103554
O O1 0.853603 0.242416 0.710871
O O2 0.675535 0.760672 0.778952
O O3 0.000000 0.500000 0.500000
O O4 0.999447 0.562382 0.639436
O O5 0.133880 0.299343 0.802133
O O6 0.780671 0.253774 0.037383
O O7 0.141517 0.894188 0.754884
O O8 0.000000 0.000000 0.000000
O O9 0.211996 0.625874 0.588388
O O10 0.380574 0.399623 0.351745
O O11 0.229165 0.125549 0.562987
O O12 0.492575 0.332338 0.577815
O O13 0.500000 0.000000 0.500000
O O14 0.366098 0.996012 0.745275
O O15 0.551776 0.246714 0.855517
O O16 0.500000 0.500000 0.000000
O O17 0.660269 0.987666 0.932761
O O18 0.398215 0.016488 0.871693
#
# Coordination Sequence:
#
# PCOD9103075 Si02
#       8
#     2   2   2   2   2   2   2   2
#     4  11  23  39  60  92 132 175 228 272 333 395
#     4   9  19  40  70 101 134 174 224 283 344 406
#     4  11  25  43  66 101 137 180 224 279 335 399
#     4  10  23  44  69  99 136 179 226 275 339 412
#     4   8  17  39  64  95 131 171 214 275 342 404
#     4   9  22  40  60  89 128 176 216 276 335 396
#     4  10  20  38  64  99 132 172 228 279 335 405
#     4  10  21  40  62  92 130 176 223 275 337 396
#
# _framework density 24.795586
#
# number of rings (size 3 to 8) (size 9 to 14) (size 15 to 20)
#    0.000    2.250    1.250    0.000    3.500    4.500 
#    0.000   27.500    0.000    0.000    0.000    0.000 
#    0.000    0.000    0.000    0.000    0.000    0.000 
#
# Total GULP energy -89174.637763 kJ/mol
# GULP energy per Si atom -5573.414860 kJ/mol
# Density = 2.473915 g / cm^3
# Si number density = 24.795586 Si / 1000 Ang^3
#
#
#
# Elastic Constant Matrix: (Units=GPa)
#
#
# Indices 1 2 3 4 5 6 
#
# 1 134.3665 51.6521 68.8506 -19.1880 -4.4505 45.3498
# 2 51.6521 93.9481 50.4377 -14.6342 0.6897 25.1202
# 3 68.8506 50.4377 189.4449 -31.6059 -5.5218 11.8519
# 4 -19.1880 -14.6342 -31.6059 32.7225 8.8994 -8.1255
# 5 -4.4505 0.6897 -5.5218 8.8994 46.9454 -0.7781
# 6 45.3498 25.1202 11.8519 -8.1255 -0.7781 36.8259
#
#
#
# Elastic Compliance Matrix: (Units=1/GPa)
#
#
# Indices 1 2 3 4 5 6 
#
# 1 0.016255 -0.002046 -0.004260 0.000010 0.000782 -0.017232
# 2 -0.002046 0.015252 -0.002645 0.001725 -0.001167 -0.006676
# 3 -0.004260 -0.002645 0.008110 0.005670 -0.000392 0.005684
# 4 0.000010 0.001725 0.005670 0.040093 -0.006864 0.005687
# 5 0.000782 -0.001167 -0.000392 -0.006864 0.022630 -0.001078
# 6 -0.017232 -0.006676 0.005684 0.005687 -0.001078 0.052332
#
#
# Mechanical properties :
#
#
# Convention : Reuss Voigt Hill
#
# Bulk Modulus (GPa) = 46.05514 84.40448 65.22981
# Shear Modulus (GPa) = 27.80633 39.75336 33.77984
#
# Velocity S-wave (km/s) = 3.35240 4.00840 3.69498
# Velocity P-wave (km/s) = 5.79647 7.45232 6.67593
#
# Compressibility (1/GPa) = 0.02171310
#
# Stress axis : x y z
#
# Youngs Moduli (GPa) = 61.51812 65.56510 123.30118
#
# Poissons Ratio (x) = 0.13418 0.52531
# Poissons Ratio (y) = 0.12589 0.32618
# Poissons Ratio (z) = 0.26209 0.17345
#
# Static dielectric constant tensor:
#      x y z
#    x 2.098500 1.041690 -1.117600 
#    y 1.041690 15.376780 -13.177650 
#    z -1.117600 -13.177650 15.140440 
# 
# From -- ./inp_files/571711.got.cif
#   From: 2010.05.17/outbox.cif.g08.bks.cpg/sg2_286_cif.got.tgz:571711.got - 2010.06.03 11:33:40.
