data_PCOD9103952
_publ_section_title
;
Structure prediction by ZEFSAII (Michael W. Deem and Ramdas Pophale) SiO2 
 PCOD9103952
Probable space group: P -1
;
_chemical_formula_sum "Si O2"
_cell_formula_units_Z 15
_cell_length_a 6.002324
_cell_length_b 8.888536
_cell_length_c 15.062230
_cell_angle_alpha 76.372766
_cell_angle_beta 123.531300
_cell_angle_gamma 89.087038
_cell_volume 640.338205
_symmetry_space_group_name_H-M "P -1"
_symmetry_group_IT_number 2
_symmetry_cell_setting 'triclinic'
loop_
_space_group_symop_operation_xyz
x,y,z
-x,-y,-z
loop_
_atom_site_type_symbol
_atom_site_label
_atom_site_fract_x
_atom_site_fract_y
_atom_site_fract_z
Si Si1 0.707652 0.335852 0.924279
Si Si2 0.493392 0.179519 0.046348
Si Si3 0.000000 0.000000 0.000000
Si Si4 0.574387 0.264216 0.600575
Si Si5 0.740283 0.660187 0.853390
Si Si6 0.980915 0.841099 0.570313
Si Si7 0.909183 0.928637 0.747855
Si Si8 0.270943 0.571093 0.563455
O O1 0.838920 0.180300 0.923130
O O2 0.668669 0.492783 0.836190
O O3 0.467186 0.289863 0.937960
O O4 0.942159 0.363379 0.042912
O O5 0.437240 0.287873 0.105870
O O6 0.808702 0.093592 0.132993
O O7 0.291003 0.058753 0.031954
O O8 0.297314 0.210775 0.514928
O O9 0.504644 0.416191 0.627727
O O10 0.700864 0.323055 0.531290
O O11 0.760206 0.107495 0.699842
O O12 0.728652 0.807894 0.764780
O O13 0.968813 0.882392 0.665536
O O14 0.214829 0.694214 0.615075
O O15 0.000000 0.000000 0.500000
O O16 0.000000 0.500000 0.500000
#
# Coordination Sequence:
#
# PCOD9103952 Si02
#       8
#     2   2   1   2   2   2   2   2
#     4   9  18  38  65  89 118 162 203 244 322 385
#     4  10  21  37  64  95 123 164 209 256 309 380
#     4  10  20  38  70  90 126 166 210 244 318 390
#     4  10  21  39  64  88 124 172 215 259 319 372
#     4   9  20  36  62  92 122 157 200 264 309 372
#     4  11  22  37  66  93 121 173 219 259 312 376
#     4  11  23  36  64  96 129 160 220 268 310 364
#     4   9  20  38  63  89 116 171 223 254 314 382
#
# _framework density 23.425121000000001
#
# number of rings (size 3 to 8) (size 9 to 14) (size 15 to 20)
#    0.000    2.133    1.333    1.200    1.867    1.067 
#    0.000    0.000   49.867    0.000    0.000    0.000 
#    0.000    0.000    0.000    0.000    0.000    0.000 
#
# Total GULP energy -83552.430357 kJ/mol
# GULP energy per Si atom -5570.162024 kJ/mol
# Density = 2.337180 g / cm^3
# Si number density = 23.425121 Si / 1000 Ang^3
#
#
#
# Elastic Constant Matrix: (Units=GPa)
#
#
# Indices 1 2 3 4 5 6 
#
# 1 91.1269 55.9573 38.8691 -33.1713 5.3289 11.0010
# 2 55.9573 162.7164 56.7596 -54.5325 -8.0044 -3.3681
# 3 38.8691 56.7596 71.7315 -25.8203 -3.9685 -4.0697
# 4 -33.1713 -54.5325 -25.8203 54.2573 0.4832 -5.1034
# 5 5.3289 -8.0044 -3.9685 0.4832 26.0665 6.9287
# 6 11.0010 -3.3681 -4.0697 -5.1034 6.9287 65.1003
#
#
#
# Elastic Compliance Matrix: (Units=1/GPa)
#
#
# Indices 1 2 3 4 5 6 
#
# 1 0.017552 -0.002462 -0.006116 0.005145 -0.004687 -0.002574
# 2 -0.002462 0.011394 -0.004656 0.007800 0.002877 0.001020
# 3 -0.006116 -0.004656 0.021999 0.002221 0.002579 0.002068
# 4 0.005145 0.007800 0.002221 0.030658 0.000578 0.002015
# 5 -0.004687 0.002877 0.002579 0.000578 0.041455 -0.003265
# 6 -0.002574 0.001020 0.002068 0.002015 -0.003265 0.016483
#
#
# Mechanical properties :
#
#
# Convention : Reuss Voigt Hill
#
# Bulk Modulus (GPa) = 40.85680 69.86077 55.35879
# Shear Modulus (GPa) = 28.70792 40.68406 34.69599
#
# Velocity S-wave (km/s) = 3.50454 4.17198 3.85274
# Velocity P-wave (km/s) = 5.81851 7.28663 6.59356
#
# Compressibility (1/GPa) = 0.02447573
#
# Stress axis : x y z
#
# Youngs Moduli (GPa) = 56.97366 87.76926 45.45649
#
# Poissons Ratio (x) = 0.21609 0.27801
# Poissons Ratio (y) = 0.14027 0.21167
# Poissons Ratio (z) = 0.34844 0.40870
#
# Static dielectric constant tensor:
#      x y z
#    x 1.897610 -0.046240 -0.004900 
#    y -0.046240 1.849310 0.026500 
#    z -0.004900 0.026500 1.950920 
# 
# From -- ./inp_files/103954.got.cif
#   From: 2010.05.17/outbox.cif.g08.bks.cpg/sg2_52_cif.got.tgz:103954.got - 2010.06.03 11:33:40.
