data_PCOD9103836
_publ_section_title
;
Structure prediction by ZEFSAII (Michael W. Deem and Ramdas Pophale) SiO2 
 PCOD9103836
Probable space group: P -1
;
_chemical_formula_sum "Si O2"
_cell_formula_units_Z 14
_cell_length_a 15.741037
_cell_length_b 7.178104
_cell_length_c 9.891361
_cell_angle_alpha 77.000188
_cell_angle_beta 143.254543
_cell_angle_gamma 119.210979
_cell_volume 553.289388
_symmetry_space_group_name_H-M "P -1"
_symmetry_group_IT_number 2
_symmetry_cell_setting 'triclinic'
loop_
_space_group_symop_operation_xyz
x,y,z
-x,-y,-z
loop_
_atom_site_type_symbol
_atom_site_label
_atom_site_fract_x
_atom_site_fract_y
_atom_site_fract_z
Si Si1 0.176977 0.536167 0.182007
Si Si2 0.155818 0.083809 0.838570
Si Si3 0.691290 0.701734 0.742538
Si Si4 0.170611 0.508632 0.696054
Si Si5 0.809258 0.827583 0.598740
Si Si6 0.369944 0.930127 0.725517
Si Si7 0.327345 0.834060 0.085047
O O1 0.173404 0.375850 0.082526
O O2 0.239100 0.430047 0.393570
O O3 0.288371 0.765546 0.203924
O O4 0.000000 0.500000 0.000000
O O5 0.149655 0.264810 0.705776
O O6 0.207342 0.920001 0.868122
O O7 0.302633 0.214951 0.114749
O O8 0.989714 0.951185 0.739971
O O9 0.500000 0.500000 0.500000
O O10 0.772909 0.883949 0.696142
O O11 0.245644 0.666002 0.634576
O O12 0.284854 0.637570 0.952806
O O13 0.000000 0.500000 0.500000
O O14 0.706658 0.914247 0.375153
O O15 0.500000 0.000000 0.000000
O O16 0.478029 0.988546 0.718552
#
# Coordination Sequence:
#
# PCOD9103836 Si02
#       7
#     2   2   2   2   2   2   2
#     4  10  20  38  68  97 132 166 216 268 327 397
#     4  12  23  42  69  94 132 173 220 271 326 395
#     4  10  22  39  65  92 135 169 204 271 338 379
#     4  11  23  43  67  92 130 178 220 271 321 376
#     4  10  21  38  67  94 128 178 212 261 336 389
#     4  10  23  42  66  93 131 176 222 268 326 381
#     4  11  23  43  67  98 133 167 221 275 322 397
#
# _framework density 25.303215000000002
#
# number of rings (size 3 to 8) (size 9 to 14) (size 15 to 20)
#    0.857    0.571    4.286    1.286    2.000    1.143 
#    0.000    7.143    0.000    0.000    0.000    0.000 
#    0.000    0.000    0.000    0.000    0.000    0.000 
#
# Total GULP energy -77986.540655 kJ/mol
# GULP energy per Si atom -5570.467190 kJ/mol
# Density = 2.524562 g / cm^3
# Si number density = 25.303215 Si / 1000 Ang^3
#
#
#
# Elastic Constant Matrix: (Units=GPa)
#
#
# Indices 1 2 3 4 5 6 
#
# 1 101.5016 59.9249 34.7071 3.4883 29.2687 22.1094
# 2 59.9249 177.9969 60.2337 -34.6806 35.9505 38.0697
# 3 34.7071 60.2337 76.4052 -26.3580 23.2876 16.2364
# 4 3.4883 -34.6806 -26.3580 47.9529 -6.6986 13.4471
# 5 29.2687 35.9505 23.2876 -6.6986 47.6609 11.2073
# 6 22.1094 38.0697 16.2364 13.4471 11.2073 56.0635
#
#
#
# Elastic Compliance Matrix: (Units=1/GPa)
#
#
# Indices 1 2 3 4 5 6 
#
# 1 0.015737 -0.004347 -0.005240 -0.008275 -0.005295 0.001307
# 2 -0.004347 0.011522 -0.001531 0.009624 -0.002147 -0.007546
# 3 -0.005240 -0.001531 0.023914 0.013642 -0.003911 -0.006310
# 4 -0.008275 0.009624 0.013642 0.040875 0.000950 -0.017217
# 5 -0.005295 -0.002147 -0.003911 0.000950 0.028175 -0.001182
# 6 0.001307 -0.007546 -0.006310 -0.017217 -0.001182 0.028638
#
#
# Mechanical properties :
#
#
# Convention : Reuss Voigt Hill
#
# Bulk Modulus (GPa) = 34.55755 73.95947 54.25851
# Shear Modulus (GPa) = 27.66345 43.73798 35.70072
#
# Velocity S-wave (km/s) = 3.31006 4.16210 3.76029
# Velocity P-wave (km/s) = 5.31937 7.23810 6.35161
#
# Compressibility (1/GPa) = 0.02893723
#
# Stress axis : x y z
#
# Youngs Moduli (GPa) = 63.54487 86.78918 41.81577
#
# Poissons Ratio (x) = 0.37729 0.21911
# Poissons Ratio (y) = 0.27624 0.06402
# Poissons Ratio (z) = 0.33297 0.13288
#
# Static dielectric constant tensor:
#      x y z
#    x 2.068460 0.061770 -0.086610 
#    y 0.061770 2.250980 -0.052880 
#    z -0.086610 -0.052880 2.055990 
# 
# From -- ./inp_files/462014.got.cif
#   From: 2010.05.17/outbox.cif.g08.bks.cpg/sg2_232_cif.got.tgz:462014.got - 2010.06.03 11:33:40.
