data_PCOD9103982
_publ_section_title
;
Structure prediction by ZEFSAII (Michael W. Deem and Ramdas Pophale) SiO2 
 PCOD9103982
Probable space group: P -1
;
_chemical_formula_sum "Si O2"
_cell_formula_units_Z 15
_cell_length_a 30.837646
_cell_length_b 12.024250
_cell_length_c 18.516042
_cell_angle_alpha 30.279894
_cell_angle_beta 18.838642
_cell_angle_gamma 20.799150
_cell_volume 773.684170
_symmetry_space_group_name_H-M "P -1"
_symmetry_group_IT_number 2
_symmetry_cell_setting 'triclinic'
loop_
_space_group_symop_operation_xyz
x,y,z
-x,-y,-z
loop_
_atom_site_type_symbol
_atom_site_label
_atom_site_fract_x
_atom_site_fract_y
_atom_site_fract_z
Si Si1 0.779282 0.179587 0.803183
Si Si2 0.679265 0.823130 0.944636
Si Si3 0.669175 0.332024 0.729705
Si Si4 0.224537 0.341674 0.381543
Si Si5 0.971540 0.291634 0.893112
Si Si6 0.000000 0.500000 0.500000
Si Si7 0.714759 0.693269 0.359752
Si Si8 0.984575 0.488919 0.915451
O O1 0.787004 0.205178 0.690205
O O2 0.803046 0.385443 0.690747
O O3 0.911239 0.821567 0.823128
O O4 0.557403 0.364217 0.064343
O O5 0.777338 0.584614 0.991509
O O6 0.810188 0.636039 0.772477
O O7 0.688740 0.068658 0.813361
O O8 0.452053 0.036153 0.177941
O O9 0.725621 0.440617 0.519700
O O10 0.102431 0.468410 0.430016
O O11 0.139105 0.250226 0.618681
O O12 0.962947 0.363932 0.949938
O O13 0.000000 0.000000 0.000000
O O14 0.799697 0.749513 0.257543
O O15 0.500000 0.000000 0.500000
O O16 0.852627 0.556260 0.150534
#
# Coordination Sequence:
#
# PCOD9103982 Si02
#       8
#     2   2   2   2   2   1   2   2
#     4  10  20  39  72 101 123 162 224 273 326 389
#     4  10  22  42  68  96 125 168 222 272 326 382
#     4  10  20  38  70  99 129 164 210 278 327 390
#     4  10  23  41  66  97 125 166 217 274 326 386
#     4  11  25  44  64  93 128 172 225 271 323 390
#     4  10  22  40  60  92 134 164 214 254 318 384
#     4  11  24  40  59  98 140 169 207 262 342 392
#     4  11  24  42  66  95 133 172 217 269 329 392
#
# _framework density 19.387756
#
# number of rings (size 3 to 8) (size 9 to 14) (size 15 to 20)
#    0.000    1.600    2.667    1.200    3.733    4.800 
#    4.800    1.333    0.000    0.000    0.000    0.000 
#    0.000    0.000    0.000    0.000    0.000    0.000 
#
# Total GULP energy -83536.124209 kJ/mol
# GULP energy per Si atom -5569.074947 kJ/mol
# Density = 1.934363 g / cm^3
# Si number density = 19.387756 Si / 1000 Ang^3
#
#
#
# Elastic Constant Matrix: (Units=GPa)
#
#
# Indices 1 2 3 4 5 6 
#
# 1 127.8523 38.9471 57.6285 -5.1174 6.3714 -13.0741
# 2 38.9471 84.2530 48.8753 -8.1913 -7.1607 -13.9589
# 3 57.6285 48.8753 108.7082 -4.6612 -6.7516 -7.4342
# 4 -5.1174 -8.1913 -4.6612 41.1858 -8.7651 -4.5325
# 5 6.3714 -7.1607 -6.7516 -8.7651 32.8109 2.8435
# 6 -13.0741 -13.9589 -7.4342 -4.5325 2.8435 24.6053
#
#
#
# Elastic Compliance Matrix: (Units=1/GPa)
#
#
# Indices 1 2 3 4 5 6 
#
# 1 0.011310 -0.001984 -0.005092 0.000001 -0.004007 0.003809
# 2 -0.001984 0.018485 -0.006308 0.004353 0.003598 0.007913
# 3 -0.005092 -0.006308 0.014775 0.000164 0.002880 -0.002123
# 4 0.000001 0.004353 0.000164 0.027554 0.007764 0.006698
# 5 -0.004007 0.003598 0.002880 0.007764 0.034865 -0.001816
# 6 0.003809 0.007913 -0.002123 0.006698 -0.001816 0.047957
#
#
# Mechanical properties :
#
#
# Convention : Reuss Voigt Hill
#
# Bulk Modulus (GPa) = 56.17094 67.96834 62.06964
# Shear Modulus (GPa) = 26.64532 31.41125 29.02828
#
# Velocity S-wave (km/s) = 3.71123 4.02949 3.87363
# Velocity P-wave (km/s) = 6.88473 7.53541 7.21741
#
# Compressibility (1/GPa) = 0.01780280
#
# Stress axis : x y z
#
# Youngs Moduli (GPa) = 88.41448 54.09662 67.67998
#
# Poissons Ratio (x) = 0.10731 0.34465
# Poissons Ratio (y) = 0.17539 0.42694
# Poissons Ratio (z) = 0.45024 0.34125
#
# Static dielectric constant tensor:
#      x y z
#    x 1.638180 -0.029380 -0.009860 
#    y -0.029380 1.633940 0.040330 
#    z -0.009860 0.040330 1.714260 
# 
# From -- ./inp_files/307984.got.cif
#   From: 2010.05.17/outbox.cif.g08.bks.cpg/sg2_154_cif.got.tgz:307984.got - 2010.06.03 11:33:40.
