data_PCOD9103321
_publ_section_title
;
Structure prediction by ZEFSAII (Michael W. Deem and Ramdas Pophale) SiO2 
 PCOD9103321
Probable space group: P -1
;
_chemical_formula_sum "Si O2"
_cell_formula_units_Z 15
_cell_length_a 13.163476
_cell_length_b 7.460751
_cell_length_c 7.940247
_cell_angle_alpha 128.742472
_cell_angle_beta 95.870003
_cell_angle_gamma 86.658127
_cell_volume 605.017918
_symmetry_space_group_name_H-M "P -1"
_symmetry_group_IT_number 2
_symmetry_cell_setting 'triclinic'
loop_
_space_group_symop_operation_xyz
x,y,z
-x,-y,-z
loop_
_atom_site_type_symbol
_atom_site_label
_atom_site_fract_x
_atom_site_fract_y
_atom_site_fract_z
Si Si1 0.919326 0.191523 0.892936
Si Si2 0.736545 0.200215 0.275062
Si Si3 0.409185 0.183333 0.084428
Si Si4 0.977519 0.234652 0.360909
Si Si5 0.256685 0.968477 0.472983
Si Si6 0.616605 0.657064 0.452862
Si Si7 0.500000 0.500000 0.000000
Si Si8 0.908607 0.688958 0.248910
O O1 0.031782 0.265413 0.886632
O O2 0.827557 0.168456 0.730504
O O3 0.891868 0.419951 0.122564
O O4 0.941955 0.936489 0.815525
O O5 0.858743 0.188843 0.292007
O O6 0.694529 0.440755 0.339762
O O7 0.690990 0.980218 0.040407
O O8 0.701050 0.178694 0.452456
O O9 0.423693 0.328714 0.000770
O O10 0.415997 0.318696 0.342419
O O11 0.500000 0.000000 0.000000
O O12 0.000000 0.500000 0.500000
O O13 0.011970 0.208031 0.543466
O O14 0.335234 0.092520 0.435578
O O15 0.195135 0.176613 0.671782
O O16 0.543193 0.603553 0.250776
#
# Coordination Sequence:
#
# PCOD9103321 Si02
#       8
#     2   2   2   2   2   2   1   2
#     4  10  20  38  66  97 139 205 254 294 373 428
#     4  12  24  45  72 111 150 194 250 313 374 451
#     4  12  29  53  80 112 148 190 250 314 388 473
#     4  11  22  39  64  97 151 195 249 313 356 436
#     4  11  22  44  69 105 156 196 246 322 365 440
#     4  12  29  48  78 116 145 193 255 304 391 468
#     4  12  26  54  82 108 146 192 236 320 388 456
#     4  10  20  38  65  97 141 200 255 296 367 432
#
# _framework density 24.792652
#
# number of rings (size 3 to 8) (size 9 to 14) (size 15 to 20)
#    0.000    0.800    5.333    2.800    0.000    6.400 
#    0.000    0.000    0.000    0.000    0.000    0.000 
#    0.000    0.000    0.000    0.000    0.000    0.000 
#
# Total GULP energy -83543.690919 kJ/mol
# GULP energy per Si atom -5569.579395 kJ/mol
# Density = 2.473622 g / cm^3
# Si number density = 24.792652 Si / 1000 Ang^3
#
#
#
# Elastic Constant Matrix: (Units=GPa)
#
#
# Indices 1 2 3 4 5 6 
#
# 1 49.7962 19.6023 33.3740 -0.9629 4.6090 -0.6038
# 2 19.6023 133.7661 48.9494 -6.4517 -0.6220 20.6640
# 3 33.3740 48.9494 151.3947 -14.1373 11.7917 -13.9390
# 4 -0.9629 -6.4517 -14.1373 47.0818 5.2802 -1.8702
# 5 4.6090 -0.6220 11.7917 5.2802 38.4978 -3.5307
# 6 -0.6038 20.6640 -13.9390 -1.8702 -3.5307 29.9179
#
#
#
# Elastic Compliance Matrix: (Units=1/GPa)
#
#
# Indices 1 2 3 4 5 6 
#
# 1 0.024081 -0.001691 -0.004832 -0.001070 -0.001359 -0.000824
# 2 -0.001691 0.010575 -0.003967 -0.000226 0.000784 -0.009108
# 3 -0.004832 -0.003967 0.010073 0.002929 -0.002308 0.007247
# 4 -0.001070 -0.000226 0.002929 0.022573 -0.003641 0.002481
# 5 -0.001359 0.000784 -0.002308 -0.003641 0.027483 0.001371
# 6 -0.000824 -0.009108 0.007247 0.002481 0.001371 0.043392
#
#
# Mechanical properties :
#
#
# Convention : Reuss Voigt Hill
#
# Bulk Modulus (GPa) = 42.10659 59.86761 50.98710
# Shear Modulus (GPa) = 29.92676 38.63493 34.28085
#
# Velocity S-wave (km/s) = 3.47808 3.95184 3.72250
# Velocity P-wave (km/s) = 5.75758 6.70988 6.25189
#
# Compressibility (1/GPa) = 0.02374925
#
# Stress axis : x y z
#
# Youngs Moduli (GPa) = 41.52652 94.56241 99.27044
#
# Poissons Ratio (x) = 0.15995 0.47963
# Poissons Ratio (y) = 0.07024 0.39382
# Poissons Ratio (z) = 0.20064 0.37514
#
# Static dielectric constant tensor:
#      x y z
#    x 1.975050 0.047450 -0.043340 
#    y 0.047450 2.079070 -0.015960 
#    z -0.043340 -0.015960 2.008630 
# 
# From -- ./inp_files/443754.got.cif
#   From: 2010.05.17/outbox.cif.g08.bks.cpg/sg2_222_cif.got.tgz:443754.got - 2010.06.03 11:33:40.
