data_PCOD9103363
_publ_section_title
;
Structure prediction by ZEFSAII (Michael W. Deem and Ramdas Pophale) SiO2 
 PCOD9103363
Probable space group: P -1
;
_chemical_formula_sum "Si O2"
_cell_formula_units_Z 14
_cell_length_a 6.357335
_cell_length_b 13.703852
_cell_length_c 12.685152
_cell_angle_alpha 30.704502
_cell_angle_beta 106.665048
_cell_angle_gamma 116.753082
_cell_volume 491.552091
_symmetry_space_group_name_H-M "P -1"
_symmetry_group_IT_number 2
_symmetry_cell_setting 'triclinic'
loop_
_space_group_symop_operation_xyz
x,y,z
-x,-y,-z
loop_
_atom_site_type_symbol
_atom_site_label
_atom_site_fract_x
_atom_site_fract_y
_atom_site_fract_z
Si Si1 0.555911 0.030237 0.347858
Si Si2 0.789385 0.805137 0.948269
Si Si3 0.644070 0.740815 0.199044
Si Si4 0.882400 0.550456 0.672171
Si Si5 0.000000 0.500000 0.500000
Si Si6 0.000000 0.500000 0.000000
Si Si7 0.673983 0.415014 0.179703
Si Si8 0.285266 0.087737 0.725712
O O1 0.335223 0.096021 0.240361
O O2 0.486479 0.828995 0.601186
O O3 0.549106 0.923982 0.331101
O O4 0.806949 0.235923 0.203585
O O5 0.793383 0.892363 0.985902
O O6 0.655253 0.557599 0.138435
O O7 0.066738 0.862119 0.914280
O O8 0.385823 0.628105 0.211094
O O9 0.783721 0.592984 0.378408
O O10 0.607343 0.838504 0.211836
O O11 0.014130 0.534700 0.598118
O O12 0.840466 0.761172 0.466289
O O13 0.033789 0.556202 0.794735
O O14 0.257794 0.466556 0.031729
#
# Coordination Sequence:
#
# PCOD9103363 Si02
#       8
#     2   2   2   2   1   1   2   2
#     4  12  28  52  79 110 154 196 257 329 385 455
#     4  12  25  48  72 114 155 204 251 311 380 461
#     4  11  24  38  73 111 159 213 248 304 368 451
#     4  11  23  43  72 110 153 202 252 304 371 452
#     4  10  20  38  66 106 152 200 252 294 362 444
#     4  12  28  54  84 110 142 198 266 322 404 454
#     4  12  26  52  79 113 154 196 257 324 386 456
#     4  11  24  44  69 112 154 204 256 298 374 454
#
# _framework density 28.481210999999998
#
# number of rings (size 3 to 8) (size 9 to 14) (size 15 to 20)
#    0.000    0.571    4.286    4.286    2.000    1.143 
#    0.000    3.571    0.000    0.000    0.000    0.000 
#    0.000    0.000    0.000    0.000    0.000    0.000 
#
# Total GULP energy -77956.173411 kJ/mol
# GULP energy per Si atom -5568.298101 kJ/mol
# Density = 2.841639 g / cm^3
# Si number density = 28.481211 Si / 1000 Ang^3
#
#
#
# Elastic Constant Matrix: (Units=GPa)
#
#
# Indices 1 2 3 4 5 6 
#
# 1 65.0448 53.6893 19.8692 -8.4310 -5.3187 -11.7318
# 2 53.6893 151.4656 42.7487 0.6299 -1.4974 5.8343
# 3 19.8692 42.7487 124.4299 -7.5762 -7.5208 6.4812
# 4 -8.4310 0.6299 -7.5762 50.8778 5.0317 8.6808
# 5 -5.3187 -1.4974 -7.5208 5.0317 58.1137 7.4996
# 6 -11.7318 5.8343 6.4812 8.6808 7.4996 61.6118
#
#
#
# Elastic Compliance Matrix: (Units=1/GPa)
#
#
# Indices 1 2 3 4 5 6 
#
# 1 0.023970 -0.008421 -0.000950 0.003000 0.000959 0.004922
# 2 -0.008421 0.010289 -0.002193 -0.001453 -0.000393 -0.002094
# 3 -0.000950 -0.002193 0.009155 0.001340 0.001088 -0.001257
# 4 0.003000 -0.001453 0.001340 0.020861 -0.001107 -0.002236
# 5 0.000959 -0.000393 0.001088 -0.001107 0.017767 -0.001901
# 6 0.004922 -0.002094 -0.001257 -0.002236 -0.001901 0.018045
#
#
# Mechanical properties :
#
#
# Convention : Reuss Voigt Hill
#
# Bulk Modulus (GPa) = 49.29814 63.72831 56.51322
# Shear Modulus (GPa) = 38.46809 49.09619 43.78214
#
# Velocity S-wave (km/s) = 3.67910 4.15638 3.92500
# Velocity P-wave (km/s) = 5.94931 6.74227 6.35816
#
# Compressibility (1/GPa) = 0.02028474
#
# Stress axis : x y z
#
# Youngs Moduli (GPa) = 41.71832 97.19132 109.23305
#
# Poissons Ratio (x) = 0.81845 0.10380
# Poissons Ratio (y) = 0.35131 0.23958
# Poissons Ratio (z) = 0.03964 0.21317
#
# Static dielectric constant tensor:
#      x y z
#    x 6.294380 -4.157860 -4.577730 
#    y -4.157860 6.546960 4.780310 
#    z -4.577730 4.780310 7.555530 
# 
# From -- ./inp_files/484157.got.cif
#   From: 2010.05.17/outbox.cif.g08.bks.cpg/sg2_243_cif.got.tgz:484157.got - 2010.06.03 11:33:40.
