data_PCOD9103132
_publ_section_title
;
Structure prediction by ZEFSAII (Michael W. Deem and Ramdas Pophale) SiO2 
 PCOD9103132
Probable space group: P -1
;
_chemical_formula_sum "Si O2"
_cell_formula_units_Z 16
_cell_length_a 11.723972
_cell_length_b 9.144035
_cell_length_c 19.762115
_cell_angle_alpha 51.040970
_cell_angle_beta 32.512831
_cell_angle_gamma 41.951930
_cell_volume 761.231415
_symmetry_space_group_name_H-M "P -1"
_symmetry_group_IT_number 2
_symmetry_cell_setting 'triclinic'
loop_
_space_group_symop_operation_xyz
x,y,z
-x,-y,-z
loop_
_atom_site_type_symbol
_atom_site_label
_atom_site_fract_x
_atom_site_fract_y
_atom_site_fract_z
Si Si1 0.837603 0.557812 0.764359
Si Si2 0.380063 0.017634 0.903440
Si Si3 0.891398 0.412421 0.021819
Si Si4 0.887454 0.445475 0.507591
Si Si5 0.680575 0.292716 0.281747
Si Si6 0.244794 0.868722 0.270279
Si Si7 0.990177 0.372301 0.208898
Si Si8 0.829398 0.155690 0.833780
O O1 0.582147 0.787350 0.837212
O O2 0.792143 0.357389 0.837754
O O3 0.961182 0.574233 0.629024
O O4 0.023284 0.510553 0.748102
O O5 0.511844 0.156641 0.810500
O O6 0.300176 0.961502 0.031018
O O7 0.120838 0.178069 0.950089
O O8 0.709708 0.364191 0.170313
O O9 0.000000 0.500000 0.000000
O O10 0.832244 0.578893 0.941361
O O11 0.601161 0.632862 0.587665
O O12 0.882103 0.225226 0.590962
O O13 0.000000 0.500000 0.500000
O O14 0.766784 0.407637 0.261797
O O15 0.882040 0.034414 0.260819
O O16 0.274362 0.763803 0.212390
O O17 0.098565 0.124519 0.251095
#
# Coordination Sequence:
#
# PCOD9103132 Si02
#       8
#     2   2   2   2   2   2   2   2
#     4  11  24  41  58  94 136 164 200 257 318 363
#     4  10  21  37  66  97 128 156 203 262 315 367
#     4   9  17  38  64  96 122 153 204 254 307 364
#     4  12  25  44  62  88 125 171 216 254 304 374
#     4   9  21  40  67  89 119 167 216 250 298 375
#     4  10  20  38  65  89 119 168 212 252 297 370
#     4   9  20  39  64  96 121 157 205 262 313 360
#     4  10  20  41  62  96 125 161 205 256 316 371
#
# _framework density 21.018575999999999
#
# number of rings (size 3 to 8) (size 9 to 14) (size 15 to 20)
#    0.000    2.000    1.250    3.000    0.000    7.000 
#    4.500    1.250    0.000    0.000    0.000    0.000 
#    0.000    0.000    0.000    0.000    0.000    0.000 
#
# Total GULP energy -89253.894022 kJ/mol
# GULP energy per Si atom -5578.368376 kJ/mol
# Density = 2.097074 g / cm^3
# Si number density = 21.018576 Si / 1000 Ang^3
#
#
#
# Elastic Constant Matrix: (Units=GPa)
#
#
# Indices 1 2 3 4 5 6 
#
# 1 68.8762 14.1066 -1.2596 -6.1831 15.9715 20.8698
# 2 14.1066 90.5940 2.9435 0.2490 -0.5850 -0.0474
# 3 -1.2596 2.9435 66.7882 -4.2531 20.2379 -1.8127
# 4 -6.1831 0.2490 -4.2531 37.7788 -2.2249 4.2038
# 5 15.9715 -0.5850 20.2379 -2.2249 26.9594 -8.3726
# 6 20.8698 -0.0474 -1.8127 4.2038 -8.3726 30.8020
#
#
#
# Elastic Compliance Matrix: (Units=1/GPa)
#
#
# Indices 1 2 3 4 5 6 
#
# 1 0.040377 -0.007123 0.014864 0.010083 -0.047026 -0.040652
# 2 -0.007123 0.012325 -0.003374 -0.001910 0.009159 0.007397
# 3 0.014864 -0.003374 0.025277 0.005390 -0.033099 -0.018321
# 4 0.010083 -0.001910 0.005390 0.029573 -0.011903 -0.013789
# 5 -0.047026 0.009159 -0.033099 -0.011903 0.107926 0.060889
# 6 -0.040652 0.007397 -0.018321 -0.013789 0.060889 0.077375
#
#
# Mechanical properties :
#
#
# Convention : Reuss Voigt Hill
#
# Bulk Modulus (GPa) = 11.53219 28.64886 20.09052
# Shear Modulus (GPa) = 15.97322 33.13923 24.55622
#
# Velocity S-wave (km/s) = 2.75972 3.97503 3.42176
# Velocity P-wave (km/s) = 3.95643 5.89302 5.01901
#
# Compressibility (1/GPa) = 0.08671379
#
# Stress axis : x y z
#
# Youngs Moduli (GPa) = 24.76652 81.13423 39.56121
#
# Poissons Ratio (x) = 0.57790 -0.58803
# Poissons Ratio (y) = 0.17641 0.13348
# Poissons Ratio (z) = -0.36812 0.27374
#
# Static dielectric constant tensor:
#      x y z
#    x 1.777670 -0.020280 -0.027340 
#    y -0.020280 1.821940 0.022320 
#    z -0.027340 0.022320 1.749840 
# 
# From -- ./inp_files/594017.got.cif
#   From: 2010.05.17/outbox.cif.g08.bks.cpg/sg2_298_cif.got.tgz:594017.got - 2010.06.03 11:33:40.
