data_PCOD9103106
_publ_section_title
;
Structure prediction by ZEFSAII (Michael W. Deem and Ramdas Pophale) SiO2 
 PCOD9103106
Probable space group: P -1
;
_chemical_formula_sum "Si O2"
_cell_formula_units_Z 16
_cell_length_a 6.264964
_cell_length_b 16.504336
_cell_length_c 11.961268
_cell_angle_alpha 55.196453
_cell_angle_beta 131.912132
_cell_angle_gamma 117.683363
_cell_volume 748.676290
_symmetry_space_group_name_H-M "P -1"
_symmetry_group_IT_number 2
_symmetry_cell_setting 'triclinic'
loop_
_space_group_symop_operation_xyz
x,y,z
-x,-y,-z
loop_
_atom_site_type_symbol
_atom_site_label
_atom_site_fract_x
_atom_site_fract_y
_atom_site_fract_z
Si Si1 0.284188 0.597316 0.778376
Si Si2 0.662936 0.955920 0.922738
Si Si3 0.091667 0.564377 0.092610
Si Si4 0.188255 0.253740 0.201172
Si Si5 0.704170 0.887870 0.218960
Si Si6 0.271279 0.292139 0.465096
Si Si7 0.721860 0.956188 0.693788
Si Si8 0.656587 0.472260 0.392686
O O1 0.545190 0.685570 0.824694
O O2 0.380843 0.566534 0.715459
O O3 0.165054 0.490461 0.875456
O O4 0.002401 0.652592 0.645829
O O5 0.581117 0.928959 0.787884
O O6 0.503866 0.044513 0.845184
O O7 0.618084 0.873170 0.069956
O O8 0.000000 0.000000 0.000000
O O9 0.412314 0.546472 0.260015
O O10 0.000000 0.500000 0.000000
O O11 0.062704 0.678436 0.965801
O O12 0.242797 0.255475 0.354046
O O13 0.158921 0.140622 0.238677
O O14 0.712594 0.792595 0.372625
O O15 0.015845 0.954815 0.272728
O O16 0.548220 0.376638 0.505342
O O17 0.500000 0.000000 0.500000
O O18 0.000000 0.500000 0.500000
#
# Coordination Sequence:
#
# PCOD9103106 Si02
#       8
#     2   2   2   2   2   2   2   2
#     4  10  20  38  65  85 124 164 206 263 327 383
#     4   9  21  42  62  84 122 171 215 256 328 381
#     4  11  20  40  64  91 122 169 213 268 327 386
#     4  11  22  36  61  98 126 162 218 266 334 384
#     4  10  21  42  66  85 128 173 208 269 317 392
#     4  10  21  37  64  92 118 168 217 254 333 395
#     4  11  23  39  63  99 132 164 214 277 320 378
#     4  10  23  41  61  90 129 167 213 269 325 392
#
# _framework density 21.371051000000001
#
# number of rings (size 3 to 8) (size 9 to 14) (size 15 to 20)
#    0.000    1.750    3.750    1.875    0.000    8.000 
#    0.000   10.000    0.000    0.000    0.000    0.000 
#    0.000    0.000    0.000    0.000    0.000    0.000 
#
# Total GULP energy -89176.646400 kJ/mol
# GULP energy per Si atom -5573.540400 kJ/mol
# Density = 2.132241 g / cm^3
# Si number density = 21.371051 Si / 1000 Ang^3
#
#
#
# Elastic Constant Matrix: (Units=GPa)
#
#
# Indices 1 2 3 4 5 6 
#
# 1 99.3763 27.2869 50.4059 -6.6599 -14.9772 3.6932
# 2 27.2869 72.3711 66.6357 -22.7572 -2.6185 8.9151
# 3 50.4059 66.6357 145.8912 -31.1219 -25.1774 1.1647
# 4 -6.6599 -22.7572 -31.1219 34.9778 11.7257 1.0835
# 5 -14.9772 -2.6185 -25.1774 11.7257 34.0272 8.8588
# 6 3.6932 8.9151 1.1647 1.0835 8.8588 35.1207
#
#
#
# Elastic Compliance Matrix: (Units=1/GPa)
#
#
# Indices 1 2 3 4 5 6 
#
# 1 0.012973 -0.002779 -0.003152 -0.003728 0.004884 -0.001671
# 2 -0.002779 0.029732 -0.011871 0.011967 -0.010660 -0.004542
# 3 -0.003152 -0.011871 0.015278 0.002595 0.007911 0.000763
# 4 -0.003728 0.011967 0.002595 0.042435 -0.013240 -0.000701
# 5 0.004884 -0.010660 0.007911 -0.013240 0.043373 -0.008602
# 6 -0.001671 -0.004542 0.000763 -0.000701 -0.008602 0.031968
#
#
# Mechanical properties :
#
#
# Convention : Reuss Voigt Hill
#
# Bulk Modulus (GPa) = 44.68193 67.36619 56.02406
# Shear Modulus (GPa) = 22.84963 32.37915 27.61439
#
# Velocity S-wave (km/s) = 3.27339 3.89664 3.59853
# Velocity P-wave (km/s) = 5.93632 7.19970 6.59832
#
# Compressibility (1/GPa) = 0.02238041
#
# Stress axis : x y z
#
# Youngs Moduli (GPa) = 77.08414 33.63360 65.45339
#
# Poissons Ratio (x) = 0.09346 0.20631
# Poissons Ratio (y) = 0.21419 0.77697
# Poissons Ratio (z) = 0.24298 0.39925
#
# Static dielectric constant tensor:
#      x y z
#    x 1.831950 0.078640 -0.048000 
#    y 0.078640 1.893520 0.022980 
#    z -0.048000 0.022980 1.842230 
# 
# From -- ./inp_files/39706.got.cif
#   From: 2010.05.17/outbox.cif.g08.bks.cpg/sg2_20_cif.got.tgz:39706.got - 2010.06.03 11:33:40.
