data_PCOD9103821
_publ_section_title
;
Structure prediction by ZEFSAII (Michael W. Deem and Ramdas Pophale) SiO2 
 PCOD9103821
Probable space group: P -1
;
_chemical_formula_sum "Si O2"
_cell_formula_units_Z 14
_cell_length_a 13.061965
_cell_length_b 15.927362
_cell_length_c 8.775176
_cell_angle_alpha 123.362076
_cell_angle_beta 134.832381
_cell_angle_gamma 27.219891
_cell_volume 575.252582
_symmetry_space_group_name_H-M "P -1"
_symmetry_group_IT_number 2
_symmetry_cell_setting 'triclinic'
loop_
_space_group_symop_operation_xyz
x,y,z
-x,-y,-z
loop_
_atom_site_type_symbol
_atom_site_label
_atom_site_fract_x
_atom_site_fract_y
_atom_site_fract_z
Si Si1 0.067485 0.174785 0.077356
Si Si2 0.215945 0.668695 0.775879
Si Si3 0.617421 0.215226 0.930904
Si Si4 0.892782 0.575055 0.286381
Si Si5 0.442723 0.030496 0.789180
Si Si6 0.465067 0.590368 0.411056
Si Si7 0.487595 0.231537 0.464551
O O1 0.997050 0.251275 0.250387
O O2 0.221808 0.979224 0.059044
O O3 0.270602 0.125390 0.152438
O O4 0.792609 0.306916 0.838675
O O5 0.272324 0.578333 0.590150
O O6 0.500000 0.500000 0.000000
O O7 0.195067 0.799729 0.857500
O O8 0.345487 0.369363 0.902916
O O9 0.548825 0.244524 0.708180
O O10 0.742323 0.767240 0.264670
O O11 0.000000 0.500000 0.500000
O O12 0.162034 0.405217 0.297712
O O13 0.360957 0.963607 0.596856
O O14 0.500000 0.000000 0.000000
O O15 0.500000 0.500000 0.500000
O O16 0.433468 0.728541 0.533044
#
# Coordination Sequence:
#
# PCOD9103821 Si02
#       7
#     2   2   2   2   2   2   2
#     4  10  23  44  70  96 137 183 229 294 340 417
#     4  10  20  38  68  96 132 175 231 279 337 410
#     4  10  20  41  67 104 129 177 239 284 344 403
#     4   9  23  42  69 101 137 181 235 291 346 416
#     4  11  27  47  69 105 145 188 234 292 367 418
#     4  11  26  44  66 106 140 183 230 283 363 420
#     4  11  24  43  71  99 141 180 238 291 345 423
#
# _framework density 24.337135
#
# number of rings (size 3 to 8) (size 9 to 14) (size 15 to 20)
#    0.000    1.714    2.857    0.429    6.000   10.286 
#    0.000    1.429    0.000    0.000    0.000    0.000 
#    0.000    0.000    0.000    0.000    0.000    0.000 
#
# Total GULP energy -78264.353586 kJ/mol
# GULP energy per Si atom -5590.310970 kJ/mol
# Density = 2.428174 g / cm^3
# Si number density = 24.337135 Si / 1000 Ang^3
#
#
#
# Elastic Constant Matrix: (Units=GPa)
#
#
# Indices 1 2 3 4 5 6 
#
# 1 166.5623 56.3910 57.4813 -0.6006 2.3379 33.7621
# 2 56.3910 95.4298 27.9665 0.8458 1.8765 29.3714
# 3 57.4813 27.9665 54.7760 -3.3610 7.2982 5.9510
# 4 -0.6006 0.8458 -3.3610 31.5366 8.4431 11.6435
# 5 2.3379 1.8765 7.2982 8.4431 34.0357 -0.2210
# 6 33.7621 29.3714 5.9510 11.6435 -0.2210 48.6908
#
#
#
# Elastic Compliance Matrix: (Units=1/GPa)
#
#
# Indices 1 2 3 4 5 6 
#
# 1 0.011420 -0.001968 -0.010485 0.000889 0.001315 -0.005656
# 2 -0.001968 0.015457 -0.004821 0.001993 -0.000229 -0.007848
# 3 -0.010485 -0.004821 0.032206 0.003128 -0.006660 0.005464
# 4 0.000889 0.001993 0.003128 0.039136 -0.010625 -0.011608
# 5 0.001315 -0.000229 -0.006660 -0.010625 0.033385 0.002732
# 6 -0.005656 -0.007848 0.005464 -0.011608 0.002732 0.031314
#
#
# Mechanical properties :
#
#
# Convention : Reuss Voigt Hill
#
# Bulk Modulus (GPa) = 40.75912 66.71618 53.73765
# Shear Modulus (GPa) = 24.31374 34.51458 29.41416
#
# Velocity S-wave (km/s) = 3.16419 3.76997 3.48028
# Velocity P-wave (km/s) = 5.48940 6.81344 6.18694
#
# Compressibility (1/GPa) = 0.02453439
#
# Stress axis : x y z
#
# Youngs Moduli (GPa) = 87.56676 64.69578 31.04994
#
# Poissons Ratio (x) = 0.12734 0.32556
# Poissons Ratio (y) = 0.17235 0.14969
# Poissons Ratio (z) = 0.91815 0.31190
#
# Static dielectric constant tensor:
#      x y z
#    x 1.772690 0.204880 -0.772110 
#    y 0.204880 1.898460 0.626030 
#    z -0.772110 0.626030 -1.060560 
# 
# From -- ./inp_files/274144.got.cif
#   From: 2010.05.17/outbox.cif.g08.bks.cpg/sg2_138_cif.got.tgz:274144.got - 2010.06.03 11:33:40.
