data_PCOD9103949
_publ_section_title
;
Structure prediction by ZEFSAII (Michael W. Deem and Ramdas Pophale) SiO2 
 PCOD9103949
Probable space group: P -1
;
_chemical_formula_sum "Si O2"
_cell_formula_units_Z 16
_cell_length_a 14.023190
_cell_length_b 12.335918
_cell_length_c 14.228532
_cell_angle_alpha 147.325153
_cell_angle_beta 150.285427
_cell_angle_gamma 39.689895
_cell_volume 651.837752
_symmetry_space_group_name_H-M "P -1"
_symmetry_group_IT_number 2
_symmetry_cell_setting 'triclinic'
loop_
_space_group_symop_operation_xyz
x,y,z
-x,-y,-z
loop_
_atom_site_type_symbol
_atom_site_label
_atom_site_fract_x
_atom_site_fract_y
_atom_site_fract_z
Si Si1 0.499490 0.657131 0.513933
Si Si2 0.191738 0.179360 0.723568
Si Si3 0.399136 0.706586 0.794729
Si Si4 0.351583 0.656424 0.930247
Si Si5 0.977680 0.907249 0.811616
Si Si6 0.882239 0.281422 0.671488
Si Si7 0.832374 0.884591 0.048364
Si Si8 0.356645 0.056167 0.578451
O O1 0.607761 0.463114 0.411762
O O2 0.322663 0.599981 0.384036
O O3 0.391792 0.819756 0.463937
O O4 0.646466 0.786404 0.785343
O O5 0.227975 0.179055 0.642014
O O6 0.010779 0.319454 0.718695
O O7 0.172597 0.945477 0.555558
O O8 0.386527 0.229657 0.975791
O O9 0.245268 0.910464 0.810491
O O10 0.375503 0.614699 0.810310
O O11 0.436632 0.865233 0.179491
O O12 0.500000 0.500000 0.000000
O O13 0.123920 0.695980 0.784927
O O14 0.056404 0.042687 0.894203
O O15 0.758980 0.896504 0.582400
O O16 0.000000 0.000000 0.000000
O O17 0.972187 0.738923 0.129562
#
# Coordination Sequence:
#
# PCOD9103949 Si02
#       8
#     2   2   2   2   2   2   2   2
#     4  11  21  41  65  90 127 170 203 257 315 364
#     4   9  18  40  64  93 120 174 203 257 316 366
#     4  10  22  40  62  90 131 163 209 257 314 369
#     4  10  23  41  62  90 122 160 209 258 313 368
#     4  11  23  38  63  91 120 162 209 254 309 376
#     4  10  20  38  70  89 125 168 211 255 314 367
#     4  11  21  44  60  95 127 164 212 258 312 374
#     4  10  20  42  64  86 128 162 207 254 309 373
#
# _framework density 24.545985000000002
#
# number of rings (size 3 to 8) (size 9 to 14) (size 15 to 20)
#    0.000    1.750    7.500    0.000    1.750    3.000 
#    2.250    1.875    0.000    0.000    0.000    0.000 
#    0.000    0.000    0.000    0.000    0.000    0.000 
#
# Total GULP energy -89553.556890 kJ/mol
# GULP energy per Si atom -5597.097306 kJ/mol
# Density = 2.449012 g / cm^3
# Si number density = 24.545985 Si / 1000 Ang^3
#
#
#
# Elastic Constant Matrix: (Units=GPa)
#
#
# Indices 1 2 3 4 5 6 
#
# 1 54.7881 34.2554 26.9736 -7.7655 -24.1475 -22.9924
# 2 34.2554 110.6204 33.8603 -13.9627 -14.8306 -9.3285
# 3 26.9736 33.8603 89.8506 -18.2225 -26.2432 -10.2859
# 4 -7.7655 -13.9627 -18.2225 39.3912 2.9504 -0.3997
# 5 -24.1475 -14.8306 -26.2432 2.9504 39.3768 -4.6726
# 6 -22.9924 -9.3285 -10.2859 -0.3997 -4.6726 40.8760
#
#
#
# Elastic Compliance Matrix: (Units=1/GPa)
#
#
# Indices 1 2 3 4 5 6 
#
# 1 0.050720 -0.008695 0.002292 0.005850 0.032585 0.030904
# 2 -0.008695 0.012117 -0.002990 0.001408 -0.003251 -0.003236
# 3 0.002292 -0.002990 0.017093 0.006469 0.011938 0.006336
# 4 0.005850 0.001408 0.006469 0.029574 0.006964 0.006325
# 5 0.032585 -0.003251 0.011938 0.006964 0.054783 0.026922
# 6 0.030904 -0.003236 0.006336 0.006325 0.026922 0.045843
#
#
# Mechanical properties :
#
#
# Convention : Reuss Voigt Hill
#
# Bulk Modulus (GPa) = 16.35508 49.49307 32.92408
# Shear Modulus (GPa) = 20.05644 34.60679 27.33161
#
# Velocity S-wave (km/s) = 2.86159 3.75890 3.34051
# Velocity P-wave (km/s) = 4.19473 6.24871 5.32175
#
# Compressibility (1/GPa) = 0.06114307
#
# Stress axis : x y z
#
# Youngs Moduli (GPa) = 19.71602 82.53035 58.50510
#
# Poissons Ratio (x) = 0.71758 -0.13409
# Poissons Ratio (y) = 0.17143 0.17495
# Poissons Ratio (z) = -0.04519 0.24679
#
# Static dielectric constant tensor:
#      x y z
#    x 1.977190 0.016640 0.017000 
#    y 0.016640 1.988890 0.001160 
#    z 0.017000 0.001160 1.928900 
# 
# From -- ./inp_files/533953.got.cif
#   From: 2010.05.17/outbox.cif.g08.bks.cpg/sg2_267_cif.got.tgz:533953.got - 2010.06.03 11:33:40.
