data_PCOD9103074
_publ_section_title
;
Structure prediction by ZEFSAII (Michael W. Deem and Ramdas Pophale) SiO2 
 PCOD9103074
Probable space group: P -1
;
_chemical_formula_sum "Si O2"
_cell_formula_units_Z 14
_cell_length_a 8.202414
_cell_length_b 8.943654
_cell_length_c 10.265327
_cell_angle_alpha 68.963470
_cell_angle_beta 121.469788
_cell_angle_gamma 97.403859
_cell_volume 597.865739
_symmetry_space_group_name_H-M "P -1"
_symmetry_group_IT_number 2
_symmetry_cell_setting 'triclinic'
loop_
_space_group_symop_operation_xyz
x,y,z
-x,-y,-z
loop_
_atom_site_type_symbol
_atom_site_label
_atom_site_fract_x
_atom_site_fract_y
_atom_site_fract_z
Si Si1 0.153486 0.748984 0.800328
Si Si2 0.235621 0.324467 0.358457
Si Si3 0.719188 0.963212 0.323004
Si Si4 0.542680 0.257793 0.846085
Si Si5 0.582097 0.164028 0.431976
Si Si6 0.844027 0.541693 0.308001
Si Si7 0.181564 0.681642 0.301195
O O1 0.112543 0.942746 0.699473
O O2 0.175604 0.620463 0.731342
O O3 0.958181 0.689427 0.798009
O O4 0.331528 0.734038 0.975401
O O5 0.411736 0.297015 0.344042
O O6 0.246715 0.492006 0.382611
O O7 0.236865 0.185765 0.513933
O O8 0.632111 0.114684 0.322832
O O9 0.569398 0.900110 0.180036
O O10 0.361235 0.389510 0.745777
O O11 0.696711 0.262615 0.789652
O O12 0.749144 0.219736 0.577000
O O13 0.500000 0.000000 0.500000
O O14 0.000000 0.500000 0.500000
O O15 0.951177 0.670932 0.222633
#
# Coordination Sequence:
#
# PCOD9103074 Si02
#       7
#     2   2   2   2   2   2   2
#     4  11  25  44  63  98 135 174 219 269 334 397
#     4  10  22  39  68  97 122 175 222 275 325 377
#     4  11  23  41  67  94 133 176 223 272 325 387
#     4  12  25  45  66  97 141 175 212 272 337 398
#     4  10  20  38  64  99 128 165 222 277 322 377
#     4  11  26  43  71 102 126 175 227 274 326 387
#     4  11  23  42  70 100 133 167 222 277 331 390
#
# _framework density 23.416630000000001
#
# number of rings (size 3 to 8) (size 9 to 14) (size 15 to 20)
#    0.000    1.143    2.857    4.286    4.000    4.571 
#    2.571    0.714    0.000    0.000    0.000    0.000 
#    0.000    0.000    0.000    0.000    0.000    0.000 
#
# Total GULP energy -78072.629351 kJ/mol
# GULP energy per Si atom -5576.616382 kJ/mol
# Density = 2.336333 g / cm^3
# Si number density = 23.416630 Si / 1000 Ang^3
#
#
#
# Elastic Constant Matrix: (Units=GPa)
#
#
# Indices 1 2 3 4 5 6 
#
# 1 53.6397 35.8774 6.5884 7.3212 -0.5177 5.2204
# 2 35.8774 166.6450 51.4591 47.4826 -1.6650 21.2102
# 3 6.5884 51.4591 97.6430 37.5940 8.3393 -0.1910
# 4 7.3212 47.4826 37.5940 38.0325 -0.1450 3.7337
# 5 -0.5177 -1.6650 8.3393 -0.1450 20.6930 5.7556
# 6 5.2204 21.2102 -0.1910 3.7337 5.7556 44.9208
#
#
#
# Elastic Compliance Matrix: (Units=1/GPa)
#
#
# Indices 1 2 3 4 5 6 
#
# 1 0.021969 -0.005483 0.000654 0.001980 -0.000110 -0.000112
# 2 -0.005483 0.011416 -0.001524 -0.011274 0.002468 -0.004139
# 3 0.000654 -0.001524 0.018030 -0.016387 -0.008365 0.003154
# 4 0.001980 -0.011274 -0.016387 0.056254 0.006267 -0.000455
# 5 -0.000110 0.002468 -0.008365 0.006267 0.054348 -0.008672
# 6 -0.000112 -0.004139 0.003154 -0.000455 -0.008672 0.025391
#
#
# Mechanical properties :
#
#
# Convention : Reuss Voigt Hill
#
# Bulk Modulus (GPa) = 25.83400 56.19751 41.01575
# Shear Modulus (GPa) = 23.47212 35.66278 29.56745
#
# Velocity S-wave (km/s) = 3.16946 3.90676 3.55726
# Velocity P-wave (km/s) = 4.94472 6.66344 5.86735
#
# Compressibility (1/GPa) = 0.03870868
#
# Stress axis : x y z
#
# Youngs Moduli (GPa) = 45.51790 87.59836 55.46209
#
# Poissons Ratio (x) = 0.48029 -0.03626
# Poissons Ratio (y) = 0.24957 0.08454
# Poissons Ratio (z) = -0.02976 0.13353
#
# Static dielectric constant tensor:
#      x y z
#    x 2.112680 0.037040 -0.077120 
#    y 0.037040 1.866270 -0.075650 
#    z -0.077120 -0.075650 1.944980 
# 
# From -- ./inp_files/378468.got.cif
#   From: 2010.05.17/outbox.cif.g08.bks.cpg/sg2_190_cif.got.tgz:378468.got - 2010.06.03 11:33:40.
