data_PCOD9103540
_publ_section_title
;
Structure prediction by ZEFSAII (Michael W. Deem and Ramdas Pophale) SiO2 
 PCOD9103540
Probable space group: P -1
;
_chemical_formula_sum "Si O2"
_cell_formula_units_Z 13
_cell_length_a 9.585630
_cell_length_b 13.485549
_cell_length_c 7.910418
_cell_angle_alpha 97.674805
_cell_angle_beta 130.517017
_cell_angle_gamma 51.670789
_cell_volume 544.060247
_symmetry_space_group_name_H-M "P -1"
_symmetry_group_IT_number 2
_symmetry_cell_setting 'triclinic'
loop_
_space_group_symop_operation_xyz
x,y,z
-x,-y,-z
loop_
_atom_site_type_symbol
_atom_site_label
_atom_site_fract_x
_atom_site_fract_y
_atom_site_fract_z
Si Si1 0.715505 0.150278 0.344490
Si Si2 0.423264 0.442958 0.560313
Si Si3 0.741099 0.800576 0.999469
Si Si4 0.120638 0.701369 0.576092
Si Si5 0.276390 0.854096 0.246599
Si Si6 0.588672 0.909292 0.381285
Si Si7 0.000000 0.500000 0.000000
O O1 0.480880 0.181335 0.083075
O O2 0.692890 0.144138 0.527168
O O3 0.707415 0.266369 0.299771
O O4 0.000000 0.000000 0.500000
O O5 0.500000 0.500000 0.500000
O O6 0.674978 0.281730 0.770628
O O7 0.301753 0.535347 0.657082
O O8 0.218980 0.450065 0.302774
O O9 0.874967 0.665912 0.951468
O O10 0.580655 0.959018 0.850259
O O11 0.954009 0.758472 0.285223
O O12 0.896068 0.794173 0.560151
O O13 0.488963 0.835581 0.308379
O O14 0.000000 0.000000 0.000000
O O15 0.500000 0.000000 0.500000
#
# Coordination Sequence:
#
# PCOD9103540 Si02
#       7
#     2   2   2   2   2   2   1
#     4  12  22  42  67  96 129 178 233 272 321 414
#     4  11  22  44  70  99 133 182 231 280 332 411
#     4  11  22  39  67  96 131 173 230 277 325 403
#     4  11  24  40  72  96 127 180 234 273 331 406
#     4  12  26  42  66 101 141 175 221 283 353 400
#     4  12  23  42  63  97 143 173 216 287 350 395
#     4  10  20  38  66  98 126 172 232 276 320 396
#
# _framework density 23.894414000000001
#
# number of rings (size 3 to 8) (size 9 to 14) (size 15 to 20)
#    0.000    0.615    6.154    1.385    4.308    0.615 
#    0.000    0.000    0.000    1.846    0.000    0.000 
#    0.000    0.000    0.000    0.000    0.000    0.000 
#
# Total GULP energy -72406.434928 kJ/mol
# GULP energy per Si atom -5569.725764 kJ/mol
# Density = 2.384003 g / cm^3
# Si number density = 23.894414 Si / 1000 Ang^3
#
#
#
# Elastic Constant Matrix: (Units=GPa)
#
#
# Indices 1 2 3 4 5 6 
#
# 1 111.5680 44.0629 13.7516 -2.4400 0.8883 8.1124
# 2 44.0629 143.1798 12.5886 -30.3419 -9.3319 -2.4572
# 3 13.7516 12.5886 39.8055 -18.9396 7.0480 4.0584
# 4 -2.4400 -30.3419 -18.9396 44.8772 -1.0000 6.4606
# 5 0.8883 -9.3319 7.0480 -1.0000 16.6332 7.3216
# 6 8.1124 -2.4572 4.0584 6.4606 7.3216 45.5211
#
#
#
# Elastic Compliance Matrix: (Units=1/GPa)
#
#
# Indices 1 2 3 4 5 6 
#
# 1 0.010993 -0.003850 -0.004016 -0.003545 -0.000736 -0.001187
# 2 -0.003850 0.010022 0.000448 0.007021 0.006432 -0.000844
# 3 -0.004016 0.000448 0.036274 0.015486 -0.012815 -0.002631
# 4 -0.003545 0.007021 0.015486 0.034219 0.002071 -0.005559
# 5 -0.000736 0.006432 -0.012815 0.002071 0.073977 -0.010571
# 6 -0.001187 -0.000844 -0.002631 -0.005559 -0.010571 0.024858
#
#
# Mechanical properties :
#
#
# Convention : Reuss Voigt Hill
#
# Bulk Modulus (GPa) = 23.55501 48.37327 35.96414
# Shear Modulus (GPa) = 22.79681 36.34964 29.57323
#
# Velocity S-wave (km/s) = 3.09214 3.90457 3.52186
# Velocity P-wave (km/s) = 4.75687 6.37307 5.62334
#
# Compressibility (1/GPa) = 0.04245382
#
# Stress axis : x y z
#
# Youngs Moduli (GPa) = 90.96535 99.78002 27.56815
#
# Poissons Ratio (x) = 0.38412 0.11071
# Poissons Ratio (y) = 0.35019 -0.01235
# Poissons Ratio (z) = 0.36531 -0.04471
#
# Static dielectric constant tensor:
#      x y z
#    x 1.975450 -0.042130 -0.025640 
#    y -0.042130 2.030500 0.014600 
#    z -0.025640 0.014600 1.957410 
# 
# From -- ./inp_files/173220.got.cif
#   From: 2010.05.17/outbox.cif.g08.bks.cpg/sg2_87_cif.got.tgz:173220.got - 2010.06.03 11:33:40.
