data_PCOD9103338
_publ_section_title
;
Structure prediction by ZEFSAII (Michael W. Deem and Ramdas Pophale) SiO2 
 PCOD9103338
Probable space group: P -1
;
_chemical_formula_sum "Si O2"
_cell_formula_units_Z 14
_cell_length_a 12.312617
_cell_length_b 15.437015
_cell_length_c 21.351482
_cell_angle_alpha 17.917677
_cell_angle_beta 28.300842
_cell_angle_gamma 37.473715
_cell_volume 564.180672
_symmetry_space_group_name_H-M "P -1"
_symmetry_group_IT_number 2
_symmetry_cell_setting 'triclinic'
loop_
_space_group_symop_operation_xyz
x,y,z
-x,-y,-z
loop_
_atom_site_type_symbol
_atom_site_label
_atom_site_fract_x
_atom_site_fract_y
_atom_site_fract_z
Si Si1 0.630818 0.161129 0.454060
Si Si2 0.367562 0.645435 0.809225
Si Si3 0.117234 0.330616 0.771433
Si Si4 0.864863 0.496445 0.226051
Si Si5 0.781031 0.082480 0.815315
Si Si6 0.833641 0.709611 0.365761
Si Si7 0.773269 0.633368 0.690168
O O1 0.734899 0.385476 0.188286
O O2 0.733075 0.271610 0.394134
O O3 0.359484 0.174215 0.581189
O O4 0.667384 0.844236 0.641046
O O5 0.579700 0.519087 0.811472
O O6 0.500000 0.000000 0.500000
O O7 0.147126 0.539228 0.042081
O O8 0.214082 0.548945 0.630076
O O9 0.246862 0.371986 0.610267
O O10 0.857947 0.379552 0.854259
O O11 0.068578 0.989174 0.049111
O O12 0.828516 0.809612 0.012767
O O13 0.842391 0.398194 0.600798
O O14 0.973843 0.153897 0.611601
O O15 0.500000 0.000000 0.000000
#
# Coordination Sequence:
#
# PCOD9103338 Si02
#       7
#     2   2   2   2   2   2   2
#     4  11  22  39  68  98 129 168 215 271 324 379
#     4  10  20  38  66 100 124 166 219 273 313 370
#     4  10  24  45  62  96 131 174 215 263 324 389
#     4  12  23  39  67  98 136 166 212 273 325 383
#     4  11  22  42  65  98 126 172 212 267 324 376
#     4  10  23  43  64  89 131 172 218 259 319 381
#     4  10  23  44  69  94 133 169 220 263 321 388
#
# _framework density 24.814747000000001
#
# number of rings (size 3 to 8) (size 9 to 14) (size 15 to 20)
#    0.000    1.429    4.286    2.143    0.000    4.000 
#    5.143    0.000    0.000    0.000    0.000    0.000 
#    0.000    0.000    0.000    0.000    0.000    0.000 
#
# Total GULP energy -78174.119940 kJ/mol
# GULP energy per Si atom -5583.865710 kJ/mol
# Density = 2.475827 g / cm^3
# Si number density = 24.814747 Si / 1000 Ang^3
#
#
#
# Elastic Constant Matrix: (Units=GPa)
#
#
# Indices 1 2 3 4 5 6 
#
# 1 88.8669 6.6695 -0.7872 -11.6402 -19.4473 29.0181
# 2 6.6695 133.2057 11.3865 -5.7588 -0.4952 6.0065
# 3 -0.7872 11.3865 38.8371 -7.0021 -8.8137 1.1260
# 4 -11.6402 -5.7588 -7.0021 37.6276 -2.8328 12.5463
# 5 -19.4473 -0.4952 -8.8137 -2.8328 23.9310 -7.7998
# 6 29.0181 6.0065 1.1260 12.5463 -7.7998 46.4732
#
#
#
# Elastic Compliance Matrix: (Units=1/GPa)
#
#
# Indices 1 2 3 4 5 6 
#
# 1 0.021832 -0.000389 0.007511 0.014305 0.017400 -0.014705
# 2 -0.000389 0.007820 -0.002397 0.000925 -0.001312 -0.001180
# 3 0.007511 -0.002397 0.032790 0.011129 0.017753 -0.005199
# 4 0.014305 0.000925 0.011129 0.040228 0.014733 -0.017709
# 5 0.017400 -0.001312 0.017753 0.014733 0.062689 -0.004581
# 6 -0.014705 -0.001180 -0.005199 -0.017709 -0.004581 0.034990
#
#
# Mechanical properties :
#
#
# Convention : Reuss Voigt Hill
#
# Bulk Modulus (GPa) = 13.91008 32.82748 23.36878
# Shear Modulus (GPa) = 23.27066 37.84908 30.55987
#
# Velocity S-wave (km/s) = 3.06563 3.90970 3.51311
# Velocity P-wave (km/s) = 4.26011 5.79989 5.08858
#
# Compressibility (1/GPa) = 0.07189029
#
# Stress axis : x y z
#
# Youngs Moduli (GPa) = 45.80475 127.87900 30.49744
#
# Poissons Ratio (x) = 0.04973 -0.22906
# Poissons Ratio (y) = 0.01781 0.07311
# Poissons Ratio (z) = -0.34403 0.30657
#
# Static dielectric constant tensor:
#      x y z
#    x 2.117860 0.042670 0.000420 
#    y 0.042670 1.944280 0.011230 
#    z 0.000420 0.011230 1.962110 
# 
# From -- ./inp_files/243573.got.cif
#   From: 2010.05.17/outbox.cif.g08.bks.cpg/sg2_122_cif.got.tgz:243573.got - 2010.06.03 11:33:40.
