data_PCOD9103829
_publ_section_title
;
Structure prediction by ZEFSAII (Michael W. Deem and Ramdas Pophale) SiO2 
 PCOD9103829
Probable space group: P -1
;
_chemical_formula_sum "Si O2"
_cell_formula_units_Z 16
_cell_length_a 13.140119
_cell_length_b 7.649867
_cell_length_c 12.492783
_cell_angle_alpha 47.934563
_cell_angle_beta 128.402831
_cell_angle_gamma 133.898371
_cell_volume 642.318823
_symmetry_space_group_name_H-M "P -1"
_symmetry_group_IT_number 2
_symmetry_cell_setting 'triclinic'
loop_
_space_group_symop_operation_xyz
x,y,z
-x,-y,-z
loop_
_atom_site_type_symbol
_atom_site_label
_atom_site_fract_x
_atom_site_fract_y
_atom_site_fract_z
Si Si1 0.966578 0.761676 0.241954
Si Si2 0.101980 0.809248 0.958225
Si Si3 0.262646 0.127387 0.716663
Si Si4 0.309151 0.662140 0.881448
Si Si5 0.597315 0.955652 0.822277
Si Si6 0.599901 0.564530 0.797464
Si Si7 0.402694 0.035303 0.514668
Si Si8 0.864116 0.508210 0.499646
O O1 0.803935 0.586929 0.159069
O O2 0.967811 0.704509 0.393448
O O3 0.068674 0.634959 0.321556
O O4 0.998204 0.059410 0.117531
O O5 0.176878 0.980711 0.829178
O O6 0.000000 0.500000 0.000000
O O7 0.240946 0.868314 0.099259
O O8 0.432587 0.335776 0.765169
O O9 0.194085 0.310546 0.552830
O O10 0.260366 0.890084 0.743043
O O11 0.476950 0.774090 0.906119
O O12 0.309577 0.578543 0.039405
O O13 0.605497 0.761008 0.816754
O O14 0.514502 0.112539 0.654534
O O15 0.645437 0.750246 0.645612
O O16 0.500000 0.000000 0.500000
O O17 0.266073 0.737250 0.550402
#
# Coordination Sequence:
#
# PCOD9103829 Si02
#       8
#     2   2   2   2   2   2   2   2
#     4  10  22  41  69  91 123 181 225 259 322 407
#     4  11  24  44  66  97 134 171 218 273 330 389
#     4  11  23  40  65  97 134 167 217 281 325 377
#     4  12  22  39  69 103 125 173 227 267 327 390
#     4  11  20  41  72  94 124 176 221 264 323 403
#     4  11  21  39  69 100 130 166 218 279 327 383
#     4  10  20  38  68  97 127 166 221 271 325 383
#     4  10  20  42  65  90 132 176 218 268 328 382
#
# _framework density 24.909748
#
# number of rings (size 3 to 8) (size 9 to 14) (size 15 to 20)
#    0.000    1.250    6.250    1.500    0.000    1.500 
#    4.500    5.625    0.000    0.000    0.000    0.000 
#    0.000    0.000    0.000    0.000    0.000    0.000 
#
# Total GULP energy -89436.724689 kJ/mol
# GULP energy per Si atom -5589.795293 kJ/mol
# Density = 2.485305 g / cm^3
# Si number density = 24.909748 Si / 1000 Ang^3
#
#
#
# Elastic Constant Matrix: (Units=GPa)
#
#
# Indices 1 2 3 4 5 6 
#
# 1 38.2208 14.4892 20.1788 -8.1542 13.1007 -2.4979
# 2 14.4892 140.6927 50.2875 -20.7545 18.8071 -2.3649
# 3 20.1788 50.2875 168.7911 -20.2686 32.9024 0.4675
# 4 -8.1542 -20.7545 -20.2686 34.6135 -2.6907 8.1815
# 5 13.1007 18.8071 32.9024 -2.6907 37.3995 -8.2779
# 6 -2.4979 -2.3649 0.4675 8.1815 -8.2779 26.1460
#
#
#
# Elastic Compliance Matrix: (Units=1/GPa)
#
#
# Indices 1 2 3 4 5 6 
#
# 1 0.031483 -0.000727 -0.000860 0.006208 -0.009931 -0.002129
# 2 -0.000727 0.008691 -0.001409 0.004352 -0.002903 -0.001539
# 3 -0.000860 -0.001409 0.008292 0.004182 -0.006831 -0.003829
# 4 0.006208 0.004352 0.004182 0.037981 -0.008322 -0.013607
# 5 -0.009931 -0.002903 -0.006831 -0.008322 0.040243 0.014256
# 6 -0.002129 -0.001539 -0.003829 -0.013607 0.014256 0.046744
#
#
# Mechanical properties :
#
#
# Convention : Reuss Voigt Hill
#
# Bulk Modulus (GPa) = 23.54520 57.51287 40.52903
# Shear Modulus (GPa) = 25.82863 37.14839 31.48851
#
# Velocity S-wave (km/s) = 3.22357 3.86595 3.55928
# Velocity P-wave (km/s) = 4.82990 6.56247 5.76168
#
# Compressibility (1/GPa) = 0.04247151
#
# Stress axis : x y z
#
# Youngs Moduli (GPa) = 31.76350 115.06660 120.60487
#
# Poissons Ratio (x) = 0.08370 0.10370
# Poissons Ratio (y) = 0.02310 0.16998
# Poissons Ratio (z) = 0.02731 0.16218
#
# Static dielectric constant tensor:
#      x y z
#    x 2.087960 -0.003620 0.016050 
#    y -0.003620 1.915290 -0.047110 
#    z 0.016050 -0.047110 2.078780 
# 
# From -- ./inp_files/529305.got.cif
#   From: 2010.05.17/outbox.cif.g08.bks.cpg/sg2_265_cif.got.tgz:529305.got - 2010.06.03 11:33:40.
