data_PCOD9103543
_publ_section_title
;
Structure prediction by ZEFSAII (Michael W. Deem and Ramdas Pophale) SiO2 
 PCOD9103543
Probable space group: P -1
;
_chemical_formula_sum "Si O2"
_cell_formula_units_Z 14
_cell_length_a 8.078656
_cell_length_b 17.649535
_cell_length_c 7.039471
_cell_angle_alpha 121.953425
_cell_angle_beta 142.876687
_cell_angle_gamma 65.793654
_cell_volume 513.849125
_symmetry_space_group_name_H-M "P -1"
_symmetry_group_IT_number 2
_symmetry_cell_setting 'triclinic'
loop_
_space_group_symop_operation_xyz
x,y,z
-x,-y,-z
loop_
_atom_site_type_symbol
_atom_site_label
_atom_site_fract_x
_atom_site_fract_y
_atom_site_fract_z
Si Si1 0.943103 0.018202 0.747323
Si Si2 0.915943 0.199336 0.122955
Si Si3 0.576053 0.691562 0.286468
Si Si4 0.207106 0.631699 0.356387
Si Si5 0.141180 0.476367 0.794936
Si Si6 0.423284 0.905935 0.003457
Si Si7 0.284922 0.262734 0.093725
O O1 0.645007 0.976328 0.382027
O O2 0.954923 0.125291 0.896527
O O3 0.177659 0.966124 0.777944
O O4 0.000000 0.000000 0.000000
O O5 0.730405 0.277538 0.979567
O O6 0.734224 0.152502 0.057985
O O7 0.204567 0.237848 0.515674
O O8 0.672846 0.705365 0.609890
O O9 0.623304 0.592101 0.131269
O O10 0.934566 0.422060 0.673937
O O11 0.501032 0.671850 0.735121
O O12 0.231819 0.562904 0.113059
O O13 0.015187 0.712681 0.220357
O O14 0.000000 0.500000 0.500000
O O15 0.597125 0.835904 0.950340
#
# Coordination Sequence:
#
# PCOD9103543 Si02
#       7
#     2   2   2   2   2   2   2
#     4  10  20  38  66  98 129 173 226 285 336 404
#     4  11  22  41  64  96 128 172 228 276 339 401
#     4  12  25  41  65  96 135 177 222 285 334 405
#     4  11  26  47  71 100 142 183 225 285 342 408
#     4  11  25  48  73 105 135 182 232 284 344 406
#     4  11  21  39  68  95 131 176 226 282 338 407
#     4  12  25  46  65 101 140 181 226 277 350 403
#
# _framework density 27.245349000000001
#
# number of rings (size 3 to 8) (size 9 to 14) (size 15 to 20)
#    0.000    0.857    1.429    7.714    0.000    4.000 
#    0.000    4.286    0.000    0.000    0.000    0.000 
#    0.000    0.000    0.000    0.000    0.000    0.000 
#
# Total GULP energy -78653.481239 kJ/mol
# GULP energy per Si atom -5618.105803 kJ/mol
# Density = 2.718334 g / cm^3
# Si number density = 27.245349 Si / 1000 Ang^3
#
#
#
# Elastic Constant Matrix: (Units=GPa)
#
#
# Indices 1 2 3 4 5 6 
#
# 1 114.3103 49.9157 15.6634 -0.4907 -5.0582 -16.8171
# 2 49.9157 207.2479 51.0417 -3.2116 -5.6711 -48.1411
# 3 15.6634 51.0417 140.8694 -2.3776 19.6121 -11.1307
# 4 -0.4907 -3.2116 -2.3776 50.9036 -0.9346 -5.6874
# 5 -5.0582 -5.6711 19.6121 -0.9346 42.8014 1.8390
# 6 -16.8171 -48.1411 -11.1307 -5.6874 1.8390 50.6308
#
#
#
# Elastic Compliance Matrix: (Units=1/GPa)
#
#
# Indices 1 2 3 4 5 6 
#
# 1 0.009896 -0.001937 -0.000440 0.000120 0.001060 0.001324
# 2 -0.001937 0.007224 -0.002131 0.001015 0.001477 0.005817
# 3 -0.000440 -0.002131 0.008500 0.000166 -0.004220 -0.000132
# 4 0.000120 0.001015 0.000166 0.020092 0.000370 0.003285
# 5 0.001060 0.001477 -0.004220 0.000370 0.025629 -0.000061
# 6 0.001324 0.005817 -0.000132 0.003285 -0.000061 0.026064
#
#
# Mechanical properties :
#
#
# Convention : Reuss Voigt Hill
#
# Bulk Modulus (GPa) = 60.22273 77.29657 68.75965
# Shear Modulus (GPa) = 44.66127 51.92095 48.29111
#
# Velocity S-wave (km/s) = 4.05313 4.37015 4.21462
# Velocity P-wave (km/s) = 6.63744 7.34142 6.99829
#
# Compressibility (1/GPa) = 0.01660502
#
# Stress axis : x y z
#
# Youngs Moduli (GPa) = 101.04779 138.43046 117.65240
#
# Poissons Ratio (x) = 0.26813 0.05171
# Poissons Ratio (y) = 0.19572 0.25071
# Poissons Ratio (z) = 0.04441 0.29498
#
# Static dielectric constant tensor:
#      x y z
#    x 2.291630 0.046960 0.019480 
#    y 0.046960 2.146180 0.035520 
#    z 0.019480 0.035520 2.004630 
# 
# From -- ./inp_files/223318.got.cif
#   From: 2010.05.17/outbox.cif.g08.bks.cpg/sg2_112_cif.got.tgz:223318.got - 2010.06.03 11:33:40.
