data_PCOD9103716
_publ_section_title
;
Structure prediction by ZEFSAII (Michael W. Deem and Ramdas Pophale) SiO2 
 PCOD9103716
Probable space group: P -1
;
_chemical_formula_sum "Si O2"
_cell_formula_units_Z 12
_cell_length_a 9.344763
_cell_length_b 12.756073
_cell_length_c 15.155523
_cell_angle_alpha 148.408087
_cell_angle_beta 108.817526
_cell_angle_gamma 49.083180
_cell_volume 575.056060
_symmetry_space_group_name_H-M "P -1"
_symmetry_group_IT_number 2
_symmetry_cell_setting 'triclinic'
loop_
_space_group_symop_operation_xyz
x,y,z
-x,-y,-z
loop_
_atom_site_type_symbol
_atom_site_label
_atom_site_fract_x
_atom_site_fract_y
_atom_site_fract_z
Si Si1 0.263376 0.428138 0.177718
Si Si2 0.506529 0.386487 0.662009
Si Si3 0.827680 0.715489 0.202036
Si Si4 0.546685 0.774085 0.733784
Si Si5 0.339405 0.527241 0.924056
Si Si6 0.816878 0.196972 0.258283
O O1 0.323455 0.593947 0.285500
O O2 0.319632 0.342564 0.230200
O O3 0.000363 0.630724 0.249849
O O4 0.437665 0.100428 0.925042
O O5 0.455484 0.370217 0.739244
O O6 0.274391 0.691339 0.780370
O O7 0.633230 0.083887 0.414367
O O8 0.714567 0.625053 0.146700
O O9 0.000000 0.500000 0.000000
O O10 0.723272 0.489789 0.498412
O O11 0.329054 0.842074 0.756979
O O12 0.500000 0.500000 0.000000
O O13 0.089505 0.884942 0.107527
#
# Coordination Sequence:
#
# PCOD9103716 Si02
#       6
#     2   2   2   2   2   2
#     4  10  20  38  67  99 129 168 225 269 327 384
#     4  11  25  43  67 100 136 173 218 274 340 391
#     4  12  25  43  69  96 134 176 227 274 325 393
#     4   9  19  37  69 101 123 169 225 280 312 382
#     4  12  27  45  65  98 140 177 216 271 340 394
#     4  10  21  42  69  94 135 173 224 268 329 388
#
# _framework density 20.867531
#
# number of rings (size 3 to 8) (size 9 to 14) (size 15 to 20)
#    0.000    1.333    1.667    3.500    7.000    0.000 
#    0.000    1.667    0.000    0.000    0.000    0.000 
#    0.000    0.000    0.000    0.000    0.000    0.000 
#
# Total GULP energy -67092.999207 kJ/mol
# GULP energy per Si atom -5591.083267 kJ/mol
# Density = 2.082004 g / cm^3
# Si number density = 20.867531 Si / 1000 Ang^3
#
#
#
# Elastic Constant Matrix: (Units=GPa)
#
#
# Indices 1 2 3 4 5 6 
#
# 1 110.8285 50.0170 45.0417 5.2039 22.5659 -2.2207
# 2 50.0170 64.7529 26.1967 1.6515 3.6665 -22.5102
# 3 45.0417 26.1967 125.3153 4.6313 15.4872 0.1756
# 4 5.2039 1.6515 4.6313 34.6084 1.0400 -6.0010
# 5 22.5659 3.6665 15.4872 1.0400 31.1888 2.6086
# 6 -2.2207 -22.5102 0.1756 -6.0010 2.6086 44.4034
#
#
#
# Elastic Compliance Matrix: (Units=1/GPa)
#
#
# Indices 1 2 3 4 5 6 
#
# 1 0.018918 -0.015363 -0.002228 -0.002652 -0.010135 -0.006596
# 2 -0.015363 0.033506 -0.002497 0.003666 0.006929 0.016316
# 3 -0.002228 -0.002497 0.009682 -0.001000 -0.002752 -0.001389
# 4 -0.002652 0.003666 -0.001000 0.030241 0.000492 0.005788
# 5 -0.010135 0.006929 -0.002752 0.000492 0.039869 0.000741
# 6 -0.006596 0.016316 -0.001389 0.005788 0.000741 0.031206
#
#
# Mechanical properties :
#
#
# Convention : Reuss Voigt Hill
#
# Bulk Modulus (GPa) = 45.60098 60.37860 52.98979
# Shear Modulus (GPa) = 23.70700 34.01622 28.86161
#
# Velocity S-wave (km/s) = 3.37422 4.04183 3.72302
# Velocity P-wave (km/s) = 6.08938 7.12593 6.62795
#
# Compressibility (1/GPa) = 0.02192935
#
# Stress axis : x y z
#
# Youngs Moduli (GPa) = 52.86098 29.84528 103.28594
#
# Poissons Ratio (x) = 0.45850 0.23015
# Poissons Ratio (y) = 0.81208 0.25794
# Poissons Ratio (z) = 0.11779 0.07453
#
# Static dielectric constant tensor:
#      x y z
#    x 1.703260 0.003950 -0.002200 
#    y 0.003950 1.781470 0.009770 
#    z -0.002200 0.009770 1.766420 
# 
# From -- ./inp_files/152987.got.cif
#   From: 2010.05.17/outbox.cif.g08.bks.cpg/sg2_77_cif.got.tgz:152987.got - 2010.06.03 11:33:40.
