data_PCOD9103573
_publ_section_title
;
Structure prediction by ZEFSAII (Michael W. Deem and Ramdas Pophale) SiO2 
 PCOD9103573
Probable space group: P -1
;
_chemical_formula_sum "Si O2"
_cell_formula_units_Z 16
_cell_length_a 16.357357
_cell_length_b 9.438545
_cell_length_c 9.478770
_cell_angle_alpha 59.225298
_cell_angle_beta 130.721463
_cell_angle_gamma 87.823971
_cell_volume 782.360405
_symmetry_space_group_name_H-M "P -1"
_symmetry_group_IT_number 2
_symmetry_cell_setting 'triclinic'
loop_
_space_group_symop_operation_xyz
x,y,z
-x,-y,-z
loop_
_atom_site_type_symbol
_atom_site_label
_atom_site_fract_x
_atom_site_fract_y
_atom_site_fract_z
Si Si1 0.250492 0.056053 0.507027
Si Si2 0.759665 0.440379 0.858855
Si Si3 0.970622 0.629326 0.708866
Si Si4 0.194286 0.502007 0.442179
Si Si5 0.450525 0.122973 0.529832
Si Si6 0.087573 0.012502 0.709235
Si Si7 0.621762 0.966307 0.068829
Si Si8 0.102695 0.878589 0.302086
O O1 0.120191 0.265601 0.308150
O O2 0.348646 0.082041 0.511355
O O3 0.320883 0.955986 0.788670
O O4 0.193370 0.950562 0.414982
O O5 0.762901 0.479823 0.675282
O O6 0.633393 0.633148 0.692522
O O7 0.885650 0.426151 0.073422
O O8 0.788175 0.219010 0.016374
O O9 0.951198 0.454489 0.742269
O O10 0.905774 0.804905 0.426807
O O11 0.283717 0.274199 0.708885
O O12 0.195833 0.651023 0.473063
O O13 0.500000 0.000000 0.500000
O O14 0.569429 0.054110 0.809687
O O15 0.995216 0.085333 0.702694
O O16 0.000000 0.000000 0.500000
O O17 0.500000 0.000000 0.000000
O O18 0.000000 0.000000 0.000000
#
# Coordination Sequence:
#
# PCOD9103573 Si02
#       8
#     2   2   2   2   2   2   2   2
#     4  10  20  42  68  90 136 179 205 273 339 395
#     4  11  19  37  70  93 134 170 215 271 348 393
#     4  10  20  38  67 101 122 179 213 260 356 408
#     4  11  21  36  68  94 130 178 219 263 334 399
#     4  11  24  42  69 101 128 172 236 286 309 386
#     4  10  21  38  60  95 142 165 204 273 337 412
#     4   9  19  41  65  86 124 178 226 258 321 389
#     4  12  23  37  62 107 143 160 219 276 336 402
#
# _framework density 20.450932000000002
#
# number of rings (size 3 to 8) (size 9 to 14) (size 15 to 20)
#    0.000    1.500    7.500    0.375    1.750    2.500 
#    4.500    2.500    2.750    3.750    0.000    0.000 
#    0.000    0.000    0.000    0.000    0.000    0.000 
#
# Total GULP energy -89140.058664 kJ/mol
# GULP energy per Si atom -5571.253667 kJ/mol
# Density = 2.040438 g / cm^3
# Si number density = 20.450932 Si / 1000 Ang^3
#
#
#
# Elastic Constant Matrix: (Units=GPa)
#
#
# Indices 1 2 3 4 5 6 
#
# 1 68.5764 25.4554 24.0956 2.1144 -15.9632 -11.9872
# 2 25.4554 137.2827 46.5592 5.8271 -2.9881 -3.9783
# 3 24.0956 46.5592 112.5302 -0.3009 -2.6326 -8.1895
# 4 2.1144 5.8271 -0.3009 36.9626 0.6805 3.0612
# 5 -15.9632 -2.9881 -2.6326 0.6805 26.4742 4.8921
# 6 -11.9872 -3.9783 -8.1895 3.0612 4.8921 37.5026
#
#
#
# Elastic Compliance Matrix: (Units=1/GPa)
#
#
# Indices 1 2 3 4 5 6 
#
# 1 0.019617 -0.002317 -0.002695 -0.001318 0.010563 0.004166
# 2 -0.002317 0.008828 -0.003198 -0.001247 -0.000628 -0.000319
# 3 -0.002695 -0.003198 0.010854 0.000663 -0.001158 0.001266
# 4 -0.001318 -0.001247 0.000663 0.027560 -0.001114 -0.002513
# 5 0.010563 -0.000628 -0.001158 -0.001114 0.044475 -0.002654
# 6 0.004166 -0.000319 0.001266 -0.002513 -0.002654 0.028790
#
#
# Mechanical properties :
#
#
# Convention : Reuss Voigt Hill
#
# Bulk Modulus (GPa) = 43.70768 56.73443 50.22105
# Shear Modulus (GPa) = 30.45609 35.00648 32.73129
#
# Velocity S-wave (km/s) = 3.86324 4.14179 4.00494
# Velocity P-wave (km/s) = 6.42790 7.11861 6.78205
#
# Compressibility (1/GPa) = 0.02287928
#
# Stress axis : x y z
#
# Youngs Moduli (GPa) = 50.97632 113.27041 92.13563
#
# Poissons Ratio (x) = 0.26242 0.24832
# Poissons Ratio (y) = 0.11810 0.29464
# Poissons Ratio (z) = 0.13739 0.36222
#
# Static dielectric constant tensor:
#      x y z
#    x 1.733090 0.025520 -0.016920 
#    y 0.025520 1.756230 -0.001350 
#    z -0.016920 -0.001350 1.760080 
# 
# From -- ./inp_files/328760.got.cif
#   From: 2010.05.17/outbox.cif.g08.bks.cpg/sg2_165_cif.got.tgz:328760.got - 2010.06.03 11:33:40.
