data_PCOD9103568
_publ_section_title
;
Structure prediction by ZEFSAII (Michael W. Deem and Ramdas Pophale) SiO2 
 PCOD9103568
Probable space group: P -1
;
_chemical_formula_sum "Si O2"
_cell_formula_units_Z 16
_cell_length_a 10.503459
_cell_length_b 5.919275
_cell_length_c 25.480294
_cell_angle_alpha 102.251108
_cell_angle_beta 30.640084
_cell_angle_gamma 120.894887
_cell_volume 589.670446
_symmetry_space_group_name_H-M "P -1"
_symmetry_group_IT_number 2
_symmetry_cell_setting 'triclinic'
loop_
_space_group_symop_operation_xyz
x,y,z
-x,-y,-z
loop_
_atom_site_type_symbol
_atom_site_label
_atom_site_fract_x
_atom_site_fract_y
_atom_site_fract_z
Si Si1 0.337128 0.076325 0.005427
Si Si2 0.909525 0.366927 0.670199
Si Si3 0.519182 0.783024 0.849923
Si Si4 0.609631 0.668614 0.526379
Si Si5 0.069087 0.268414 0.450216
Si Si6 0.781270 0.817379 0.120343
Si Si7 0.927017 0.688577 0.773922
Si Si8 0.778011 0.705555 0.258335
O O1 0.681510 0.422282 0.890752
O O2 0.028609 0.039904 0.089982
O O3 0.154564 0.881485 0.113547
O O4 0.360034 0.881256 0.946857
O O5 0.573746 0.270813 0.760872
O O6 0.063210 0.621228 0.673913
O O7 0.161218 0.413005 0.542209
O O8 0.785173 0.072573 0.733636
O O9 0.298340 0.501273 0.874675
O O10 0.683530 0.708174 0.828486
O O11 0.500000 0.500000 0.500000
O O12 0.317480 0.495177 0.665159
O O13 0.840210 0.039377 0.470578
O O14 0.474299 0.492705 0.314578
O O15 0.000000 0.500000 0.500000
O O16 0.000000 0.000000 0.500000
O O17 0.000000 0.000000 0.000000
O O18 0.202415 0.015080 0.718387
#
# Coordination Sequence:
#
# PCOD9103568 Si02
#       8
#     2   2   2   2   2   2   2   2
#     4  11  23  40  67 103 149 195 243 316 385 469
#     4  10  23  40  72 104 145 182 258 317 377 454
#     4  10  20  38  66  99 143 182 250 307 382 449
#     4  11  26  51  81 114 145 205 272 326 391 475
#     4  10  26  54  77 114 159 204 264 327 404 476
#     4  11  20  38  65 107 143 191 244 311 381 465
#     4  10  22  44  66 107 140 195 254 313 385 465
#     4  11  26  47  71 105 156 202 251 319 404 469
#
# _framework density 27.133800000000001
#
# number of rings (size 3 to 8) (size 9 to 14) (size 15 to 20)
#    0.000    1.500    3.750    1.500    3.500    3.000 
#   13.500    0.000    0.000    0.000    0.000    0.000 
#    0.000    0.000    0.000    0.000    0.000    0.000 
#
# Total GULP energy -89393.502805 kJ/mol
# GULP energy per Si atom -5587.093925 kJ/mol
# Density = 2.707204 g / cm^3
# Si number density = 27.133800 Si / 1000 Ang^3
#
#
#
# Elastic Constant Matrix: (Units=GPa)
#
#
# Indices 1 2 3 4 5 6 
#
# 1 103.4046 31.9234 9.5457 -10.7096 6.5811 12.5538
# 2 31.9234 154.6627 48.4952 -19.1264 -6.4823 30.4937
# 3 9.5457 48.4952 131.4257 -0.8117 -0.7788 14.5328
# 4 -10.7096 -19.1264 -0.8117 43.9077 5.8339 -9.7610
# 5 6.5811 -6.4823 -0.7788 5.8339 33.4263 -5.9050
# 6 12.5538 30.4937 14.5328 -9.7610 -5.9050 45.4988
#
#
#
# Elastic Compliance Matrix: (Units=1/GPa)
#
#
# Indices 1 2 3 4 5 6 
#
# 1 0.010833 -0.001801 0.000071 0.001872 -0.003127 -0.001809
# 2 -0.001801 0.008768 -0.002652 0.002342 0.000893 -0.003914
# 3 0.000071 -0.002652 0.008720 -0.001228 -0.000347 -0.001336
# 4 0.001872 0.002342 -0.001228 0.025463 -0.003809 0.003274
# 5 -0.003127 0.000893 -0.000347 -0.003809 0.032018 0.003713
# 6 -0.001809 -0.003914 -0.001336 0.003274 0.003713 0.026712
#
#
# Mechanical properties :
#
#
# Convention : Reuss Voigt Hill
#
# Bulk Modulus (GPa) = 51.13395 63.26908 57.20151
# Shear Modulus (GPa) = 39.12459 44.53512 41.82985
#
# Velocity S-wave (km/s) = 3.80137 4.05571 3.93060
# Velocity P-wave (km/s) = 6.17683 6.73051 6.45961
#
# Compressibility (1/GPa) = 0.01955648
#
# Stress axis : x y z
#
# Youngs Moduli (GPa) = 92.31278 114.05539 114.67450
#
# Poissons Ratio (x) = 0.20542 -0.00812
# Poissons Ratio (y) = 0.16626 0.30410
# Poissons Ratio (z) = -0.00654 0.30246
#
# Static dielectric constant tensor:
#      x y z
#    x 2.326250 -0.028570 -0.007020 
#    y -0.028570 2.099180 0.040430 
#    z -0.007020 0.040430 2.282170 
# 
# From -- ./inp_files/622882.got.cif
#   From: 2010.05.17/outbox.cif.g08.bks.cpg/sg2_312_cif.got.tgz:622882.got - 2010.06.03 11:33:40.
