data_PCOD9103790
_publ_section_title
;
Structure prediction by ZEFSAII (Michael W. Deem and Ramdas Pophale) SiO2 
 PCOD9103790
Probable space group: P -1
;
_chemical_formula_sum "Si O2"
_cell_formula_units_Z 16
_cell_length_a 17.650457
_cell_length_b 12.122414
_cell_length_c 10.133344
_cell_angle_alpha 121.277236
_cell_angle_beta 45.246992
_cell_angle_gamma 148.719436
_cell_volume 779.195503
_symmetry_space_group_name_H-M "P -1"
_symmetry_group_IT_number 2
_symmetry_cell_setting 'triclinic'
loop_
_space_group_symop_operation_xyz
x,y,z
-x,-y,-z
loop_
_atom_site_type_symbol
_atom_site_label
_atom_site_fract_x
_atom_site_fract_y
_atom_site_fract_z
Si Si1 0.390716 0.612845 0.003395
Si Si2 0.656981 0.056385 0.879645
Si Si3 0.410988 0.410642 0.408651
Si Si4 0.810749 0.167923 0.353057
Si Si5 0.611443 0.311367 0.441687
Si Si6 0.159011 0.524162 0.999991
Si Si7 0.846307 0.054488 0.488513
Si Si8 0.181448 0.528043 0.447245
O O1 0.463822 0.547563 0.820780
O O2 0.269265 0.551562 0.993904
O O3 0.572419 0.872991 0.969383
O O4 0.279658 0.535763 0.221893
O O5 0.683796 0.994975 0.680507
O O6 0.814664 0.299494 0.887668
O O7 0.500000 0.000000 0.000000
O O8 0.500000 0.500000 0.500000
O O9 0.390484 0.535188 0.462311
O O10 0.224008 0.151220 0.504557
O O11 0.879828 0.119933 0.335863
O O12 0.841739 0.343151 0.485098
O O13 0.596472 0.939683 0.457591
O O14 0.945990 0.290519 0.137426
O O15 0.735655 0.394271 0.215236
O O16 0.707770 0.357059 0.483444
O O17 0.999398 0.267684 0.522339
#
# Coordination Sequence:
#
# PCOD9103790 Si02
#       8
#     2   2   2   2   2   2   2   2
#     4  10  20  38  68  94 121 176 223 271 323 378
#     4   9  17  32  60  96 125 159 216 270 313 376
#     4  11  22  45  69  90 131 177 228 270 316 394
#     4  12  22  42  71  99 135 173 219 267 331 402
#     4  12  27  45  63  99 143 175 210 275 335 385
#     4  11  20  39  68  96 129 175 221 261 329 394
#     4  11  21  40  69  96 125 174 222 275 312 387
#     4  12  25  42  64 103 138 161 218 283 334 384
#
# _framework density 20.533999000000001
#
# number of rings (size 3 to 8) (size 9 to 14) (size 15 to 20)
#    0.000    1.000    5.000    4.500    0.000    1.500 
#    6.750    1.875    0.000    0.000    0.000    0.000 
#    0.000    0.000    0.000    0.000    0.000    0.000 
#
# Total GULP energy -89100.706328 kJ/mol
# GULP energy per Si atom -5568.794146 kJ/mol
# Density = 2.048726 g / cm^3
# Si number density = 20.533999 Si / 1000 Ang^3
#
#
#
# Elastic Constant Matrix: (Units=GPa)
#
#
# Indices 1 2 3 4 5 6 
#
# 1 42.9136 23.0913 12.8497 -2.0924 10.0315 1.5278
# 2 23.0913 142.5059 33.8463 -15.1858 -7.0260 -0.4726
# 3 12.8497 33.8463 128.6433 -13.7000 1.1388 -3.2296
# 4 -2.0924 -15.1858 -13.7000 26.8110 -2.0734 -10.9345
# 5 10.0315 -7.0260 1.1388 -2.0734 18.1953 11.0252
# 6 1.5278 -0.4726 -3.2296 -10.9345 11.0252 34.9103
#
#
#
# Elastic Compliance Matrix: (Units=1/GPa)
#
#
# Indices 1 2 3 4 5 6 
#
# 1 0.032288 -0.006182 -0.001395 -0.001315 -0.023517 0.005389
# 2 -0.006182 0.009212 -0.001454 0.004219 0.008135 -0.000987
# 3 -0.001395 -0.001454 0.008871 0.004620 -0.001509 0.002785
# 4 -0.001315 0.004219 0.004620 0.048484 -0.002399 0.016486
# 5 -0.023517 0.008135 -0.001509 -0.002399 0.087476 -0.027378
# 6 0.005389 -0.000987 0.002785 0.016486 -0.027378 0.042463
#
#
# Mechanical properties :
#
#
# Convention : Reuss Voigt Hill
#
# Bulk Modulus (GPa) = 30.95182 50.40415 40.67798
# Shear Modulus (GPa) = 19.40804 32.26837 25.83821
#
# Velocity S-wave (km/s) = 3.07769 3.96847 3.55112
# Velocity P-wave (km/s) = 5.26647 6.75265 6.05533
#
# Compressibility (1/GPa) = 0.03230828
#
# Stress axis : x y z
#
# Youngs Moduli (GPa) = 30.97101 108.55816 112.73306
#
# Poissons Ratio (x) = 0.67114 0.15728
# Poissons Ratio (y) = 0.19147 0.16387
# Poissons Ratio (z) = 0.04321 0.15780
#
# Static dielectric constant tensor:
#      x y z
#    x 1.739750 -0.021900 0.060330 
#    y -0.021900 1.821690 -0.103490 
#    z 0.060330 -0.103490 1.808540 
# 
# From -- ./inp_files/262494.got.cif
#   From: 2010.05.17/outbox.cif.g08.bks.cpg/sg2_132_cif.got.tgz:262494.got - 2010.06.03 11:33:40.
