data_PCOD9103379
_publ_section_title
;
Structure prediction by ZEFSAII (Michael W. Deem and Ramdas Pophale) SiO2 
 PCOD9103379
Probable space group: P -1
;
_chemical_formula_sum "Si O2"
_cell_formula_units_Z 10
_cell_length_a 16.435041
_cell_length_b 12.378265
_cell_length_c 6.792436
_cell_angle_alpha 49.352733
_cell_angle_beta 118.294617
_cell_angle_gamma 157.031543
_cell_volume 370.393085
_symmetry_space_group_name_H-M "P -1"
_symmetry_group_IT_number 2
_symmetry_cell_setting 'triclinic'
loop_
_space_group_symop_operation_xyz
x,y,z
-x,-y,-z
loop_
_atom_site_type_symbol
_atom_site_label
_atom_site_fract_x
_atom_site_fract_y
_atom_site_fract_z
Si Si1 0.511612 0.187353 0.778753
Si Si2 0.288710 0.883936 0.256565
Si Si3 0.092928 0.801910 0.649712
Si Si4 0.002775 0.035898 0.693609
Si Si5 0.952548 0.649275 0.123788
O O1 0.732353 0.540560 0.485182
O O2 0.307388 0.999883 0.686630
O O3 0.500000 0.000000 0.000000
O O4 0.510185 0.220093 0.975438
O O5 0.173673 0.872078 0.191941
O O6 0.103963 0.549093 0.291063
O O7 0.269294 0.750434 0.576768
O O8 0.149969 0.040148 0.355062
O O9 0.987583 0.682752 0.889254
O O10 0.000000 0.000000 0.500000
O O11 0.955770 0.817026 0.994889
#
# Coordination Sequence:
#
# PCOD9103379 Si02
#       5
#     2   2   2   2   2
#     4  11  21  37  65  90 115 165 205 238 301 368
#     4  10  20  38  66  86 122 161 198 247 299 360
#     4  10  21  39  64  84 123 161 194 248 302 353
#     4  10  22  38  62  90 124 155 200 252 302 349
#     4   9  20  37  61  91 119 157 200 247 302 349
#
# _framework density 26.998342999999998
#
# number of rings (size 3 to 8) (size 9 to 14) (size 15 to 20)
#    0.000    2.000    2.000    2.400    2.800    8.000 
#    0.000    5.000    8.800    0.000    0.000    1.400 
#    0.000    0.000    0.000    0.000    0.000    0.000 
#
# Total GULP energy -55914.218843 kJ/mol
# GULP energy per Si atom -5591.421884 kJ/mol
# Density = 2.693689 g / cm^3
# Si number density = 26.998343 Si / 1000 Ang^3
#
#
#
# Elastic Constant Matrix: (Units=GPa)
#
#
# Indices 1 2 3 4 5 6 
#
# 1 161.0897 47.6231 79.3334 9.7665 43.8134 39.6233
# 2 47.6231 85.0840 31.8165 10.5697 15.0038 23.4781
# 3 79.3334 31.8165 148.3280 22.3420 25.4371 14.0934
# 4 9.7665 10.5697 22.3420 35.0678 6.1947 -3.8021
# 5 43.8134 15.0038 25.4371 6.1947 80.8427 11.0330
# 6 39.6233 23.4781 14.0934 -3.8021 11.0330 40.4490
#
#
#
# Elastic Compliance Matrix: (Units=1/GPa)
#
#
# Indices 1 2 3 4 5 6 
#
# 1 0.012060 -0.002201 -0.004609 0.000014 -0.003594 -0.007949
# 2 -0.002201 0.015837 -0.000860 -0.004351 -0.000173 -0.007098
# 3 -0.004609 -0.000860 0.010036 -0.004673 -0.000301 0.001160
# 4 0.000014 -0.004351 -0.004673 0.033879 -0.001377 0.007700
# 5 -0.003594 -0.000173 -0.000301 -0.001377 0.014602 -0.000387
# 6 -0.007949 -0.007098 0.001160 0.007700 -0.000387 0.037054
#
#
# Mechanical properties :
#
#
# Convention : Reuss Voigt Hill
#
# Bulk Modulus (GPa) = 44.26211 79.11639 61.68925
# Shear Modulus (GPa) = 34.16730 46.98715 40.57723
#
# Velocity S-wave (km/s) = 3.56129 4.17630 3.88100
# Velocity P-wave (km/s) = 5.77411 7.25418 6.55605
#
# Compressibility (1/GPa) = 0.02259269
#
# Stress axis : x y z
#
# Youngs Moduli (GPa) = 82.91994 63.14517 99.63681
#
# Poissons Ratio (x) = 0.13901 0.45919
# Poissons Ratio (y) = 0.18255 0.08568
# Poissons Ratio (z) = 0.38215 0.05430
#
# Static dielectric constant tensor:
#      x y z
#    x 2.148920 -0.034940 -0.059760 
#    y -0.034940 2.195510 0.015660 
#    z -0.059760 0.015660 2.256690 
# 
# From -- ./inp_files/149669.got.cif
#   From: 2010.05.17/outbox.cif.g08.bks.cpg/sg2_75_cif.got.tgz:149669.got - 2010.06.03 11:33:40.
