data_PCOD9103037
_publ_section_title
;
Structure prediction by ZEFSAII (Michael W. Deem and Ramdas Pophale) SiO2 
 PCOD9103037
Probable space group: P -1
;
_chemical_formula_sum "Si O2"
_cell_formula_units_Z 14
_cell_length_a 5.712212
_cell_length_b 5.107950
_cell_length_c 21.602950
_cell_angle_alpha 99.743405
_cell_angle_beta 122.458073
_cell_angle_gamma 87.953752
_cell_volume 523.033335
_symmetry_space_group_name_H-M "P -1"
_symmetry_group_IT_number 2
_symmetry_cell_setting 'triclinic'
loop_
_space_group_symop_operation_xyz
x,y,z
-x,-y,-z
loop_
_atom_site_type_symbol
_atom_site_label
_atom_site_fract_x
_atom_site_fract_y
_atom_site_fract_z
Si Si1 0.246714 0.229868 0.050682
Si Si2 0.834230 0.555466 0.623478
Si Si3 0.423836 0.075088 0.319655
Si Si4 0.889484 0.652476 0.229406
Si Si5 0.901517 0.658199 0.089601
Si Si6 0.584631 0.966058 0.814424
Si Si7 0.998686 0.970529 0.425637
O O1 0.103114 0.468078 0.074299
O O2 0.468378 0.142846 0.128603
O O3 0.329160 0.291951 0.993753
O O4 0.000000 0.000000 0.000000
O O5 0.028779 0.546920 0.712740
O O6 0.935895 0.756706 0.591812
O O7 0.570417 0.691450 0.619783
O O8 0.812786 0.258956 0.581640
O O9 0.445874 0.200466 0.259167
O O10 0.679209 0.894874 0.359648
O O11 0.143824 0.882495 0.276973
O O12 0.849444 0.564446 0.148493
O O13 0.610308 0.791978 0.211924
O O14 0.093278 0.929465 0.135865
O O15 0.000000 0.000000 0.500000
#
# Coordination Sequence:
#
# PCOD9103037 Si02
#       7
#     2   2   2   2   2   2   2
#     4   9  18  37  58  88 132 183 231 290 352 408
#     4  12  25  48  72 109 142 186 240 282 361 426
#     4  11  24  45  74 101 148 183 237 297 347 423
#     4  11  23  42  67 105 135 187 242 290 353 422
#     4   9  20  36  61  91 133 182 233 294 351 413
#     4  10  20  38  64  96 136 182 235 294 351 413
#     4  12  29  50  76 109 146 186 234 292 357 431
#
# _framework density 26.766936000000001
#
# number of rings (size 3 to 8) (size 9 to 14) (size 15 to 20)
#    0.000    1.429    2.857    1.286    2.000    4.000 
#    0.000    6.429    0.000    0.000    0.000    0.000 
#    0.000    0.000    0.000    0.000    0.000    0.000 
#
# Total GULP energy -78334.986722 kJ/mol
# GULP energy per Si atom -5595.356194 kJ/mol
# Density = 2.670601 g / cm^3
# Si number density = 26.766936 Si / 1000 Ang^3
#
#
#
# Elastic Constant Matrix: (Units=GPa)
#
#
# Indices 1 2 3 4 5 6 
#
# 1 55.7268 14.6162 31.3398 -7.7688 -29.3217 19.8386
# 2 14.6162 96.7419 31.6295 -14.6637 -20.2495 12.3568
# 3 31.3398 31.6295 184.4584 -22.1132 -59.7950 11.7909
# 4 -7.7688 -14.6637 -22.1132 42.5332 4.4824 -14.4794
# 5 -29.3217 -20.2495 -59.7950 4.4824 50.5804 -5.1688
# 6 19.8386 12.3568 11.7909 -14.4794 -5.1688 47.8415
#
#
#
# Elastic Compliance Matrix: (Units=1/GPa)
#
#
# Indices 1 2 3 4 5 6 
#
# 1 0.030814 0.000258 0.001553 0.000831 0.018608 -0.010965
# 2 0.000258 0.011936 -0.000271 0.002980 0.004163 -0.001772
# 3 0.001553 -0.000271 0.009426 0.003692 0.011553 -0.000531
# 4 0.000831 0.002980 0.003692 0.028574 0.004231 0.007081
# 5 0.018608 0.004163 0.011553 0.004231 0.044945 -0.005503
# 6 -0.010965 -0.001772 -0.000531 0.007081 -0.005503 0.027587
#
#
# Mechanical properties :
#
#
# Convention : Reuss Voigt Hill
#
# Bulk Modulus (GPa) = 18.09738 54.67758 36.38748
# Shear Modulus (GPa) = 29.65271 45.48046 37.56659
#
# Velocity S-wave (km/s) = 3.33199 4.12652 3.75036
# Velocity P-wave (km/s) = 4.64528 6.57083 5.69010
#
# Compressibility (1/GPa) = 0.05525662
#
# Stress axis : x y z
#
# Youngs Moduli (GPa) = 32.45267 83.78346 106.09471
#
# Poissons Ratio (x) = -0.02163 -0.16477
# Poissons Ratio (y) = -0.00838 0.02870
# Poissons Ratio (z) = -0.05040 0.02266
#
# Static dielectric constant tensor:
#      x y z
#    x 2.124900 0.054740 -0.022880 
#    y 0.054740 2.137230 -0.033000 
#    z -0.022880 -0.033000 2.131240 
# 
# From -- ./inp_files/9869.got.cif
#   From: 2010.05.17/outbox.cif.g08.bks.cpg/sg2_5_cif.got.tgz:9869.got - 2010.06.03 11:33:40.
