data_PCOD9103871
_publ_section_title
;
Structure prediction by ZEFSAII (Michael W. Deem and Ramdas Pophale) SiO2 
 PCOD9103871
Probable space group: P -1
;
_chemical_formula_sum "Si O2"
_cell_formula_units_Z 10
_cell_length_a 4.870532
_cell_length_b 11.275157
_cell_length_c 9.219786
_cell_angle_alpha 62.338531
_cell_angle_beta 83.300198
_cell_angle_gamma 109.780241
_cell_volume 398.569604
_symmetry_space_group_name_H-M "P -1"
_symmetry_group_IT_number 2
_symmetry_cell_setting 'triclinic'
loop_
_space_group_symop_operation_xyz
x,y,z
-x,-y,-z
loop_
_atom_site_type_symbol
_atom_site_label
_atom_site_fract_x
_atom_site_fract_y
_atom_site_fract_z
Si Si1 0.556254 0.856406 0.033899
Si Si2 0.590248 0.196920 0.612215
Si Si3 0.698524 0.613845 0.547392
Si Si4 0.138396 0.860884 0.829406
Si Si5 0.170789 0.434773 0.130128
O O1 0.545581 0.787688 0.230860
O O2 0.130621 0.115230 0.084062
O O3 0.281402 0.783319 0.976928
O O4 0.500000 0.000000 0.000000
O O5 0.500947 0.297153 0.451924
O O6 0.954171 0.262636 0.580706
O O7 0.411496 0.022755 0.680080
O O8 0.500000 0.500000 0.500000
O O9 0.761807 0.528672 0.725932
O O10 0.996225 0.746183 0.772262
O O11 0.500000 0.500000 0.000000
O O12 0.000000 0.500000 0.000000
#
# Coordination Sequence:
#
# PCOD9103871 Si02
#       5
#     2   2   2   2   2
#     4  10  20  38  69 110 142 177 227 294 364 420
#     4  11  23  43  72 104 142 180 242 300 358 417
#     4  12  28  46  71 104 146 192 236 298 365 422
#     4  11  23  42  73 107 141 188 241 296 354 426
#     4  12  29  49  72 102 148 197 239 292 363 433
#
# _framework density 25.089718000000001
#
# number of rings (size 3 to 8) (size 9 to 14) (size 15 to 20)
#    0.000    0.800    0.000    9.000    8.400    1.600 
#    0.000    0.000    0.000    0.000    0.000    0.000 
#    0.000    0.000    0.000    0.000    0.000    0.000 
#
# Total GULP energy -55927.454993 kJ/mol
# GULP energy per Si atom -5592.745499 kJ/mol
# Density = 2.503261 g / cm^3
# Si number density = 25.089718 Si / 1000 Ang^3
#
#
#
# Elastic Constant Matrix: (Units=GPa)
#
#
# Indices 1 2 3 4 5 6 
#
# 1 187.5065 44.2803 34.5194 -7.5143 5.8624 33.1466
# 2 44.2803 191.0083 43.9237 -7.9726 4.6135 29.6761
# 3 34.5194 43.9237 78.7798 6.5198 22.2586 6.8850
# 4 -7.5143 -7.9726 6.5198 33.8621 5.2422 9.9897
# 5 5.8624 4.6135 22.2586 5.2422 53.9648 -3.5046
# 6 33.1466 29.6761 6.8850 9.9897 -3.5046 32.7025
#
#
#
# Elastic Compliance Matrix: (Units=1/GPa)
#
#
# Indices 1 2 3 4 5 6 
#
# 1 0.007654 0.000644 -0.003129 0.005335 -0.000724 -0.009391
# 2 0.000644 0.007535 -0.004189 0.005140 -0.000017 -0.008181
# 3 -0.003129 -0.004189 0.018184 -0.005486 -0.005998 0.004178
# 4 0.005335 0.005140 -0.005486 0.039967 -0.004039 -0.021558
# 5 -0.000724 -0.000017 -0.005998 -0.004039 0.021840 0.005586
# 6 -0.009391 -0.008181 0.004178 -0.021558 0.005586 0.053825
#
#
# Mechanical properties :
#
#
# Convention : Reuss Voigt Hill
#
# Bulk Modulus (GPa) = 49.93801 78.08237 64.01019
# Shear Modulus (GPa) = 29.58087 46.41063 37.99575
#
# Velocity S-wave (km/s) = 3.43739 4.30558 3.89574
# Velocity P-wave (km/s) = 5.97504 7.47704 6.76784
#
# Compressibility (1/GPa) = 0.02002483
#
# Stress axis : x y z
#
# Youngs Moduli (GPa) = 130.65879 132.70796 54.99317
#
# Poissons Ratio (x) = -0.08553 0.17208
# Poissons Ratio (y) = -0.08421 0.23039
# Poissons Ratio (z) = 0.40886 0.55596
#
# Static dielectric constant tensor:
#      x y z
#    x 1.954340 -0.004620 0.044220 
#    y -0.004620 2.049600 -0.016870 
#    z 0.044220 -0.016870 2.078920 
# 
# From -- ./inp_files/129586.got.cif
#   From: 2010.05.17/outbox.cif.g08.bks.cpg/sg2_65_cif.got.tgz:129586.got - 2010.06.03 11:33:40.
