data_PCOD9103444
_publ_section_title
;
Structure prediction by ZEFSAII (Michael W. Deem and Ramdas Pophale) SiO2 
 PCOD9103444
Probable space group: P -1
;
_chemical_formula_sum "Si O2"
_cell_formula_units_Z 15
_cell_length_a 9.179157
_cell_length_b 10.972599
_cell_length_c 7.951447
_cell_angle_alpha 51.925719
_cell_angle_beta 74.887640
_cell_angle_gamma 67.034269
_cell_volume 580.255693
_symmetry_space_group_name_H-M "P -1"
_symmetry_group_IT_number 2
_symmetry_cell_setting 'triclinic'
loop_
_space_group_symop_operation_xyz
x,y,z
-x,-y,-z
loop_
_atom_site_type_symbol
_atom_site_label
_atom_site_fract_x
_atom_site_fract_y
_atom_site_fract_z
Si Si1 0.741272 0.349750 0.085355
Si Si2 0.000000 0.000000 0.000000
Si Si3 0.006112 0.621833 0.243332
Si Si4 0.692808 0.239959 0.698534
Si Si5 0.919273 0.368247 0.318588
Si Si6 0.825552 0.871136 0.343262
Si Si7 0.534500 0.699193 0.970731
Si Si8 0.524207 0.033056 0.766046
O O1 0.880030 0.288703 0.230061
O O2 0.655807 0.527885 0.039154
O O3 0.602790 0.273726 0.151223
O O4 0.820946 0.384802 0.859491
O O5 0.109712 0.976346 0.805231
O O6 0.833966 0.101170 0.859858
O O7 0.927380 0.552394 0.172591
O O8 0.923830 0.800960 0.193531
O O9 0.000000 0.500000 0.500000
O O10 0.778576 0.362808 0.493187
O O11 0.552947 0.305639 0.820186
O O12 0.622406 0.159065 0.636095
O O13 0.087715 0.256824 0.435525
O O14 0.645135 0.896725 0.334874
O O15 0.598864 0.853856 0.821478
O O16 0.500000 0.000000 0.000000
#
# Coordination Sequence:
#
# PCOD9103444 Si02
#       8
#     2   1   2   2   2   2   2   2
#     4  11  23  42  65  96 139 174 211 273 340 390
#     4  10  16  32  64  92 128 158 216 272 300 382
#     4  10  22  41  69  95 123 171 226 274 319 390
#     4  10  21  40  68  99 127 176 224 267 323 385
#     4  10  23  40  61  99 132 172 220 270 326 392
#     4  10  20  37  67  96 127 166 231 273 317 383
#     4  10  22  41  66  96 135 176 216 271 329 395
#     4  10  20  39  68  99 126 173 227 271 322 385
#
# _framework density 25.850674999999999
#
# number of rings (size 3 to 8) (size 9 to 14) (size 15 to 20)
#    0.000    1.867    2.667    2.800    3.733    0.533 
#    9.600    1.333    0.000    0.000    0.000    0.000 
#    0.000    0.000    0.000    0.000    0.000    0.000 
#
# Total GULP energy -83671.440842 kJ/mol
# GULP energy per Si atom -5578.096056 kJ/mol
# Density = 2.579184 g / cm^3
# Si number density = 25.850675 Si / 1000 Ang^3
#
#
#
# Elastic Constant Matrix: (Units=GPa)
#
#
# Indices 1 2 3 4 5 6 
#
# 1 116.9579 30.3480 19.5931 -6.5749 0.7167 20.0194
# 2 30.3480 76.2663 9.5043 0.3036 -3.9879 15.4104
# 3 19.5931 9.5043 54.5736 7.3163 7.6795 -2.7629
# 4 -6.5749 0.3036 7.3163 21.9545 1.6316 2.7875
# 5 0.7167 -3.9879 7.6795 1.6316 45.3134 0.7977
# 6 20.0194 15.4104 -2.7629 2.7875 0.7977 54.1116
#
#
#
# Elastic Compliance Matrix: (Units=1/GPa)
#
#
# Indices 1 2 3 4 5 6 
#
# 1 0.011003 -0.003109 -0.004319 0.005233 0.000161 -0.003678
# 2 -0.003109 0.015363 -0.001954 -0.000202 0.001798 -0.003341
# 3 -0.004319 -0.001954 0.022099 -0.008845 -0.003597 0.003791
# 4 0.005233 -0.000202 -0.008845 0.050718 -0.000341 -0.004938
# 5 0.000161 0.001798 -0.003597 -0.000341 0.022865 -0.001075
# 6 -0.003678 -0.003341 0.003791 -0.004938 -0.001075 0.021256
#
#
# Mechanical properties :
#
#
# Convention : Reuss Voigt Hill
#
# Bulk Modulus (GPa) = 33.67129 40.74318 37.20724
# Shear Modulus (GPa) = 29.07493 36.83271 32.95382
#
# Velocity S-wave (km/s) = 3.35733 3.77878 3.57427
# Velocity P-wave (km/s) = 5.29929 5.90204 5.60877
#
# Compressibility (1/GPa) = 0.02969889
#
# Stress axis : x y z
#
# Youngs Moduli (GPa) = 90.88311 65.09286 45.25137
#
# Poissons Ratio (x) = 0.20240 0.19545
# Poissons Ratio (y) = 0.28260 0.08843
# Poissons Ratio (z) = 0.39254 0.12721
#
# Static dielectric constant tensor:
#      x y z
#    x 2.805710 0.900320 -0.721120 
#    y 0.900320 3.099840 -0.775330 
#    z -0.721120 -0.775330 2.890020 
# 
# From -- ./inp_files/174829.got.cif
#   From: 2010.05.17/outbox.cif.g08.bks.cpg/sg2_88_cif.got.tgz:174829.got - 2010.06.03 11:33:40.
