data_PCOD9103367
_publ_section_title
;
Structure prediction by ZEFSAII (Michael W. Deem and Ramdas Pophale) SiO2 
 PCOD9103367
Probable space group: P -1
;
_chemical_formula_sum "Si O2"
_cell_formula_units_Z 12
_cell_length_a 10.567976
_cell_length_b 8.306474
_cell_length_c 8.033074
_cell_angle_alpha 131.436028
_cell_angle_beta 117.486737
_cell_angle_gamma 86.980451
_cell_volume 433.790669
_symmetry_space_group_name_H-M "P -1"
_symmetry_group_IT_number 2
_symmetry_cell_setting 'triclinic'
loop_
_space_group_symop_operation_xyz
x,y,z
-x,-y,-z
loop_
_atom_site_type_symbol
_atom_site_label
_atom_site_fract_x
_atom_site_fract_y
_atom_site_fract_z
Si Si1 0.419655 0.624796 0.322558
Si Si2 0.879951 0.842737 0.572828
Si Si3 0.430821 0.148018 0.717204
Si Si4 0.671594 0.002373 0.134959
Si Si5 0.258097 0.291093 0.272633
Si Si6 0.022343 0.712445 0.279593
O O1 0.283551 0.461624 0.245966
O O2 0.575328 0.596184 0.460068
O O3 0.574403 0.342063 0.851153
O O4 0.381831 0.207813 0.908142
O O5 0.719561 0.881015 0.499321
O O6 0.875161 0.755885 0.701708
O O7 0.902131 0.671093 0.330548
O O8 0.985702 0.087674 0.716798
O O9 0.444150 0.897877 0.563731
O O10 0.185392 0.809770 0.549422
O O11 0.500000 0.000000 0.000000
O O12 0.742190 0.946051 0.972173
O O13 0.000000 0.500000 0.000000
#
# Coordination Sequence:
#
# PCOD9103367 Si02
#       6
#     2   2   2   2   2   2
#     4   9  18  36  65 100 150 196 231 294 377 437
#     4   9  21  45  73 103 140 193 249 309 358 449
#     4   9  18  38  64 101 146 191 238 291 361 442
#     4  11  22  41  69 109 151 183 241 318 367 424
#     4  10  20  38  66 111 151 183 243 314 374 427
#     4  10  23  49  76 100 143 204 250 292 373 455
#
# _framework density 27.663111000000001
#
# number of rings (size 3 to 8) (size 9 to 14) (size 15 to 20)
#    0.000    2.333    1.667    0.000    0.000    1.333 
#   21.000    0.833    0.000    4.000    0.000    0.000 
#    0.000    0.000    0.000    0.000    0.000    0.000 
#
# Total GULP energy -66840.609809 kJ/mol
# GULP energy per Si atom -5570.050817 kJ/mol
# Density = 2.760015 g / cm^3
# Si number density = 27.663111 Si / 1000 Ang^3
#
#
#
# Elastic Constant Matrix: (Units=GPa)
#
#
# Indices 1 2 3 4 5 6 
#
# 1 158.2238 55.6999 68.5553 -10.2125 -9.4662 30.9140
# 2 55.6999 125.5110 26.3477 -18.4744 -23.4371 62.1841
# 3 68.5553 26.3477 164.9837 -7.3802 -19.0786 33.9319
# 4 -10.2125 -18.4744 -7.3802 39.9709 17.1598 -18.5392
# 5 -9.4662 -23.4371 -19.0786 17.1598 68.8291 -24.3349
# 6 30.9140 62.1841 33.9319 -18.5392 -24.3349 62.7176
#
#
#
# Elastic Compliance Matrix: (Units=1/GPa)
#
#
# Indices 1 2 3 4 5 6 
#
# 1 0.008923 -0.003878 -0.003393 0.000759 -0.000800 0.001197
# 2 -0.003878 0.017436 0.002254 -0.000316 0.000240 -0.016596
# 3 -0.003393 0.002254 0.008195 -0.001050 0.001110 -0.004876
# 4 0.000759 -0.000316 -0.001050 0.030620 -0.005272 0.007513
# 5 -0.000800 0.000240 0.001110 -0.005272 0.017865 0.004929
# 6 0.001197 -0.016596 -0.004876 0.007513 0.004929 0.038581
#
#
# Mechanical properties :
#
#
# Convention : Reuss Voigt Hill
#
# Bulk Modulus (GPa) = 40.78388 83.32494 62.05441
# Shear Modulus (GPa) = 35.75816 54.17788 44.96802
#
# Velocity S-wave (km/s) = 3.59922 4.43028 4.03620
# Velocity P-wave (km/s) = 5.66105 7.50710 6.64846
#
# Compressibility (1/GPa) = 0.02451949
#
# Stress axis : x y z
#
# Youngs Moduli (GPa) = 112.07188 57.35274 122.01994
#
# Poissons Ratio (x) = 0.22242 0.41402
# Poissons Ratio (y) = 0.43462 -0.27501
# Poissons Ratio (z) = 0.38026 -0.12926
#
# Static dielectric constant tensor:
#      x y z
#    x 2.267720 0.004590 -0.111810 
#    y 0.004590 2.310240 -0.001300 
#    z -0.111810 -0.001300 2.368540 
# 
# From -- ./inp_files/255511.got.cif
#   From: 2010.05.17/outbox.cif.g08.bks.cpg/sg2_128_cif.got.tgz:255511.got - 2010.06.03 11:33:40.
