data_PCOD9103794
_publ_section_title
;
Structure prediction by ZEFSAII (Michael W. Deem and Ramdas Pophale) SiO2 
 PCOD9103794
Probable space group: P -1
;
_chemical_formula_sum "Si O2"
_cell_formula_units_Z 16
_cell_length_a 10.088749
_cell_length_b 8.930853
_cell_length_c 12.156030
_cell_angle_alpha 72.353539
_cell_angle_beta 102.209896
_cell_angle_gamma 55.837136
_cell_volume 755.686167
_symmetry_space_group_name_H-M "P -1"
_symmetry_group_IT_number 2
_symmetry_cell_setting 'triclinic'
loop_
_space_group_symop_operation_xyz
x,y,z
-x,-y,-z
loop_
_atom_site_type_symbol
_atom_site_label
_atom_site_fract_x
_atom_site_fract_y
_atom_site_fract_z
Si Si1 0.518633 0.642017 0.401797
Si Si2 0.061049 0.626453 0.447933
Si Si3 0.424865 0.544655 0.200096
Si Si4 0.436528 0.803342 0.980502
Si Si5 0.700994 0.069588 0.320772
Si Si6 0.253821 0.212395 0.009709
Si Si7 0.873446 0.472198 0.771776
Si Si8 0.612912 0.926320 0.685385
O O1 0.500000 0.500000 0.500000
O O2 0.731553 0.509645 0.447578
O O3 0.419781 0.680914 0.262073
O O4 0.429837 0.861104 0.395950
O O5 0.063851 0.634111 0.313436
O O6 0.000000 0.500000 0.500000
O O7 0.913182 0.863944 0.416747
O O8 0.421129 0.642742 0.064559
O O9 0.610960 0.298548 0.300430
O O10 0.259921 0.551524 0.189285
O O11 0.643614 0.705832 0.023917
O O12 0.342334 0.888049 0.826691
O O13 0.342945 0.002550 0.000803
O O14 0.576174 0.023442 0.353259
O O15 0.043283 0.376207 0.901788
O O16 0.299703 0.150082 0.159495
O O17 0.752420 0.723133 0.679167
#
# Coordination Sequence:
#
# PCOD9103794 Si02
#       8
#     2   2   2   2   2   2   2   2
#     4  12  25  44  62  91 127 164 212 261 314 353
#     4  12  25  42  68  89 121 170 220 255 295 378
#     4  11  24  42  65  93 132 161 200 266 318 361
#     4  10  20  38  68  94 128 161 200 258 317 368
#     4  10  22  43  66  95 123 166 211 251 312 375
#     4  10  20  38  68  96 122 164 208 248 312 382
#     4  11  24  42  65  97 124 163 211 254 312 377
#     4  10  22  43  68  90 128 167 203 257 314 372
#
# _framework density 21.172812
#
# number of rings (size 3 to 8) (size 9 to 14) (size 15 to 20)
#    0.000    1.250    5.000    0.750    1.750    2.500 
#    4.500    0.000    0.000    0.000    0.000    0.000 
#    0.000    0.000    0.000    0.000    0.000    0.000 
#
# Total GULP energy -89461.968818 kJ/mol
# GULP energy per Si atom -5591.373051 kJ/mol
# Density = 2.112462 g / cm^3
# Si number density = 21.172812 Si / 1000 Ang^3
#
#
#
# Elastic Constant Matrix: (Units=GPa)
#
#
# Indices 1 2 3 4 5 6 
#
# 1 121.1019 18.4268 43.1737 -30.1560 -2.3354 1.5959
# 2 18.4268 68.6496 2.1659 -20.4551 -2.5145 0.1469
# 3 43.1737 2.1659 56.5243 -12.8806 -0.7120 0.1142
# 4 -30.1560 -20.4551 -12.8806 43.4044 2.1051 0.5655
# 5 -2.3354 -2.5145 -0.7120 2.1051 43.6930 -8.0946
# 6 1.5959 0.1469 0.1142 0.5655 -8.0946 26.7889
#
#
#
# Elastic Compliance Matrix: (Units=1/GPa)
#
#
# Indices 1 2 3 4 5 6 
#
# 1 0.012981 -0.001485 -0.008536 0.005795 0.000034 -0.000841
# 2 -0.001485 0.017216 0.002241 0.007718 0.000575 -0.000005
# 3 -0.008536 0.002241 0.024682 0.002445 0.000021 0.000346
# 4 0.005795 0.007718 0.002445 0.031493 -0.000975 -0.001357
# 5 0.000034 0.000575 0.000021 -0.000975 0.024334 0.007368
# 6 -0.000841 -0.000005 0.000346 -0.001357 0.007368 0.039633
#
#
# Mechanical properties :
#
#
# Convention : Reuss Voigt Hill
#
# Bulk Modulus (GPa) = 25.43304 41.53428 33.48366
# Shear Modulus (GPa) = 27.93210 34.94454 31.43832
#
# Velocity S-wave (km/s) = 3.63608 4.06697 3.85755
# Velocity P-wave (km/s) = 5.44668 6.45857 5.97409
#
# Compressibility (1/GPa) = 0.03931893
#
# Stress axis : x y z
#
# Youngs Moduli (GPa) = 77.03339 58.08694 40.51547
#
# Poissons Ratio (x) = 0.08628 0.34582
# Poissons Ratio (y) = 0.11442 -0.09079
# Poissons Ratio (z) = 0.65753 -0.13017
#
# Static dielectric constant tensor:
#      x y z
#    x 1.725350 -0.020030 -0.025870 
#    y -0.020030 1.753380 -0.023660 
#    z -0.025870 -0.023660 1.737390 
# 
# From -- ./inp_files/180704.got.cif
#   From: 2010.05.17/outbox.cif.g08.bks.cpg/sg2_91_cif.got.tgz:180704.got - 2010.06.03 11:33:40.
