data_PCOD9103874
_publ_section_title
;
Structure prediction by ZEFSAII (Michael W. Deem and Ramdas Pophale) SiO2 
 PCOD9103874
Probable space group: P -1
;
_chemical_formula_sum "Si O2"
_cell_formula_units_Z 14
_cell_length_a 8.939868
_cell_length_b 18.241611
_cell_length_c 11.702492
_cell_angle_alpha 151.668692
_cell_angle_beta 84.221255
_cell_angle_gamma 76.987263
_cell_volume 673.283159
_symmetry_space_group_name_H-M "P -1"
_symmetry_group_IT_number 2
_symmetry_cell_setting 'triclinic'
loop_
_space_group_symop_operation_xyz
x,y,z
-x,-y,-z
loop_
_atom_site_type_symbol
_atom_site_label
_atom_site_fract_x
_atom_site_fract_y
_atom_site_fract_z
Si Si1 0.052437 0.252056 0.620545
Si Si2 0.602298 0.967819 0.099253
Si Si3 0.792546 0.554230 0.227698
Si Si4 0.640658 0.502052 0.646612
Si Si5 0.629377 0.603546 0.531145
Si Si6 0.466962 0.945226 0.305452
Si Si7 0.038416 0.145360 0.237321
O O1 0.058881 0.406438 0.758580
O O2 0.075572 0.115283 0.329189
O O3 0.245647 0.121298 0.509223
O O4 0.853896 0.386691 0.898642
O O5 0.621933 0.914549 0.159010
O O6 0.427134 0.216492 0.449589
O O7 0.546604 0.835310 0.871534
O O8 0.789543 0.896130 0.911692
O O9 0.804325 0.490066 0.267926
O O10 0.698300 0.500220 0.508286
O O11 0.530774 0.411303 0.524135
O O12 0.830498 0.372810 0.536975
O O13 0.499416 0.739066 0.021374
O O14 0.500000 0.000000 0.500000
O O15 0.000000 0.000000 0.000000
#
# Coordination Sequence:
#
# PCOD9103874 Si02
#       7
#     2   2   2   2   2   2   2
#     4  10  24  41  66  95 127 172 216 261 323 379
#     4  10  22  39  70  92 129 173 218 258 323 383
#     4  10  20  38  69  89 125 168 218 256 323 374
#     4  10  25  38  66  96 131 165 218 267 323 373
#     4  10  20  41  65  92 129 175 213 263 323 377
#     4  10  24  43  67  92 133 170 214 265 326 380
#     4  12  26  42  66 101 130 165 220 269 315 387
#
# _framework density 20.793627000000001
#
# number of rings (size 3 to 8) (size 9 to 14) (size 15 to 20)
#    0.000    1.714    1.429    1.286   18.000    3.429 
#    2.571    2.143    0.000    0.000    0.000    0.000 
#    0.000    0.000    0.000    0.000    0.000    0.000 
#
# Total GULP energy -78093.236614 kJ/mol
# GULP energy per Si atom -5578.088330 kJ/mol
# Density = 2.074630 g / cm^3
# Si number density = 20.793627 Si / 1000 Ang^3
#
#
#
# Elastic Constant Matrix: (Units=GPa)
#
#
# Indices 1 2 3 4 5 6 
#
# 1 74.9287 58.7879 47.2739 -8.3879 22.0895 -7.7869
# 2 58.7879 117.4566 58.1347 -32.1474 7.2842 -12.9598
# 3 47.2739 58.1347 113.3008 -23.4504 9.4543 0.0726
# 4 -8.3879 -32.1474 -23.4504 47.9402 -6.8926 5.0852
# 5 22.0895 7.2842 9.4543 -6.8926 27.8747 0.0092
# 6 -7.7869 -12.9598 0.0726 5.0852 0.0092 35.2011
#
#
#
# Elastic Compliance Matrix: (Units=1/GPa)
#
#
# Indices 1 2 3 4 5 6 
#
# 1 0.037899 -0.016438 -0.007762 -0.012391 -0.026171 0.004145
# 2 -0.016438 0.020467 -0.002282 0.011099 0.011195 0.002298
# 3 -0.007762 -0.002282 0.013953 0.004743 0.003189 -0.003272
# 4 -0.012391 0.011099 0.004743 0.030635 0.012887 -0.003094
# 5 -0.026171 0.011195 0.003189 0.012887 0.055794 -0.003550
# 6 0.004145 0.002298 -0.003272 -0.003094 -0.003550 0.030626
#
#
# Mechanical properties :
#
#
# Convention : Reuss Voigt Hill
#
# Bulk Modulus (GPa) = 51.66453 70.45323 61.05888
# Shear Modulus (GPa) = 20.09725 31.63586 25.86655
#
# Velocity S-wave (km/s) = 3.11225 3.90477 3.53082
# Velocity P-wave (km/s) = 6.14939 7.36786 6.78603
#
# Compressibility (1/GPa) = 0.01935564
#
# Stress axis : x y z
#
# Youngs Moduli (GPa) = 26.38567 48.85849 71.66807
#
# Poissons Ratio (x) = 0.80314 0.55632
# Poissons Ratio (y) = 0.43373 0.16352
# Poissons Ratio (z) = 0.20482 0.11148
#
# Static dielectric constant tensor:
#      x y z
#    x 1.754050 -0.006310 0.013860 
#    y -0.006310 1.795060 -0.010630 
#    z 0.013860 -0.010630 1.838060 
# 
# From -- ./inp_files/294788.got.cif
#   From: 2010.05.17/outbox.cif.g08.bks.cpg/sg2_148_cif.got.tgz:294788.got - 2010.06.03 11:33:40.
