data_PCOD9103271
_publ_section_title
;
Structure prediction by ZEFSAII (Michael W. Deem and Ramdas Pophale) SiO2 
 PCOD9103271
Probable space group: P -1
;
_chemical_formula_sum "Si O2"
_cell_formula_units_Z 14
_cell_length_a 20.914928
_cell_length_b 11.099493
_cell_length_c 15.373597
_cell_angle_alpha 37.009473
_cell_angle_beta 152.447110
_cell_angle_gamma 159.565384
_cell_volume 564.764287
_symmetry_space_group_name_H-M "P -1"
_symmetry_group_IT_number 2
_symmetry_cell_setting 'triclinic'
loop_
_space_group_symop_operation_xyz
x,y,z
-x,-y,-z
loop_
_atom_site_type_symbol
_atom_site_label
_atom_site_fract_x
_atom_site_fract_y
_atom_site_fract_z
Si Si1 0.538412 0.867340 0.297879
Si Si2 0.397715 0.391418 0.713645
Si Si3 0.245782 0.631030 0.447229
Si Si4 0.962260 0.265723 0.473902
Si Si5 0.155134 0.216803 0.889453
Si Si6 0.064918 0.492863 0.988680
Si Si7 0.273399 0.186551 0.288605
O O1 0.352769 0.810614 0.139289
O O2 0.380733 0.535452 0.236585
O O3 0.613198 0.818657 0.497233
O O4 0.783517 0.203634 0.345878
O O5 0.265055 0.413757 0.589267
O O6 0.611629 0.732834 0.711053
O O7 0.209605 0.054610 0.618104
O O8 0.558615 0.450494 0.938722
O O9 0.176202 0.607027 0.475555
O O10 0.500000 0.000000 0.500000
O O11 0.042819 0.486825 0.224519
O O12 0.069701 0.241281 0.688650
O O13 0.058076 0.873923 0.955844
O O14 0.010486 0.132464 0.847698
O O15 0.000000 0.500000 0.000000
#
# Coordination Sequence:
#
# PCOD9103271 Si02
#       7
#     2   2   2   2   2   2   2
#     4   8  16  34  61  90 120 162 204 254 304 357
#     4  11  20  38  65  92 122 162 211 253 301 369
#     4  12  25  42  57  91 131 166 199 256 320 372
#     4  10  23  42  65  90 125 159 214 263 301 361
#     4  10  20  38  65  95 119 163 207 258 304 363
#     4  11  21  38  64  92 128 166 204 245 316 379
#     4   8  15  31  61  95 119 148 208 260 299 354
#
# _framework density 24.789103999999998
#
# number of rings (size 3 to 8) (size 9 to 14) (size 15 to 20)
#    0.000    2.000    1.429    5.143    0.000    1.143 
#    2.571    0.000    0.000    2.571    0.000    0.000 
#    0.000    0.000    0.000    0.000    0.000    0.000 
#
# Total GULP energy -78371.382753 kJ/mol
# GULP energy per Si atom -5597.955911 kJ/mol
# Density = 2.473268 g / cm^3
# Si number density = 24.789104 Si / 1000 Ang^3
#
#
#
# Elastic Constant Matrix: (Units=GPa)
#
#
# Indices 1 2 3 4 5 6 
#
# 1 145.2636 44.6439 60.8440 5.9673 21.6376 34.8810
# 2 44.6439 101.5217 41.9344 8.1183 1.1039 16.7133
# 3 60.8440 41.9344 178.2664 15.5095 14.1555 17.2479
# 4 5.9673 8.1183 15.5095 22.2860 7.1904 -8.0902
# 5 21.6376 1.1039 14.1555 7.1904 46.9370 9.9757
# 6 34.8810 16.7133 17.2479 -8.0902 9.9757 47.7519
#
#
#
# Elastic Compliance Matrix: (Units=1/GPa)
#
#
# Indices 1 2 3 4 5 6 
#
# 1 0.010352 -0.002637 -0.002019 -0.001588 -0.002663 -0.005622
# 2 -0.002637 0.012555 -0.001526 -0.004941 0.002849 -0.003350
# 3 -0.002019 -0.001526 0.007170 -0.004255 -0.000280 -0.001243
# 4 -0.001588 -0.004941 -0.004255 0.059525 -0.010539 0.016712
# 5 -0.002663 0.002849 -0.000280 -0.010539 0.025451 -0.006053
# 6 -0.005622 -0.003350 -0.001243 0.016712 -0.006053 0.030766
#
#
# Mechanical properties :
#
#
# Convention : Reuss Voigt Hill
#
# Bulk Modulus (GPa) = 56.45230 79.98848 68.22039
# Shear Modulus (GPa) = 30.47141 41.90362 36.18752
#
# Velocity S-wave (km/s) = 3.50984 4.11591 3.82490
# Velocity P-wave (km/s) = 6.26480 7.41116 6.86196
#
# Compressibility (1/GPa) = 0.01771407
#
# Stress axis : x y z
#
# Youngs Moduli (GPa) = 96.59835 79.64691 139.46188
#
# Poissons Ratio (x) = 0.21000 0.28164
# Poissons Ratio (y) = 0.25470 0.21279
# Poissons Ratio (z) = 0.19508 0.12153
#
# Static dielectric constant tensor:
#      x y z
#    x 1.922600 -0.000270 0.015390 
#    y -0.000270 2.069460 0.008560 
#    z 0.015390 0.008560 1.937390 
# 
# From -- ./inp_files/271845.got.cif
#   From: 2010.05.17/outbox.cif.g08.bks.cpg/sg2_136_cif.got.tgz:271845.got - 2010.06.03 11:33:40.
