data_PCOD9103720
_publ_section_title
;
Structure prediction by ZEFSAII (Michael W. Deem and Ramdas Pophale) SiO2 
 PCOD9103720
Probable space group: P -1
;
_chemical_formula_sum "Si O2"
_cell_formula_units_Z 15
_cell_length_a 8.203864
_cell_length_b 17.220475
_cell_length_c 20.320581
_cell_angle_alpha 20.150363
_cell_angle_beta 138.728551
_cell_angle_gamma 138.812225
_cell_volume 638.245989
_symmetry_space_group_name_H-M "P -1"
_symmetry_group_IT_number 2
_symmetry_cell_setting 'triclinic'
loop_
_space_group_symop_operation_xyz
x,y,z
-x,-y,-z
loop_
_atom_site_type_symbol
_atom_site_label
_atom_site_fract_x
_atom_site_fract_y
_atom_site_fract_z
Si Si1 0.726962 0.691369 0.129218
Si Si2 0.479630 0.721866 0.527569
Si Si3 0.270272 0.790181 0.276518
Si Si4 0.000000 0.000000 0.500000
Si Si5 0.498196 0.755765 0.229482
Si Si6 0.040519 0.924925 0.300749
Si Si7 0.786017 0.078639 0.499671
Si Si8 0.969984 0.580846 0.154542
O O1 0.515440 0.509505 0.246443
O O2 0.820026 0.600983 0.161071
O O3 0.971600 0.730142 0.220259
O O4 0.660614 0.937767 0.902626
O O5 0.355693 0.664110 0.464636
O O6 0.748973 0.886218 0.471988
O O7 0.285478 0.848546 0.406721
O O8 0.403636 0.754892 0.276811
O O9 0.156395 0.081132 0.413897
O O10 0.795321 0.761417 0.323602
O O11 0.263804 0.591325 0.252649
O O12 0.500000 0.000000 0.000000
O O13 0.045291 0.904277 0.397253
O O14 0.043782 0.190091 0.072435
O O15 0.840577 0.336023 0.279302
O O16 0.500000 0.000000 0.500000
#
# Coordination Sequence:
#
# PCOD9103720 Si02
#       8
#     2   2   2   1   2   2   2   2
#     4  10  20  38  67  99 133 171 206 265 327 388
#     4  12  23  43  65  94 130 172 221 271 321 381
#     4  10  21  39  64  98 135 166 216 262 318 401
#     4  12  28  48  66  96 128 168 234 278 314 386
#     4   9  21  39  62  99 135 168 209 261 326 397
#     4  11  22  42  69  96 131 171 213 262 334 392
#     4  12  25  48  69  93 131 174 223 278 319 380
#     4  10  21  42  68  96 132 172 210 264 330 389
#
# _framework density 23.501912000000001
#
# number of rings (size 3 to 8) (size 9 to 14) (size 15 to 20)
#    0.000    1.333    4.000    1.200    1.867    3.200 
#    2.400    1.333    0.000    0.000    0.000    0.000 
#    0.000    0.000    0.000    0.000    0.000    0.000 
#
# Total GULP energy -83713.665021 kJ/mol
# GULP energy per Si atom -5580.911001 kJ/mol
# Density = 2.344842 g / cm^3
# Si number density = 23.501912 Si / 1000 Ang^3
#
#
#
# Elastic Constant Matrix: (Units=GPa)
#
#
# Indices 1 2 3 4 5 6 
#
# 1 90.7795 6.0997 14.6722 10.1164 -14.4130 9.9988
# 2 6.0997 78.5264 3.3760 -2.6942 -9.0704 17.1819
# 3 14.6722 3.3760 72.0613 -7.4409 -14.2164 -3.6713
# 4 10.1164 -2.6942 -7.4409 20.0342 -0.6239 -13.7542
# 5 -14.4130 -9.0704 -14.2164 -0.6239 33.9165 3.7073
# 6 9.9988 17.1819 -3.6713 -13.7542 3.7073 47.2226
#
#
#
# Elastic Compliance Matrix: (Units=1/GPa)
#
#
# Indices 1 2 3 4 5 6 
#
# 1 0.015066 0.001033 -0.003943 -0.014651 0.005695 -0.008587
# 2 0.001033 0.014643 -0.000665 -0.003439 0.004776 -0.006975
# 3 -0.003943 -0.000665 0.017254 0.012320 0.004992 0.005615
# 4 -0.014651 -0.003439 0.012320 0.081442 -0.003689 0.029322
# 5 0.005695 0.004776 0.004992 -0.003689 0.035911 -0.006449
# 6 -0.008587 -0.006975 0.005615 0.029322 -0.006449 0.035016
#
#
# Mechanical properties :
#
#
# Convention : Reuss Voigt Hill
#
# Bulk Modulus (GPa) = 25.11657 32.18478 28.65068
# Shear Modulus (GPa) = 22.75301 34.71595 28.73448
#
# Velocity S-wave (km/s) = 3.11486 3.84755 3.50043
# Velocity P-wave (km/s) = 4.86279 5.78467 5.34365
#
# Compressibility (1/GPa) = 0.03981435
#
# Stress axis : x y z
#
# Youngs Moduli (GPa) = 66.37326 68.29385 57.95769
#
# Poissons Ratio (x) = -0.07057 0.22852
# Poissons Ratio (y) = -0.06858 0.03853
# Poissons Ratio (z) = 0.26170 0.04540
#
# Static dielectric constant tensor:
#      x y z
#    x 1.826850 -0.011720 0.042800 
#    y -0.011720 1.893510 -0.044830 
#    z 0.042800 -0.044830 1.916140 
# 
# From -- ./inp_files/590956.got.cif
#   From: 2010.05.17/outbox.cif.g08.bks.cpg/sg2_296_cif.got.tgz:590956.got - 2010.06.03 11:33:40.
