data_PCOD9103990
_publ_section_title
;
Structure prediction by ZEFSAII (Michael W. Deem and Ramdas Pophale) SiO2 
 PCOD9103990
Probable space group: P -1
;
_chemical_formula_sum "Si O2"
_cell_formula_units_Z 12
_cell_length_a 7.060746
_cell_length_b 9.284352
_cell_length_c 12.026308
_cell_angle_alpha 49.796237
_cell_angle_beta 111.884153
_cell_angle_gamma 134.059970
_cell_volume 428.509190
_symmetry_space_group_name_H-M "P -1"
_symmetry_group_IT_number 2
_symmetry_cell_setting 'triclinic'
loop_
_space_group_symop_operation_xyz
x,y,z
-x,-y,-z
loop_
_atom_site_type_symbol
_atom_site_label
_atom_site_fract_x
_atom_site_fract_y
_atom_site_fract_z
Si Si1 0.238882 0.623209 0.152276
Si Si2 0.433730 0.653550 0.596819
Si Si3 0.164118 0.822175 0.599142
Si Si4 0.212587 0.392899 0.035284
Si Si5 0.967205 0.889295 0.170023
Si Si6 0.436074 0.867899 0.282569
O O1 0.686361 0.616246 0.258582
O O2 0.275924 0.563009 0.068808
O O3 0.459700 0.852298 0.163737
O O4 0.134479 0.394396 0.324169
O O5 0.262960 0.716988 0.590435
O O6 0.389908 0.656716 0.454274
O O7 0.729775 0.914063 0.553023
O O8 0.320812 0.897610 0.714047
O O9 0.047908 0.103226 0.165595
O O10 0.500000 0.500000 0.000000
O O11 0.013502 0.385142 0.912802
O O12 0.186972 0.857921 0.247822
O O13 0.000000 0.000000 0.000000
#
# Coordination Sequence:
#
# PCOD9103990 Si02
#       6
#     2   2   2   2   2   2
#     4  11  22  46  72 100 141 191 240 297 356 432
#     4   9  20  36  69 104 142 185 238 288 352 427
#     4   9  19  38  69 102 135 186 238 282 355 422
#     4  11  26  46  67 103 148 186 237 301 367 422
#     4  12  21  38  65 103 138 183 237 290 351 419
#     4  10  20  38  71 103 135 190 240 282 354 422
#
# _framework density 28.004064
#
# number of rings (size 3 to 8) (size 9 to 14) (size 15 to 20)
#    1.000    0.667    3.333    1.500    0.000    0.000 
#    3.000    4.167    0.000    0.000    0.000    1.167 
#    0.000    0.000    0.000    0.000    0.000    0.000 
#
# Total GULP energy -67174.023491 kJ/mol
# GULP energy per Si atom -5597.835291 kJ/mol
# Density = 2.794033 g / cm^3
# Si number density = 28.004064 Si / 1000 Ang^3
#
#
#
# Elastic Constant Matrix: (Units=GPa)
#
#
# Indices 1 2 3 4 5 6 
#
# 1 100.0516 34.1590 13.2849 1.7849 -3.0860 -2.9296
# 2 34.1590 190.7957 70.8644 14.5419 -0.7029 -8.3317
# 3 13.2849 70.8644 159.2992 9.9787 6.6712 1.6382
# 4 1.7849 14.5419 9.9787 82.6641 -0.3187 -7.4433
# 5 -3.0860 -0.7029 6.6712 -0.3187 41.2186 -1.7613
# 6 -2.9296 -8.3317 1.6382 -7.4433 -1.7613 52.6567
#
#
#
# Elastic Compliance Matrix: (Units=1/GPa)
#
#
# Indices 1 2 3 4 5 6 
#
# 1 0.010678 -0.001865 -0.000107 0.000145 0.000801 0.000350
# 2 -0.001865 0.006720 -0.002819 -0.000713 0.000467 0.000962
# 3 -0.000107 -0.002819 0.007636 -0.000501 -0.001330 -0.000805
# 4 0.000145 -0.000713 -0.000501 0.012432 0.000248 0.001676
# 5 0.000801 0.000467 -0.001330 0.000248 0.024589 0.001017
# 6 0.000350 0.000962 -0.000805 0.001676 0.001017 0.019459
#
#
# Mechanical properties :
#
#
# Convention : Reuss Voigt Hill
#
# Bulk Modulus (GPa) = 64.71408 76.30701 70.51055
# Shear Modulus (GPa) = 51.95024 57.43044 54.69034
#
# Velocity S-wave (km/s) = 4.31176 4.53348 4.42401
# Velocity P-wave (km/s) = 6.92440 7.39668 7.16443
#
# Compressibility (1/GPa) = 0.01545259
#
# Stress axis : x y z
#
# Youngs Moduli (GPa) = 93.64967 148.80833 130.96375
#
# Poissons Ratio (x) = 0.27749 0.01404
# Poissons Ratio (y) = 0.17463 0.36914
# Poissons Ratio (z) = 0.01004 0.41944
#
# Static dielectric constant tensor:
#      x y z
#    x 2.213680 -0.001970 -0.026980 
#    y -0.001970 2.191160 -0.049910 
#    z -0.026980 -0.049910 2.181390 
# 
# From -- ./inp_files/293426.got.cif
#   From: 2010.05.17/outbox.cif.g08.bks.cpg/sg2_147_cif.got.tgz:293426.got - 2010.06.03 11:33:40.
