data_PCOD9103220
_publ_section_title
;
Structure prediction by ZEFSAII (Michael W. Deem and Ramdas Pophale) SiO2 
 PCOD9103220
Probable space group: P -1
;
_chemical_formula_sum "Si O2"
_cell_formula_units_Z 14
_cell_length_a 10.571998
_cell_length_b 10.239924
_cell_length_c 9.831891
_cell_angle_alpha 114.316310
_cell_angle_beta 50.208604
_cell_angle_gamma 82.745015
_cell_volume 619.110509
_symmetry_space_group_name_H-M "P -1"
_symmetry_group_IT_number 2
_symmetry_cell_setting 'triclinic'
loop_
_space_group_symop_operation_xyz
x,y,z
-x,-y,-z
loop_
_atom_site_type_symbol
_atom_site_label
_atom_site_fract_x
_atom_site_fract_y
_atom_site_fract_z
Si Si1 0.301768 0.675705 0.041107
Si Si2 0.356089 0.909338 0.462841
Si Si3 0.717736 0.342125 0.666875
Si Si4 0.018210 0.145591 0.129292
Si Si5 0.987352 0.719569 0.087874
Si Si6 0.396462 0.205579 0.501858
Si Si7 0.399250 0.919546 0.950682
O O1 0.192036 0.673514 0.253509
O O2 0.199382 0.634548 0.973664
O O3 0.532957 0.528963 0.837719
O O4 0.297621 0.845040 0.078734
O O5 0.373231 0.771566 0.291415
O O6 0.457043 0.806739 0.488944
O O7 0.132067 0.074589 0.702338
O O8 0.453737 0.007729 0.386646
O O9 0.858651 0.252221 0.403085
O O10 0.003997 0.273478 0.077016
O O11 0.000000 0.000000 0.000000
O O12 0.224960 0.052329 0.026113
O O13 0.831017 0.680363 0.240377
O O14 0.440347 0.228478 0.328234
O O15 0.500000 0.000000 0.000000
#
# Coordination Sequence:
#
# PCOD9103220 Si02
#       7
#     2   2   2   2   2   2   2
#     4  11  26  41  59  92 128 169 211 254 320 376
#     4   9  16  36  65  83 122 159 198 258 307 361
#     4  11  24  41  61  87 131 170 206 263 310 377
#     4  12  20  40  67  97 122 159 216 262 305 368
#     4  10  20  38  65  93 119 160 214 255 304 373
#     4   9  18  36  62  92 126 146 205 270 304 364
#     4  12  23  37  67  97 123 163 213 264 313 367
#
# _framework density 22.613088999999999
#
# number of rings (size 3 to 8) (size 9 to 14) (size 15 to 20)
#    0.857    0.571    4.286    0.857    2.000    1.714 
#    0.000    1.429    3.143    0.000    0.000    0.000 
#    0.000    0.000    0.000    0.000    0.000    0.000 
#
# Total GULP energy -77990.879723 kJ/mol
# GULP energy per Si atom -5570.777123 kJ/mol
# Density = 2.256162 g / cm^3
# Si number density = 22.613089 Si / 1000 Ang^3
#
#
#
# Elastic Constant Matrix: (Units=GPa)
#
#
# Indices 1 2 3 4 5 6 
#
# 1 94.0077 26.2463 20.2666 -17.9273 -9.2372 -22.5924
# 2 26.2463 58.7659 31.5104 -27.5857 -0.2257 -24.0318
# 3 20.2666 31.5104 125.2605 -28.8529 -6.2704 -13.6190
# 4 -17.9273 -27.5857 -28.8529 32.2164 -0.4150 10.9238
# 5 -9.2372 -0.2257 -6.2704 -0.4150 21.9825 -4.8719
# 6 -22.5924 -24.0318 -13.6190 10.9238 -4.8719 28.3874
#
#
#
# Elastic Compliance Matrix: (Units=1/GPa)
#
#
# Indices 1 2 3 4 5 6 
#
# 1 0.015314 0.000513 0.000424 0.005251 0.009413 0.012421
# 2 0.000513 0.038845 -0.001331 0.024158 0.006100 0.024405
# 3 0.000424 -0.001331 0.010449 0.007883 0.003698 0.001825
# 4 0.005251 0.024158 0.007883 0.059507 0.007327 0.006771
# 5 0.009413 0.006100 0.003698 0.007327 0.055382 0.021115
# 6 0.012421 0.024405 0.001825 0.006771 0.021115 0.067666
#
#
# Mechanical properties :
#
#
# Convention : Reuss Voigt Hill
#
# Bulk Modulus (GPa) = 15.66888 48.23118 31.95003
# Shear Modulus (GPa) = 18.57189 29.85132 24.21161
#
# Velocity S-wave (km/s) = 2.86892 3.63725 3.27569
# Velocity P-wave (km/s) = 4.23302 6.24617 5.33540
#
# Compressibility (1/GPa) = 0.06382076
#
# Stress axis : x y z
#
# Youngs Moduli (GPa) = 65.29991 25.74301 95.70301
#
# Poissons Ratio (x) = -0.01321 -0.04061
# Poissons Ratio (y) = -0.03351 0.12742
# Poissons Ratio (z) = -0.02771 0.03427
#
# Static dielectric constant tensor:
#      x y z
#    x 1.894890 -0.039100 0.036620 
#    y -0.039100 1.909800 -0.060500 
#    z 0.036620 -0.060500 1.923980 
# 
# From -- ./inp_files/249184.got.cif
#   From: 2010.05.17/outbox.cif.g08.bks.cpg/sg2_125_cif.got.tgz:249184.got - 2010.06.03 11:33:40.
