data_PCOD9103440
_publ_section_title
;
Structure prediction by ZEFSAII (Michael W. Deem and Ramdas Pophale) SiO2 
 PCOD9103440
Probable space group: P -1
;
_chemical_formula_sum "Si O2"
_cell_formula_units_Z 16
_cell_length_a 8.143230
_cell_length_b 8.355876
_cell_length_c 16.480729
_cell_angle_alpha 63.932236
_cell_angle_beta 73.415264
_cell_angle_gamma 120.527980
_cell_volume 653.868554
_symmetry_space_group_name_H-M "P -1"
_symmetry_group_IT_number 2
_symmetry_cell_setting 'triclinic'
loop_
_space_group_symop_operation_xyz
x,y,z
-x,-y,-z
loop_
_atom_site_type_symbol
_atom_site_label
_atom_site_fract_x
_atom_site_fract_y
_atom_site_fract_z
Si Si1 0.889839 0.719165 0.902813
Si Si2 0.082332 0.591131 0.787066
Si Si3 0.235112 0.168319 0.494169
Si Si4 0.120131 0.003888 0.283139
Si Si5 0.778767 0.684980 0.104476
Si Si6 0.631687 0.013818 0.600977
Si Si7 0.539601 0.717298 0.264669
Si Si8 0.940492 0.430431 0.661502
O O1 0.909117 0.550302 0.888170
O O2 0.178937 0.005417 0.816060
O O3 0.778433 0.784264 0.845197
O O4 0.751628 0.602676 0.034038
O O5 0.129492 0.418873 0.836975
O O6 0.980430 0.530236 0.724543
O O7 0.361644 0.890815 0.683258
O O8 0.408519 0.475315 0.396795
O O9 0.100773 0.061013 0.623242
O O10 0.391396 0.122689 0.447330
O O11 0.000000 0.000000 0.500000
O O12 0.299005 0.060970 0.316208
O O13 0.022241 0.751288 0.309332
O O14 0.558682 0.618984 0.199155
O O15 0.000000 0.000000 0.000000
O O16 0.861764 0.321312 0.481307
O O17 0.344527 0.730562 0.284071
#
# Coordination Sequence:
#
# PCOD9103440 Si02
#       8
#     2   2   2   2   2   2   2   2
#     4  11  26  44  66  98 129 175 224 268 322 385
#     4  12  25  43  70  95 132 171 223 267 328 386
#     4  10  20  38  66  91 133 168 211 261 328 380
#     4  11  24  41  65  96 142 169 216 260 327 389
#     4  10  23  47  69  92 128 171 222 277 322 378
#     4  11  23  42  64  97 138 174 209 269 324 393
#     4  11  22  43  68  93 133 173 213 271 328 379
#     4  12  24  41  64 103 135 173 215 264 326 399
#
# _framework density 24.469750999999999
#
# number of rings (size 3 to 8) (size 9 to 14) (size 15 to 20)
#    0.000    1.000    3.750    4.125    3.500    0.500 
#    0.000    9.375    0.000    0.000    0.000    0.000 
#    0.000    0.000    0.000    0.000    0.000    0.000 
#
# Total GULP energy -89615.854473 kJ/mol
# GULP energy per Si atom -5600.990905 kJ/mol
# Density = 2.441406 g / cm^3
# Si number density = 24.469751 Si / 1000 Ang^3
#
#
#
# Elastic Constant Matrix: (Units=GPa)
#
#
# Indices 1 2 3 4 5 6 
#
# 1 93.3138 29.1444 21.9955 -3.5706 3.1834 -3.9957
# 2 29.1444 86.9986 8.4958 16.8982 -10.6056 -5.7000
# 3 21.9955 8.4958 56.2313 6.4051 15.9845 11.5098
# 4 -3.5706 16.8982 6.4051 44.3733 0.9794 -5.5857
# 5 3.1834 -10.6056 15.9845 0.9794 22.9141 -1.9531
# 6 -3.9957 -5.7000 11.5098 -5.5857 -1.9531 49.3967
#
#
#
# Elastic Compliance Matrix: (Units=1/GPa)
#
#
# Indices 1 2 3 4 5 6 
#
# 1 0.013753 -0.004718 -0.005534 0.003996 -0.000209 0.002301
# 2 -0.004718 0.016024 -0.003396 -0.005978 0.010868 0.002013
# 3 -0.005534 -0.003396 0.028838 -0.003955 -0.021506 -0.008857
# 4 0.003996 -0.005978 -0.003955 0.026171 -0.001387 0.003459
# 5 -0.000209 0.010868 -0.021506 -0.001387 0.064498 0.008642
# 6 0.002301 0.002013 -0.008857 0.003459 0.008642 0.023459
#
#
# Mechanical properties :
#
#
# Convention : Reuss Voigt Hill
#
# Bulk Modulus (GPa) = 31.92821 39.53501 35.73161
# Shear Modulus (GPa) = 23.75527 35.13070 29.44299
#
# Velocity S-wave (km/s) = 3.11915 3.79315 3.47254
# Velocity P-wave (km/s) = 5.10377 5.94775 5.54185
#
# Compressibility (1/GPa) = 0.03132026
#
# Stress axis : x y z
#
# Youngs Moduli (GPa) = 72.71165 62.40451 34.67645
#
# Poissons Ratio (x) = 0.29441 0.19189
# Poissons Ratio (y) = 0.34303 0.11777
# Poissons Ratio (z) = 0.40237 0.21193
#
# Static dielectric constant tensor:
#      x y z
#    x 1.921750 0.028370 -0.004830 
#    y 0.028370 1.985360 0.004030 
#    z -0.004830 0.004030 1.893850 
# 
# From -- ./inp_files/217835.got.cif
#   From: 2010.05.17/outbox.cif.g08.bks.cpg/sg2_109_cif.got.tgz:217835.got - 2010.06.03 11:33:40.
