data_PCOD9103446
_publ_section_title
;
Structure prediction by ZEFSAII (Michael W. Deem and Ramdas Pophale) SiO2 
 PCOD9103446
Probable space group: P -1
;
_chemical_formula_sum "Si O2"
_cell_formula_units_Z 16
_cell_length_a 18.514441
_cell_length_b 6.737960
_cell_length_c 8.474516
_cell_angle_alpha 108.149430
_cell_angle_beta 116.149394
_cell_angle_gamma 112.794955
_cell_volume 710.966315
_symmetry_space_group_name_H-M "P -1"
_symmetry_group_IT_number 2
_symmetry_cell_setting 'triclinic'
loop_
_space_group_symop_operation_xyz
x,y,z
-x,-y,-z
loop_
_atom_site_type_symbol
_atom_site_label
_atom_site_fract_x
_atom_site_fract_y
_atom_site_fract_z
Si Si1 0.100379 0.948420 0.943250
Si Si2 0.740634 0.919003 0.082616
Si Si3 0.241973 0.922357 0.306548
Si Si4 0.423194 0.558304 0.000138
Si Si5 0.684690 0.259758 0.248526
Si Si6 0.866658 0.581419 0.714316
Si Si7 0.605750 0.566504 0.570100
Si Si8 0.587363 0.050799 0.426536
O O1 0.156365 0.869745 0.092244
O O2 0.144440 0.966716 0.817176
O O3 0.129927 0.228373 0.104113
O O4 0.979550 0.737197 0.793836
O O5 0.683681 0.713682 0.118769
O O6 0.681077 0.743519 0.828000
O O7 0.721271 0.134129 0.136903
O O8 0.176213 0.705431 0.326961
O O9 0.326847 0.875250 0.345054
O O10 0.329099 0.245817 0.473016
O O11 0.481111 0.760499 0.255152
O O12 0.500000 0.500000 0.000000
O O13 0.392803 0.700094 0.891937
O O14 0.786421 0.520311 0.487666
O O15 0.630122 0.063142 0.296617
O O16 0.500000 0.500000 0.500000
O O17 0.581670 0.286914 0.466405
#
# Coordination Sequence:
#
# PCOD9103446 Si02
#       8
#     2   2   2   2   2   2   2   2
#     4  10  23  43  67  95 130 155 217 274 320 368
#     4  11  24  40  61  96 129 167 211 264 314 375
#     4  10  20  38  66  92 123 162 207 257 316 376
#     4  12  26  40  64  90 132 177 214 251 315 381
#     4  11  24  40  63  91 127 169 217 259 307 383
#     4  10  23  43  69  95 121 172 211 264 323 384
#     4  11  24  38  61  93 134 163 210 268 311 364
#     4  11  24  39  64  92 127 171 216 250 311 380
#
# _framework density 22.504584000000001
#
# number of rings (size 3 to 8) (size 9 to 14) (size 15 to 20)
#    0.000    1.250    1.250    5.250    5.250    7.500 
#    0.000    0.625    0.000    0.000    0.000    0.000 
#    0.000    0.000    0.000    0.000    0.000    0.000 
#
# Total GULP energy -89216.398102 kJ/mol
# GULP energy per Si atom -5576.024881 kJ/mol
# Density = 2.245336 g / cm^3
# Si number density = 22.504584 Si / 1000 Ang^3
#
#
#
# Elastic Constant Matrix: (Units=GPa)
#
#
# Indices 1 2 3 4 5 6 
#
# 1 161.4486 67.3678 33.2049 17.6906 7.1382 5.9544
# 2 67.3678 110.0723 29.1862 12.7473 6.0206 -1.1188
# 3 33.2049 29.1862 56.8133 14.5954 11.3476 1.4018
# 4 17.6906 12.7473 14.5954 37.6759 -6.4537 -2.5910
# 5 7.1382 6.0206 11.3476 -6.4537 45.0139 2.9910
# 6 5.9544 -1.1188 1.4018 -2.5910 2.9910 30.7361
#
#
#
# Elastic Compliance Matrix: (Units=1/GPa)
#
#
# Indices 1 2 3 4 5 6 
#
# 1 0.008875 -0.004624 -0.002184 -0.001955 -0.000392 -0.001915
# 2 -0.004624 0.013033 -0.003798 -0.000707 -0.000254 0.001509
# 3 -0.002184 -0.003798 0.024240 -0.008234 -0.006378 -0.000894
# 4 -0.001955 -0.000707 -0.008234 0.032266 0.006922 0.002775
# 5 -0.000392 -0.000254 -0.006378 0.006922 0.025011 -0.001493
# 6 -0.001915 0.001509 -0.000894 0.002775 -0.001493 0.033381
#
#
# Mechanical properties :
#
#
# Convention : Reuss Voigt Hill
#
# Bulk Modulus (GPa) = 40.10105 65.31690 52.70897
# Shear Modulus (GPa) = 30.06100 35.92352 32.99226
#
# Velocity S-wave (km/s) = 3.65879 3.99968 3.83302
# Velocity P-wave (km/s) = 5.97551 7.10047 6.56214
#
# Compressibility (1/GPa) = 0.02493701
#
# Stress axis : x y z
#
# Youngs Moduli (GPa) = 112.67897 76.72715 41.25438
#
# Poissons Ratio (x) = 0.35481 0.09008
# Poissons Ratio (y) = 0.52106 0.15667
# Poissons Ratio (z) = 0.24604 0.29138
#
# Static dielectric constant tensor:
#      x y z
#    x 1.914720 0.046790 0.014120 
#    y 0.046790 1.903180 -0.022650 
#    z 0.014120 -0.022650 1.936300 
# 
# From -- ./inp_files/324006.got.cif
#   From: 2010.05.17/outbox.cif.g08.bks.cpg/sg2_163_cif.got.tgz:324006.got - 2010.06.03 11:33:40.
