data_PCOD9103967
_publ_section_title
;
Structure prediction by ZEFSAII (Michael W. Deem and Ramdas Pophale) SiO2 
 PCOD9103967
Probable space group: P -1
;
_chemical_formula_sum "Si O2"
_cell_formula_units_Z 14
_cell_length_a 9.737055
_cell_length_b 21.666844
_cell_length_c 12.166379
_cell_angle_alpha 151.437803
_cell_angle_beta 124.665906
_cell_angle_gamma 38.009556
_cell_volume 686.322414
_symmetry_space_group_name_H-M "P -1"
_symmetry_group_IT_number 2
_symmetry_cell_setting 'triclinic'
loop_
_space_group_symop_operation_xyz
x,y,z
-x,-y,-z
loop_
_atom_site_type_symbol
_atom_site_label
_atom_site_fract_x
_atom_site_fract_y
_atom_site_fract_z
Si Si1 0.742366 0.214364 0.244886
Si Si2 0.779057 0.482684 0.597244
Si Si3 0.607534 0.228006 0.659188
Si Si4 0.000421 0.221331 0.838107
Si Si5 0.897256 0.738642 0.814131
Si Si6 0.444631 0.817229 0.682213
Si Si7 0.070092 0.510237 0.928217
O O1 0.768160 0.350866 0.446383
O O2 0.500808 0.306898 0.210355
O O3 0.666025 0.222415 0.346101
O O4 0.000000 0.000000 0.000000
O O5 0.958825 0.472527 0.730848
O O6 0.891792 0.395631 0.390974
O O7 0.532546 0.254761 0.540098
O O8 0.751437 0.279615 0.820259
O O9 0.362926 0.353811 0.813598
O O10 0.787361 0.006898 0.422129
O O11 0.020213 0.292069 0.070363
O O12 0.017816 0.301735 0.865099
O O13 0.701840 0.733749 0.705975
O O14 0.746960 0.954650 0.054758
O O15 0.000000 0.500000 0.000000
#
# Coordination Sequence:
#
# PCOD9103967 Si02
#       7
#     2   2   2   2   2   2   2
#     4  11  24  41  63  97 135 168 212 273 335 384
#     4  11  25  42  64  98 130 174 219 266 333 387
#     4  10  23  45  68  96 128 174 222 266 332 380
#     4  10  24  43  68  99 128 171 222 272 321 392
#     4  10  20  40  70  98 124 162 225 266 322 388
#     4  10  20  38  70  94 128 170 209 273 322 388
#     4  12  27  44  64  96 134 176 220 268 326 396
#
# _framework density 20.398575999999998
#
# number of rings (size 3 to 8) (size 9 to 14) (size 15 to 20)
#    0.000    1.429    2.857    1.286    4.000    5.143 
#    2.571    0.000    0.000    0.000    0.000    0.000 
#    0.000    0.000    0.000    0.000    0.000    0.000 
#
# Total GULP energy -78285.185008 kJ/mol
# GULP energy per Si atom -5591.798929 kJ/mol
# Density = 2.035215 g / cm^3
# Si number density = 20.398576 Si / 1000 Ang^3
#
#
#
# Elastic Constant Matrix: (Units=GPa)
#
#
# Indices 1 2 3 4 5 6 
#
# 1 167.4712 67.9005 42.5325 6.9439 -5.2063 32.6681
# 2 67.9005 114.4975 45.5840 0.2165 4.6030 -0.5272
# 3 42.5325 45.5840 51.6325 4.7603 -0.4620 13.4086
# 4 6.9439 0.2165 4.7603 30.7031 -0.4691 0.9000
# 5 -5.2063 4.6030 -0.4620 -0.4691 23.4353 -5.0554
# 6 32.6681 -0.5272 13.4086 0.9000 -5.0554 36.6771
#
#
#
# Elastic Compliance Matrix: (Units=1/GPa)
#
#
# Indices 1 2 3 4 5 6 
#
# 1 0.010452 -0.005946 -0.000883 -0.001903 0.001533 -0.008814
# 2 -0.005946 0.017946 -0.013890 0.003030 -0.002867 0.010162
# 3 -0.000883 -0.013890 0.036036 -0.004919 0.000469 -0.012402
# 4 -0.001903 0.003030 -0.004919 0.033664 0.000148 0.002731
# 5 0.001533 -0.002867 0.000469 0.000148 0.044571 0.004562
# 6 -0.008814 0.010162 -0.012402 0.002731 0.004562 0.040358
#
#
# Mechanical properties :
#
#
# Convention : Reuss Voigt Hill
#
# Bulk Modulus (GPa) = 43.48270 71.73724 57.60997
# Shear Modulus (GPa) = 21.53983 30.00202 25.77093
#
# Velocity S-wave (km/s) = 3.25306 3.83925 3.55825
# Velocity P-wave (km/s) = 5.95589 7.40927 6.72198
#
# Compressibility (1/GPa) = 0.02299765
#
# Stress axis : x y z
#
# Youngs Moduli (GPa) = 95.67695 55.72305 27.75003
#
# Poissons Ratio (x) = 0.33130 0.02449
# Poissons Ratio (y) = 0.56885 0.38545
# Poissons Ratio (z) = 0.08444 0.77399
#
# Static dielectric constant tensor:
#      x y z
#    x 1.703710 0.010710 0.002290 
#    y 0.010710 1.737720 0.031660 
#    z 0.002290 0.031660 1.723470 
# 
# From -- ./inp_files/259262.got.cif
#   From: 2010.05.17/outbox.cif.g08.bks.cpg/sg2_130_cif.got.tgz:259262.got - 2010.06.03 11:33:40.
