data_PCOD9103270
_publ_section_title
;
Structure prediction by ZEFSAII (Michael W. Deem and Ramdas Pophale) SiO2 
 PCOD9103270
Probable space group: P -1
;
_chemical_formula_sum "Si O2"
_cell_formula_units_Z 16
_cell_length_a 5.563176
_cell_length_b 16.923752
_cell_length_c 12.768544
_cell_angle_alpha 144.075212
_cell_angle_beta 74.060453
_cell_angle_gamma 106.609711
_cell_volume 673.908720
_symmetry_space_group_name_H-M "P -1"
_symmetry_group_IT_number 2
_symmetry_cell_setting 'triclinic'
loop_
_space_group_symop_operation_xyz
x,y,z
-x,-y,-z
loop_
_atom_site_type_symbol
_atom_site_label
_atom_site_fract_x
_atom_site_fract_y
_atom_site_fract_z
Si Si1 0.232948 0.179659 0.065198
Si Si2 0.274319 0.582834 0.083759
Si Si3 0.070456 0.480561 0.652019
Si Si4 0.788667 0.348894 0.370203
Si Si5 0.281255 0.718871 0.014132
Si Si6 0.597705 0.090727 0.207660
Si Si7 0.095587 0.767837 0.480542
Si Si8 0.913420 0.030230 0.758061
O O1 0.494633 0.252449 0.066716
O O2 0.050763 0.279814 0.245958
O O3 0.096049 0.117747 0.909965
O O4 0.269819 0.043061 0.979671
O O5 0.237559 0.679292 0.289794
O O6 0.500000 0.500000 0.000000
O O7 0.360828 0.663911 0.055469
O O8 0.000000 0.500000 0.000000
O O9 0.240484 0.547661 0.608831
O O10 0.079053 0.603116 0.863837
O O11 0.816768 0.432742 0.565197
O O12 0.115678 0.343394 0.560673
O O13 0.599725 0.213712 0.258018
O O14 0.172199 0.861475 0.195635
O O15 0.744372 0.160900 0.366099
O O16 0.324785 0.030601 0.210865
O O17 0.014063 0.894092 0.561077
#
# Coordination Sequence:
#
# PCOD9103270 Si02
#       8
#     2   2   2   2   2   2   2   2
#     4  10  21  39  64  95 138 183 233 295 349 420
#     4  12  29  48  79 113 144 188 236 298 373 437
#     4  10  21  41  61 100 135 182 231 294 350 425
#     4  10  20  38  65  94 142 183 242 286 355 424
#     4  11  24  44  71 101 139 185 237 296 365 423
#     4   9  21  40  64  97 133 186 232 297 349 423
#     4  10  23  45  69 101 140 181 235 295 362 424
#     4  10  22  44  68  95 143 182 235 297 354 420
#
# _framework density 23.742087000000001
#
# number of rings (size 3 to 8) (size 9 to 14) (size 15 to 20)
#    0.000    1.750    2.500    0.375    5.250    1.500 
#   11.250    5.625    0.000    0.000    0.000    0.000 
#    0.000    0.000    0.000    0.000    0.000    0.000 
#
# Total GULP energy -89339.331040 kJ/mol
# GULP energy per Si atom -5583.708190 kJ/mol
# Density = 2.368805 g / cm^3
# Si number density = 23.742087 Si / 1000 Ang^3
#
#
#
# Elastic Constant Matrix: (Units=GPa)
#
#
# Indices 1 2 3 4 5 6 
#
# 1 68.1813 24.3754 63.5432 14.5624 2.9695 7.0328
# 2 24.3754 112.1592 64.0651 20.3461 19.2297 -22.2251
# 3 63.5432 64.0651 167.9294 20.3984 -8.3635 -6.9982
# 4 14.5624 20.3461 20.3984 36.1288 10.5553 -1.1606
# 5 2.9695 19.2297 -8.3635 10.5553 28.9324 6.3297
# 6 7.0328 -22.2251 -6.9982 -1.1606 6.3297 30.5171
#
#
#
# Elastic Compliance Matrix: (Units=1/GPa)
#
#
# Indices 1 2 3 4 5 6 
#
# 1 0.025400 -0.001087 -0.009058 -0.004512 -0.000954 -0.008696
# 2 -0.001087 0.020155 -0.007431 -0.000630 -0.018951 0.017132
# 3 -0.009058 -0.007431 0.013017 -0.002905 0.011303 -0.002794
# 4 -0.004512 -0.000630 -0.002905 0.035682 -0.013884 0.004152
# 5 -0.000954 -0.018951 0.011303 -0.013884 0.060871 -0.024143
# 6 -0.008696 0.017132 -0.002794 0.004152 -0.024143 0.051774
#
#
# Mechanical properties :
#
#
# Convention : Reuss Voigt Hill
#
# Bulk Modulus (GPa) = 42.70155 72.47082 57.58618
# Shear Modulus (GPa) = 20.01143 32.20141 26.10642
#
# Velocity S-wave (km/s) = 2.90637 3.68679 3.31959
# Velocity P-wave (km/s) = 5.41177 6.97952 6.24504
#
# Compressibility (1/GPa) = 0.02341835
#
# Stress axis : x y z
#
# Youngs Moduli (GPa) = 39.37066 49.61601 76.82410
#
# Poissons Ratio (x) = 0.05394 0.69588
# Poissons Ratio (y) = 0.04280 0.57089
# Poissons Ratio (z) = 0.35662 0.36870
#
# Static dielectric constant tensor:
#      x y z
#    x 1.970980 -0.028030 -0.044500 
#    y -0.028030 1.920050 0.042010 
#    z -0.044500 0.042010 1.893760 
# 
# From -- ./inp_files/485302.got.cif
#   From: 2010.05.17/outbox.cif.g08.bks.cpg/sg2_243_cif.got.tgz:485302.got - 2010.06.03 11:33:40.
