data_PCOD9103267
_publ_section_title
;
Structure prediction by ZEFSAII (Michael W. Deem and Ramdas Pophale) SiO2 
 PCOD9103267
Probable space group: P -1
;
_chemical_formula_sum "Si O2"
_cell_formula_units_Z 16
_cell_length_a 6.661682
_cell_length_b 22.245442
_cell_length_c 12.316118
_cell_angle_alpha 147.748872
_cell_angle_beta 137.514487
_cell_angle_gamma 49.452275
_cell_volume 656.046277
_symmetry_space_group_name_H-M "P -1"
_symmetry_group_IT_number 2
_symmetry_cell_setting 'triclinic'
loop_
_space_group_symop_operation_xyz
x,y,z
-x,-y,-z
loop_
_atom_site_type_symbol
_atom_site_label
_atom_site_fract_x
_atom_site_fract_y
_atom_site_fract_z
Si Si1 0.560569 0.845611 0.735697
Si Si2 0.715722 0.966586 0.208045
Si Si3 0.494316 0.323287 0.373095
Si Si4 0.084329 0.573201 0.747632
Si Si5 0.764974 0.154560 0.048423
Si Si6 0.625894 0.117161 0.695330
Si Si7 0.724835 0.666082 0.148892
Si Si8 0.914370 0.499135 0.797409
O O1 0.493089 0.722863 0.568565
O O2 0.877449 0.864555 0.835351
O O3 0.311397 0.903558 0.645378
O O4 0.595094 0.906858 0.959720
O O5 0.055743 0.917824 0.289719
O O6 0.463580 0.939835 0.153866
O O7 0.689055 0.251796 0.253835
O O8 0.592513 0.449326 0.591688
O O9 0.158256 0.320799 0.193695
O O10 0.000000 0.500000 0.500000
O O11 0.038184 0.509859 0.744237
O O12 0.407825 0.614299 0.938757
O O13 0.696986 0.179049 0.932458
O O14 0.366636 0.201426 0.668100
O O15 0.500000 0.000000 0.500000
O O16 0.900837 0.599297 0.212848
O O17 0.894782 0.618533 0.035384
#
# Coordination Sequence:
#
# PCOD9103267 Si02
#       8
#     2   2   2   2   2   2   2   2
#     4   9  19  35  61  94 133 164 216 285 342 399
#     4   9  19  38  60  92 128 172 229 274 335 405
#     4  11  23  38  69 104 132 176 234 286 356 423
#     4  12  24  42  72 104 139 180 236 295 351 424
#     4  10  20  38  65  94 135 178 229 292 340 409
#     4  11  25  42  67  94 136 189 233 281 344 419
#     4  11  25  48  68  99 148 184 233 291 353 420
#     4  11  26  44  71 104 140 187 230 289 363 419
#
# _framework density 24.388524
#
# number of rings (size 3 to 8) (size 9 to 14) (size 15 to 20)
#    0.000    1.500    1.250    4.125    5.250    1.500 
#    0.000    0.000    0.000    0.000    0.000    0.000 
#    0.000    0.000    0.000    0.000    0.000    0.000 
#
# Total GULP energy -89356.494672 kJ/mol
# GULP energy per Si atom -5584.780917 kJ/mol
# Density = 2.433301 g / cm^3
# Si number density = 24.388524 Si / 1000 Ang^3
#
#
#
# Elastic Constant Matrix: (Units=GPa)
#
#
# Indices 1 2 3 4 5 6 
#
# 1 134.0845 35.8735 19.0365 -3.5078 -9.5549 5.4419
# 2 35.8735 66.7269 -2.9726 -5.7478 -19.0362 -9.6369
# 3 19.0365 -2.9726 52.1846 4.7858 4.6827 4.9401
# 4 -3.5078 -5.7478 4.7858 28.2403 4.5492 6.5944
# 5 -9.5549 -19.0362 4.6827 4.5492 22.5245 0.3054
# 6 5.4419 -9.6369 4.9401 6.5944 0.3054 34.6925
#
#
#
# Elastic Compliance Matrix: (Units=1/GPa)
#
#
# Indices 1 2 3 4 5 6 
#
# 1 0.009640 -0.005693 -0.003680 0.001353 -0.000192 -0.002825
# 2 -0.005693 0.024197 0.001211 -0.000582 0.017800 0.007396
# 3 -0.003680 0.001211 0.021370 -0.002757 -0.004402 -0.001567
# 4 0.001353 -0.000582 -0.002757 0.038769 -0.007076 -0.007288
# 5 -0.000192 0.017800 -0.004402 -0.007076 0.061616 0.006404
# 6 -0.002825 0.007396 -0.001567 -0.007288 0.006404 0.032874
#
#
# Mechanical properties :
#
#
# Convention : Reuss Voigt Hill
#
# Bulk Modulus (GPa) = 25.71791 39.65232 32.68511
# Shear Modulus (GPa) = 22.96188 30.49534 26.72861
#
# Velocity S-wave (km/s) = 3.07172 3.53993 3.31411
# Velocity P-wave (km/s) = 4.81130 5.74474 5.29862
#
# Compressibility (1/GPa) = 0.03888342
#
# Stress axis : x y z
#
# Youngs Moduli (GPa) = 103.73545 41.32730 46.79352
#
# Poissons Ratio (x) = 0.23526 0.17221
# Poissons Ratio (y) = 0.59053 -0.05666
# Poissons Ratio (z) = 0.38178 -0.05004
#
# Static dielectric constant tensor:
#      x y z
#    x 2.082040 -0.101750 -0.042530 
#    y -0.101750 2.098740 0.090630 
#    z -0.042530 0.090630 1.993910 
# 
# From -- ./inp_files/370478.got.cif
#   From: 2010.05.17/outbox.cif.g08.bks.cpg/sg2_186_cif.got.tgz:370478.got - 2010.06.03 11:33:40.
