data_PCOD9103048
_publ_section_title
;
Structure prediction by ZEFSAII (Michael W. Deem and Ramdas Pophale) SiO2 
 PCOD9103048
Probable space group: P -1
;
_chemical_formula_sum "Si O2"
_cell_formula_units_Z 14
_cell_length_a 21.744244
_cell_length_b 12.224749
_cell_length_c 6.714343
_cell_angle_alpha 48.168315
_cell_angle_beta 55.822097
_cell_angle_gamma 25.886443
_cell_volume 576.573464
_symmetry_space_group_name_H-M "P -1"
_symmetry_group_IT_number 2
_symmetry_cell_setting 'triclinic'
loop_
_space_group_symop_operation_xyz
x,y,z
-x,-y,-z
loop_
_atom_site_type_symbol
_atom_site_label
_atom_site_fract_x
_atom_site_fract_y
_atom_site_fract_z
Si Si1 0.598770 0.979142 0.140419
Si Si2 0.498514 0.611326 0.680884
Si Si3 0.694109 0.122173 0.617192
Si Si4 0.055438 0.242520 0.175012
Si Si5 0.282474 0.426397 0.240905
Si Si6 0.184636 0.542023 0.863704
Si Si7 0.765718 0.281920 0.697393
O O1 0.663475 0.795902 0.444035
O O2 0.661940 0.775883 0.094300
O O3 0.428872 0.256655 0.107141
O O4 0.662975 0.032529 0.922267
O O5 0.592197 0.412035 0.556888
O O6 0.346407 0.862805 0.548337
O O7 0.593979 0.581612 0.627680
O O8 0.500000 0.500000 0.000000
O O9 0.849720 0.929068 0.588724
O O10 0.923740 0.371033 0.176631
O O11 0.174579 0.982972 0.112875
O O12 0.000000 0.500000 0.000000
O O13 0.200261 0.686137 0.205442
O O14 0.185063 0.534232 0.108568
O O15 0.170577 0.731790 0.583217
#
# Coordination Sequence:
#
# PCOD9103048 Si02
#       7
#     2   2   2   2   2   2   2
#     4  10  20  38  64  97 132 166 213 275 326 388
#     4  10  21  38  64  97 124 163 209 270 330 381
#     4  10  21  39  63  89 131 164 212 263 323 380
#     4  11  23  44  65  94 131 182 222 257 323 397
#     4  10  22  38  64 100 129 164 220 274 327 380
#     4  11  22  41  67  92 131 178 217 266 323 387
#     4  10  23  41  68  95 130 167 220 276 325 385
#
# _framework density 24.281383000000002
#
# number of rings (size 3 to 8) (size 9 to 14) (size 15 to 20)
#    0.000    1.714    1.429    2.571    0.000    6.286 
#    0.000    6.429    0.000    0.000    0.000    0.000 
#    0.000    0.000    0.000    0.000    0.000    0.000 
#
# Total GULP energy -77983.626405 kJ/mol
# GULP energy per Si atom -5570.259029 kJ/mol
# Density = 2.422612 g / cm^3
# Si number density = 24.281383 Si / 1000 Ang^3
#
#
#
# Elastic Constant Matrix: (Units=GPa)
#
#
# Indices 1 2 3 4 5 6 
#
# 1 163.7412 21.3176 68.1605 -8.8538 14.7267 -10.8123
# 2 21.3176 63.2792 11.4978 -13.4248 11.0648 11.3274
# 3 68.1605 11.4978 89.9273 5.3189 18.6183 -6.0847
# 4 -8.8538 -13.4248 5.3189 13.8818 -0.7219 -1.1153
# 5 14.7267 11.0648 18.6183 -0.7219 33.4158 -11.2917
# 6 -10.8123 11.3274 -6.0847 -1.1153 -11.2917 45.0767
#
#
#
# Elastic Compliance Matrix: (Units=1/GPa)
#
#
# Indices 1 2 3 4 5 6 
#
# 1 0.010161 -0.000469 -0.008310 0.009430 0.001173 0.001961
# 2 -0.000469 0.024393 -0.002937 0.023317 -0.008498 -0.008191
# 3 -0.008310 -0.002937 0.020205 -0.016318 -0.007226 -0.000742
# 4 0.009430 0.023317 -0.016318 0.106476 -0.001698 -0.003591
# 5 0.001173 -0.008498 -0.007226 -0.001698 0.040078 0.011439
# 6 0.001961 -0.008191 -0.000742 -0.003591 0.011439 0.027389
#
#
# Mechanical properties :
#
#
# Convention : Reuss Voigt Hill
#
# Bulk Modulus (GPa) = 31.92060 57.65550 44.78805
# Shear Modulus (GPa) = 19.04205 32.87297 25.95751
#
# Velocity S-wave (km/s) = 2.80344 3.68344 3.27315
# Velocity P-wave (km/s) = 4.86351 6.47199 5.72452
#
# Compressibility (1/GPa) = 0.03132773
#
# Stress axis : x y z
#
# Youngs Moduli (GPa) = 98.41390 40.99468 49.49259
#
# Poissons Ratio (x) = 0.01922 0.41127
# Poissons Ratio (y) = 0.04614 0.14538
# Poissons Ratio (z) = 0.81779 0.12042
#
# Static dielectric constant tensor:
#      x y z
#    x 2.055160 -0.068360 0.016510 
#    y -0.068360 2.065050 -0.075020 
#    z 0.016510 -0.075020 1.968920 
# 
# From -- ./inp_files/118522.got.cif
#   From: 2010.05.17/outbox.cif.g08.bks.cpg/sg2_60_cif.got.tgz:118522.got - 2010.06.03 11:33:40.
