data_PCOD9103705
_publ_section_title
;
Structure prediction by ZEFSAII (Michael W. Deem and Ramdas Pophale) SiO2 
 PCOD9103705
Probable space group: P -1
;
_chemical_formula_sum "Si O2"
_cell_formula_units_Z 15
_cell_length_a 14.426886
_cell_length_b 6.997330
_cell_length_c 7.126327
_cell_angle_alpha 95.857963
_cell_angle_beta 124.078494
_cell_angle_gamma 109.390313
_cell_volume 522.453671
_symmetry_space_group_name_H-M "P -1"
_symmetry_group_IT_number 2
_symmetry_cell_setting 'triclinic'
loop_
_space_group_symop_operation_xyz
x,y,z
-x,-y,-z
loop_
_atom_site_type_symbol
_atom_site_label
_atom_site_fract_x
_atom_site_fract_y
_atom_site_fract_z
Si Si1 0.000000 0.500000 0.000000
Si Si2 0.653575 0.309809 0.098578
Si Si3 0.322577 0.341386 0.101172
Si Si4 0.630256 0.896730 0.383273
Si Si5 0.217075 0.737576 0.111494
Si Si6 0.893536 0.125963 0.551845
Si Si7 0.943022 0.078586 0.187498
Si Si8 0.406840 0.575536 0.584699
O O1 0.070116 0.651147 0.284316
O O2 0.859703 0.495290 0.903332
O O3 0.689995 0.554207 0.095160
O O4 0.507329 0.160155 0.856089
O O5 0.741275 0.256053 0.054096
O O6 0.653513 0.329360 0.324573
O O7 0.370298 0.546575 0.322045
O O8 0.440393 0.291020 0.216403
O O9 0.193244 0.136827 0.991038
O O10 0.622588 0.669415 0.418496
O O11 0.741454 0.993946 0.365447
O O12 0.679343 0.067951 0.629092
O O13 0.082328 0.762000 0.964572
O O14 0.956339 0.165106 0.423383
O O15 0.945721 0.984253 0.716301
#
# Coordination Sequence:
#
# PCOD9103705 Si02
#       8
#     1   2   2   2   2   2   2   2
#     4  10  24  44  62  94 126 168 220 272 328 378
#     4  11  22  40  66  99 136 170 210 273 327 390
#     4  10  20  39  68  96 132 168 223 269 317 398
#     4  10  20  41  64  93 129 171 210 267 328 389
#     4  11  24  43  63  92 133 172 217 267 333 390
#     4  10  23  42  68  93 127 170 218 275 326 380
#     4  11  22  43  67  93 127 173 220 264 322 402
#     4  10  20  38  67  98 129 174 218 263 330 385
#
# _framework density 28.710681000000001
#
# number of rings (size 3 to 8) (size 9 to 14) (size 15 to 20)
#    0.000    1.600    1.333    4.400    0.000    3.733 
#    9.600    1.333    0.000    0.000    0.000    0.000 
#    0.000    0.000    0.000    0.000    0.000    0.000 
#
# Total GULP energy -83967.698477 kJ/mol
# GULP energy per Si atom -5597.846565 kJ/mol
# Density = 2.864533 g / cm^3
# Si number density = 28.710681 Si / 1000 Ang^3
#
#
#
# Elastic Constant Matrix: (Units=GPa)
#
#
# Indices 1 2 3 4 5 6 
#
# 1 210.7794 26.4837 64.7018 8.1004 -10.6063 -4.0846
# 2 26.4837 92.5191 31.6504 10.6999 -4.2351 13.7537
# 3 64.7018 31.6504 127.0985 17.6500 -11.9191 4.4046
# 4 8.1004 10.6999 17.6500 49.8725 8.2824 6.2025
# 5 -10.6063 -4.2351 -11.9191 8.2824 67.1146 0.7162
# 6 -4.0846 13.7537 4.4046 6.2025 0.7162 40.4022
#
#
#
# Elastic Compliance Matrix: (Units=1/GPa)
#
#
# Indices 1 2 3 4 5 6 
#
# 1 0.005724 -0.000871 -0.002706 0.000011 0.000355 0.001162
# 2 -0.000871 0.012615 -0.002336 -0.001324 0.000449 -0.003933
# 3 -0.002706 -0.002336 0.010403 -0.002991 0.001644 -0.000182
# 4 0.000011 -0.001324 -0.002991 0.022267 -0.003333 -0.002581
# 5 0.000355 0.000449 0.001644 -0.003333 0.015688 -0.000062
# 6 0.001162 -0.003933 -0.000182 -0.002581 -0.000062 0.026625
#
#
# Mechanical properties :
#
#
# Convention : Reuss Voigt Hill
#
# Bulk Modulus (GPa) = 59.11040 75.11876 67.11458
# Shear Modulus (GPa) = 45.13220 51.98194 48.55707
#
# Velocity S-wave (km/s) = 3.96910 4.25966 4.11695
# Velocity P-wave (km/s) = 6.45275 7.10027 6.78424
#
# Compressibility (1/GPa) = 0.01691750
#
# Stress axis : x y z
#
# Youngs Moduli (GPa) = 174.69623 79.26939 96.12761
#
# Poissons Ratio (x) = 0.06902 0.26009
# Poissons Ratio (y) = 0.15211 0.22455
# Poissons Ratio (z) = 0.47267 0.18517
#
# Static dielectric constant tensor:
#      x y z
#    x 2.325170 0.024480 0.094680 
#    y 0.024480 2.527310 -0.037920 
#    z 0.094680 -0.037920 2.214840 
# 
# From -- ./inp_files/299586.got.cif
#   From: 2010.05.17/outbox.cif.g08.bks.cpg/sg2_150_cif.got.tgz:299586.got - 2010.06.03 11:33:40.
