data_PCOD9103574
_publ_section_title
;
Structure prediction by ZEFSAII (Michael W. Deem and Ramdas Pophale) SiO2 
 PCOD9103574
Probable space group: P -1
;
_chemical_formula_sum "Si O2"
_cell_formula_units_Z 14
_cell_length_a 14.451327
_cell_length_b 7.946800
_cell_length_c 8.927294
_cell_angle_alpha 33.342027
_cell_angle_beta 69.067596
_cell_angle_gamma 63.804563
_cell_volume 505.488229
_symmetry_space_group_name_H-M "P -1"
_symmetry_group_IT_number 2
_symmetry_cell_setting 'triclinic'
loop_
_space_group_symop_operation_xyz
x,y,z
-x,-y,-z
loop_
_atom_site_type_symbol
_atom_site_label
_atom_site_fract_x
_atom_site_fract_y
_atom_site_fract_z
Si Si1 0.881588 0.441739 0.953723
Si Si2 0.186587 0.815991 0.127007
Si Si3 0.411322 0.810183 0.699678
Si Si4 0.539545 0.099647 0.089228
Si Si5 0.768164 0.109886 0.478177
Si Si6 0.935558 0.494478 0.387054
Si Si7 0.633213 0.415373 0.589525
O O1 0.840732 0.339430 0.894742
O O2 0.989844 0.499612 0.800037
O O3 0.810055 0.785635 0.784830
O O4 0.859792 0.203777 0.267777
O O5 0.108135 0.796563 0.325196
O O6 0.290356 0.600913 0.303327
O O7 0.158176 0.187724 0.822650
O O8 0.450936 0.429749 0.922689
O O9 0.313601 0.946836 0.552513
O O10 0.500000 0.000000 0.500000
O O11 0.382815 0.854971 0.856567
O O12 0.587247 0.126728 0.879230
O O13 0.541077 0.738263 0.389813
O O14 0.700560 0.367596 0.438201
O O15 0.000000 0.500000 0.500000
#
# Coordination Sequence:
#
# PCOD9103574 Si02
#       7
#     2   2   2   2   2   2   2
#     4  11  22  42  65  95 127 173 221 271 322 380
#     4  11  21  39  69  94 132 169 225 269 323 383
#     4  11  25  46  71 101 123 168 227 278 325 384
#     4  11  24  44  70  91 134 165 225 266 331 385
#     4  12  27  41  65  95 138 171 219 267 328 395
#     4  10  20  38  67 101 126 167 223 280 316 373
#     4  12  25  44  62 100 135 180 210 262 335 395
#
# _framework density 27.695993999999999
#
# number of rings (size 3 to 8) (size 9 to 14) (size 15 to 20)
#    0.000    0.857    1.429    7.714    4.000    1.143 
#    0.000    4.286    0.000    0.000    0.000    0.000 
#    0.000    0.000    0.000    0.000    0.000    0.000 
#
# Total GULP energy -78255.502431 kJ/mol
# GULP energy per Si atom -5589.678745 kJ/mol
# Density = 2.763296 g / cm^3
# Si number density = 27.695994 Si / 1000 Ang^3
#
#
#
# Elastic Constant Matrix: (Units=GPa)
#
#
# Indices 1 2 3 4 5 6 
#
# 1 60.5377 2.5328 30.2668 6.4578 0.5554 4.8363
# 2 2.5328 91.3618 37.0392 11.8376 -2.3602 -8.3140
# 3 30.2668 37.0392 191.0891 -6.7324 -18.3918 -14.6663
# 4 6.4578 11.8376 -6.7324 61.2537 -12.9299 3.0759
# 5 0.5554 -2.3602 -18.3918 -12.9299 49.3080 7.5374
# 6 4.8363 -8.3140 -14.6663 3.0759 7.5374 30.5893
#
#
#
# Elastic Compliance Matrix: (Units=1/GPa)
#
#
# Indices 1 2 3 4 5 6 
#
# 1 0.018968 0.000958 -0.003746 -0.002763 -0.001703 -0.003837
# 2 0.000958 0.012641 -0.002671 -0.003334 -0.001698 0.002757
# 3 -0.003746 -0.002671 0.006851 0.002115 0.002676 0.002279
# 4 -0.002763 -0.003334 0.002115 0.018915 0.006056 -0.002850
# 5 -0.001703 -0.001698 0.002676 0.006056 0.023621 -0.005339
# 6 -0.003837 0.002757 0.002279 -0.002850 -0.005339 0.036742
#
#
# Mechanical properties :
#
#
# Convention : Reuss Voigt Hill
#
# Bulk Modulus (GPa) = 36.30859 53.62957 44.96908
# Shear Modulus (GPa) = 36.27459 46.44019 41.35739
#
# Velocity S-wave (km/s) = 3.62296 4.09930 3.86847
# Velocity P-wave (km/s) = 5.53528 6.46617 6.01875
#
# Compressibility (1/GPa) = 0.02754169
#
# Stress axis : x y z
#
# Youngs Moduli (GPa) = 52.71964 79.10802 145.96011
#
# Poissons Ratio (x) = -0.07575 0.54674
# Poissons Ratio (y) = -0.05048 0.38988
# Poissons Ratio (z) = 0.19748 0.21131
#
# Static dielectric constant tensor:
#      x y z
#    x 2.322410 -0.014790 -0.059590 
#    y -0.014790 2.238280 0.039060 
#    z -0.059590 0.039060 2.064220 
# 
# From -- ./inp_files/218449.got.cif
#   From: 2010.05.17/outbox.cif.g08.bks.cpg/sg2_110_cif.got.tgz:218449.got - 2010.06.03 11:33:40.
