data_PCOD9103151
_publ_section_title
;
Structure prediction by ZEFSAII (Michael W. Deem and Ramdas Pophale) SiO2 
 PCOD9103151
Probable space group: P -1
;
_chemical_formula_sum "Si O2"
_cell_formula_units_Z 11
_cell_length_a 8.728522
_cell_length_b 7.877139
_cell_length_c 7.473390
_cell_angle_alpha 86.162386
_cell_angle_beta 55.839041
_cell_angle_gamma 88.470733
_cell_volume 424.192460
_symmetry_space_group_name_H-M "P -1"
_symmetry_group_IT_number 2
_symmetry_cell_setting 'triclinic'
loop_
_space_group_symop_operation_xyz
x,y,z
-x,-y,-z
loop_
_atom_site_type_symbol
_atom_site_label
_atom_site_fract_x
_atom_site_fract_y
_atom_site_fract_z
Si Si1 0.965140 0.151724 0.763658
Si Si2 0.588164 0.040384 0.160805
Si Si3 0.261517 0.877088 0.546228
Si Si4 0.957594 0.679933 0.930624
Si Si5 0.000000 0.500000 0.500000
Si Si6 0.356820 0.351244 0.140419
O O1 0.924696 0.329907 0.682183
O O2 0.122519 0.032405 0.585562
O O3 0.033120 0.193327 0.918404
O O4 0.774435 0.044173 0.920210
O O5 0.657455 0.096304 0.309170
O O6 0.463343 0.189328 0.153195
O O7 0.441157 0.885345 0.301841
O O8 0.117113 0.718312 0.673287
O O9 0.766007 0.678696 0.954180
O O10 0.000000 0.500000 0.000000
O O11 0.205211 0.416309 0.374777
O O12 0.500000 0.500000 0.000000
#
# Coordination Sequence:
#
# PCOD9103151 Si02
#       6
#     2   2   2   2   1   2
#     4  11  22  44  67  94 132 169 208 261 319 383
#     4  10  20  38  65  90 125 168 210 254 315 374
#     4  10  22  41  68  93 127 173 206 261 323 377
#     4  11  22  41  66  95 128 166 216 261 318 377
#     4  12  22  40  68  92 130 174 206 258 328 368
#     4  12  23  42  64  93 130 170 213 266 313 374
#
# _framework density 25.931623999999999
#
# number of rings (size 3 to 8) (size 9 to 14) (size 15 to 20)
#    0.000    1.091    5.455    3.273    0.000    0.727 
#    0.000   11.818    0.000    0.000    0.000    0.000 
#    0.000    0.000    0.000    0.000    0.000    0.000 
#
# Total GULP energy -61413.959216 kJ/mol
# GULP energy per Si atom -5583.087201 kJ/mol
# Density = 2.587260 g / cm^3
# Si number density = 25.931624 Si / 1000 Ang^3
#
#
#
# Elastic Constant Matrix: (Units=GPa)
#
#
# Indices 1 2 3 4 5 6 
#
# 1 185.1760 42.9693 53.1069 -11.2497 -8.1637 -15.5692
# 2 42.9693 118.9582 37.9221 -33.7381 -8.4770 -26.6238
# 3 53.1069 37.9221 164.1809 -21.3600 -49.5155 11.7859
# 4 -11.2497 -33.7381 -21.3600 59.3964 3.1177 -1.5196
# 5 -8.1637 -8.4770 -49.5155 3.1177 67.7252 -5.0352
# 6 -15.5692 -26.6238 11.7859 -1.5196 -5.0352 39.3010
#
#
#
# Elastic Compliance Matrix: (Units=1/GPa)
#
#
# Indices 1 2 3 4 5 6 
#
# 1 0.006475 -0.001212 -0.002256 -0.000170 -0.000841 0.002306
# 2 -0.001212 0.013895 -0.002590 0.006981 0.000121 0.009995
# 3 -0.002256 -0.002590 0.009762 0.001168 0.006134 -0.004745
# 4 -0.000170 0.006981 0.001168 0.021266 0.001121 0.005277
# 5 -0.000841 0.000121 0.006134 0.001121 0.019143 0.000405
# 6 0.002306 0.009995 -0.004745 0.005277 0.000405 0.034808
#
#
# Mechanical properties :
#
#
# Convention : Reuss Voigt Hill
#
# Bulk Modulus (GPa) = 55.50647 81.81241 68.65944
# Shear Modulus (GPa) = 40.49578 55.57231 48.03405
#
# Velocity S-wave (km/s) = 3.95604 4.63431 4.30854
# Velocity P-wave (km/s) = 6.50526 7.76232 7.16142
#
# Compressibility (1/GPa) = 0.01801592
#
# Stress axis : x y z
#
# Youngs Moduli (GPa) = 154.44214 71.96647 102.44309
#
# Poissons Ratio (x) = 0.08720 0.23111
# Poissons Ratio (y) = 0.18712 0.26536
# Poissons Ratio (z) = 0.34842 0.18642
#
# Static dielectric constant tensor:
#      x y z
#    x 2.009750 0.142750 0.021590 
#    y 0.142750 2.120740 0.040480 
#    z 0.021590 0.040480 2.048830 
# 
# From -- ./inp_files/149037.got.cif
#   From: 2010.05.17/outbox.cif.g08.bks.cpg/sg2_75_cif.got.tgz:149037.got - 2010.06.03 11:33:40.
