data_PCOD9103620
_publ_section_title
;
Structure prediction by ZEFSAII (Michael W. Deem and Ramdas Pophale) SiO2 
 PCOD9103620
Probable space group: P -1
;
_chemical_formula_sum "Si O2"
_cell_formula_units_Z 14
_cell_length_a 11.911739
_cell_length_b 5.311146
_cell_length_c 13.832694
_cell_angle_alpha 43.793113
_cell_angle_beta 74.694265
_cell_angle_gamma 72.740871
_cell_volume 576.721306
_symmetry_space_group_name_H-M "P -1"
_symmetry_group_IT_number 2
_symmetry_cell_setting 'triclinic'
loop_
_space_group_symop_operation_xyz
x,y,z
-x,-y,-z
loop_
_atom_site_type_symbol
_atom_site_label
_atom_site_fract_x
_atom_site_fract_y
_atom_site_fract_z
Si Si1 0.897279 0.773223 0.108102
Si Si2 0.451092 0.129732 0.080022
Si Si3 0.194534 0.064953 0.427120
Si Si4 0.965700 0.493977 0.374620
Si Si5 0.743022 0.974205 0.376103
Si Si6 0.406800 0.680333 0.391326
Si Si7 0.758160 0.413163 0.081412
O O1 0.946348 0.518953 0.257246
O O2 0.856075 0.576266 0.077662
O O3 0.795564 0.076379 0.093114
O O4 0.000000 0.000000 0.000000
O O5 0.466855 0.811819 0.245635
O O6 0.500000 0.500000 0.000000
O O7 0.313212 0.260498 0.053686
O O8 0.500000 0.000000 0.000000
O O9 0.245665 0.846729 0.572493
O O10 0.106844 0.437445 0.372906
O O11 0.095240 0.835889 0.474987
O O12 0.311255 0.039186 0.345012
O O13 0.875901 0.833673 0.345275
O O14 0.674417 0.639344 0.510010
O O15 0.685492 0.242580 0.230798
O O16 0.500000 0.500000 0.500000
#
# Coordination Sequence:
#
# PCOD9103620 Si02
#       7
#     2   2   2   2   2   2   2
#     4  11  23  40  66 101 142 187 228 283 345 439
#     4  12  29  50  74 103 144 188 238 302 363 427
#     4  10  20  38  67  90 138 169 231 282 345 407
#     4   9  20  37  59 101 132 175 223 279 347 406
#     4  10  21  40  70  98 132 184 228 292 345 425
#     4  11  27  44  69 103 132 183 243 296 351 419
#     4  11  24  45  70  99 142 186 234 284 367 409
#
# _framework density 24.275158999999999
#
# number of rings (size 3 to 8) (size 9 to 14) (size 15 to 20)
#    0.000    1.429    1.429    2.571    6.000    1.714 
#    0.000    0.000    0.000    0.000    0.000    0.000 
#    0.000    0.000    0.000    0.000    0.000    0.000 
#
# Total GULP energy -78064.538950 kJ/mol
# GULP energy per Si atom -5576.038496 kJ/mol
# Density = 2.421991 g / cm^3
# Si number density = 24.275159 Si / 1000 Ang^3
#
#
#
# Elastic Constant Matrix: (Units=GPa)
#
#
# Indices 1 2 3 4 5 6 
#
# 1 96.0541 32.4958 47.9092 0.2310 8.6486 -0.4994
# 2 32.4958 77.8842 27.5999 7.9443 -2.9990 -1.3063
# 3 47.9092 27.5999 144.4403 10.4679 3.8229 4.9074
# 4 0.2310 7.9443 10.4679 32.8585 0.9478 -3.5382
# 5 8.6486 -2.9990 3.8229 0.9478 44.1380 -7.4920
# 6 -0.4994 -1.3063 4.9074 -3.5382 -7.4920 39.2857
#
#
#
# Elastic Compliance Matrix: (Units=1/GPa)
#
#
# Indices 1 2 3 4 5 6 
#
# 1 0.014271 -0.004926 -0.003901 0.002435 -0.002814 0.000188
# 2 -0.004926 0.015776 -0.001224 -0.003376 0.002344 0.000758
# 3 -0.003901 -0.001224 0.008696 -0.002597 -0.000264 -0.001461
# 4 0.002435 -0.003376 -0.002597 0.032406 -0.000662 0.003035
# 5 -0.002814 0.002344 -0.000264 -0.000662 0.024190 0.004629
# 6 0.000188 0.000758 -0.001461 0.003035 0.004629 0.026821
#
#
# Mechanical properties :
#
#
# Convention : Reuss Voigt Hill
#
# Bulk Modulus (GPa) = 53.64150 59.37648 56.50899
# Shear Modulus (GPa) = 33.67613 37.28136 35.47875
#
# Velocity S-wave (km/s) = 3.72864 3.92316 3.82714
# Velocity P-wave (km/s) = 6.37827 6.71077 6.54663
#
# Compressibility (1/GPa) = 0.01864228
#
# Stress axis : x y z
#
# Youngs Moduli (GPa) = 70.07115 63.38866 114.99863
#
# Poissons Ratio (x) = 0.31223 0.44858
# Poissons Ratio (y) = 0.34514 0.14074
# Poissons Ratio (z) = 0.27333 0.07758
#
# Static dielectric constant tensor:
#      x y z
#    x 2.028060 -0.048270 0.003020 
#    y -0.048270 1.564220 0.443660 
#    z 0.003020 0.443660 1.562800 
# 
# From -- ./inp_files/119340.got.cif
#   From: 2010.05.17/outbox.cif.g08.bks.cpg/sg2_60_cif.got.tgz:119340.got - 2010.06.03 11:33:40.
