data_PCOD9103696
_publ_section_title
;
Structure prediction by ZEFSAII (Michael W. Deem and Ramdas Pophale) SiO2 
 PCOD9103696
Probable space group: P -1
;
_chemical_formula_sum "Si O2"
_cell_formula_units_Z 16
_cell_length_a 20.508494
_cell_length_b 23.423804
_cell_length_c 9.303313
_cell_angle_alpha 147.685813
_cell_angle_beta 146.526691
_cell_angle_gamma 17.472103
_cell_volume 706.290208
_symmetry_space_group_name_H-M "P -1"
_symmetry_group_IT_number 2
_symmetry_cell_setting 'triclinic'
loop_
_space_group_symop_operation_xyz
x,y,z
-x,-y,-z
loop_
_atom_site_type_symbol
_atom_site_label
_atom_site_fract_x
_atom_site_fract_y
_atom_site_fract_z
Si Si1 0.626487 0.667937 0.094231
Si Si2 0.003362 0.760307 0.015269
Si Si3 0.599360 0.916629 0.664341
Si Si4 0.139166 0.041611 0.098770
Si Si5 0.099632 0.168499 0.596662
Si Si6 0.626474 0.623242 0.668111
Si Si7 0.864858 0.042291 0.550463
Si Si8 0.750074 0.732342 0.002763
O O1 0.685818 0.729044 0.424186
O O2 0.778567 0.457347 0.982888
O O3 0.651918 0.659503 0.950231
O O4 0.370787 0.841429 0.022330
O O5 0.798959 0.847910 0.888423
O O6 0.983051 0.778413 0.844421
O O7 0.974473 0.904363 0.318820
O O8 0.500000 0.000000 0.500000
O O9 0.401203 0.094281 0.786201
O O10 0.990603 0.050036 0.851480
O O11 0.191678 0.047694 0.363569
O O12 0.842351 0.386725 0.553465
O O13 0.116290 0.068680 0.537369
O O14 0.211663 0.200172 0.896498
O O15 0.394103 0.740946 0.490037
O O16 0.628799 0.709986 0.729073
O O17 0.000000 0.500000 0.000000
#
# Coordination Sequence:
#
# PCOD9103696 Si02
#       8
#     2   2   2   2   2   2   2   2
#     4  12  24  42  71 102 132 176 221 275 335 397
#     4  12  25  43  71 101 132 177 224 273 335 396
#     4  12  19  42  70  97 137 169 215 278 330 394
#     4  12  26  45  69  97 134 174 231 282 320 390
#     4  11  25  45  66  97 136 174 218 279 338 395
#     4  11  23  43  69  98 138 173 216 275 339 400
#     4  12  25  44  69  97 131 182 226 272 335 392
#     4  10  20  38  67  97 128 173 211 265 340 392
#
# _framework density 22.653576999999999
#
# number of rings (size 3 to 8) (size 9 to 14) (size 15 to 20)
#    0.000    0.500    7.500    1.125    0.000    3.500 
#    0.000    0.000    0.000    0.000    0.000    0.000 
#    0.000    0.000    0.000    0.000    0.000    0.000 
#
# Total GULP energy -89395.398522 kJ/mol
# GULP energy per Si atom -5587.212408 kJ/mol
# Density = 2.260202 g / cm^3
# Si number density = 22.653577 Si / 1000 Ang^3
#
#
#
# Elastic Constant Matrix: (Units=GPa)
#
#
# Indices 1 2 3 4 5 6 
#
# 1 84.5793 16.5092 14.4930 4.6839 8.8711 15.4690
# 2 16.5092 91.6206 15.0169 8.4368 13.9833 2.8911
# 3 14.4930 15.0169 68.4858 -10.1160 21.6492 -6.0416
# 4 4.6839 8.4368 -10.1160 20.0591 -5.4567 -6.7741
# 5 8.8711 13.9833 21.6492 -5.4567 34.2741 -2.5753
# 6 15.4690 2.8911 -6.0416 -6.7741 -2.5753 28.2823
#
#
#
# Elastic Compliance Matrix: (Units=1/GPa)
#
#
# Indices 1 2 3 4 5 6 
#
# 1 0.016150 0.000014 -0.005115 -0.011822 -0.003822 -0.013107
# 2 0.000014 0.013397 -0.003194 -0.010454 -0.005497 -0.005064
# 3 -0.005115 -0.003194 0.022137 0.015110 -0.008144 0.010731
# 4 -0.011822 -0.010454 0.015110 0.078414 0.012571 0.030689
# 5 -0.003822 -0.005497 -0.008144 0.012571 0.040123 0.007577
# 6 -0.013107 -0.005064 0.010731 0.030689 0.007577 0.053377
#
#
# Mechanical properties :
#
#
# Convention : Reuss Voigt Hill
#
# Bulk Modulus (GPa) = 28.49484 37.41379 32.95431
# Shear Modulus (GPa) = 19.85027 29.76754 24.80891
#
# Velocity S-wave (km/s) = 2.96337 3.62889 3.31288
# Velocity P-wave (km/s) = 4.93098 5.84037 5.40484
#
# Compressibility (1/GPa) = 0.03509407
#
# Stress axis : x y z
#
# Youngs Moduli (GPa) = 61.92062 74.64409 45.17252
#
# Poissons Ratio (x) = -0.00103 0.23106
# Poissons Ratio (y) = -0.00086 0.14427
# Poissons Ratio (z) = 0.31673 0.23839
#
# Static dielectric constant tensor:
#      x y z
#    x 1.876040 0.018490 -0.010480 
#    y 0.018490 1.820360 -0.000780 
#    z -0.010480 -0.000780 1.890390 
# 
# From -- ./inp_files/307336.got.cif
#   From: 2010.05.17/outbox.cif.g08.bks.cpg/sg2_154_cif.got.tgz:307336.got - 2010.06.03 11:33:40.
