data_PCOD9103518
_publ_section_title
;
Structure prediction by ZEFSAII (Michael W. Deem and Ramdas Pophale) SiO2 
 PCOD9103518
Probable space group: P -1
;
_chemical_formula_sum "Si O2"
_cell_formula_units_Z 15
_cell_length_a 9.407990
_cell_length_b 13.769205
_cell_length_c 9.508292
_cell_angle_alpha 103.099637
_cell_angle_beta 133.710045
_cell_angle_gamma 109.596234
_cell_volume 620.271471
_symmetry_space_group_name_H-M "P -1"
_symmetry_group_IT_number 2
_symmetry_cell_setting 'triclinic'
loop_
_space_group_symop_operation_xyz
x,y,z
-x,-y,-z
loop_
_atom_site_type_symbol
_atom_site_label
_atom_site_fract_x
_atom_site_fract_y
_atom_site_fract_z
Si Si1 0.134844 0.276544 0.216364
Si Si2 0.147655 0.896664 0.639979
Si Si3 0.569853 0.806658 0.564779
Si Si4 0.567610 0.703917 0.027200
Si Si5 0.447276 0.827360 0.182945
Si Si6 0.440944 0.118738 0.127816
Si Si7 0.000000 0.500000 0.000000
Si Si8 0.583258 0.521427 0.795066
O O1 0.180099 0.175308 0.214223
O O2 0.299743 0.373778 0.497795
O O3 0.289269 0.372773 0.215330
O O4 0.835100 0.217103 0.991522
O O5 0.276148 0.832795 0.713285
O O6 0.852294 0.799159 0.338831
O O7 0.349936 0.033923 0.724655
O O8 0.197261 0.965509 0.846317
O O9 0.588907 0.854737 0.437138
O O10 0.546356 0.877506 0.695419
O O11 0.287358 0.642101 0.314723
O O12 0.384386 0.703581 0.011389
O O13 0.585051 0.782235 0.928282
O O14 0.518614 0.575833 0.893534
O O15 0.813054 0.517313 0.969035
#
# Coordination Sequence:
#
# PCOD9103518 Si02
#       8
#     2   2   2   2   2   2   1   2
#     4  10  22  40  62  95 126 159 210 264 306 375
#     4  10  24  43  62  91 132 168 210 262 310 378
#     4  11  22  38  65  93 125 167 210 261 311 374
#     4  11  23  44  66  91 126 175 206 257 317 376
#     4  11  24  40  61  96 135 156 213 268 306 360
#     4  10  21  40  65  89 120 176 210 248 318 374
#     4  10  20  38  66  96 124 162 210 258 312 378
#     4  10  20  41  68  90 124 168 209 251 317 380
#
# _framework density 24.182960000000001
#
# number of rings (size 3 to 8) (size 9 to 14) (size 15 to 20)
#    0.000    1.600    2.667    2.400    0.000    5.333 
#    0.000    7.333    0.000    0.000    0.000    0.000 
#    0.000    0.000    0.000    0.000    0.000    0.000 
#
# Total GULP energy -83678.097437 kJ/mol
# GULP energy per Si atom -5578.539829 kJ/mol
# Density = 2.412792 g / cm^3
# Si number density = 24.182960 Si / 1000 Ang^3
#
#
#
# Elastic Constant Matrix: (Units=GPa)
#
#
# Indices 1 2 3 4 5 6 
#
# 1 97.0318 25.1546 32.0803 -12.5214 -21.2165 -27.5246
# 2 25.1546 41.7849 15.3381 -13.9521 -5.8689 -7.8883
# 3 32.0803 15.3381 57.7667 -13.8194 0.5026 -3.6836
# 4 -12.5214 -13.9521 -13.8194 28.1588 -5.2075 -4.2765
# 5 -21.2165 -5.8689 0.5026 -5.2075 58.2428 -6.1276
# 6 -27.5246 -7.8883 -3.6836 -4.2765 -6.1276 38.9271
#
#
#
# Elastic Compliance Matrix: (Units=1/GPa)
#
#
# Indices 1 2 3 4 5 6 
#
# 1 0.021899 -0.002535 -0.008398 0.008821 0.010348 0.016774
# 2 -0.002535 0.034129 -0.003372 0.016120 0.004757 0.007324
# 3 -0.008398 -0.003372 0.023803 0.004938 -0.003626 -0.004397
# 4 0.008821 0.016120 0.004938 0.054686 0.011557 0.017798
# 5 0.010348 0.004757 -0.003626 0.011557 0.023846 0.012961
# 6 0.016774 0.007324 -0.004397 0.017798 0.012961 0.042613
#
#
# Mechanical properties :
#
#
# Convention : Reuss Voigt Hill
#
# Bulk Modulus (GPa) = 19.52362 37.96996 28.74679
# Shear Modulus (GPa) = 20.27076 33.33311 26.80193
#
# Velocity S-wave (km/s) = 2.89835 3.71667 3.33272
# Velocity P-wave (km/s) = 4.39220 5.84409 5.16937
#
# Compressibility (1/GPa) = 0.05122002
#
# Stress axis : x y z
#
# Youngs Moduli (GPa) = 45.66482 29.30034 42.01190
#
# Poissons Ratio (x) = 0.07427 0.35283
# Poissons Ratio (y) = 0.11575 0.14167
# Poissons Ratio (z) = 0.38351 0.09880
#
# Static dielectric constant tensor:
#      x y z
#    x 1.945260 0.005440 -0.016420 
#    y 0.005440 2.002320 -0.005190 
#    z -0.016420 -0.005190 1.836840 
# 
# From -- ./inp_files/208063.got.cif
#   From: 2010.05.17/outbox.cif.g08.bks.cpg/sg2_105_cif.got.tgz:208063.got - 2010.06.03 11:33:40.
