data_PCOD9103887
_publ_section_title
;
Structure prediction by ZEFSAII (Michael W. Deem and Ramdas Pophale) SiO2 
 PCOD9103887
Probable space group: P -1
;
_chemical_formula_sum "Si O2"
_cell_formula_units_Z 16
_cell_length_a 8.540196
_cell_length_b 12.658559
_cell_length_c 17.170131
_cell_angle_alpha 122.515570
_cell_angle_beta 33.602275
_cell_angle_gamma 129.442526
_cell_volume 793.168410
_symmetry_space_group_name_H-M "P -1"
_symmetry_group_IT_number 2
_symmetry_cell_setting 'triclinic'
loop_
_space_group_symop_operation_xyz
x,y,z
-x,-y,-z
loop_
_atom_site_type_symbol
_atom_site_label
_atom_site_fract_x
_atom_site_fract_y
_atom_site_fract_z
Si Si1 0.573289 0.134602 0.917560
Si Si2 0.031834 0.686105 0.400418
Si Si3 0.636046 0.384794 0.900597
Si Si4 0.688001 0.454383 0.563260
Si Si5 0.513651 0.847350 0.854927
Si Si6 0.203705 0.925208 0.538527
Si Si7 0.832368 0.464228 0.138094
Si Si8 0.208935 0.191434 0.590866
O O1 0.459312 0.235392 0.955676
O O2 0.928393 0.176240 0.760003
O O3 0.434051 0.969644 0.900280
O O4 0.540341 0.156463 0.031277
O O5 0.772531 0.553227 0.492919
O O6 0.872553 0.753425 0.433110
O O7 0.267617 0.644889 0.236385
O O8 0.198892 0.795170 0.441864
O O9 0.939526 0.454142 0.855762
O O10 0.500000 0.500000 0.000000
O O11 0.447118 0.488210 0.728063
O O12 0.524138 0.299767 0.540204
O O13 0.000000 0.500000 0.500000
O O14 0.302726 0.697128 0.852841
O O15 0.873402 0.879192 0.701161
O O16 0.500000 0.000000 0.500000
O O17 0.214352 0.043927 0.521789
O O18 0.000000 0.500000 0.000000
#
# Coordination Sequence:
#
# PCOD9103887 Si02
#       8
#     2   2   2   2   2   2   2   2
#     4   9  19  41  64  91 127 171 221 269 330 400
#     4  11  23  43  63  91 136 171 223 274 339 403
#     4  11  25  45  66  96 138 178 224 278 345 403
#     4  12  24  38  65 102 132 173 231 280 331 401
#     4  10  20  38  69  93 128 171 222 274 328 396
#     4  11  23  41  64 100 130 170 224 274 335 400
#     4  12  23  43  69  99 134 178 229 278 338 399
#     4  10  21  40  65  89 132 177 209 274 341 398
#
# _framework density 20.172262
#
# number of rings (size 3 to 8) (size 9 to 14) (size 15 to 20)
#    0.000    1.250    5.000    1.500    1.750    0.000 
#    6.750    0.625    0.000    0.000    0.000    0.000 
#    0.000    0.000    0.000    0.000    0.000    0.000 
#
# Total GULP energy -89326.721918 kJ/mol
# GULP energy per Si atom -5582.920120 kJ/mol
# Density = 2.012635 g / cm^3
# Si number density = 20.172262 Si / 1000 Ang^3
#
#
#
# Elastic Constant Matrix: (Units=GPa)
#
#
# Indices 1 2 3 4 5 6 
#
# 1 59.9635 13.5619 31.5740 -1.9155 -1.6794 4.0243
# 2 13.5619 126.4593 21.9139 -3.1904 2.5393 4.0253
# 3 31.5740 21.9139 71.0713 1.5119 13.1566 -9.8229
# 4 -1.9155 -3.1904 1.5119 36.8486 -4.9802 3.0928
# 5 -1.6794 2.5393 13.1566 -4.9802 27.8873 3.7371
# 6 4.0243 4.0253 -9.8229 3.0928 3.7371 37.1050
#
#
#
# Elastic Compliance Matrix: (Units=1/GPa)
#
#
# Indices 1 2 3 4 5 6 
#
# 1 0.025027 -0.000101 -0.014069 0.003855 0.009880 -0.007744
# 2 -0.000101 0.008522 -0.003089 0.001178 0.001146 -0.001945
# 3 -0.014069 -0.003089 0.025604 -0.004955 -0.014945 0.010558
# 4 0.003855 0.001178 -0.004955 0.029205 0.008366 -0.005135
# 5 0.009880 0.001146 -0.014945 0.008366 0.046303 -0.010513
# 6 -0.007744 -0.001945 0.010558 -0.005135 -0.010513 0.032283
#
#
# Mechanical properties :
#
#
# Convention : Reuss Voigt Hill
#
# Bulk Modulus (GPa) = 40.58990 43.51043 42.05016
# Shear Modulus (GPa) = 23.84649 33.06448 28.45548
#
# Velocity S-wave (km/s) = 3.44196 4.05298 3.75990
# Velocity P-wave (km/s) = 5.99679 6.59685 6.30396
#
# Compressibility (1/GPa) = 0.02463667
#
# Stress axis : x y z
#
# Youngs Moduli (GPa) = 39.95667 117.33803 39.05608
#
# Poissons Ratio (x) = 0.01181 0.54947
# Poissons Ratio (y) = 0.00402 0.12065
# Poissons Ratio (z) = 0.56214 0.36247
#
# Static dielectric constant tensor:
#      x y z
#    x 1.717730 -0.042960 -0.015230 
#    y -0.042960 1.762800 0.018780 
#    z -0.015230 0.018780 1.709450 
# 
# From -- ./inp_files/332305.got.cif
#   From: 2010.05.17/outbox.cif.g08.bks.cpg/sg2_167_cif.got.tgz:332305.got - 2010.06.03 11:33:40.
