data_PCOD9103471
_publ_section_title
;
Structure prediction by ZEFSAII (Michael W. Deem and Ramdas Pophale) SiO2 
 PCOD9103471
Probable space group: P -1
;
_chemical_formula_sum "Si O2"
_cell_formula_units_Z 14
_cell_length_a 7.858088
_cell_length_b 16.575262
_cell_length_c 13.825332
_cell_angle_alpha 35.265576
_cell_angle_beta 137.134219
_cell_angle_gamma 136.292640
_cell_volume 670.851247
_symmetry_space_group_name_H-M "P -1"
_symmetry_group_IT_number 2
_symmetry_cell_setting 'triclinic'
loop_
_space_group_symop_operation_xyz
x,y,z
-x,-y,-z
loop_
_atom_site_type_symbol
_atom_site_label
_atom_site_fract_x
_atom_site_fract_y
_atom_site_fract_z
Si Si1 0.698463 0.279257 0.648158
Si Si2 0.255482 0.007714 0.660641
Si Si3 0.940382 0.577195 0.517873
Si Si4 0.314415 0.133926 0.094816
Si Si5 0.168891 0.144089 0.801019
Si Si6 0.236456 0.838105 0.010271
Si Si7 0.738587 0.595708 0.069257
O O1 0.449508 0.174132 0.592295
O O2 0.930164 0.346886 0.602221
O O3 0.784066 0.182281 0.860616
O O4 0.688323 0.430903 0.543716
O O5 0.426637 0.915457 0.769724
O O6 0.000000 0.000000 0.500000
O O7 0.192093 0.948263 0.802607
O O8 0.871941 0.712076 0.404893
O O9 0.159681 0.516768 0.715294
O O10 0.348836 0.281469 0.026787
O O11 0.213577 0.153751 0.926019
O O12 0.091489 0.995448 0.186735
O O13 0.452901 0.139486 0.890336
O O14 0.004802 0.688084 0.032413
O O15 0.500000 0.500000 0.000000
#
# Coordination Sequence:
#
# PCOD9103471 Si02
#       7
#     2   2   2   2   2   2   2
#     4  10  20  38  66  93 126 167 217 266 321 376
#     4  11  24  42  64  99 133 173 218 264 328 396
#     4  10  21  40  67  94 123 177 217 265 323 388
#     4  10  22  41  67  92 128 177 209 268 328 388
#     4  10  20  39  68  99 125 157 232 268 319 379
#     4  10  24  39  66  98 128 169 217 278 314 371
#     4  11  26  44  64  92 139 175 214 263 337 392
#
# _framework density 20.869008999999998
#
# number of rings (size 3 to 8) (size 9 to 14) (size 15 to 20)
#    0.000    1.714    1.429    3.000   12.000    2.286 
#    5.143    2.857    0.000    0.000    0.000    0.000 
#    0.000    0.000    0.000    0.000    0.000    0.000 
#
# Total GULP energy -77971.949486 kJ/mol
# GULP energy per Si atom -5569.424963 kJ/mol
# Density = 2.082151 g / cm^3
# Si number density = 20.869009 Si / 1000 Ang^3
#
#
#
# Elastic Constant Matrix: (Units=GPa)
#
#
# Indices 1 2 3 4 5 6 
#
# 1 90.4109 42.9970 55.7915 -1.0861 -6.4273 9.0404
# 2 42.9970 175.5147 84.0762 8.1361 15.2067 0.2958
# 3 55.7915 84.0762 158.1954 -4.8789 18.9499 5.2639
# 4 -1.0861 8.1361 -4.8789 34.5527 1.2698 3.9350
# 5 -6.4273 15.2067 18.9499 1.2698 33.6757 -6.2462
# 6 9.0404 0.2958 5.2639 3.9350 -6.2462 27.3171
#
#
#
# Elastic Compliance Matrix: (Units=1/GPa)
#
#
# Indices 1 2 3 4 5 6 
#
# 1 0.015969 -0.001958 -0.005247 0.000313 0.006345 -0.002847
# 2 -0.001958 0.008144 -0.003550 -0.002555 -0.001732 0.001216
# 3 -0.005247 -0.003550 0.010934 0.002676 -0.006042 -0.002099
# 4 0.000313 -0.002555 0.002676 0.030657 -0.002482 -0.005575
# 5 0.006345 -0.001732 -0.006042 -0.002482 0.036631 0.007817
# 6 -0.002847 0.001216 -0.002099 -0.005575 0.007817 0.040531
#
#
# Mechanical properties :
#
#
# Convention : Reuss Voigt Hill
#
# Bulk Modulus (GPa) = 73.86366 87.76115 80.81241
# Shear Modulus (GPa) = 29.60536 35.19285 32.39910
#
# Velocity S-wave (km/s) = 3.77055 4.11100 3.94445
# Velocity P-wave (km/s) = 7.37746 8.04229 7.71703
#
# Compressibility (1/GPa) = 0.01353846
#
# Stress axis : x y z
#
# Youngs Moduli (GPa) = 62.62098 122.78997 91.45533
#
# Poissons Ratio (x) = 0.24043 0.47985
# Poissons Ratio (y) = 0.12262 0.32462
# Poissons Ratio (z) = 0.32856 0.43584
#
# Static dielectric constant tensor:
#      x y z
#    x 1.911810 -0.090990 0.070100 
#    y -0.090990 1.806570 -0.076500 
#    z 0.070100 -0.076500 1.778750 
# 
# From -- ./inp_files/507263.got.cif
#   From: 2010.05.17/outbox.cif.g08.bks.cpg/sg2_254_cif.got.tgz:507263.got - 2010.06.03 11:33:40.
