data_PCOD9103247
_publ_section_title
;
Structure prediction by ZEFSAII (Michael W. Deem and Ramdas Pophale) SiO2 
 PCOD9103247
Probable space group: P -1
;
_chemical_formula_sum "Si O2"
_cell_formula_units_Z 14
_cell_length_a 7.128749
_cell_length_b 11.287034
_cell_length_c 8.504034
_cell_angle_alpha 69.472733
_cell_angle_beta 61.315018
_cell_angle_gamma 69.843153
_cell_volume 549.070655
_symmetry_space_group_name_H-M "P -1"
_symmetry_group_IT_number 2
_symmetry_cell_setting 'triclinic'
loop_
_space_group_symop_operation_xyz
x,y,z
-x,-y,-z
loop_
_atom_site_type_symbol
_atom_site_label
_atom_site_fract_x
_atom_site_fract_y
_atom_site_fract_z
Si Si1 0.391508 0.641256 0.906841
Si Si2 0.073478 0.320968 0.105356
Si Si3 0.692213 0.707270 0.295875
Si Si4 0.865036 0.222205 0.768499
Si Si5 0.557532 0.141079 0.420674
Si Si6 0.882203 0.441551 0.434619
Si Si7 0.045052 0.046233 0.288053
O O1 0.171052 0.638164 0.894853
O O2 0.529826 0.728144 0.708961
O O3 0.500000 0.500000 0.000000
O O4 0.308827 0.722818 0.056494
O O5 0.144567 0.171487 0.201457
O O6 0.036391 0.408281 0.235427
O O7 0.247963 0.318820 0.898025
O O8 0.492137 0.809506 0.403556
O O9 0.899599 0.760227 0.263588
O O10 0.688089 0.563180 0.421390
O O11 0.828188 0.311893 0.586383
O O12 0.855274 0.076552 0.798682
O O13 0.808062 0.105965 0.285040
O O14 0.500000 0.000000 0.500000
O O15 0.000000 0.500000 0.500000
O O16 0.000000 0.000000 0.500000
#
# Coordination Sequence:
#
# PCOD9103247 Si02
#       7
#     2   2   2   2   2   2   2
#     4  10  23  42  64  97 134 173 220 265 324 394
#     4  10  22  39  67  94 128 174 217 261 326 398
#     4  10  21  38  63  92 127 166 215 267 325 374
#     4  10  20  38  67  90 125 175 214 258 324 389
#     4  11  23  40  65  96 132 172 216 273 324 380
#     4  10  20  38  65  94 124 167 213 270 321 381
#     4  11  22  41  64  90 131 172 221 259 322 396
#
# _framework density 25.497630999999998
#
# number of rings (size 3 to 8) (size 9 to 14) (size 15 to 20)
#    0.000    1.714    2.857    1.286    2.000    2.857 
#    2.571    2.857    0.000    0.000    0.000    0.000 
#    0.000    0.000    0.000    0.000    0.000    0.000 
#
# Total GULP energy -78208.723114 kJ/mol
# GULP energy per Si atom -5586.337365 kJ/mol
# Density = 2.543960 g / cm^3
# Si number density = 25.497631 Si / 1000 Ang^3
#
#
#
# Elastic Constant Matrix: (Units=GPa)
#
#
# Indices 1 2 3 4 5 6 
#
# 1 80.0444 31.3250 21.3662 -0.8178 14.9487 15.2710
# 2 31.3250 222.4331 87.8173 29.3551 16.4645 13.0600
# 3 21.3662 87.8173 139.8783 11.5423 15.9276 11.4868
# 4 -0.8178 29.3551 11.5423 68.5112 4.5175 8.9074
# 5 14.9487 16.4645 15.9276 4.5175 22.8101 -1.4681
# 6 15.2710 13.0600 11.4868 8.9074 -1.4681 27.9327
#
#
#
# Elastic Compliance Matrix: (Units=1/GPa)
#
#
# Indices 1 2 3 4 5 6 
#
# 1 0.017160 -0.001409 0.000195 0.002884 -0.011601 -0.010332
# 2 -0.001409 0.006444 -0.003548 -0.002104 -0.000844 -0.000157
# 3 0.000195 -0.003548 0.010113 0.000539 -0.004931 -0.003037
# 4 0.002884 -0.002104 0.000539 0.016556 -0.004434 -0.006327
# 5 -0.011601 -0.000844 -0.004931 -0.004434 0.057222 0.013186
# 6 -0.010332 -0.000157 -0.003037 -0.006327 0.013186 0.045482
#
#
# Mechanical properties :
#
#
# Convention : Reuss Voigt Hill
#
# Bulk Modulus (GPa) = 41.33390 80.37476 60.85433
# Shear Modulus (GPa) = 29.31424 43.97395 36.64410
#
# Velocity S-wave (km/s) = 3.39438 4.15737 3.79510
# Velocity P-wave (km/s) = 5.62214 7.39161 6.56675
#
# Compressibility (1/GPa) = 0.02419322
#
# Stress axis : x y z
#
# Youngs Moduli (GPa) = 58.27667 155.17641 98.88086
#
# Poissons Ratio (x) = 0.21860 -0.01926
# Poissons Ratio (y) = 0.08210 0.35082
# Poissons Ratio (z) = -0.01135 0.55056
#
# Static dielectric constant tensor:
#      x y z
#    x 2.265300 -0.015850 -0.006540 
#    y -0.015850 2.056920 -0.117220 
#    z -0.006540 -0.117220 2.019280 
# 
# From -- ./inp_files/175885.got.cif
#   From: 2010.05.17/outbox.cif.g08.bks.cpg/sg2_88_cif.got.tgz:175885.got - 2010.06.03 11:33:40.
