data_PCOD9103348
_publ_section_title
;
Structure prediction by ZEFSAII (Michael W. Deem and Ramdas Pophale) SiO2 
 PCOD9103348
Probable space group: P -1
;
_chemical_formula_sum "Si O2"
_cell_formula_units_Z 15
_cell_length_a 9.744863
_cell_length_b 6.911426
_cell_length_c 14.720387
_cell_angle_alpha 104.205012
_cell_angle_beta 122.639383
_cell_angle_gamma 116.528217
_cell_volume 570.543878
_symmetry_space_group_name_H-M "P -1"
_symmetry_group_IT_number 2
_symmetry_cell_setting 'triclinic'
loop_
_space_group_symop_operation_xyz
x,y,z
-x,-y,-z
loop_
_atom_site_type_symbol
_atom_site_label
_atom_site_fract_x
_atom_site_fract_y
_atom_site_fract_z
Si Si1 0.000000 0.500000 0.500000
Si Si2 0.415060 0.540981 0.728514
Si Si3 0.060138 0.411125 0.704499
Si Si4 0.298376 0.426383 0.303825
Si Si5 0.438936 0.977495 0.702259
Si Si6 0.624980 0.919764 0.603855
Si Si7 0.635463 0.341152 0.990564
Si Si8 0.228098 0.101363 0.949398
O O1 0.970302 0.454743 0.370114
O O2 0.812471 0.148219 0.410661
O O3 0.211301 0.360937 0.708195
O O4 0.521791 0.448601 0.701646
O O5 0.331102 0.652495 0.645141
O O6 0.630251 0.804029 0.895726
O O7 0.210048 0.614478 0.868321
O O8 0.825799 0.128312 0.628957
O O9 0.394801 0.668565 0.437268
O O10 0.318658 0.228144 0.336183
O O11 0.027682 0.205406 0.162871
O O12 0.580628 0.173258 0.860662
O O13 0.593033 0.070606 0.681169
O O14 0.390645 0.169711 0.932720
O O15 0.766289 0.655015 0.040316
#
# Coordination Sequence:
#
# PCOD9103348 Si02
#       8
#     1   2   2   2   2   2   2   2
#     4  10  24  40  64  90 134 168 224 260 334 392
#     4   9  21  39  63  93 132 169 227 264 332 384
#     4  10  21  43  62  94 131 176 215 274 321 399
#     4  10  20  39  62  97 133 175 212 275 326 398
#     4  10  23  43  62  99 130 177 217 271 326 395
#     4  10  22  39  65  93 136 174 219 266 335 385
#     4  10  22  40  69  97 135 171 221 269 332 385
#     4  10  20  38  66 101 126 174 221 272 323 401
#
# _framework density 26.290704000000002
#
# number of rings (size 3 to 8) (size 9 to 14) (size 15 to 20)
#    0.000    2.133    1.333    0.400    1.867    7.467 
#    0.000    0.000    0.000    0.000    0.000    0.000 
#    0.000    0.000    0.000    0.000    0.000    0.000 
#
# Total GULP energy -83720.398531 kJ/mol
# GULP energy per Si atom -5581.359902 kJ/mol
# Density = 2.623086 g / cm^3
# Si number density = 26.290704 Si / 1000 Ang^3
#
#
#
# Elastic Constant Matrix: (Units=GPa)
#
#
# Indices 1 2 3 4 5 6 
#
# 1 155.3089 36.8921 67.2784 15.9017 -18.9336 30.5672
# 2 36.8921 70.5089 42.9949 3.0923 3.6468 25.4707
# 3 67.2784 42.9949 190.4129 0.1442 -11.6127 19.1968
# 4 15.9017 3.0923 0.1442 44.3224 11.7498 13.2354
# 5 -18.9336 3.6468 -11.6127 11.7498 36.2795 1.5194
# 6 30.5672 25.4707 19.1968 13.2354 1.5194 45.6803
#
#
#
# Elastic Compliance Matrix: (Units=1/GPa)
#
#
# Indices 1 2 3 4 5 6 
#
# 1 0.009816 -0.002850 -0.002131 -0.004015 0.006158 -0.003125
# 2 -0.002850 0.021132 -0.003144 0.003839 -0.005464 -0.009485
# 3 -0.002131 -0.003144 0.006774 0.000618 0.001167 0.000115
# 4 -0.004015 0.003839 0.000618 0.029063 -0.011371 -0.007756
# 5 0.006158 -0.005464 0.001167 -0.011371 0.035360 0.000554
# 6 -0.003125 -0.009485 0.000115 -0.007756 0.000554 0.031452
#
#
# Mechanical properties :
#
#
# Convention : Reuss Voigt Hill
#
# Bulk Modulus (GPa) = 46.57528 78.95129 62.76328
# Shear Modulus (GPa) = 31.84619 43.19412 37.52016
#
# Velocity S-wave (km/s) = 3.48416 4.05772 3.78183
# Velocity P-wave (km/s) = 5.82579 7.21448 6.55700
#
# Compressibility (1/GPa) = 0.02147062
#
# Stress axis : x y z
#
# Youngs Moduli (GPa) = 101.87602 47.32211 147.62629
#
# Poissons Ratio (x) = 0.13487 0.31460
# Poissons Ratio (y) = 0.29034 0.46420
# Poissons Ratio (z) = 0.21710 0.14880
#
# Static dielectric constant tensor:
#      x y z
#    x 1.329780 -0.081200 -0.643000 
#    y -0.081200 2.193210 -0.003480 
#    z -0.643000 -0.003480 1.543250 
# 
# From -- ./inp_files/514458.got.cif
#   From: 2010.05.17/outbox.cif.g08.bks.cpg/sg2_258_cif.got.tgz:514458.got - 2010.06.03 11:33:40.
