data_PCOD9103360
_publ_section_title
;
Structure prediction by ZEFSAII (Michael W. Deem and Ramdas Pophale) SiO2 
 PCOD9103360
Probable space group: P -1
;
_chemical_formula_sum "Si O2"
_cell_formula_units_Z 14
_cell_length_a 5.446723
_cell_length_b 12.236748
_cell_length_c 10.756932
_cell_angle_alpha 76.754440
_cell_angle_beta 119.599970
_cell_angle_gamma 115.080716
_cell_volume 564.430199
_symmetry_space_group_name_H-M "P -1"
_symmetry_group_IT_number 2
_symmetry_cell_setting 'triclinic'
loop_
_space_group_symop_operation_xyz
x,y,z
-x,-y,-z
loop_
_atom_site_type_symbol
_atom_site_label
_atom_site_fract_x
_atom_site_fract_y
_atom_site_fract_z
Si Si1 0.201752 0.699966 0.269649
Si Si2 0.580332 0.847310 0.143167
Si Si3 0.956130 0.780374 0.671851
Si Si4 0.991088 0.462084 0.156400
Si Si5 0.640729 0.149861 0.493313
Si Si6 0.927372 0.082781 0.102891
Si Si7 0.367760 0.296227 0.026033
O O1 0.529035 0.788093 0.278568
O O2 0.159941 0.767675 0.364397
O O3 0.181019 0.563842 0.277226
O O4 0.929459 0.688809 0.107197
O O5 0.486841 0.741172 0.047947
O O6 0.892733 0.945861 0.148274
O O7 0.329209 0.909005 0.055564
O O8 0.645824 0.806439 0.584246
O O9 0.912750 0.652690 0.760299
O O10 0.146820 0.805496 0.586322
O O11 0.152208 0.879841 0.792931
O O12 0.632308 0.410341 0.117499
O O13 0.000000 0.500000 0.000000
O O14 0.500000 0.000000 0.500000
O O15 0.243223 0.181036 0.114526
#
# Coordination Sequence:
#
# PCOD9103360 Si02
#       7
#     2   2   2   2   2   2   2
#     4  11  26  43  71 105 151 205 249 308 371 456
#     4  10  20  38  66 104 141 183 243 307 399 436
#     4  12  27  48  77 108 152 202 259 310 380 450
#     4  12  24  48  77 112 154 193 252 316 391 461
#     4  12  30  52  76 108 152 210 264 314 370 447
#     4  10  21  38  65 105 142 181 243 322 379 450
#     4  11  21  40  70 106 144 192 242 314 396 444
#
# _framework density 24.803775999999999
#
# number of rings (size 3 to 8) (size 9 to 14) (size 15 to 20)
#    0.000    0.857    2.857    3.857    4.000    2.286 
#    0.000    0.000    0.000    0.000    0.000    0.000 
#    0.000    0.000    0.000    0.000    0.000    0.000 
#
# Total GULP energy -78070.666964 kJ/mol
# GULP energy per Si atom -5576.476212 kJ/mol
# Density = 2.474732 g / cm^3
# Si number density = 24.803776 Si / 1000 Ang^3
#
#
#
# Elastic Constant Matrix: (Units=GPa)
#
#
# Indices 1 2 3 4 5 6 
#
# 1 132.6213 30.8880 43.9414 -14.5253 -16.4528 6.0113
# 2 30.8880 161.4286 45.5044 -3.0974 -14.4865 5.0058
# 3 43.9414 45.5044 77.3277 4.7964 -11.6615 -5.4752
# 4 -14.5253 -3.0974 4.7964 36.0995 -12.0054 -3.7676
# 5 -16.4528 -14.4865 -11.6615 -12.0054 60.8131 -4.9641
# 6 6.0113 5.0058 -5.4752 -3.7676 -4.9641 47.9058
#
#
#
# Elastic Compliance Matrix: (Units=1/GPa)
#
#
# Indices 1 2 3 4 5 6 
#
# 1 0.010587 0.000098 -0.006111 0.005866 0.002769 -0.001289
# 2 0.000098 0.007626 -0.004537 0.001582 0.001197 -0.001079
# 3 -0.006111 -0.004537 0.019653 -0.005035 0.000295 0.003122
# 4 0.005866 0.001582 -0.005035 0.033669 0.007807 0.001980
# 5 0.002769 0.001197 0.000295 0.007807 0.019253 0.002170
# 6 -0.001289 -0.001079 0.003122 0.001980 0.002170 0.021886
#
#
# Mechanical properties :
#
#
# Convention : Reuss Voigt Hill
#
# Bulk Modulus (GPa) = 59.65048 68.00502 63.82775
# Shear Modulus (GPa) = 35.87747 45.69992 40.78869
#
# Velocity S-wave (km/s) = 3.80735 4.29704 4.05959
# Velocity P-wave (km/s) = 6.59007 7.21777 6.91105
#
# Compressibility (1/GPa) = 0.01676432
#
# Stress axis : x y z
#
# Youngs Moduli (GPa) = 94.45880 131.12605 50.88396
#
# Poissons Ratio (x) = -0.01284 0.31096
# Poissons Ratio (y) = -0.00925 0.23088
# Poissons Ratio (z) = 0.57725 0.59497
#
# Static dielectric constant tensor:
#      x y z
#    x 1.979540 -0.012950 0.053140 
#    y -0.012950 2.068680 -0.073280 
#    z 0.053140 -0.073280 2.159140 
# 
# From -- ./inp_files/364172.got.cif
#   From: 2010.05.17/outbox.cif.g08.bks.cpg/sg2_183_cif.got.tgz:364172.got - 2010.06.03 11:33:40.
