data_PCOD9103541
_publ_section_title
;
Structure prediction by ZEFSAII (Michael W. Deem and Ramdas Pophale) SiO2 
 PCOD9103541
Probable space group: P -1
;
_chemical_formula_sum "Si O2"
_cell_formula_units_Z 15
_cell_length_a 8.572744
_cell_length_b 12.354652
_cell_length_c 18.333454
_cell_angle_alpha 36.162989
_cell_angle_beta 32.739810
_cell_angle_gamma 32.289638
_cell_volume 528.921073
_symmetry_space_group_name_H-M "P -1"
_symmetry_group_IT_number 2
_symmetry_cell_setting 'triclinic'
loop_
_space_group_symop_operation_xyz
x,y,z
-x,-y,-z
loop_
_atom_site_type_symbol
_atom_site_label
_atom_site_fract_x
_atom_site_fract_y
_atom_site_fract_z
Si Si1 0.668772 0.046301 0.700342
Si Si2 0.137528 0.025866 0.175854
Si Si3 0.500000 0.000000 0.500000
Si Si4 0.160033 0.573785 0.011860
Si Si5 0.323855 0.277125 0.229828
Si Si6 0.379402 0.657352 0.165651
Si Si7 0.429755 0.686707 0.609458
Si Si8 0.845499 0.524432 0.399529
O O1 0.536113 0.937009 0.755127
O O2 0.638791 0.038441 0.803688
O O3 0.071738 0.885096 0.614544
O O4 0.466052 0.295522 0.623144
O O5 0.789657 0.050271 0.328937
O O6 0.101820 0.239472 0.038806
O O7 0.237063 0.864921 0.157194
O O8 0.375929 0.201759 0.496005
O O9 0.382391 0.675318 0.895187
O O10 0.408525 0.369959 0.975122
O O11 0.071990 0.478003 0.167323
O O12 0.113065 0.303259 0.372612
O O13 0.614334 0.455245 0.235895
O O14 0.086226 0.615589 0.276327
O O15 0.661236 0.519985 0.546850
#
# Coordination Sequence:
#
# PCOD9103541 Si02
#       8
#     2   2   1   2   2   2   2   2
#     4  11  25  43  61 102 137 167 206 272 339 371
#     4  11  23  39  69  94 134 168 218 266 320 388
#     4  10  20  38  66  98 128 168 216 262 314 386
#     4  10  22  47  67  96 123 177 220 272 312 381
#     4  10  25  43  69  91 134 169 222 266 324 381
#     4  11  22  42  70  97 122 174 229 254 316 393
#     4  11  23  41  67  99 133 172 211 266 325 387
#     4  11  24  41  66  98 129 171 214 265 321 387
#
# _framework density 28.359618999999999
#
# number of rings (size 3 to 8) (size 9 to 14) (size 15 to 20)
#    0.000    1.333    4.000    1.600    1.867    2.133 
#    2.400    5.333    0.000    0.000    0.000    0.000 
#    0.000    0.000    0.000    0.000    0.000    0.000 
#
# Total GULP energy -83906.144048 kJ/mol
# GULP energy per Si atom -5593.742937 kJ/mol
# Density = 2.829507 g / cm^3
# Si number density = 28.359619 Si / 1000 Ang^3
#
#
#
# Elastic Constant Matrix: (Units=GPa)
#
#
# Indices 1 2 3 4 5 6 
#
# 1 106.3033 31.5663 4.1903 3.7547 -1.2565 11.3430
# 2 31.5663 123.4405 15.5911 -7.3428 -1.7442 27.9487
# 3 4.1903 15.5911 80.7585 13.4313 -6.9994 7.8434
# 4 3.7547 -7.3428 13.4313 45.7165 2.7641 1.8977
# 5 -1.2565 -1.7442 -6.9994 2.7641 36.1217 0.3099
# 6 11.3430 27.9487 7.8434 1.8977 0.3099 72.8820
#
#
#
# Elastic Compliance Matrix: (Units=1/GPa)
#
#
# Indices 1 2 3 4 5 6 
#
# 1 0.010286 -0.002605 0.000286 -0.001346 0.000395 -0.000599
# 2 -0.002605 0.009888 -0.001886 0.002500 -0.000142 -0.003248
# 3 0.000286 -0.001886 0.013809 -0.004533 0.002948 -0.000702
# 4 -0.001346 0.002500 -0.004533 0.023913 -0.002627 -0.000873
# 5 0.000395 -0.000142 0.002948 -0.002627 0.028467 -0.000377
# 6 -0.000599 -0.003248 -0.000702 -0.000873 -0.000377 0.015159
#
#
# Mechanical properties :
#
#
# Convention : Reuss Voigt Hill
#
# Bulk Modulus (GPa) = 39.10713 45.91084 42.50898
# Shear Modulus (GPa) = 42.20966 48.22100 45.21533
#
# Velocity S-wave (km/s) = 3.86213 4.12799 3.99727
# Velocity P-wave (km/s) = 5.80583 6.24054 6.02711
#
# Compressibility (1/GPa) = 0.02557078
#
# Stress axis : x y z
#
# Youngs Moduli (GPa) = 97.22404 101.13773 72.41427
#
# Poissons Ratio (x) = 0.26348 -0.02068
# Poissons Ratio (y) = 0.25328 0.13660
# Poissons Ratio (z) = -0.02777 0.19078
#
# Static dielectric constant tensor:
#      x y z
#    x 2.414940 -0.086790 -0.005390 
#    y -0.086790 2.247200 -0.002880 
#    z -0.005390 -0.002880 2.121840 
# 
# From -- ./inp_files/559628.got.cif
#   From: 2010.05.17/outbox.cif.g08.bks.cpg/sg2_280_cif.got.tgz:559628.got - 2010.06.03 11:33:40.
