data_PCOD9103973
_publ_section_title
;
Structure prediction by ZEFSAII (Michael W. Deem and Ramdas Pophale) SiO2 
 PCOD9103973
Probable space group: P -1
;
_chemical_formula_sum "Si O2"
_cell_formula_units_Z 16
_cell_length_a 8.746266
_cell_length_b 9.172580
_cell_length_c 15.054551
_cell_angle_alpha 116.403676
_cell_angle_beta 142.244497
_cell_angle_gamma 74.170511
_cell_volume 655.487535
_symmetry_space_group_name_H-M "P -1"
_symmetry_group_IT_number 2
_symmetry_cell_setting 'triclinic'
loop_
_space_group_symop_operation_xyz
x,y,z
-x,-y,-z
loop_
_atom_site_type_symbol
_atom_site_label
_atom_site_fract_x
_atom_site_fract_y
_atom_site_fract_z
Si Si1 0.621645 0.088665 0.992396
Si Si2 0.289516 0.937811 0.506557
Si Si3 0.965343 0.315418 0.967887
Si Si4 0.125323 0.013554 0.266756
Si Si5 0.421167 0.219221 0.778077
Si Si6 0.261648 0.586225 0.443037
Si Si7 0.478641 0.252426 0.224103
Si Si8 0.167311 0.524260 0.673120
O O1 0.584136 0.941007 0.863781
O O2 0.463873 0.213432 0.902989
O O3 0.919071 0.114558 0.157711
O O4 0.500000 0.000000 0.000000
O O5 0.154510 0.026246 0.389671
O O6 0.189851 0.742204 0.397921
O O7 0.589441 0.942733 0.625909
O O8 0.282998 0.052485 0.621589
O O9 0.967483 0.175678 0.855651
O O10 0.707391 0.260904 0.885535
O O11 0.000000 0.500000 0.000000
O O12 0.213783 0.311815 0.138576
O O13 0.285651 0.364912 0.715155
O O14 0.500000 0.500000 0.500000
O O15 0.343888 0.687397 0.597793
O O16 0.023976 0.457160 0.329127
O O17 0.608243 0.333548 0.215232
O O18 0.000000 0.500000 0.500000
#
# Coordination Sequence:
#
# PCOD9103973 Si02
#       8
#     2   2   2   2   2   2   2   2
#     4  11  25  43  66  98 141 182 235 287 353 412
#     4  10  22  42  68 101 133 177 236 286 339 411
#     4  10  20  38  70  95 135 178 228 277 348 419
#     4   9  23  38  61  98 137 171 225 284 339 410
#     4  11  23  43  74 102 133 191 233 285 354 419
#     4  11  25  40  68  98 137 179 237 280 345 413
#     4  10  22  45  65  97 139 180 222 292 346 408
#     4  10  24  44  67 101 138 178 231 285 356 415
#
# _framework density 24.409310999999999
#
# number of rings (size 3 to 8) (size 9 to 14) (size 15 to 20)
#    0.000    1.750    2.500    0.000    5.250    8.000 
#    0.000    0.625    0.000    0.000    0.000    0.000 
#    0.000    0.000    0.000    0.000    0.000    0.000 
#
# Total GULP energy -89291.061954 kJ/mol
# GULP energy per Si atom -5580.691372 kJ/mol
# Density = 2.435375 g / cm^3
# Si number density = 24.409311 Si / 1000 Ang^3
#
#
#
# Elastic Constant Matrix: (Units=GPa)
#
#
# Indices 1 2 3 4 5 6 
#
# 1 59.2168 16.5552 23.9601 -5.0607 22.7540 15.8406
# 2 16.5552 122.0669 50.3964 -3.0330 -1.4846 2.0331
# 3 23.9601 50.3964 114.2748 -25.7719 5.5553 5.8726
# 4 -5.0607 -3.0330 -25.7719 51.7317 8.0923 -4.4562
# 5 22.7540 -1.4846 5.5553 8.0923 38.4890 -3.2872
# 6 15.8406 2.0331 5.8726 -4.4562 -3.2872 22.8468
#
#
#
# Elastic Compliance Matrix: (Units=1/GPa)
#
#
# Indices 1 2 3 4 5 6 
#
# 1 0.035257 -0.003470 -0.002611 0.003372 -0.023546 -0.026195
# 2 -0.003470 0.010603 -0.004848 -0.002507 0.003925 0.002784
# 3 -0.002611 -0.004848 0.012923 0.006171 -0.001818 -0.000138
# 4 0.003372 -0.002507 0.006171 0.023823 -0.008007 -0.000207
# 5 -0.023546 0.003925 -0.001818 -0.008007 0.043808 0.021185
# 6 -0.026195 0.002784 -0.000138 -0.000207 0.021185 0.064728
#
#
# Mechanical properties :
#
#
# Convention : Reuss Voigt Hill
#
# Bulk Modulus (GPa) = 27.08107 53.04245 40.06176
# Shear Modulus (GPa) = 22.19180 36.25663 29.22421
#
# Velocity S-wave (km/s) = 3.01849 3.85822 3.46389
# Velocity P-wave (km/s) = 4.82359 6.45177 5.69616
#
# Compressibility (1/GPa) = 0.03692616
#
# Stress axis : x y z
#
# Youngs Moduli (GPa) = 28.36338 94.30879 77.37856
#
# Poissons Ratio (x) = 0.32727 0.20201
# Poissons Ratio (y) = 0.09843 0.37513
# Poissons Ratio (z) = 0.07405 0.45721
#
# Static dielectric constant tensor:
#      x y z
#    x 2.009280 0.072630 -0.033230 
#    y 0.072630 1.914430 0.003670 
#    z -0.033230 0.003670 2.003130 
# 
# From -- ./inp_files/495343.got.cif
#   From: 2010.05.17/outbox.cif.g08.bks.cpg/sg2_248_cif.got.tgz:495343.got - 2010.06.03 11:33:40.
