data_PCOD9103551
_publ_section_title
;
Structure prediction by ZEFSAII (Michael W. Deem and Ramdas Pophale) SiO2 
 PCOD9103551
Probable space group: P -1
;
_chemical_formula_sum "Si O2"
_cell_formula_units_Z 15
_cell_length_a 5.586817
_cell_length_b 4.937782
_cell_length_c 18.578725
_cell_angle_alpha 86.230638
_cell_angle_beta 97.354386
_cell_angle_gamma 88.292847
_cell_volume 506.827675
_symmetry_space_group_name_H-M "P -1"
_symmetry_group_IT_number 2
_symmetry_cell_setting 'triclinic'
loop_
_space_group_symop_operation_xyz
x,y,z
-x,-y,-z
loop_
_atom_site_type_symbol
_atom_site_label
_atom_site_fract_x
_atom_site_fract_y
_atom_site_fract_z
Si Si1 0.325061 0.146888 0.545805
Si Si2 0.022585 0.299664 0.398872
Si Si3 0.000000 0.500000 0.000000
Si Si4 0.743452 0.870216 0.737397
Si Si5 0.528132 0.523713 0.181132
Si Si6 0.139700 0.927587 0.116690
Si Si7 0.539385 0.725342 0.961012
Si Si8 0.699128 0.728411 0.318772
O O1 0.445652 0.324340 0.609639
O O2 0.157097 0.303356 0.479630
O O3 0.500000 0.000000 0.500000
O O4 0.194141 0.909583 0.590168
O O5 0.945602 0.604514 0.366885
O O6 0.154723 0.165410 0.337322
O O7 0.993348 0.711064 0.071559
O O8 0.304916 0.555145 0.997211
O O9 0.685594 0.583276 0.774829
O O10 0.911851 0.000113 0.803044
O O11 0.478829 0.025135 0.720205
O O12 0.409896 0.790693 0.135886
O O13 0.572047 0.315947 0.122198
O O14 0.726027 0.565308 0.247507
O O15 0.157569 0.203083 0.063742
O O16 0.500000 0.000000 0.000000
#
# Coordination Sequence:
#
# PCOD9103551 Si02
#       8
#     2   2   1   2   2   2   2   2
#     4  11  24  46  66 100 141 178 235 302 355 434
#     4  11  25  43  69 100 134 187 238 283 373 434
#     4  10  20  38  66  98 134 186 240 290 364 428
#     4  10  21  44  67  98 144 183 235 306 353 432
#     4   9  21  41  66  94 137 182 231 292 361 416
#     4   9  20  40  70  99 141 192 237 302 365 430
#     4  10  21  41  66  98 142 185 238 295 363 436
#     4  11  22  41  69  97 134 185 230 295 352 433
#
# _framework density 29.595863000000001
#
# number of rings (size 3 to 8) (size 9 to 14) (size 15 to 20)
#    0.000    1.867    1.333    1.600    0.000    4.800 
#    9.600    0.000    2.933    0.000    0.000    0.000 
#    0.000    0.000    0.000    0.000    0.000    0.000 
#
# Total GULP energy -83632.070817 kJ/mol
# GULP energy per Si atom -5575.471388 kJ/mol
# Density = 2.952850 g / cm^3
# Si number density = 29.595863 Si / 1000 Ang^3
#
#
#
# Elastic Constant Matrix: (Units=GPa)
#
#
# Indices 1 2 3 4 5 6 
#
# 1 111.6699 55.3160 38.3912 -16.1229 -7.5688 -11.6603
# 2 55.3160 197.1875 65.2921 -12.0114 -5.6343 5.0239
# 3 38.3912 65.2921 288.3264 7.0056 7.8028 3.5986
# 4 -16.1229 -12.0114 7.0056 16.0345 -15.6866 -10.9569
# 5 -7.5688 -5.6343 7.8028 -15.6866 60.2489 -9.6617
# 6 -11.6603 5.0239 3.5986 -10.9569 -9.6617 56.0701
#
#
#
# Elastic Compliance Matrix: (Units=1/GPa)
#
#
# Indices 1 2 3 4 5 6 
#
# 1 0.025490 -0.000918 -0.005834 0.068504 0.025482 0.023535
# 2 -0.000918 0.006494 -0.001682 0.009117 0.003355 0.001695
# 3 -0.005834 -0.001682 0.005529 -0.023392 -0.008903 -0.007523
# 4 0.068504 0.009117 -0.023392 0.325992 0.113099 0.098123
# 5 0.025482 0.003355 -0.008903 0.113099 0.056717 0.037444
# 6 0.023535 0.001695 -0.007523 0.098123 0.037444 0.048687
#
#
# Mechanical properties :
#
#
# Convention : Reuss Voigt Hill
#
# Bulk Modulus (GPa) = 48.43519 101.68693 75.06106
# Shear Modulus (GPa) = 10.14902 55.68299 32.91601
#
# Velocity S-wave (km/s) = 1.85382 4.34227 3.33856
# Velocity P-wave (km/s) = 4.58075 7.71839 6.34652
#
# Compressibility (1/GPa) = 0.02064615
#
# Stress axis : x y z
#
# Youngs Moduli (GPa) = 39.23036 153.99580 180.85910
#
# Poissons Ratio (x) = 0.14132 1.05515
# Poissons Ratio (y) = 0.03600 0.30417
# Poissons Ratio (z) = 0.22887 0.25899
#
# Static dielectric constant tensor:
#      x y z
#    x 3.123700 0.098150 0.286410 
#    y 0.098150 2.893990 0.115890 
#    z 0.286410 0.115890 2.506850 
# 
# From -- ./inp_files/545976.got.cif
#   From: 2010.05.17/outbox.cif.g08.bks.cpg/sg2_273_cif.got.tgz:545976.got - 2010.06.03 11:33:40.
