data_PCOD9103525
_publ_section_title
;
Structure prediction by ZEFSAII (Michael W. Deem and Ramdas Pophale) SiO2 
 PCOD9103525
Probable space group: P -1
;
_chemical_formula_sum "Si O2"
_cell_formula_units_Z 15
_cell_length_a 18.304093
_cell_length_b 11.075635
_cell_length_c 6.884538
_cell_angle_alpha 127.664332
_cell_angle_beta 73.526118
_cell_angle_gamma 142.695936
_cell_volume 607.038769
_symmetry_space_group_name_H-M "P -1"
_symmetry_group_IT_number 2
_symmetry_cell_setting 'triclinic'
loop_
_space_group_symop_operation_xyz
x,y,z
-x,-y,-z
loop_
_atom_site_type_symbol
_atom_site_label
_atom_site_fract_x
_atom_site_fract_y
_atom_site_fract_z
Si Si1 0.748179 0.951923 0.119488
Si Si2 0.805070 0.852110 0.363649
Si Si3 0.000000 0.000000 0.500000
Si Si4 0.255595 0.726915 0.380972
Si Si5 0.213350 0.465388 0.523981
Si Si6 0.399267 0.484167 0.488212
Si Si7 0.022061 0.676761 0.013684
Si Si8 0.393299 0.943911 0.107601
O O1 0.797761 0.927475 0.240207
O O2 0.711803 0.057917 0.330178
O O3 0.627500 0.677076 0.822768
O O4 0.866522 0.159914 0.075159
O O5 0.846060 0.744118 0.247957
O O6 0.673421 0.676431 0.412373
O O7 0.929458 0.102821 0.668222
O O8 0.072166 0.170757 0.404966
O O9 0.229360 0.554691 0.386080
O O10 0.116670 0.527692 0.183680
O O11 0.368246 0.878016 0.287797
O O12 0.314156 0.490906 0.492739
O O13 0.260030 0.685352 0.837637
O O14 0.547444 0.790091 0.703876
O O15 0.000000 0.500000 0.000000
O O16 0.500000 0.000000 0.000000
#
# Coordination Sequence:
#
# PCOD9103525 Si02
#       8
#     2   2   1   2   2   2   2   2
#     4  11  24  40  66 100 139 174 223 276 337 407
#     4  10  21  39  62  93 134 179 218 271 338 391
#     4  10  20  38  66  96 130 172 212 276 332 400
#     4  12  25  39  71 106 129 182 228 273 342 404
#     4  10  23  42  69  98 135 172 230 274 339 403
#     4   9  23  43  63  93 133 183 218 283 332 386
#     4  11  23  39  64  94 139 174 212 267 338 408
#     4  10  24  46  68  97 133 180 232 285 331 390
#
# _framework density 24.710117
#
# number of rings (size 3 to 8) (size 9 to 14) (size 15 to 20)
#    0.000    1.600    1.333    2.000    3.733    8.000 
#    0.000    7.333    0.000    0.000    0.000    0.000 
#    0.000    0.000    0.000    0.000    0.000    0.000 
#
# Total GULP energy -83773.339041 kJ/mol
# GULP energy per Si atom -5584.889269 kJ/mol
# Density = 2.465388 g / cm^3
# Si number density = 24.710117 Si / 1000 Ang^3
#
#
#
# Elastic Constant Matrix: (Units=GPa)
#
#
# Indices 1 2 3 4 5 6 
#
# 1 96.0474 39.7352 23.0864 -24.4691 -0.3456 -22.1953
# 2 39.7352 151.1640 70.9066 -24.9819 4.7027 -20.1627
# 3 23.0864 70.9066 134.2381 -2.0017 -14.9082 -6.2255
# 4 -24.4691 -24.9819 -2.0017 60.8965 -3.5283 12.4653
# 5 -0.3456 4.7027 -14.9082 -3.5283 26.3485 -14.0368
# 6 -22.1953 -20.1627 -6.2255 12.4653 -14.0368 30.9744
#
#
#
# Elastic Compliance Matrix: (Units=1/GPa)
#
#
# Indices 1 2 3 4 5 6 
#
# 1 0.014637 -0.001991 -0.000170 0.003216 0.006685 0.010893
# 2 -0.001991 0.010509 -0.005537 0.002817 -0.003915 0.001393
# 3 -0.000170 -0.005537 0.011557 -0.002171 0.009165 0.003624
# 4 0.003216 0.002817 -0.002171 0.019725 -0.001719 -0.005015
# 5 0.006685 -0.003915 0.009165 -0.001719 0.060954 0.032399
# 6 0.010893 0.001393 0.003624 -0.005015 0.032399 0.058426
#
#
# Mechanical properties :
#
#
# Convention : Reuss Voigt Hill
#
# Bulk Modulus (GPa) = 46.93317 72.10066 59.51691
# Shear Modulus (GPa) = 25.21355 40.15864 32.68610
#
# Velocity S-wave (km/s) = 3.19779 4.03574 3.64095
# Velocity P-wave (km/s) = 5.71570 7.13850 6.46635
#
# Compressibility (1/GPa) = 0.02130689
#
# Stress axis : x y z
#
# Youngs Moduli (GPa) = 68.32071 95.15576 86.52944
#
# Poissons Ratio (x) = 0.18948 0.01470
# Poissons Ratio (y) = 0.13604 0.47909
# Poissons Ratio (z) = 0.01161 0.52686
#
# Static dielectric constant tensor:
#      x y z
#    x 1.240220 0.080750 0.392750 
#    y 0.080750 1.989770 0.000370 
#    z 0.392750 0.000370 1.784830 
# 
# From -- ./inp_files/94062.got.cif
#   From: 2010.05.17/outbox.cif.g08.bks.cpg/sg2_48_cif.got.tgz:94062.got - 2010.06.03 11:33:40.
