data_PCOD9103900
_publ_section_title
;
Structure prediction by ZEFSAII (Michael W. Deem and Ramdas Pophale) SiO2 
 PCOD9103900
Probable space group: P -1
;
_chemical_formula_sum "Si O2"
_cell_formula_units_Z 16
_cell_length_a 13.892004
_cell_length_b 8.006700
_cell_length_c 25.783500
_cell_angle_alpha 44.423520
_cell_angle_beta 158.095145
_cell_angle_gamma 124.451985
_cell_volume 695.408966
_symmetry_space_group_name_H-M "P -1"
_symmetry_group_IT_number 2
_symmetry_cell_setting 'triclinic'
loop_
_space_group_symop_operation_xyz
x,y,z
-x,-y,-z
loop_
_atom_site_type_symbol
_atom_site_label
_atom_site_fract_x
_atom_site_fract_y
_atom_site_fract_z
Si Si1 0.651965 0.311264 0.801296
Si Si2 0.753779 0.833458 0.891009
Si Si3 0.785635 0.790708 0.322930
Si Si4 0.610133 0.261167 0.065046
Si Si5 0.029770 0.392696 0.727015
Si Si6 0.846648 0.980573 0.480514
Si Si7 0.571765 0.251393 0.481971
Si Si8 0.991956 0.479296 0.808666
O O1 0.478119 0.217205 0.775539
O O2 0.486789 0.599386 0.635341
O O3 0.684638 0.126792 0.808546
O O4 0.969586 0.267439 0.983147
O O5 0.474271 0.830849 0.726194
O O6 0.837005 0.688278 0.020194
O O7 0.000000 0.500000 0.500000
O O8 0.665047 0.969772 0.173555
O O9 0.963490 0.948226 0.399847
O O10 0.896256 0.287228 0.186486
O O11 0.500000 0.500000 0.000000
O O12 0.343892 0.336425 0.878001
O O13 0.865907 0.693307 0.565737
O O14 0.868326 0.232609 0.655305
O O15 0.041152 0.355373 0.803518
O O16 0.000000 0.000000 0.500000
O O17 0.331884 0.429079 0.361434
O O18 0.500000 0.000000 0.500000
#
# Coordination Sequence:
#
# PCOD9103900 Si02
#       8
#     2   2   2   2   2   2   2   2
#     4  10  21  40  63  89 130 168 212 264 333 378
#     4  10  20  38  69  96 124 165 222 276 309 382
#     4  12  25  42  65  98 139 172 210 280 334 389
#     4  10  20  40  66  92 127 165 222 261 319 377
#     4  11  21  40  66  95 120 169 225 264 309 390
#     4  12  21  39  68  99 127 170 227 265 321 397
#     4  11  24  40  61  89 130 169 208 267 327 384
#     4  10  21  39  66  91 125 163 214 265 319 379
#
# _framework density 23.008044999999999
#
# number of rings (size 3 to 8) (size 9 to 14) (size 15 to 20)
#    0.000    1.250    5.000    2.625    1.750    0.000 
#    6.750    1.250    0.000    0.000    0.000    0.000 
#    0.000    0.000    0.000    0.000    0.000    0.000 
#
# Total GULP energy -89271.083258 kJ/mol
# GULP energy per Si atom -5579.442704 kJ/mol
# Density = 2.295568 g / cm^3
# Si number density = 23.008045 Si / 1000 Ang^3
#
#
#
# Elastic Constant Matrix: (Units=GPa)
#
#
# Indices 1 2 3 4 5 6 
#
# 1 49.9288 24.0487 24.2741 7.0002 9.1799 23.0990
# 2 24.0487 115.6628 26.4246 -2.1396 -12.2011 30.7034
# 3 24.2741 26.4246 119.2397 21.0032 1.3985 17.5008
# 4 7.0002 -2.1396 21.0032 53.2936 13.5123 6.1809
# 5 9.1799 -12.2011 1.3985 13.5123 23.9711 3.4609
# 6 23.0990 30.7034 17.5008 6.1809 3.4609 30.6676
#
#
#
# Elastic Compliance Matrix: (Units=1/GPa)
#
#
# Indices 1 2 3 4 5 6 
#
# 1 0.034407 -0.002016 -0.003784 0.002438 -0.012348 -0.020836
# 2 -0.002016 0.013665 -0.000898 0.000243 0.009487 -0.012770
# 3 -0.003784 -0.000898 0.010292 -0.004160 0.002971 -0.001621
# 4 0.002438 0.000243 -0.004160 0.023888 -0.013602 -0.002985
# 5 -0.012348 0.009487 0.002971 -0.013602 0.059617 -0.005879
# 6 -0.020836 -0.012770 -0.001621 -0.002985 -0.005879 0.063276
#
#
# Mechanical properties :
#
#
# Convention : Reuss Voigt Hill
#
# Bulk Modulus (GPa) = 22.23797 48.25847 35.24822
# Shear Modulus (GPa) = 21.41050 35.59204 28.50127
#
# Velocity S-wave (km/s) = 3.05383 3.93738 3.52341
# Velocity P-wave (km/s) = 4.70327 6.45684 5.64852
#
# Compressibility (1/GPa) = 0.04496814
#
# Stress axis : x y z
#
# Youngs Moduli (GPa) = 29.06372 73.17867 97.16640
#
# Poissons Ratio (x) = 0.14752 0.36770
# Poissons Ratio (y) = 0.05859 0.08723
# Poissons Ratio (z) = 0.10999 0.06570
#
# Static dielectric constant tensor:
#      x y z
#    x 2.125570 0.178350 -0.042210 
#    y 0.178350 2.031820 -0.084310 
#    z -0.042210 -0.084310 1.935080 
# 
# From -- ./inp_files/619244.got.cif
#   From: 2010.05.17/outbox.cif.g08.bks.cpg/sg2_310_cif.got.tgz:619244.got - 2010.06.03 11:33:40.
