data_PCOD9103774
_publ_section_title
;
Structure prediction by ZEFSAII (Michael W. Deem and Ramdas Pophale) SiO2 
 PCOD9103774
Probable space group: P -1
;
_chemical_formula_sum "Si O2"
_cell_formula_units_Z 15
_cell_length_a 18.463202
_cell_length_b 7.961502
_cell_length_c 12.176634
_cell_angle_alpha 61.037364
_cell_angle_beta 146.248299
_cell_angle_gamma 133.649794
_cell_volume 701.435577
_symmetry_space_group_name_H-M "P -1"
_symmetry_group_IT_number 2
_symmetry_cell_setting 'triclinic'
loop_
_space_group_symop_operation_xyz
x,y,z
-x,-y,-z
loop_
_atom_site_type_symbol
_atom_site_label
_atom_site_fract_x
_atom_site_fract_y
_atom_site_fract_z
Si Si1 0.809963 0.824839 0.522442
Si Si2 0.319870 0.907898 0.826448
Si Si3 0.832259 0.468278 0.435377
Si Si4 0.259486 0.897966 0.171310
Si Si5 0.372699 0.710540 0.555789
Si Si6 0.000000 0.000000 0.500000
Si Si7 0.850553 0.400924 0.087651
Si Si8 0.067150 0.108457 0.931426
O O1 0.694582 0.549088 0.494802
O O2 0.942171 0.866877 0.588515
O O3 0.713770 0.901468 0.307823
O O4 0.908656 0.999368 0.691002
O O5 0.207414 0.684784 0.675093
O O6 0.268444 0.824747 0.912620
O O7 0.500000 0.000000 0.000000
O O8 0.679085 0.337095 0.366490
O O9 0.896756 0.733311 0.397109
O O10 0.973684 0.492494 0.676128
O O11 0.287061 0.804902 0.348497
O O12 0.171695 0.686910 0.037268
O O13 0.437128 0.100928 0.283231
O O14 0.164089 0.010337 0.038630
O O15 0.827230 0.606813 0.013465
O O16 0.000000 0.000000 0.000000
#
# Coordination Sequence:
#
# PCOD9103774 Si02
#       8
#     2   2   2   2   2   1   2   2
#     4  11  23  44  67  97 132 175 225 273 333 404
#     4  12  26  42  65 100 139 175 219 279 340 397
#     4  11  21  43  66  94 134 173 223 278 325 399
#     4  11  25  47  68  99 137 176 225 282 337 400
#     4  10  24  45  68  96 136 177 220 282 343 393
#     4  10  20  38  68  92 122 176 222 262 328 384
#     4  12  24  44  70  99 134 180 226 275 332 401
#     4  12  26  43  72 103 129 178 231 274 335 399
#
# _framework density 21.384716000000001
#
# number of rings (size 3 to 8) (size 9 to 14) (size 15 to 20)
#    0.000    0.800    2.667    5.200    1.867    1.600 
#    0.000    4.000    0.000    0.000    0.000    0.000 
#    0.000    0.000    0.000    0.000    0.000    0.000 
#
# Total GULP energy -83649.312965 kJ/mol
# GULP energy per Si atom -5576.620864 kJ/mol
# Density = 2.133604 g / cm^3
# Si number density = 21.384716 Si / 1000 Ang^3
#
#
#
# Elastic Constant Matrix: (Units=GPa)
#
#
# Indices 1 2 3 4 5 6 
#
# 1 57.3907 3.5910 13.7086 -2.3148 -5.6394 -12.6999
# 2 3.5910 114.8431 18.8606 -12.0088 8.6336 -18.7374
# 3 13.7086 18.8606 61.3364 -5.2518 -3.7051 -7.3290
# 4 -2.3148 -12.0088 -5.2518 34.3547 -8.0544 -0.1873
# 5 -5.6394 8.6336 -3.7051 -8.0544 23.7009 -0.3906
# 6 -12.6999 -18.7374 -7.3290 -0.1873 -0.3906 42.5348
#
#
#
# Elastic Compliance Matrix: (Units=1/GPa)
#
#
# Indices 1 2 3 4 5 6 
#
# 1 0.020063 0.000771 -0.003551 0.002233 0.004792 0.005772
# 2 0.000771 0.010341 -0.002810 0.002536 -0.003091 0.004284
# 3 -0.003551 -0.002810 0.018530 0.002544 0.003955 0.000943
# 4 0.002233 0.002536 0.002544 0.033204 0.011330 0.002473
# 5 0.004792 -0.003091 0.003955 0.011330 0.048948 0.001250
# 6 0.005772 0.004284 0.000943 0.002473 0.001250 0.027306
#
#
# Mechanical properties :
#
#
# Convention : Reuss Voigt Hill
#
# Bulk Modulus (GPa) = 26.48645 33.98784 30.23715
# Shear Modulus (GPa) = 27.44906 33.27876 30.36391
#
# Velocity S-wave (km/s) = 3.58660 3.94914 3.77223
# Velocity P-wave (km/s) = 5.43729 6.05989 5.75702
#
# Compressibility (1/GPa) = 0.03775515
#
# Stress axis : x y z
#
# Youngs Moduli (GPa) = 49.84418 96.69846 53.96527
#
# Poissons Ratio (x) = -0.07453 0.19161
# Poissons Ratio (y) = -0.03842 0.15163
# Poissons Ratio (z) = 0.17698 0.27170
#
# Static dielectric constant tensor:
#      x y z
#    x 1.813140 -0.056790 0.016380 
#    y -0.056790 1.771480 -0.001370 
#    z 0.016380 -0.001370 1.765870 
# 
# From -- ./inp_files/469261.got.cif
#   From: 2010.05.17/outbox.cif.g08.bks.cpg/sg2_235_cif.got.tgz:469261.got - 2010.06.03 11:33:40.
