data_PCOD9103993
_publ_section_title
;
Structure prediction by ZEFSAII (Michael W. Deem and Ramdas Pophale) SiO2 
 PCOD9103993
Probable space group: P -1
;
_chemical_formula_sum "Si O2"
_cell_formula_units_Z 14
_cell_length_a 18.625300
_cell_length_b 11.296502
_cell_length_c 12.630526
_cell_angle_alpha 145.544413
_cell_angle_beta 25.617519
_cell_angle_gamma 148.384425
_cell_volume 583.174336
_symmetry_space_group_name_H-M "P -1"
_symmetry_group_IT_number 2
_symmetry_cell_setting 'triclinic'
loop_
_space_group_symop_operation_xyz
x,y,z
-x,-y,-z
loop_
_atom_site_type_symbol
_atom_site_label
_atom_site_fract_x
_atom_site_fract_y
_atom_site_fract_z
Si Si1 0.136972 0.537042 0.571918
Si Si2 0.678676 0.925239 0.858081
Si Si3 0.903352 0.559398 0.077562
Si Si4 0.511097 0.281661 0.380926
Si Si5 0.794526 0.965596 0.223592
Si Si6 0.506895 0.565250 0.165481
Si Si7 0.021440 0.036749 0.332074
O O1 0.315038 0.587970 0.445693
O O2 0.092127 0.300046 0.393567
O O3 0.187782 0.774878 0.620357
O O4 0.955499 0.467833 0.834374
O O5 0.524306 0.662652 0.892752
O O6 0.821355 0.971803 0.803603
O O7 0.823400 0.957828 0.595775
O O8 0.573514 0.089954 0.107451
O O9 0.699597 0.438247 0.304833
O O10 0.980439 0.832387 0.154108
O O11 0.000000 0.500000 0.000000
O O12 0.500000 0.500000 0.500000
O O13 0.334013 0.151437 0.591005
O O14 0.677944 0.793771 0.154257
O O15 0.000000 0.000000 0.000000
O O16 0.500000 0.500000 0.000000
#
# Coordination Sequence:
#
# PCOD9103993 Si02
#       7
#     2   2   2   2   2   2   2
#     4  11  24  43  73 109 146 188 249 313 371 445
#     4  10  20  41  66 107 144 176 245 312 362 436
#     4  12  21  40  76 105 143 188 246 313 370 436
#     4  12  25  46  70 104 149 202 243 299 377 453
#     4  12  28  49  69 104 155 203 247 300 377 451
#     4  11  25  45  76 109 145 194 251 315 372 437
#     4  10  20  38  71 111 142 177 242 311 376 428
#
# _framework density 24.006542
#
# number of rings (size 3 to 8) (size 9 to 14) (size 15 to 20)
#    0.000    0.857    2.857    5.571    4.000    0.000 
#    2.571    2.857    0.000    0.000    0.000    0.000 
#    0.000    0.000    0.000    0.000    0.000    0.000 
#
# Total GULP energy -78093.210230 kJ/mol
# GULP energy per Si atom -5578.086445 kJ/mol
# Density = 2.395190 g / cm^3
# Si number density = 24.006542 Si / 1000 Ang^3
#
#
#
# Elastic Constant Matrix: (Units=GPa)
#
#
# Indices 1 2 3 4 5 6 
#
# 1 29.6733 21.5030 30.1464 2.1139 -13.3358 -9.4078
# 2 21.5030 198.1116 60.3515 13.9765 -15.2102 -14.5813
# 3 30.1464 60.3515 133.2115 -0.9603 -18.2878 -8.0828
# 4 2.1139 13.9765 -0.9603 63.1428 -2.9124 -6.5808
# 5 -13.3358 -15.2102 -18.2878 -2.9124 37.1379 1.3677
# 6 -9.4078 -14.5813 -8.0828 -6.5808 1.3677 45.0291
#
#
#
# Elastic Compliance Matrix: (Units=1/GPa)
#
#
# Indices 1 2 3 4 5 6 
#
# 1 0.052529 -0.001308 -0.008908 -0.000088 0.013619 0.008525
# 2 -0.001308 0.006118 -0.002313 -0.001196 0.000763 0.001095
# 3 -0.008908 -0.002313 0.010711 0.000969 0.001225 -0.000583
# 4 -0.000088 -0.001196 0.000969 0.016395 0.001163 0.002129
# 5 0.013619 0.000763 0.001225 0.001163 0.032732 0.002488
# 6 0.008525 0.001095 -0.000583 0.002129 0.002488 0.024474
#
#
# Mechanical properties :
#
#
# Convention : Reuss Voigt Hill
#
# Bulk Modulus (GPa) = 22.57462 64.99981 43.78722
# Shear Modulus (GPa) = 27.35455 45.66166 36.50810
#
# Velocity S-wave (km/s) = 3.37925 4.36598 3.90392
# Velocity P-wave (km/s) = 4.96485 7.24916 6.21290
#
# Compressibility (1/GPa) = 0.04429753
#
# Stress axis : x y z
#
# Youngs Moduli (GPa) = 19.03715 163.45664 93.36497
#
# Poissons Ratio (x) = 0.21386 0.83174
# Poissons Ratio (y) = 0.02491 0.21596
# Poissons Ratio (z) = 0.16959 0.37809
#
# Static dielectric constant tensor:
#      x y z
#    x 1.931760 0.034650 0.047610 
#    y 0.034650 1.933850 0.002990 
#    z 0.047610 0.002990 1.879950 
# 
# From -- ./inp_files/541155.got.cif
#   From: 2010.05.17/outbox.cif.g08.bks.cpg/sg2_271_cif.got.tgz:541155.got - 2010.06.03 11:33:40.
