data_PCOD9103209
_publ_section_title
;
Structure prediction by ZEFSAII (Michael W. Deem and Ramdas Pophale) SiO2 
 PCOD9103209
Probable space group: P -1
;
_chemical_formula_sum "Si O2"
_cell_formula_units_Z 16
_cell_length_a 9.465228
_cell_length_b 13.685833
_cell_length_c 24.969895
_cell_angle_alpha 22.256769
_cell_angle_beta 35.829778
_cell_angle_gamma 48.152425
_cell_volume 664.750189
_symmetry_space_group_name_H-M "P -1"
_symmetry_group_IT_number 2
_symmetry_cell_setting 'triclinic'
loop_
_space_group_symop_operation_xyz
x,y,z
-x,-y,-z
loop_
_atom_site_type_symbol
_atom_site_label
_atom_site_fract_x
_atom_site_fract_y
_atom_site_fract_z
Si Si1 0.410301 0.232078 0.733114
Si Si2 0.339042 0.907434 0.699132
Si Si3 0.149631 0.490793 0.885951
Si Si4 0.587805 0.298102 0.849103
Si Si5 0.277212 0.475777 0.418984
Si Si6 0.873727 0.419141 0.408959
Si Si7 0.311126 0.158361 0.289947
Si Si8 0.817905 0.346335 0.960197
O O1 0.508526 0.269115 0.744822
O O2 0.677568 0.345511 0.557960
O O3 0.259011 0.435491 0.664777
O O4 0.234104 0.926608 0.921188
O O5 0.281981 0.804309 0.707875
O O6 0.601740 0.907668 0.645096
O O7 0.295884 0.191956 0.578549
O O8 0.121289 0.664723 0.922234
O O9 0.335146 0.338262 0.928461
O O10 0.073438 0.444024 0.870298
O O11 0.672402 0.514492 0.664173
O O12 0.838831 0.373738 0.770036
O O13 0.500000 0.000000 0.000000
O O14 0.000000 0.500000 0.500000
O O15 0.871293 0.129868 0.534168
O O16 0.568140 0.254362 0.123802
O O17 0.199816 0.400393 0.197149
#
# Coordination Sequence:
#
# PCOD9103209 Si02
#       8
#     2   2   2   2   2   2   2   2
#     4  10  20  38  66  96 126 166 219 266 315 387
#     4  10  22  43  68  93 124 171 223 269 318 394
#     4  10  23  42  65  93 133 170 213 270 330 384
#     4  12  26  42  62  96 136 172 213 272 335 384
#     4  12  24  40  67  97 127 166 224 268 322 389
#     4  10  20  38  65  92 129 169 213 266 322 387
#     4   9  18  36  62  93 121 163 219 261 315 382
#     4   9  19  34  63  94 124 165 211 263 319 381
#
# _framework density 24.069192000000001
#
# number of rings (size 3 to 8) (size 9 to 14) (size 15 to 20)
#    0.000    1.750    2.500    1.500    3.500    4.500 
#    0.000    4.375    0.000    0.000    0.000    0.000 
#    0.000    0.000    0.000    0.000    0.000    0.000 
#
# Total GULP energy -89522.263062 kJ/mol
# GULP energy per Si atom -5595.141441 kJ/mol
# Density = 2.401441 g / cm^3
# Si number density = 24.069192 Si / 1000 Ang^3
#
#
#
# Elastic Constant Matrix: (Units=GPa)
#
#
# Indices 1 2 3 4 5 6 
#
# 1 134.3084 25.2179 41.5543 -18.4373 -34.5249 -10.1514
# 2 25.2179 73.0348 34.6424 -21.9762 -17.7054 -16.0524
# 3 41.5543 34.6424 84.0845 -28.3953 -20.1193 -4.6160
# 4 -18.4373 -21.9762 -28.3953 53.1767 5.2894 2.4810
# 5 -34.5249 -17.7054 -20.1193 5.2894 43.9235 0.0176
# 6 -10.1514 -16.0524 -4.6160 2.4810 0.0176 32.8549
#
#
#
# Elastic Compliance Matrix: (Units=1/GPa)
#
#
# Indices 1 2 3 4 5 6 
#
# 1 0.010492 0.000618 -0.003164 0.001380 0.006880 0.002992
# 2 0.000618 0.021000 -0.005339 0.005020 0.005897 0.009319
# 3 -0.003164 -0.005339 0.018433 0.006305 0.003046 -0.001474
# 4 0.001380 0.005020 0.006305 0.024331 0.003066 0.001926
# 5 0.006880 0.005897 0.003046 0.003066 0.031576 0.005186
# 6 0.002992 0.009319 -0.001474 0.001926 0.005186 0.035559
#
#
# Mechanical properties :
#
#
# Convention : Reuss Voigt Hill
#
# Bulk Modulus (GPa) = 29.27727 54.91743 42.09735
# Shear Modulus (GPa) = 29.66572 38.65853 34.16212
#
# Velocity S-wave (km/s) = 3.51453 4.01202 3.77149
# Velocity P-wave (km/s) = 5.35345 6.65791 6.04099
#
# Compressibility (1/GPa) = 0.03415619
#
# Stress axis : x y z
#
# Youngs Moduli (GPa) = 95.30723 47.62000 54.25004
#
# Poissons Ratio (x) = -0.02945 0.17162
# Poissons Ratio (y) = -0.05894 0.28966
# Poissons Ratio (z) = 0.30150 0.25426
#
# Static dielectric constant tensor:
#      x y z
#    x 1.951510 0.003890 -0.002320 
#    y 0.003890 1.986650 0.067620 
#    z -0.002320 0.067620 1.915150 
# 
# From -- ./inp_files/515119.got.cif
#   From: 2010.05.17/outbox.cif.g08.bks.cpg/sg2_258_cif.got.tgz:515119.got - 2010.06.03 11:33:40.
