data_PCOD9103156
_publ_section_title
;
Structure prediction by ZEFSAII (Michael W. Deem and Ramdas Pophale) SiO2 
 PCOD9103156
Probable space group: P -1
;
_chemical_formula_sum "Si O2"
_cell_formula_units_Z 16
_cell_length_a 24.209482
_cell_length_b 5.190170
_cell_length_c 20.828000
_cell_angle_alpha 131.635228
_cell_angle_beta 158.755995
_cell_angle_gamma 57.403839
_cell_volume 676.671022
_symmetry_space_group_name_H-M "P -1"
_symmetry_group_IT_number 2
_symmetry_cell_setting 'triclinic'
loop_
_space_group_symop_operation_xyz
x,y,z
-x,-y,-z
loop_
_atom_site_type_symbol
_atom_site_label
_atom_site_fract_x
_atom_site_fract_y
_atom_site_fract_z
Si Si1 0.327386 0.545609 0.610150
Si Si2 0.081550 0.170862 0.779223
Si Si3 0.566878 0.788472 0.814925
Si Si4 0.460435 0.378438 0.509297
Si Si5 0.529057 0.554698 0.941849
Si Si6 0.241026 0.229324 0.663300
Si Si7 0.910200 0.787464 0.929425
Si Si8 0.993155 0.118041 0.211242
O O1 0.414871 0.487764 0.631401
O O2 0.474642 0.710312 0.845080
O O3 0.185946 0.211596 0.427427
O O4 0.244254 0.860271 0.570097
O O5 0.051240 0.509765 0.765157
O O6 0.061555 0.149065 0.832194
O O7 0.263737 0.194137 0.968957
O O8 0.944775 0.807898 0.548305
O O9 0.562928 0.681956 0.719017
O O10 0.537388 0.166836 0.862130
O O11 0.500000 0.500000 0.500000
O O12 0.274813 0.348760 0.312430
O O13 0.500000 0.000000 0.500000
O O14 0.377644 0.517643 0.819208
O O15 0.688953 0.744835 0.185042
O O16 0.000000 0.500000 0.000000
O O17 0.920362 0.001062 0.042926
O O18 0.000000 0.000000 0.000000
#
# Coordination Sequence:
#
# PCOD9103156 Si02
#       8
#     2   2   2   2   2   2   2   2
#     4  10  21  38  65  93 126 170 212 266 318 387
#     4  11  23  42  63  93 126 173 211 260 315 389
#     4  11  26  39  65  96 128 167 219 268 325 381
#     4  12  27  47  68  95 137 181 218 270 340 405
#     4  10  20  38  65  90 130 163 218 264 320 383
#     4   9  20  39  61  95 124 173 212 259 322 386
#     4  12  25  41  67  99 128 164 222 283 326 387
#     4  11  23  42  66  88 128 169 213 260 325 385
#
# _framework density 23.645167000000001
#
# number of rings (size 3 to 8) (size 9 to 14) (size 15 to 20)
#    0.000    1.250    1.250    4.125    5.250    0.500 
#    0.000    0.625    0.000    0.000    0.000    0.000 
#    0.000    0.000    0.000    0.000    0.000    0.000 
#
# Total GULP energy -89341.336593 kJ/mol
# GULP energy per Si atom -5583.833537 kJ/mol
# Density = 2.359135 g / cm^3
# Si number density = 23.645167 Si / 1000 Ang^3
#
#
#
# Elastic Constant Matrix: (Units=GPa)
#
#
# Indices 1 2 3 4 5 6 
#
# 1 64.9932 22.9419 14.4794 -12.2439 -0.2413 15.6995
# 2 22.9419 99.1707 22.9862 -21.8455 7.0368 7.2401
# 3 14.4794 22.9862 142.8505 -30.6145 -4.1012 -13.0201
# 4 -12.2439 -21.8455 -30.6145 25.6933 -1.8804 -4.8041
# 5 -0.2413 7.0368 -4.1012 -1.8804 48.3571 -3.7078
# 6 15.6995 7.2401 -13.0201 -4.8041 -3.7078 33.1861
#
#
#
# Elastic Compliance Matrix: (Units=1/GPa)
#
#
# Indices 1 2 3 4 5 6 
#
# 1 0.019466 -0.002732 -0.001616 0.003373 -0.000184 -0.008779
# 2 -0.002732 0.012950 0.000247 0.009859 -0.001507 -0.000177
# 3 -0.001616 0.000247 0.010783 0.013769 0.001954 0.007153
# 4 0.003373 0.009859 0.013769 0.067770 0.003292 0.011834
# 5 -0.000184 -0.001507 0.001954 0.003292 0.021503 0.004062
# 6 -0.008779 -0.000177 0.007153 0.011834 0.004062 0.039298
#
#
# Mechanical properties :
#
#
# Convention : Reuss Voigt Hill
#
# Bulk Modulus (GPa) = 28.57370 47.53658 38.05514
# Shear Modulus (GPa) = 26.09067 37.88775 31.98921
#
# Velocity S-wave (km/s) = 3.32539 4.00727 3.68215
# Velocity P-wave (km/s) = 5.18217 6.44661 5.84866
#
# Compressibility (1/GPa) = 0.03499722
#
# Stress axis : x y z
#
# Youngs Moduli (GPa) = 51.37180 77.21922 92.73575
#
# Poissons Ratio (x) = 0.21093 0.14987
# Poissons Ratio (y) = 0.14032 -0.02287
# Poissons Ratio (z) = 0.08302 -0.01904
#
# Static dielectric constant tensor:
#      x y z
#    x 1.989450 -0.045590 0.018510 
#    y -0.045590 1.962890 0.025030 
#    z 0.018510 0.025030 1.935010 
# 
# From -- ./inp_files/47109.got.cif
#   From: 2010.05.17/outbox.cif.g08.bks.cpg/sg2_24_cif.got.tgz:47109.got - 2010.06.03 11:33:40.
