data_PCOD9103560
_publ_section_title
;
Structure prediction by ZEFSAII (Michael W. Deem and Ramdas Pophale) SiO2 
 PCOD9103560
Probable space group: P -1
;
_chemical_formula_sum "Si O2"
_cell_formula_units_Z 14
_cell_length_a 11.825205
_cell_length_b 17.648972
_cell_length_c 11.420191
_cell_angle_alpha 150.597449
_cell_angle_beta 142.594195
_cell_angle_gamma 32.801356
_cell_volume 616.384791
_symmetry_space_group_name_H-M "P -1"
_symmetry_group_IT_number 2
_symmetry_cell_setting 'triclinic'
loop_
_space_group_symop_operation_xyz
x,y,z
-x,-y,-z
loop_
_atom_site_type_symbol
_atom_site_label
_atom_site_fract_x
_atom_site_fract_y
_atom_site_fract_z
Si Si1 0.397697 0.259154 0.016105
Si Si2 0.157256 0.837450 0.829147
Si Si3 0.190936 0.563545 0.087871
Si Si4 0.059599 0.030476 0.779015
Si Si5 0.621488 0.566660 0.516510
Si Si6 0.223914 0.045071 0.697581
Si Si7 0.045916 0.378949 0.263636
O O1 0.606617 0.185801 0.008543
O O2 0.408469 0.366093 0.283349
O O3 0.213604 0.406620 0.980418
O O4 0.387927 0.090752 0.832392
O O5 0.196155 0.642120 0.623672
O O6 0.093465 0.885186 0.705569
O O7 0.000000 0.000000 0.000000
O O8 0.133990 0.534249 0.869867
O O9 0.406158 0.575806 0.302125
O O10 0.987780 0.756094 0.209030
O O11 0.237010 0.981852 0.757016
O O12 0.046541 0.199696 0.057769
O O13 0.841170 0.075754 0.594028
O O14 0.725289 0.665483 0.663965
O O15 0.000000 0.500000 0.500000
#
# Coordination Sequence:
#
# PCOD9103560 Si02
#       7
#     2   2   2   2   2   2   2
#     4  11  21  40  71 105 126 176 231 273 338 396
#     4  11  24  41  63  94 138 175 216 274 332 399
#     4  10  21  38  67 102 130 166 227 286 319 393
#     4  10  21  40  61  94 135 169 214 278 337 383
#     4  11  22  42  72 100 126 177 233 271 333 395
#     4  10  20  38  66  99 131 167 218 290 335 379
#     4  11  24  43  65  94 136 184 221 265 339 401
#
# _framework density 22.713086000000001
#
# number of rings (size 3 to 8) (size 9 to 14) (size 15 to 20)
#    0.000    1.429    2.857    4.714    2.000    1.143 
#    7.714    2.143    3.143    0.000    0.000    0.000 
#    0.000    0.000    0.000    0.000    0.000    0.000 
#
# Total GULP energy -78214.395336 kJ/mol
# GULP energy per Si atom -5586.742524 kJ/mol
# Density = 2.266139 g / cm^3
# Si number density = 22.713086 Si / 1000 Ang^3
#
#
#
# Elastic Constant Matrix: (Units=GPa)
#
#
# Indices 1 2 3 4 5 6 
#
# 1 80.0139 21.0052 26.9901 4.8892 -0.6079 -5.8482
# 2 21.0052 70.9933 6.8569 -5.7205 -14.0705 8.3865
# 3 26.9901 6.8569 118.8430 5.1934 0.4488 -0.2471
# 4 4.8892 -5.7205 5.1934 32.2558 1.7388 -9.3949
# 5 -0.6079 -14.0705 0.4488 1.7388 37.3937 5.3072
# 6 -5.8482 8.3865 -0.2471 -9.3949 5.3072 34.5376
#
#
#
# Elastic Compliance Matrix: (Units=1/GPa)
#
#
# Indices 1 2 3 4 5 6 
#
# 1 0.015254 -0.005203 -0.003081 -0.001536 -0.002131 0.003734
# 2 -0.005203 0.017934 0.000026 0.001856 0.007410 -0.005869
# 3 -0.003081 0.000026 0.009165 -0.001239 0.000021 -0.000803
# 4 -0.001536 0.001856 -0.001239 0.034504 -0.002194 0.009003
# 5 -0.002131 0.007410 0.000021 -0.002194 0.030658 -0.007468
# 6 0.003734 -0.005869 -0.000803 0.009003 -0.007468 0.034602
#
#
# Mechanical properties :
#
#
# Convention : Reuss Voigt Hill
#
# Bulk Modulus (GPa) = 38.70521 42.17273 40.43897
# Shear Modulus (GPa) = 29.89604 35.17063 32.53333
#
# Velocity S-wave (km/s) = 3.63195 3.93933 3.78876
# Velocity P-wave (km/s) = 5.88778 6.26890 6.08133
#
# Compressibility (1/GPa) = 0.02583632
#
# Stress axis : x y z
#
# Youngs Moduli (GPa) = 65.55854 55.75884 109.10944
#
# Poissons Ratio (x) = 0.29010 0.33617
# Poissons Ratio (y) = 0.34109 -0.00279
# Poissons Ratio (z) = 0.20199 -0.00142
#
# Static dielectric constant tensor:
#      x y z
#    x 1.853350 0.009040 0.048450 
#    y 0.009040 1.976810 0.001080 
#    z 0.048450 0.001080 1.872550 
# 
# From -- ./inp_files/436260.got.cif
#   From: 2010.05.17/outbox.cif.g08.bks.cpg/sg2_219_cif.got.tgz:436260.got - 2010.06.03 11:33:40.
