data_PCOD9103424
_publ_section_title
;
Structure prediction by ZEFSAII (Michael W. Deem and Ramdas Pophale) SiO2 
 PCOD9103424
Probable space group: P -1
;
_chemical_formula_sum "Si O2"
_cell_formula_units_Z 16
_cell_length_a 9.865411
_cell_length_b 15.890389
_cell_length_c 28.275092
_cell_angle_alpha 162.633467
_cell_angle_beta 140.492614
_cell_angle_gamma 46.834198
_cell_volume 809.186892
_symmetry_space_group_name_H-M "P -1"
_symmetry_group_IT_number 2
_symmetry_cell_setting 'triclinic'
loop_
_space_group_symop_operation_xyz
x,y,z
-x,-y,-z
loop_
_atom_site_type_symbol
_atom_site_label
_atom_site_fract_x
_atom_site_fract_y
_atom_site_fract_z
Si Si1 0.715911 0.196100 0.466086
Si Si2 0.592410 0.177359 0.529962
Si Si3 0.385326 0.668221 0.701239
Si Si4 0.004452 0.173163 0.700631
Si Si5 0.898682 0.172193 0.779881
Si Si6 0.018512 0.165403 0.288312
Si Si7 0.250984 0.833971 0.102937
Si Si8 0.761522 0.881663 0.848611
O O1 0.699470 0.146821 0.491582
O O2 0.728607 0.536432 0.642914
O O3 0.490731 0.990868 0.273139
O O4 0.916339 0.090403 0.442087
O O5 0.508701 0.468640 0.656897
O O6 0.772296 0.190429 0.625342
O O7 0.368141 0.921385 0.340674
O O8 0.221373 0.781963 0.751720
O O9 0.571445 0.892486 0.841141
O O10 0.219075 0.462123 0.507339
O O11 0.980527 0.132924 0.728634
O O12 0.179473 0.484783 0.902803
O O13 0.975541 0.978131 0.735689
O O14 0.000000 0.500000 0.000000
O O15 0.079905 0.963620 0.156729
O O16 0.248638 0.934068 0.102033
O O17 0.000000 0.000000 0.000000
#
# Coordination Sequence:
#
# PCOD9103424 Si02
#       8
#     2   2   2   2   2   2   2   2
#     4  11  23  43  63  94 127 170 217 260 317 390
#     4  10  21  43  61  89 129 163 209 268 318 376
#     4   9  20  40  65  89 122 160 208 259 322 367
#     4  12  25  39  66  93 131 174 208 262 329 381
#     4  11  21  41  61  89 127 163 218 261 312 375
#     4  10  20  38  66  91 117 163 211 270 302 373
#     4  12  22  41  65  95 127 167 215 265 316 381
#     4  11  24  42  63  95 135 166 209 269 324 382
#
# _framework density 19.772936000000001
#
# number of rings (size 3 to 8) (size 9 to 14) (size 15 to 20)
#    0.000    1.250    5.000    3.000    1.750    2.000 
#    2.250    2.500    0.000    0.000    0.000    0.000 
#    0.000    0.000    0.000    0.000    0.000    0.000 
#
# Total GULP energy -89404.896523 kJ/mol
# GULP energy per Si atom -5587.806033 kJ/mol
# Density = 1.972793 g / cm^3
# Si number density = 19.772936 Si / 1000 Ang^3
#
#
#
# Elastic Constant Matrix: (Units=GPa)
#
#
# Indices 1 2 3 4 5 6 
#
# 1 68.4598 49.4698 16.9057 15.0748 25.2105 -16.6567
# 2 49.4698 38.8260 -3.6991 -23.9168 4.1967 -3.6011
# 3 16.9057 -3.6991 42.1282 -11.4259 13.3243 11.4706
# 4 15.0748 -23.9168 -11.4259 14.3932 -3.4380 7.6486
# 5 25.2105 4.1967 13.3243 -3.4380 21.6069 12.0234
# 6 -16.6567 -3.6011 11.4706 7.6486 12.0234 33.7795
#
#
#
# Elastic Compliance Matrix: (Units=1/GPa)
#
#
# Indices 1 2 3 4 5 6 
#
# 1 0.002616 0.009593 0.007358 0.019450 -0.004743 -0.002902
# 2 0.009593 0.009498 -0.004222 -0.012550 -0.022453 0.018010
# 3 0.007358 -0.004222 0.027636 -0.001213 -0.027059 0.003700
# 4 0.019450 -0.012550 -0.001213 0.013332 -0.025600 0.014758
# 5 -0.004743 -0.022453 -0.027059 -0.025600 0.078667 -0.017748
# 6 -0.002902 0.018010 0.003700 0.014758 -0.017748 0.031812
#
#
# Mechanical properties :
#
#
# Convention : Reuss Voigt Hill
#
# Bulk Modulus (GPa) = 15.33547 30.52967 22.93257
# Shear Modulus (GPa) = 31.28184 19.73841 25.51013
#
# Velocity S-wave (km/s) = 3.98182 3.16294 3.59577
# Velocity P-wave (km/s) = 5.37703 5.36774 5.37239
#
# Compressibility (1/GPa) = 0.06520828
#
# Stress axis : x y z
#
# Youngs Moduli (GPa) = 382.25933 105.28722 36.18528
#
# Poissons Ratio (x) = -1.01000 -0.26626
# Poissons Ratio (y) = -3.66695 0.15276
# Poissons Ratio (z) = -2.81271 0.44447
#
# Static dielectric constant tensor:
#      x y z
#    x 1.694240 -0.002890 0.027080 
#    y -0.002890 1.745350 0.077710 
#    z 0.027080 0.077710 1.766100 
# 
# From -- ./inp_files/208781.got.cif
#   From: 2010.05.17/outbox.cif.g08.bks.cpg/sg2_105_cif.got.tgz:208781.got - 2010.06.03 11:33:40.
