data_PCOD9103105
_publ_section_title
;
Structure prediction by ZEFSAII (Michael W. Deem and Ramdas Pophale) SiO2 
 PCOD9103105
Probable space group: P -1
;
_chemical_formula_sum "Si O2"
_cell_formula_units_Z 16
_cell_length_a 8.607395
_cell_length_b 17.865029
_cell_length_c 17.744022
_cell_angle_alpha 160.422512
_cell_angle_beta 57.333701
_cell_angle_gamma 125.587567
_cell_volume 743.148088
_symmetry_space_group_name_H-M "P -1"
_symmetry_group_IT_number 2
_symmetry_cell_setting 'triclinic'
loop_
_space_group_symop_operation_xyz
x,y,z
-x,-y,-z
loop_
_atom_site_type_symbol
_atom_site_label
_atom_site_fract_x
_atom_site_fract_y
_atom_site_fract_z
Si Si1 0.948078 0.327234 0.279686
Si Si2 0.182208 0.300723 0.423079
Si Si3 0.759623 0.401841 0.175168
Si Si4 0.119341 0.365711 0.789627
Si Si5 0.909709 0.794705 0.017922
Si Si6 0.746755 0.998235 0.500690
Si Si7 0.604114 0.903638 0.948784
Si Si8 0.438336 0.264395 0.841830
O O1 0.870829 0.472773 0.376090
O O2 0.000000 0.500000 0.500000
O O3 0.104182 0.260047 0.120729
O O4 0.780370 0.097016 0.120832
O O5 0.259903 0.379171 0.560362
O O6 0.309495 0.265164 0.285130
O O7 0.011131 0.069720 0.255231
O O8 0.783548 0.470488 0.147537
O O9 0.563056 0.209523 0.058217
O O10 0.943691 0.314876 0.074073
O O11 0.255807 0.237894 0.677883
O O12 0.961289 0.154555 0.593466
O O13 0.000000 0.500000 0.000000
O O14 0.703325 0.716934 0.036174
O O15 0.683796 0.926448 0.364570
O O16 0.613563 0.157633 0.717385
O O17 0.500000 0.000000 0.000000
O O18 0.500000 0.500000 0.000000
#
# Coordination Sequence:
#
# PCOD9103105 Si02
#       8
#     2   2   2   2   2   2   2   2
#     4  10  23  41  61  88 132 171 205 268 338 390
#     4  10  20  38  65  85 122 160 214 269 319 387
#     4  11  21  36  65  96 121 167 214 274 334 378
#     4  11  23  43  64  94 138 169 214 277 334 387
#     4  10  21  37  64  93 118 167 223 260 323 406
#     4  10  23  41  64  94 128 174 220 271 331 390
#     4  11  20  39  63  97 121 157 228 270 316 396
#     4  11  22  42  68  91 129 174 221 272 323 395
#
# _framework density 21.53003
#
# number of rings (size 3 to 8) (size 9 to 14) (size 15 to 20)
#    0.000    1.500    3.750    3.375    0.000    6.000 
#    0.000    7.500    0.000    0.000    0.000    0.000 
#    0.000    0.000    0.000    0.000    0.000    0.000 
#
# Total GULP energy -89202.240196 kJ/mol
# GULP energy per Si atom -5575.140012 kJ/mol
# Density = 2.148103 g / cm^3
# Si number density = 21.530030 Si / 1000 Ang^3
#
#
#
# Elastic Constant Matrix: (Units=GPa)
#
#
# Indices 1 2 3 4 5 6 
#
# 1 60.0991 37.2893 16.8177 -13.3215 -5.0354 0.6966
# 2 37.2893 194.8812 45.5301 -12.7770 -3.8070 0.0541
# 3 16.8177 45.5301 79.0925 -11.0479 -2.8472 -2.0753
# 4 -13.3215 -12.7770 -11.0479 19.9334 -12.5131 -4.3732
# 5 -5.0354 -3.8070 -2.8472 -12.5131 45.9431 0.5881
# 6 0.6966 0.0541 -2.0753 -4.3732 0.5881 23.9019
#
#
#
# Elastic Compliance Matrix: (Units=1/GPa)
#
#
# Indices 1 2 3 4 5 6 
#
# 1 0.023315 -0.003031 -0.000278 0.018643 0.007332 0.002534
# 2 -0.003031 0.006448 -0.002989 0.000532 0.000163 -0.000092
# 3 -0.000278 -0.002989 0.015938 0.009433 0.003240 0.003045
# 4 0.018643 0.000532 0.009433 0.088306 0.026521 0.015779
# 5 0.007332 0.000163 0.003240 0.026521 0.029954 0.004183
# 6 0.002534 -0.000092 0.003045 0.015779 0.004183 0.044812
#
#
# Mechanical properties :
#
#
# Convention : Reuss Voigt Hill
#
# Bulk Modulus (GPa) = 30.20879 59.26079 44.73479
# Shear Modulus (GPa) = 21.51419 33.58471 27.54945
#
# Velocity S-wave (km/s) = 3.16454 3.95384 3.58101
# Velocity P-wave (km/s) = 5.23583 6.95904 6.15801
#
# Compressibility (1/GPa) = 0.03310295
#
# Stress axis : x y z
#
# Youngs Moduli (GPa) = 42.89049 155.08929 62.74491
#
# Poissons Ratio (x) = 0.47015 0.01744
# Poissons Ratio (y) = 0.13002 0.18757
# Poissons Ratio (z) = 0.01192 0.46362
#
# Static dielectric constant tensor:
#      x y z
#    x 1.823190 -0.038140 0.032040 
#    y -0.038140 1.760950 -0.042150 
#    z 0.032040 -0.042150 1.880520 
# 
# From -- ./inp_files/553554.got.cif
#   From: 2010.05.17/outbox.cif.g08.bks.cpg/sg2_277_cif.got.tgz:553554.got - 2010.06.03 11:33:40.
