data_PCOD9103206
_publ_section_title
;
Structure prediction by ZEFSAII (Michael W. Deem and Ramdas Pophale) SiO2 
 PCOD9103206
Probable space group: P -1
;
_chemical_formula_sum "Si O2"
_cell_formula_units_Z 16
_cell_length_a 14.267507
_cell_length_b 13.983493
_cell_length_c 6.423943
_cell_angle_alpha 111.550652
_cell_angle_beta 87.290892
_cell_angle_gamma 140.096092
_cell_volume 703.152419
_symmetry_space_group_name_H-M "P -1"
_symmetry_group_IT_number 2
_symmetry_cell_setting 'triclinic'
loop_
_space_group_symop_operation_xyz
x,y,z
-x,-y,-z
loop_
_atom_site_type_symbol
_atom_site_label
_atom_site_fract_x
_atom_site_fract_y
_atom_site_fract_z
Si Si1 0.790354 0.084620 0.262294
Si Si2 0.334595 0.822860 0.484497
Si Si3 0.993773 0.009042 0.763943
Si Si4 0.414030 0.574469 0.345178
Si Si5 0.738099 0.839143 0.362093
Si Si6 0.123333 0.314021 0.472250
Si Si7 0.503460 0.845213 0.826717
Si Si8 0.274903 0.584450 0.011882
O O1 0.771921 0.171117 0.469984
O O2 0.970970 0.220553 0.288173
O O3 0.729638 0.933793 0.290824
O O4 0.683964 0.014104 0.015092
O O5 0.399323 0.838060 0.711997
O O6 0.500000 0.000000 0.500000
O O7 0.247581 0.657191 0.226589
O O8 0.859274 0.963097 0.644599
O O9 0.933487 0.844077 0.558544
O O10 0.175801 0.169967 0.798965
O O11 0.000000 0.000000 0.000000
O O12 0.569283 0.650406 0.315458
O O13 0.276877 0.424308 0.403507
O O14 0.494470 0.742694 0.587434
O O15 0.329507 0.542125 0.123689
O O16 0.153822 0.425842 0.735625
O O17 0.415526 0.743910 0.971155
#
# Coordination Sequence:
#
# PCOD9103206 Si02
#       8
#     2   2   2   2   2   2   2   2
#     4  11  21  40  64  97 129 168 219 264 318 374
#     4  11  21  37  65 100 123 172 224 262 309 376
#     4  10  24  44  66  98 130 159 214 270 318 381
#     4  10  21  40  66  90 127 176 209 252 323 379
#     4  10  22  41  67  97 124 167 215 257 317 382
#     4  10  25  41  61  95 131 168 205 268 332 369
#     4  10  20  38  65  92 128 167 220 265 304 376
#     4  10  21  42  60  91 134 168 211 264 312 385
#
# _framework density 22.754667999999999
#
# number of rings (size 3 to 8) (size 9 to 14) (size 15 to 20)
#    0.000    1.750    2.500    1.125    3.500    4.000 
#    2.250    6.875    0.000    0.000    0.000    0.000 
#    0.000    0.000    0.000    0.000    0.000    0.000 
#
# Total GULP energy -89178.538103 kJ/mol
# GULP energy per Si atom -5573.658631 kJ/mol
# Density = 2.270288 g / cm^3
# Si number density = 22.754668 Si / 1000 Ang^3
#
#
#
# Elastic Constant Matrix: (Units=GPa)
#
#
# Indices 1 2 3 4 5 6 
#
# 1 77.3438 20.6846 4.6719 4.0620 2.0336 11.7544
# 2 20.6846 51.9130 8.0840 5.1361 -0.6198 20.8248
# 3 4.6719 8.0840 85.2023 -2.6458 10.3916 -2.3892
# 4 4.0620 5.1361 -2.6458 34.5501 -5.4625 0.6445
# 5 2.0336 -0.6198 10.3916 -5.4625 20.6459 0.2958
# 6 11.7544 20.8248 -2.3892 0.6445 0.2958 35.4576
#
#
#
# Elastic Compliance Matrix: (Units=1/GPa)
#
#
# Indices 1 2 3 4 5 6 
#
# 1 0.014669 -0.004929 -0.000212 -0.001255 -0.001790 -0.001944
# 2 -0.004929 0.028106 -0.003199 -0.003198 0.002309 -0.015050
# 3 -0.000212 -0.003199 0.012940 0.000407 -0.006522 0.002868
# 4 -0.001255 -0.003198 0.000407 0.030823 0.007954 0.001695
# 5 -0.001790 0.002309 -0.006522 0.007954 0.054094 -0.001798
# 6 -0.001944 -0.015050 0.002868 0.001695 -0.001798 0.037864
#
#
# Mechanical properties :
#
#
# Convention : Reuss Voigt Hill
#
# Bulk Modulus (GPa) = 25.61788 31.26001 28.43895
# Shear Modulus (GPa) = 24.01659 30.19861 27.10760
#
# Velocity S-wave (km/s) = 3.25231 3.64694 3.45526
# Velocity P-wave (km/s) = 5.03846 5.61260 5.33326
#
# Compressibility (1/GPa) = 0.03903524
#
# Stress axis : x y z
#
# Youngs Moduli (GPa) = 68.17214 35.57908 77.27710
#
# Poissons Ratio (x) = 0.17537 0.01637
# Poissons Ratio (y) = 0.33602 0.24724
# Poissons Ratio (z) = 0.01444 0.11383
#
# Static dielectric constant tensor:
#      x y z
#    x 1.909770 0.016140 -0.011360 
#    y 0.016140 1.902330 -0.007130 
#    z -0.011360 -0.007130 1.932660 
# 
# From -- ./inp_files/98464.got.cif
#   From: 2010.05.17/outbox.cif.g08.bks.cpg/sg2_50_cif.got.tgz:98464.got - 2010.06.03 11:33:40.
