data_PCOD9103858
_publ_section_title
;
Structure prediction by ZEFSAII (Michael W. Deem and Ramdas Pophale) SiO2 
 PCOD9103858
Probable space group: P -1
;
_chemical_formula_sum "Si O2"
_cell_formula_units_Z 16
_cell_length_a 6.660516
_cell_length_b 11.827300
_cell_length_c 10.945565
_cell_angle_alpha 52.858323
_cell_angle_beta 61.105024
_cell_angle_gamma 71.550755
_cell_volume 601.389920
_symmetry_space_group_name_H-M "P -1"
_symmetry_group_IT_number 2
_symmetry_cell_setting 'triclinic'
loop_
_space_group_symop_operation_xyz
x,y,z
-x,-y,-z
loop_
_atom_site_type_symbol
_atom_site_label
_atom_site_fract_x
_atom_site_fract_y
_atom_site_fract_z
Si Si1 0.878457 0.748520 0.690732
Si Si2 0.729511 0.073458 0.930451
Si Si3 0.534737 0.673205 0.523590
Si Si4 0.024315 0.444134 0.889752
Si Si5 0.456993 0.638118 0.284708
Si Si6 0.650765 0.250941 0.214820
Si Si7 0.881465 0.995742 0.683803
Si Si8 0.350627 0.031124 0.719646
O O1 0.983086 0.592345 0.732485
O O2 0.608994 0.724129 0.773493
O O3 0.918583 0.825862 0.760021
O O4 0.969908 0.881386 0.500298
O O5 0.673952 0.240203 0.830848
O O6 0.892472 0.026284 0.803648
O O7 0.767536 0.020855 0.089073
O O8 0.500000 0.000000 0.000000
O O9 0.443600 0.673830 0.410081
O O10 0.640114 0.515915 0.609881
O O11 0.363968 0.699497 0.671659
O O12 0.698836 0.804302 0.399013
O O13 0.272668 0.377446 0.822599
O O14 0.820311 0.333570 0.022273
O O15 0.000000 0.500000 0.000000
O O16 0.678012 0.080957 0.306292
O O17 0.624723 0.024664 0.682266
#
# Coordination Sequence:
#
# PCOD9103858 Si02
#       8
#     2   2   2   2   2   2   2   2
#     4  10  23  42  67  99 134 179 227 276 332 406
#     4  10  20  38  69 100 135 178 222 280 330 402
#     4  11  22  42  67  99 134 177 219 281 330 396
#     4  12  26  41  68 100 137 177 226 280 336 403
#     4  11  24  41  70 101 135 176 230 274 338 398
#     4  11  25  44  66  98 139 180 220 279 340 395
#     4   9  19  39  70  97 126 175 231 269 325 405
#     4  10  21  41  69  97 135 173 224 273 336 394
#
# _framework density 26.605035999999998
#
# number of rings (size 3 to 8) (size 9 to 14) (size 15 to 20)
#    0.000    1.500    3.750    1.500    7.000    1.000 
#    4.500    1.250    0.000    0.000    0.000    0.000 
#    0.000    0.000    0.000    0.000    0.000    0.000 
#
# Total GULP energy -89577.070979 kJ/mol
# GULP energy per Si atom -5598.566936 kJ/mol
# Density = 2.654448 g / cm^3
# Si number density = 26.605036 Si / 1000 Ang^3
#
#
#
# Elastic Constant Matrix: (Units=GPa)
#
#
# Indices 1 2 3 4 5 6 
#
# 1 82.6226 32.6280 35.8727 1.0067 -18.8409 9.7729
# 2 32.6280 182.0286 69.1665 -13.5277 -8.3992 6.0581
# 3 35.8727 69.1665 150.0728 -15.7475 -10.0390 5.5668
# 4 1.0067 -13.5277 -15.7475 54.9947 0.4985 -3.6734
# 5 -18.8409 -8.3992 -10.0390 0.4985 25.6571 3.0721
# 6 9.7729 6.0581 5.5668 -3.6734 3.0721 47.0152
#
#
#
# Elastic Compliance Matrix: (Units=1/GPa)
#
#
# Indices 1 2 3 4 5 6 
#
# 1 0.016927 -0.001512 -0.002630 -0.001799 0.011407 -0.003898
# 2 -0.001512 0.006868 -0.002693 0.000933 0.000088 -0.000185
# 3 -0.002630 -0.002693 0.008772 0.001890 0.000587 -0.000036
# 4 -0.001799 0.000933 0.001890 0.019100 -0.000836 0.001577
# 5 0.011407 0.000088 0.000587 -0.000836 0.048306 -0.005674
# 6 -0.003898 -0.000185 -0.000036 0.001577 -0.005674 0.022602
#
#
# Mechanical properties :
#
#
# Convention : Reuss Voigt Hill
#
# Bulk Modulus (GPa) = 52.92278 76.67317 64.79798
# Shear Modulus (GPa) = 35.07687 44.00385 39.54036
#
# Velocity S-wave (km/s) = 3.63496 4.07131 3.85931
# Velocity P-wave (km/s) = 6.12800 7.14019 6.65337
#
# Compressibility (1/GPa) = 0.01889545
#
# Stress axis : x y z
#
# Youngs Moduli (GPa) = 59.07848 145.61291 113.99618
#
# Poissons Ratio (x) = 0.22020 0.29983
# Poissons Ratio (y) = 0.08934 0.30700
# Poissons Ratio (z) = 0.15539 0.39215
#
# Static dielectric constant tensor:
#      x y z
#    x 2.310350 -0.166020 -0.050730 
#    y -0.166020 2.241580 0.078000 
#    z -0.050730 0.078000 2.117530 
# 
# From -- ./inp_files/392023.got.cif
#   From: 2010.05.17/outbox.cif.g08.bks.cpg/sg2_197_cif.got.tgz:392023.got - 2010.06.03 11:33:40.
