data_PCOD9103213
_publ_section_title
;
Structure prediction by ZEFSAII (Michael W. Deem and Ramdas Pophale) SiO2 
 PCOD9103213
Probable space group: P -1
;
_chemical_formula_sum "Si O2"
_cell_formula_units_Z 14
_cell_length_a 8.569427
_cell_length_b 11.319612
_cell_length_c 9.311950
_cell_angle_alpha 109.744435
_cell_angle_beta 95.962742
_cell_angle_gamma 48.160557
_cell_volume 623.822465
_symmetry_space_group_name_H-M "P -1"
_symmetry_group_IT_number 2
_symmetry_cell_setting 'triclinic'
loop_
_space_group_symop_operation_xyz
x,y,z
-x,-y,-z
loop_
_atom_site_type_symbol
_atom_site_label
_atom_site_fract_x
_atom_site_fract_y
_atom_site_fract_z
Si Si1 0.995150 0.854897 0.417921
Si Si2 0.876239 0.769279 0.114942
Si Si3 0.159198 0.417049 0.718792
Si Si4 0.314997 0.565537 0.902478
Si Si5 0.436646 0.465323 0.330984
Si Si6 0.686511 0.871825 0.576831
Si Si7 0.297879 0.247895 0.189702
O O1 0.222044 0.659377 0.344701
O O2 0.858577 0.893817 0.277350
O O3 0.875079 0.863545 0.549276
O O4 0.000000 0.000000 0.500000
O O5 0.902575 0.641550 0.180120
O O6 0.712673 0.804572 0.993428
O O7 0.089855 0.687842 0.012277
O O8 0.342106 0.408043 0.788476
O O9 0.231473 0.306697 0.541038
O O10 0.952752 0.606897 0.738957
O O11 0.362222 0.622389 0.790926
O O12 0.500000 0.500000 0.000000
O O13 0.500000 0.500000 0.500000
O O14 0.384971 0.343240 0.261978
O O15 0.616054 0.895543 0.742611
O O16 0.500000 0.000000 0.500000
#
# Coordination Sequence:
#
# PCOD9103213 Si02
#       7
#     2   2   2   2   2   2   2
#     4  11  26  46  63  93 143 171 210 270 336 397
#     4  10  21  41  68  97 128 176 213 278 332 373
#     4  10  20  38  65  92 132 165 218 268 321 385
#     4  11  19  33  63  99 128 157 213 271 327 374
#     4  12  25  38  67 105 132 169 216 275 325 382
#     4  11  25  41  65  91 127 183 217 259 326 397
#     4  11  21  42  68  96 125 165 230 273 317 379
#
# _framework density 22.442281999999999
#
# number of rings (size 3 to 8) (size 9 to 14) (size 15 to 20)
#    0.000    1.143    4.286    3.857    8.000    0.000 
#    0.000    3.571    3.143    0.000    0.000    0.000 
#    0.000    0.000    0.000    0.000    0.000    0.000 
#
# Total GULP energy -78049.278052 kJ/mol
# GULP energy per Si atom -5574.948432 kJ/mol
# Density = 2.239120 g / cm^3
# Si number density = 22.442282 Si / 1000 Ang^3
#
#
#
# Elastic Constant Matrix: (Units=GPa)
#
#
# Indices 1 2 3 4 5 6 
#
# 1 159.6281 21.2683 67.7611 -0.6257 22.8073 24.6532
# 2 21.2683 53.9886 41.0355 -3.9489 8.3956 -0.3623
# 3 67.7611 41.0355 170.6350 -18.5718 23.4791 12.1580
# 4 -0.6257 -3.9489 -18.5718 34.3139 -2.1858 4.6150
# 5 22.8073 8.3956 23.4791 -2.1858 52.6271 6.4993
# 6 24.6532 -0.3623 12.1580 4.6150 6.4993 32.4406
#
#
#
# Elastic Compliance Matrix: (Units=1/GPa)
#
#
# Indices 1 2 3 4 5 6 
#
# 1 0.008560 -0.001223 -0.002589 -0.000815 -0.001766 -0.005079
# 2 -0.001223 0.023154 -0.005236 -0.000747 -0.001293 0.003516
# 3 -0.002589 -0.005236 0.008971 0.004334 -0.001650 -0.001739
# 4 -0.000815 -0.000747 0.004334 0.032192 0.000581 -0.005709
# 5 -0.001766 -0.001293 -0.001650 0.000581 0.021024 -0.002348
# 6 -0.005079 0.003516 -0.001739 -0.005709 -0.002348 0.036659
#
#
# Mechanical properties :
#
#
# Convention : Reuss Voigt Hill
#
# Bulk Modulus (GPa) = 44.27249 71.59791 57.93520
# Shear Modulus (GPa) = 32.01295 40.82211 36.41753
#
# Velocity S-wave (km/s) = 3.78094 4.26958 4.03267
# Velocity P-wave (km/s) = 6.23144 7.50188 6.89598
#
# Compressibility (1/GPa) = 0.02258739
#
# Stress axis : x y z
#
# Youngs Moduli (GPa) = 116.82138 43.18819 111.47630
#
# Poissons Ratio (x) = 0.05284 0.28860
# Poissons Ratio (y) = 0.14292 0.58374
# Poissons Ratio (z) = 0.30244 0.22615
#
# Static dielectric constant tensor:
#      x y z
#    x 1.867270 -0.015140 0.003800 
#    y -0.015140 1.899790 -0.024000 
#    z 0.003800 -0.024000 1.892340 
# 
# From -- ./inp_files/176769.got.cif
#   From: 2010.05.17/outbox.cif.g08.bks.cpg/sg2_89_cif.got.tgz:176769.got - 2010.06.03 11:33:40.
