data_PCOD9103020
_publ_section_title
;
Structure prediction by ZEFSAII (Michael W. Deem and Ramdas Pophale) SiO2 
 PCOD9103020
Probable space group: P -1
;
_chemical_formula_sum "Si O2"
_cell_formula_units_Z 16
_cell_length_a 15.926850
_cell_length_b 8.283826
_cell_length_c 11.662949
_cell_angle_alpha 57.945694
_cell_angle_beta 86.391163
_cell_angle_gamma 130.915566
_cell_volume 756.432668
_symmetry_space_group_name_H-M "P -1"
_symmetry_group_IT_number 2
_symmetry_cell_setting 'triclinic'
loop_
_space_group_symop_operation_xyz
x,y,z
-x,-y,-z
loop_
_atom_site_type_symbol
_atom_site_label
_atom_site_fract_x
_atom_site_fract_y
_atom_site_fract_z
Si Si1 0.378403 0.082024 0.277874
Si Si2 0.905459 0.007644 0.035735
Si Si3 0.688556 0.690232 0.365691
Si Si4 0.592408 0.988335 0.456537
Si Si5 0.701368 0.846473 0.951328
Si Si6 0.698970 0.230406 0.953685
Si Si7 0.624012 0.313186 0.717260
Si Si8 0.179224 0.647957 0.879565
O O1 0.334000 0.970085 0.454690
O O2 0.544744 0.459620 0.123683
O O3 0.375022 0.873818 0.291520
O O4 0.290065 0.068424 0.212970
O O5 0.788347 0.760827 0.239403
O O6 0.823396 0.937010 0.958763
O O7 0.022656 0.370360 0.941219
O O8 0.000000 0.000000 0.000000
O O9 0.525449 0.371349 0.452610
O O10 0.688253 0.597431 0.526396
O O11 0.748960 0.013637 0.238720
O O12 0.711596 0.259220 0.250639
O O13 0.500000 0.000000 0.500000
O O14 0.703664 0.040934 0.955589
O O15 0.541720 0.951212 0.133272
O O16 0.817116 0.447315 0.961781
O O17 0.704825 0.408734 0.792225
#
# Coordination Sequence:
#
# PCOD9103020 Si02
#       8
#     2   2   2   2   2   2   2   2
#     4  10  20  38  64  96 129 160 212 266 322 362
#     4  12  27  44  64  91 130 176 218 262 328 393
#     4  12  23  41  64  97 126 166 226 263 315 377
#     4  12  21  37  66  99 126 162 217 269 312 372
#     4  10  22  39  64  92 129 170 210 263 321 386
#     4  10  20  40  63  97 131 162 209 257 330 373
#     4  10  22  36  66  99 131 160 207 272 318 376
#     4  12  25  40  66  92 128 173 211 268 324 381
#
# _framework density 21.151914999999999
#
# number of rings (size 3 to 8) (size 9 to 14) (size 15 to 20)
#    0.000    1.000    5.000    1.500    3.500    0.000 
#    0.000    1.250    0.000    0.000    0.000    0.000 
#    0.000    0.000    0.000    0.000    0.000    0.000 
#
# Total GULP energy -89498.291425 kJ/mol
# GULP energy per Si atom -5593.643214 kJ/mol
# Density = 2.110377 g / cm^3
# Si number density = 21.151915 Si / 1000 Ang^3
#
#
#
# Elastic Constant Matrix: (Units=GPa)
#
#
# Indices 1 2 3 4 5 6 
#
# 1 95.4038 24.2906 36.3702 18.6822 17.8499 20.0147
# 2 24.2906 83.8430 29.4715 14.0009 15.4372 27.0702
# 3 36.3702 29.4715 105.0923 35.2144 23.0566 19.6774
# 4 18.6822 14.0009 35.2144 29.2803 13.5750 6.6837
# 5 17.8499 15.4372 23.0566 13.5750 39.9078 11.8823
# 6 20.0147 27.0702 19.6774 6.6837 11.8823 36.4120
#
#
#
# Elastic Compliance Matrix: (Units=1/GPa)
#
#
# Indices 1 2 3 4 5 6 
#
# 1 0.013477 -0.000783 -0.001792 -0.004147 -0.001951 -0.004459
# 2 -0.000783 0.016652 -0.001122 -0.003154 -0.001290 -0.010343
# 3 -0.001792 -0.001122 0.017453 -0.017646 -0.001709 -0.003815
# 4 -0.004147 -0.003154 -0.017646 0.062745 -0.009814 0.005846
# 5 -0.001951 -0.001290 -0.001709 -0.009814 0.032496 -0.005848
# 6 -0.004459 -0.010343 -0.003815 0.005846 -0.005848 0.040501
#
#
# Mechanical properties :
#
#
# Convention : Reuss Voigt Hill
#
# Bulk Modulus (GPa) = 24.88355 51.62263 38.25309
# Shear Modulus (GPa) = 24.49610 34.06715 29.28162
#
# Velocity S-wave (km/s) = 3.40678 4.01757 3.72472
# Velocity P-wave (km/s) = 5.22156 6.78084 6.05163
#
# Compressibility (1/GPa) = 0.04018718
#
# Stress axis : x y z
#
# Youngs Moduli (GPa) = 74.20088 60.05266 57.29796
#
# Poissons Ratio (x) = 0.04702 0.10267
# Poissons Ratio (y) = 0.05810 0.06431
# Poissons Ratio (z) = 0.13296 0.06740
#
# Static dielectric constant tensor:
#      x y z
#    x 1.797720 -0.044220 0.010640 
#    y -0.044220 1.820170 0.044220 
#    z 0.010640 0.044220 1.763220 
# 
# From -- ./inp_files/444198.got.cif
#   From: 2010.05.17/outbox.cif.g08.bks.cpg/sg2_223_cif.got.tgz:444198.got - 2010.06.03 11:33:40.
