data_PCOD9103637
_publ_section_title
;
Structure prediction by ZEFSAII (Michael W. Deem and Ramdas Pophale) SiO2 
 PCOD9103637
Probable space group: P -1
;
_chemical_formula_sum "Si O2"
_cell_formula_units_Z 16
_cell_length_a 15.157953
_cell_length_b 11.583536
_cell_length_c 11.415940
_cell_angle_alpha 103.765602
_cell_angle_beta 138.159678
_cell_angle_gamma 43.354808
_cell_volume 686.926884
_symmetry_space_group_name_H-M "P -1"
_symmetry_group_IT_number 2
_symmetry_cell_setting 'triclinic'
loop_
_space_group_symop_operation_xyz
x,y,z
-x,-y,-z
loop_
_atom_site_type_symbol
_atom_site_label
_atom_site_fract_x
_atom_site_fract_y
_atom_site_fract_z
Si Si1 0.563808 0.718619 0.173864
Si Si2 0.991753 0.652377 0.190466
Si Si3 0.645886 0.316103 0.461960
Si Si4 0.962851 0.793402 0.454930
Si Si5 0.506238 0.030726 0.151082
Si Si6 0.149072 0.015318 0.007771
Si Si7 0.669261 0.287460 0.202782
Si Si8 0.483512 0.707425 0.458203
O O1 0.830366 0.458240 0.353892
O O2 0.580594 0.846729 0.235636
O O3 0.413088 0.782527 0.150906
O O4 0.386236 0.804305 0.915656
O O5 0.975810 0.741851 0.317596
O O6 0.275758 0.403312 0.378926
O O7 0.911160 0.803510 0.044039
O O8 0.767635 0.730527 0.011744
O O9 0.614464 0.332649 0.296544
O O10 0.526123 0.536964 0.423298
O O11 0.523233 0.302877 0.411193
O O12 0.926042 0.114038 0.747239
O O13 0.068971 0.844326 0.584902
O O14 0.727088 0.955415 0.345175
O O15 0.500000 0.000000 0.000000
O O16 0.222002 0.946201 0.198456
O O17 0.500000 0.500000 0.000000
#
# Coordination Sequence:
#
# PCOD9103637 Si02
#       8
#     2   2   2   2   2   2   2   2
#     4  10  19  30  52  75 108 142 163 208 272 314
#     4   9  17  31  48  73 102 127 169 220 255 300
#     4  10  20  31  46  75 104 136 176 214 255 314
#     4  10  16  33  50  73 111 134 172 213 255 312
#     4   9  19  31  48  76 107 131 180 218 247 313
#     4  10  17  30  47  73 102 134 174 208 264 308
#     4  10  19  33  52  77 112 139 168 208 264 322
#     4  10  17  31  51  68 105 137 171 220 267 290
#
# _framework density 23.292141000000001
#
# number of rings (size 3 to 8) (size 9 to 14) (size 15 to 20)
#    0.000    2.250    3.750    1.500    0.000    0.500 
#    0.000    0.000    0.000    0.000    0.000    7.000 
#    0.000    0.250    0.000    0.000    0.000    0.000 
#
# Total GULP energy -89144.543276 kJ/mol
# GULP energy per Si atom -5571.533955 kJ/mol
# Density = 2.323913 g / cm^3
# Si number density = 23.292141 Si / 1000 Ang^3
#
#
#
# Elastic Constant Matrix: (Units=GPa)
#
#
# Indices 1 2 3 4 5 6 
#
# 1 123.6064 10.1825 60.5811 2.2612 6.0640 -10.3872
# 2 10.1825 27.8306 11.8541 0.9736 -0.3774 -1.0352
# 3 60.5811 11.8541 100.9330 -13.6767 -3.5931 -4.8539
# 4 2.2612 0.9736 -13.6767 22.3468 -4.6049 0.5703
# 5 6.0640 -0.3774 -3.5931 -4.6049 40.1095 2.0230
# 6 -10.3872 -1.0352 -4.8539 0.5703 2.0230 22.4225
#
#
#
# Elastic Compliance Matrix: (Units=1/GPa)
#
#
# Indices 1 2 3 4 5 6 
#
# 1 0.013167 -0.000698 -0.008761 -0.007586 -0.003891 0.004715
# 2 -0.000698 0.038365 -0.004699 -0.004598 -0.000512 0.000594
# 3 -0.008761 -0.004699 0.017545 0.012762 0.004378 -0.001197
# 4 -0.007586 -0.004598 0.012762 0.055415 0.008769 -0.003164
# 5 -0.003891 -0.000512 0.004378 0.008769 0.027093 -0.003546
# 6 0.004715 0.000594 -0.001197 -0.003164 -0.003546 0.046951
#
#
# Mechanical properties :
#
#
# Convention : Reuss Voigt Hill
#
# Bulk Modulus (GPa) = 24.53337 46.40059 35.46698
# Shear Modulus (GPa) = 20.79515 28.29258 24.54387
#
# Velocity S-wave (km/s) = 2.99121 3.48901 3.24966
# Velocity P-wave (km/s) = 4.74189 6.01625 5.41668
#
# Compressibility (1/GPa) = 0.04076080
#
# Stress axis : x y z
#
# Youngs Moduli (GPa) = 75.94504 26.06559 56.99474
#
# Poissons Ratio (x) = 0.01819 0.49933
# Poissons Ratio (y) = 0.05301 0.26785
# Poissons Ratio (z) = 0.66535 0.12249
#
# Static dielectric constant tensor:
#      x y z
#    x 1.966940 0.007810 0.007940 
#    y 0.007810 1.910520 -0.022700 
#    z 0.007940 -0.022700 2.038420 
# 
# From -- ./inp_files/453850.got.cif
#   From: 2010.05.17/outbox.cif.g08.bks.cpg/sg2_227_cif.got.tgz:453850.got - 2010.06.03 11:33:40.
