data_PCOD9103169
_publ_section_title
;
Structure prediction by ZEFSAII (Michael W. Deem and Ramdas Pophale) SiO2 
 PCOD9103169
Probable space group: P -1
;
_chemical_formula_sum "Si O2"
_cell_formula_units_Z 12
_cell_length_a 20.044323
_cell_length_b 23.265102
_cell_length_c 13.031279
_cell_angle_alpha 19.154508
_cell_angle_beta 28.043276
_cell_angle_gamma 17.388430
_cell_volume 584.740829
_symmetry_space_group_name_H-M "P -1"
_symmetry_group_IT_number 2
_symmetry_cell_setting 'triclinic'
loop_
_space_group_symop_operation_xyz
x,y,z
-x,-y,-z
loop_
_atom_site_type_symbol
_atom_site_label
_atom_site_fract_x
_atom_site_fract_y
_atom_site_fract_z
Si Si1 0.272434 0.193796 0.728724
Si Si2 0.515174 0.803003 0.251581
Si Si3 0.068154 0.183724 0.837075
Si Si4 0.390858 0.987718 0.578549
Si Si5 0.970066 0.684583 0.649635
Si Si6 0.721239 0.205901 0.249111
O O1 0.168320 0.150537 0.865808
O O2 0.410864 0.199870 0.459434
O O3 0.079847 0.499955 0.526018
O O4 0.427809 0.940834 0.024988
O O5 0.358155 0.818830 0.499127
O O6 0.778420 0.491793 0.422645
O O7 0.500000 0.000000 0.000000
O O8 0.270796 0.953820 0.867623
O O9 0.904059 0.177917 0.073696
O O10 0.500000 0.000000 0.500000
O O11 0.177074 0.247023 0.360419
O O12 0.830019 0.968955 0.418499
O O13 0.000000 0.500000 0.000000
O O14 0.500000 0.500000 0.000000
#
# Coordination Sequence:
#
# PCOD9103169 Si02
#       6
#     2   2   2   2   2   2
#     4  10  21  41  66  92 124 173 216 255 325 389
#     4  12  23  40  67  95 130 169 217 269 321 384
#     4  10  23  40  64  93 129 170 212 263 321 385
#     4  10  20  38  65  91 123 164 213 259 309 383
#     4  12  23  40  68  96 124 168 219 262 322 381
#     4  12  26  42  63  97 133 164 217 272 321 380
#
# _framework density 20.521913999999999
#
# number of rings (size 3 to 8) (size 9 to 14) (size 15 to 20)
#    0.000    1.000    3.333    4.000    0.000    4.667 
#    0.000    0.833    3.667    0.000    0.000    0.000 
#    0.000    0.000    0.000    0.000    0.000    0.000 
#
# Total GULP energy -66925.041405 kJ/mol
# GULP energy per Si atom -5577.086784 kJ/mol
# Density = 2.047520 g / cm^3
# Si number density = 20.521914 Si / 1000 Ang^3
#
#
#
# Elastic Constant Matrix: (Units=GPa)
#
#
# Indices 1 2 3 4 5 6 
#
# 1 117.0896 63.7155 47.0493 6.0617 8.4206 -16.3613
# 2 63.7155 148.4567 46.4621 17.4548 -7.2406 0.2557
# 3 47.0493 46.4621 75.8183 11.7076 -8.2565 -3.7558
# 4 6.0617 17.4548 11.7076 52.1262 -7.6233 -4.0671
# 5 8.4206 -7.2406 -8.2565 -7.6233 20.9922 2.9024
# 6 -16.3613 0.2557 -3.7558 -4.0671 2.9024 40.9006
#
#
#
# Elastic Compliance Matrix: (Units=1/GPa)
#
#
# Indices 1 2 3 4 5 6 
#
# 1 0.016421 -0.005174 -0.008085 0.000360 -0.012357 0.006771
# 2 -0.005174 0.010136 -0.002383 -0.001842 0.004359 -0.002844
# 3 -0.008085 -0.002383 0.020938 -0.001619 0.010372 -0.002194
# 4 0.000360 -0.001842 -0.001619 0.021135 0.006026 0.001681
# 5 -0.012357 0.004359 0.010372 0.006026 0.061440 -0.007779
# 6 0.006771 -0.002844 -0.002194 0.001681 -0.007779 0.027694
#
#
# Mechanical properties :
#
#
# Convention : Reuss Voigt Hill
#
# Bulk Modulus (GPa) = 61.68608 72.86871 67.27740
# Shear Modulus (GPa) = 25.71329 35.07964 30.39647
#
# Velocity S-wave (km/s) = 3.54357 4.13894 3.85277
# Velocity P-wave (km/s) = 6.84590 7.64369 7.25577
#
# Compressibility (1/GPa) = 0.01621111
#
# Stress axis : x y z
#
# Youngs Moduli (GPa) = 60.89772 98.65539 47.76057
#
# Poissons Ratio (x) = 0.51043 0.38616
# Poissons Ratio (y) = 0.31508 0.11380
# Poissons Ratio (z) = 0.49238 0.23507
#
# Static dielectric constant tensor:
#      x y z
#    x 1.734090 -0.046500 0.054900 
#    y -0.046500 1.635720 0.083290 
#    z 0.054900 0.083290 1.675630 
# 
# From -- ./inp_files/240798.got.cif
#   From: 2010.05.17/outbox.cif.g08.bks.cpg/sg2_121_cif.got.tgz:240798.got - 2010.06.03 11:33:40.
