data_PCOD9103124
_publ_section_title
;
Structure prediction by ZEFSAII (Michael W. Deem and Ramdas Pophale) SiO2 
 PCOD9103124
Probable space group: P -1
;
_chemical_formula_sum "Si O2"
_cell_formula_units_Z 14
_cell_length_a 5.290608
_cell_length_b 20.631300
_cell_length_c 12.197275
_cell_angle_alpha 150.052507
_cell_angle_beta 78.648073
_cell_angle_gamma 90.220187
_cell_volume 612.654850
_symmetry_space_group_name_H-M "P -1"
_symmetry_group_IT_number 2
_symmetry_cell_setting 'triclinic'
loop_
_space_group_symop_operation_xyz
x,y,z
-x,-y,-z
loop_
_atom_site_type_symbol
_atom_site_label
_atom_site_fract_x
_atom_site_fract_y
_atom_site_fract_z
Si Si1 0.991527 0.586261 0.463103
Si Si2 0.984591 0.291683 0.003490
Si Si3 0.772443 0.789059 0.583044
Si Si4 0.634556 0.321797 0.274532
Si Si5 0.261673 0.912037 0.915810
Si Si6 0.044194 0.139771 0.541975
Si Si7 0.623160 0.975116 0.331704
O O1 0.049122 0.431779 0.187947
O O2 0.955502 0.695387 0.526294
O O3 0.688715 0.633214 0.611677
O O4 0.215002 0.592201 0.541154
O O5 0.708111 0.323657 0.144051
O O6 0.979971 0.217617 0.779249
O O7 0.199282 0.185412 0.912243
O O8 0.466326 0.792511 0.644774
O O9 0.922866 0.760401 0.411957
O O10 0.680491 0.955314 0.845819
O O11 0.771207 0.172187 0.099482
O O12 0.000000 0.000000 0.000000
O O13 0.349272 0.026354 0.359234
O O14 0.816779 0.068041 0.433361
O O15 0.500000 0.000000 0.500000
#
# Coordination Sequence:
#
# PCOD9103124 Si02
#       7
#     2   2   2   2   2   2   2
#     4  11  25  42  62  93 127 170 211 260 309 384
#     4  11  24  42  66  90 131 169 207 258 327 372
#     4  10  23  39  63  96 129 159 217 257 317 379
#     4  11  24  40  65  93 124 163 220 263 308 374
#     4  10  20  38  65  88 122 167 206 264 313 354
#     4  11  25  41  66  98 127 165 209 269 313 380
#     4  10  23  41  63  93 126 162 212 255 312 376
#
# _framework density 22.851365999999999
#
# number of rings (size 3 to 8) (size 9 to 14) (size 15 to 20)
#    0.000    1.429    1.429    3.429    4.000    7.429 
#    0.000    0.000    0.000    6.857    0.000    0.000 
#    0.000    0.000    0.000    0.000    0.000    0.000 
#
# Total GULP energy -78074.896330 kJ/mol
# GULP energy per Si atom -5576.778309 kJ/mol
# Density = 2.279936 g / cm^3
# Si number density = 22.851366 Si / 1000 Ang^3
#
#
#
# Elastic Constant Matrix: (Units=GPa)
#
#
# Indices 1 2 3 4 5 6 
#
# 1 107.7286 33.7862 14.2852 -13.6779 -7.9046 8.8167
# 2 33.7862 161.7877 48.5412 -9.8420 -9.7554 12.3091
# 3 14.2852 48.5412 67.3437 7.2043 -3.7771 2.2842
# 4 -13.6779 -9.8420 7.2043 39.2611 1.7679 2.3573
# 5 -7.9046 -9.7554 -3.7771 1.7679 19.0265 5.2649
# 6 8.8167 12.3091 2.2842 2.3573 5.2649 23.2699
#
#
#
# Elastic Compliance Matrix: (Units=1/GPa)
#
#
# Indices 1 2 3 4 5 6 
#
# 1 0.011065 -0.000877 -0.001703 0.004034 0.004835 -0.005064
# 2 -0.000877 0.009097 -0.006312 0.003254 0.004165 -0.005132
# 3 -0.001703 -0.006312 0.020315 -0.006057 -0.000073 0.002620
# 4 0.004034 0.003254 -0.006057 0.029106 0.001054 -0.005842
# 5 0.004835 0.004165 -0.000073 0.001054 0.061590 -0.018070
# 6 -0.005064 -0.005132 0.002620 -0.005842 -0.018070 0.052030
#
#
# Mechanical properties :
#
#
# Convention : Reuss Voigt Hill
#
# Bulk Modulus (GPa) = 44.06720 58.89838 51.48279
# Shear Modulus (GPa) = 23.97471 32.32799 28.15135
#
# Velocity S-wave (km/s) = 3.24259 3.76534 3.51370
# Velocity P-wave (km/s) = 5.77454 6.68836 6.24818
#
# Compressibility (1/GPa) = 0.02269261
#
# Stress axis : x y z
#
# Youngs Moduli (GPa) = 90.37488 109.92179 49.22486
#
# Poissons Ratio (x) = 0.09646 0.08384
# Poissons Ratio (y) = 0.07930 0.31069
# Poissons Ratio (z) = 0.15393 0.69379
#
# Static dielectric constant tensor:
#      x y z
#    x 1.860700 -0.277470 0.133010 
#    y -0.277470 1.592970 0.024130 
#    z 0.133010 0.024130 1.950790 
# 
# From -- ./inp_files/362645.got.cif
#   From: 2010.05.17/outbox.cif.g08.bks.cpg/sg2_182_cif.got.tgz:362645.got - 2010.06.03 11:33:40.
