data_PCOD9103846
_publ_section_title
;
Structure prediction by ZEFSAII (Michael W. Deem and Ramdas Pophale) SiO2 
 PCOD9103846
Probable space group: P -1
;
_chemical_formula_sum "Si O2"
_cell_formula_units_Z 15
_cell_length_a 11.074402
_cell_length_b 8.415429
_cell_length_c 12.762994
_cell_angle_alpha 95.695367
_cell_angle_beta 50.470701
_cell_angle_gamma 57.137439
_cell_volume 560.515661
_symmetry_space_group_name_H-M "P -1"
_symmetry_group_IT_number 2
_symmetry_cell_setting 'triclinic'
loop_
_space_group_symop_operation_xyz
x,y,z
-x,-y,-z
loop_
_atom_site_type_symbol
_atom_site_label
_atom_site_fract_x
_atom_site_fract_y
_atom_site_fract_z
Si Si1 0.914252 0.358832 0.426715
Si Si2 0.676331 0.718696 0.836158
Si Si3 0.177926 0.987180 0.054897
Si Si4 0.873476 0.237630 0.776371
Si Si5 0.479627 0.859049 0.604947
Si Si6 0.000000 0.000000 0.500000
Si Si7 0.047293 0.654601 0.997964
Si Si8 0.552059 0.155893 0.615317
O O1 0.616783 0.614355 0.579130
O O2 0.076104 0.390582 0.349573
O O3 0.954339 0.215638 0.493445
O O4 0.034052 0.188718 0.243663
O O5 0.776303 0.496751 0.842109
O O6 0.470819 0.805344 0.878518
O O7 0.500000 0.000000 0.000000
O O8 0.165545 0.817156 0.094822
O O9 0.039134 0.161148 0.038814
O O10 0.768227 0.217355 0.736987
O O11 0.171333 0.984838 0.550580
O O12 0.561999 0.760101 0.433884
O O13 0.574608 0.949009 0.609045
O O14 0.175792 0.121104 0.782701
O O15 0.352976 0.406272 0.814579
O O16 0.000000 0.500000 0.000000
#
# Coordination Sequence:
#
# PCOD9103846 Si02
#       8
#     2   2   2   2   2   1   2   2
#     4  10  20  42  65  94 137 180 226 282 346 410
#     4  10  22  39  69  97 127 180 235 278 346 415
#     4  10  22  41  63  96 140 177 228 287 343 404
#     4  11  23  44  68  97 141 187 223 290 352 410
#     4  10  20  38  68  98 132 176 232 286 335 414
#     4  10  26  40  62 102 134 180 234 274 346 416
#     4  10  22  38  62  98 129 176 232 280 329 405
#     4  10  21  41  70  96 135 179 230 279 349 408
#
# _framework density 26.76107
#
# number of rings (size 3 to 8) (size 9 to 14) (size 15 to 20)
#    0.000    1.867    2.667    0.400    1.867    3.200 
#    0.000    4.667    0.000    0.000    0.000    0.000 
#    0.000    0.000    0.000    0.000    0.000    0.000 
#
# Total GULP energy -83582.845939 kJ/mol
# GULP energy per Si atom -5572.189729 kJ/mol
# Density = 2.670016 g / cm^3
# Si number density = 26.761070 Si / 1000 Ang^3
#
#
#
# Elastic Constant Matrix: (Units=GPa)
#
#
# Indices 1 2 3 4 5 6 
#
# 1 42.7778 22.7929 29.0479 13.3835 -21.6799 13.2828
# 2 22.7929 187.0377 21.5860 1.1625 -3.2035 4.9619
# 3 29.0479 21.5860 89.6123 28.4563 5.9057 2.5599
# 4 13.3835 1.1625 28.4563 46.5040 -12.6822 2.8409
# 5 -21.6799 -3.2035 5.9057 -12.6822 45.9164 3.3328
# 6 13.2828 4.9619 2.5599 2.8409 3.3328 24.7202
#
#
#
# Elastic Compliance Matrix: (Units=1/GPa)
#
#
# Indices 1 2 3 4 5 6 
#
# 1 0.085568 -0.004540 -0.032558 0.012472 0.051351 -0.050052
# 2 -0.004540 0.005839 -0.000082 0.000676 -0.001642 0.001420
# 3 -0.032558 -0.000082 0.027724 -0.015526 -0.024666 0.019750
# 4 0.012472 0.000676 -0.015526 0.032969 0.017868 -0.011427
# 5 0.051351 -0.001642 -0.024666 0.017868 0.056513 -0.034381
# 6 -0.050052 0.001420 0.019750 -0.011427 -0.034381 0.070965
#
#
# Mechanical properties :
#
#
# Convention : Reuss Voigt Hill
#
# Bulk Modulus (GPa) = 22.33579 51.80904 37.07241
# Shear Modulus (GPa) = 13.55515 39.82820 26.69167
#
# Velocity S-wave (km/s) = 2.25305 3.86202 3.16160
# Velocity P-wave (km/s) = 3.89009 6.26808 5.21640
#
# Compressibility (1/GPa) = 0.04477120
#
# Stress axis : x y z
#
# Youngs Moduli (GPa) = 11.68658 171.25433 36.06934
#
# Poissons Ratio (x) = 0.77753 1.17435
# Poissons Ratio (y) = 0.05306 0.00296
# Poissons Ratio (z) = 0.38049 0.01403
#
# Static dielectric constant tensor:
#      x y z
#    x 1.315450 0.223470 -0.017120 
#    y 0.223470 2.021810 0.016120 
#    z -0.017120 0.016120 2.132530 
# 
# From -- ./inp_files/529635.got.cif
#   From: 2010.05.17/outbox.cif.g08.bks.cpg/sg2_265_cif.got.tgz:529635.got - 2010.06.03 11:33:40.
