data_PCOD9103253
_publ_section_title
;
Structure prediction by ZEFSAII (Michael W. Deem and Ramdas Pophale) SiO2 
 PCOD9103253
Probable space group: P -1
;
_chemical_formula_sum "Si O2"
_cell_formula_units_Z 12
_cell_length_a 9.219963
_cell_length_b 10.683932
_cell_length_c 7.714970
_cell_angle_alpha 63.906201
_cell_angle_beta 133.859479
_cell_angle_gamma 106.979736
_cell_volume 492.020792
_symmetry_space_group_name_H-M "P -1"
_symmetry_group_IT_number 2
_symmetry_cell_setting 'triclinic'
loop_
_space_group_symop_operation_xyz
x,y,z
-x,-y,-z
loop_
_atom_site_type_symbol
_atom_site_label
_atom_site_fract_x
_atom_site_fract_y
_atom_site_fract_z
Si Si1 0.665356 0.095953 0.499273
Si Si2 0.690091 0.550879 0.518416
Si Si3 0.269079 0.982978 0.772253
Si Si4 0.996441 0.754336 0.624934
Si Si5 0.057977 0.687747 0.328452
Si Si6 0.598126 0.648712 0.020288
O O1 0.747235 0.014205 0.451085
O O2 0.846322 0.160941 0.719295
O O3 0.500000 0.000000 0.500000
O O4 0.539452 0.230002 0.244564
O O5 0.500000 0.500000 0.500000
O O6 0.860971 0.647927 0.685772
O O7 0.807676 0.423480 0.598219
O O8 0.610940 0.650976 0.237376
O O9 0.171099 0.833556 0.824685
O O10 0.138262 0.115945 0.640839
O O11 0.500000 0.000000 0.000000
O O12 0.072690 0.675362 0.561109
O O13 0.821858 0.665562 0.117628
O O14 0.500000 0.500000 0.000000
#
# Coordination Sequence:
#
# PCOD9103253 Si02
#       6
#     2   2   2   2   2   2
#     4  11  25  42  69  98 139 178 223 276 334 397
#     4  11  23  41  71 100 137 172 222 285 334 393
#     4  10  20  38  65  94 125 172 221 266 327 396
#     4   9  20  37  63  94 129 173 213 266 333 392
#     4  10  22  43  69  97 136 176 223 277 337 398
#     4  11  22  42  73  98 129 182 224 264 341 401
#
# _framework density 24.389212000000001
#
# number of rings (size 3 to 8) (size 9 to 14) (size 15 to 20)
#    0.000    1.667    1.667    4.000    4.667    0.667 
#    0.000    2.500    3.667    0.000    0.000    0.000 
#    0.000    0.000    0.000    0.000    0.000    0.000 
#
# Total GULP energy -67034.420694 kJ/mol
# GULP energy per Si atom -5586.201725 kJ/mol
# Density = 2.433370 g / cm^3
# Si number density = 24.389212 Si / 1000 Ang^3
#
#
#
# Elastic Constant Matrix: (Units=GPa)
#
#
# Indices 1 2 3 4 5 6 
#
# 1 184.0639 85.5358 30.0744 3.8317 36.3839 36.8174
# 2 85.5358 169.1841 16.5002 30.0157 13.5976 44.4261
# 3 30.0744 16.5002 44.1885 7.2504 27.1054 5.6981
# 4 3.8317 30.0157 7.2504 37.0562 10.8359 16.6052
# 5 36.3839 13.5976 27.1054 10.8359 34.8482 5.8304
# 6 36.8174 44.4261 5.6981 16.6052 5.8304 60.9033
#
#
#
# Elastic Compliance Matrix: (Units=1/GPa)
#
#
# Indices 1 2 3 4 5 6 
#
# 1 0.010370 -0.004761 0.001012 0.007690 -0.011497 -0.003887
# 2 -0.004761 0.010195 -0.002503 -0.007732 0.005808 -0.002772
# 3 0.001012 -0.002503 0.044074 0.003939 -0.035488 -0.000586
# 4 0.007690 -0.007732 0.003939 0.041304 -0.019451 -0.008777
# 5 -0.011497 0.005808 -0.035488 -0.019451 0.071330 0.004509
# 6 -0.003887 -0.002772 -0.000586 -0.008777 0.004509 0.022807
#
#
# Mechanical properties :
#
#
# Convention : Reuss Voigt Hill
#
# Bulk Modulus (GPa) = 19.18109 73.51747 46.34928
# Shear Modulus (GPa) = 21.74267 44.24994 32.99631
#
# Velocity S-wave (km/s) = 2.98902 4.26411 3.68218
# Velocity P-wave (km/s) = 4.44904 7.37919 6.09288
#
# Compressibility (1/GPa) = 0.05213469
#
# Stress axis : x y z
#
# Youngs Moduli (GPa) = 96.43053 98.08785 22.68922
#
# Poissons Ratio (x) = 0.46703 -0.02296
# Poissons Ratio (y) = 0.45914 0.05678
# Poissons Ratio (z) = -0.09758 0.24548
#
# Static dielectric constant tensor:
#      x y z
#    x 2.000150 0.069460 0.023080 
#    y 0.069460 2.088970 0.094920 
#    z 0.023080 0.094920 2.017700 
# 
# From -- ./inp_files/168168.got.cif
#   From: 2010.05.17/outbox.cif.g08.bks.cpg/sg2_85_cif.got.tgz:168168.got - 2010.06.03 11:33:40.
