data_PCOD9103036
_publ_section_title
;
Structure prediction by ZEFSAII (Michael W. Deem and Ramdas Pophale) SiO2 
 PCOD9103036
Probable space group: P -1
;
_chemical_formula_sum "Si O2"
_cell_formula_units_Z 16
_cell_length_a 11.892853
_cell_length_b 23.569005
_cell_length_c 17.854235
_cell_angle_alpha 21.433883
_cell_angle_beta 156.339091
_cell_angle_gamma 156.899580
_cell_volume 652.285760
_symmetry_space_group_name_H-M "P -1"
_symmetry_group_IT_number 2
_symmetry_cell_setting 'triclinic'
loop_
_space_group_symop_operation_xyz
x,y,z
-x,-y,-z
loop_
_atom_site_type_symbol
_atom_site_label
_atom_site_fract_x
_atom_site_fract_y
_atom_site_fract_z
Si Si1 0.448749 0.408446 0.501999
Si Si2 0.690017 0.741942 0.596844
Si Si3 0.196243 0.174962 0.953370
Si Si4 0.133631 0.223515 0.024914
Si Si5 0.467008 0.109609 0.945729
Si Si6 0.748086 0.331853 0.989665
Si Si7 0.082288 0.095098 0.309776
Si Si8 0.948217 0.513212 0.555781
O O1 0.500000 0.500000 0.500000
O O2 0.314199 0.205612 0.684880
O O3 0.782449 0.477357 0.579979
O O4 0.246067 0.481215 0.244821
O O5 0.697117 0.817560 0.591035
O O6 0.339028 0.612673 0.518775
O O7 0.912782 0.648739 0.846346
O O8 0.879864 0.897555 0.461371
O O9 0.022932 0.297458 0.680742
O O10 0.234055 0.175083 0.066235
O O11 0.548981 0.253791 0.038521
O O12 0.000000 0.000000 0.000000
O O13 0.181919 0.423123 0.810588
O O14 0.238413 0.160861 0.242458
O O15 0.756911 0.093632 0.948138
O O16 0.524563 0.191990 0.962036
O O17 0.811078 0.157481 0.067163
#
# Coordination Sequence:
#
# PCOD9103036 Si02
#       8
#     2   2   2   2   2   2   2   2
#     4   9  18  31  55  89 122 147 191 258 306 348
#     4  10  21  38  61  94 127 162 192 259 319 367
#     4  11  24  41  59  88 127 170 206 253 306 367
#     4  12  21  37  64  94 119 159 214 259 298 363
#     4  10  16  32  59  90 122 142 199 263 300 352
#     4   9  20  37  58  84 127 164 195 237 314 375
#     4  10  20  34  61  97 124 154 201 259 317 356
#     4  11  22  39  63  93 123 159 212 252 312 363
#
# _framework density 24.529126000000002
#
# number of rings (size 3 to 8) (size 9 to 14) (size 15 to 20)
#    0.000    1.750    3.750    1.500    0.000    2.000 
#    0.000    1.250    0.000    0.000    0.000    0.000 
#    0.000    0.000    0.000    0.000    0.000    0.000 
#
# Total GULP energy -89273.886519 kJ/mol
# GULP energy per Si atom -5579.617907 kJ/mol
# Density = 2.447330 g / cm^3
# Si number density = 24.529126 Si / 1000 Ang^3
#
#
#
# Elastic Constant Matrix: (Units=GPa)
#
#
# Indices 1 2 3 4 5 6 
#
# 1 155.8378 8.9049 7.9023 -1.5384 -25.2612 -31.2328
# 2 8.9049 63.8485 7.5686 -16.4199 -2.8491 -22.4601
# 3 7.9023 7.5686 87.8054 -35.1513 -4.8235 0.0372
# 4 -1.5384 -16.4199 -35.1513 31.9072 0.6011 5.8288
# 5 -25.2612 -2.8491 -4.8235 0.6011 35.9451 6.0503
# 6 -31.2328 -22.4601 0.0372 5.8288 6.0503 38.0407
#
#
#
# Elastic Compliance Matrix: (Units=1/GPa)
#
#
# Indices 1 2 3 4 5 6 
#
# 1 0.008652 0.001286 -0.001386 -0.001888 0.004784 0.007393
# 2 0.001286 0.022868 0.003175 0.013043 0.000833 0.012424
# 3 -0.001386 0.003175 0.021922 0.026349 0.002402 -0.003704
# 4 -0.001888 0.013043 0.026349 0.067799 0.002904 -0.004726
# 5 0.004784 0.000833 0.002402 0.002904 0.031702 -0.001070
# 6 0.007393 0.012424 -0.003704 -0.004726 -0.001070 0.040590
#
#
# Mechanical properties :
#
#
# Convention : Reuss Voigt Hill
#
# Bulk Modulus (GPa) = 16.78065 39.58259 28.18162
# Shear Modulus (GPa) = 24.12581 40.05299 32.08940
#
# Velocity S-wave (km/s) = 3.13957 4.04527 3.62085
# Velocity P-wave (km/s) = 4.47197 6.16368 5.38468
#
# Compressibility (1/GPa) = 0.05959244
#
# Stress axis : x y z
#
# Youngs Moduli (GPa) = 115.57777 43.72918 45.61667
#
# Poissons Ratio (x) = -0.05623 0.06322
# Poissons Ratio (y) = -0.14863 -0.14484
# Poissons Ratio (z) = 0.16018 -0.13885
#
# Static dielectric constant tensor:
#      x y z
#    x 2.053370 -0.027530 -0.047340 
#    y -0.027530 1.974370 -0.001090 
#    z -0.047340 -0.001090 2.033380 
# 
# From -- ./inp_files/571034.got.cif
#   From: 2010.05.17/outbox.cif.g08.bks.cpg/sg2_286_cif.got.tgz:571034.got - 2010.06.03 11:33:40.
