data_PCOD9103728
_publ_section_title
;
Structure prediction by ZEFSAII (Michael W. Deem and Ramdas Pophale) SiO2 
 PCOD9103728
Probable space group: P -1
;
_chemical_formula_sum "Si O2"
_cell_formula_units_Z 16
_cell_length_a 11.614948
_cell_length_b 17.755453
_cell_length_c 8.813577
_cell_angle_alpha 149.992646
_cell_angle_beta 129.753485
_cell_angle_gamma 54.831578
_cell_volume 697.680969
_symmetry_space_group_name_H-M "P -1"
_symmetry_group_IT_number 2
_symmetry_cell_setting 'triclinic'
loop_
_space_group_symop_operation_xyz
x,y,z
-x,-y,-z
loop_
_atom_site_type_symbol
_atom_site_label
_atom_site_fract_x
_atom_site_fract_y
_atom_site_fract_z
Si Si1 0.360282 0.472715 0.446706
Si Si2 0.392487 0.233956 0.296310
Si Si3 0.882779 0.124069 0.551769
Si Si4 0.077214 0.286906 0.786004
Si Si5 0.175624 0.144383 0.170507
Si Si6 0.885833 0.271401 0.314585
Si Si7 0.260835 0.023984 0.334169
Si Si8 0.613218 0.076925 0.437398
O O1 0.500000 0.500000 0.500000
O O2 0.426522 0.379123 0.482669
O O3 0.257085 0.620708 0.663510
O O4 0.229001 0.371526 0.090938
O O5 0.230895 0.249394 0.265926
O O6 0.493083 0.186122 0.441367
O O7 0.398508 0.089141 0.937365
O O8 0.764540 0.148167 0.629048
O O9 0.964684 0.263101 0.790167
O O10 0.000000 0.000000 0.500000
O O11 0.809018 0.023656 0.182966
O O12 0.978498 0.341070 0.652413
O O13 0.141707 0.117810 0.503642
O O14 0.012039 0.211836 0.198153
O O15 0.272867 0.131665 0.386479
O O16 0.816304 0.119461 0.046888
O O17 0.384011 0.956558 0.439444
#
# Coordination Sequence:
#
# PCOD9103728 Si02
#       8
#     2   2   2   2   2   2   2   2
#     4  12  28  46  64  94 142 183 225 267 333 414
#     4  10  23  43  62  98 138 182 222 271 336 403
#     4  11  17  33  67 101 132 165 220 284 322 391
#     4  11  20  42  68  99 127 174 228 270 323 397
#     4  10  20  38  68 100 135 162 224 286 324 393
#     4  11  23  41  69 101 135 174 217 274 342 394
#     4  11  19  40  69 106 128 163 225 285 337 379
#     4  10  21  37  69 101 135 173 222 277 341 391
#
# _framework density 22.933118
#
# number of rings (size 3 to 8) (size 9 to 14) (size 15 to 20)
#    0.000    1.250    5.000    1.875    1.750    2.000 
#    4.500    0.625    0.000    0.000    0.000    0.000 
#    0.000    0.000    0.000    0.000    0.000    0.000 
#
# Total GULP energy -89209.020812 kJ/mol
# GULP energy per Si atom -5575.563801 kJ/mol
# Density = 2.288092 g / cm^3
# Si number density = 22.933118 Si / 1000 Ang^3
#
#
#
# Elastic Constant Matrix: (Units=GPa)
#
#
# Indices 1 2 3 4 5 6 
#
# 1 143.1219 58.5243 22.1178 3.4401 17.9527 30.7203
# 2 58.5243 114.3900 8.2975 -1.8328 -7.7008 5.1393
# 3 22.1178 8.2975 47.7550 1.4091 -1.0392 1.8158
# 4 3.4401 -1.8328 1.4091 37.9683 4.2039 -1.5815
# 5 17.9527 -7.7008 -1.0392 4.2039 16.8609 -0.1118
# 6 30.7203 5.1393 1.8158 -1.5815 -0.1118 35.8201
#
#
#
# Elastic Compliance Matrix: (Units=1/GPa)
#
#
# Indices 1 2 3 4 5 6 
#
# 1 0.017939 -0.009698 -0.006633 0.000249 -0.024092 -0.013722
# 2 -0.009698 0.014422 0.002127 -0.000142 0.017121 0.006188
# 3 -0.006633 0.002127 0.023730 -0.001088 0.009796 0.004163
# 4 0.000249 -0.000142 -0.001088 0.027186 -0.007168 0.001040
# 5 -0.024092 0.017121 0.009796 -0.007168 0.095289 0.017690
# 6 -0.013722 0.006188 0.004163 0.001040 0.017690 0.038688
#
#
# Mechanical properties :
#
#
# Convention : Reuss Voigt Hill
#
# Bulk Modulus (GPa) = 36.12400 53.68290 44.90345
# Shear Modulus (GPa) = 19.61637 32.55171 26.08404
#
# Velocity S-wave (km/s) = 2.92785 3.77161 3.37619
# Velocity P-wave (km/s) = 5.21688 6.51352 5.90092
#
# Compressibility (1/GPa) = 0.02768243
#
# Stress axis : x y z
#
# Youngs Moduli (GPa) = 55.74349 69.33904 42.14108
#
# Poissons Ratio (x) = 0.67248 0.27954
# Poissons Ratio (y) = 0.54062 -0.08965
# Poissons Ratio (z) = 0.36977 -0.14752
#
# Static dielectric constant tensor:
#      x y z
#    x 1.910130 -0.032320 0.029840 
#    y -0.032320 1.903760 -0.076450 
#    z 0.029840 -0.076450 1.963590 
# 
# From -- ./inp_files/280294.got.cif
#   From: 2010.05.17/outbox.cif.g08.bks.cpg/sg2_141_cif.got.tgz:280294.got - 2010.06.03 11:33:40.
