data_PCOD9103473
_publ_section_title
;
Structure prediction by ZEFSAII (Michael W. Deem and Ramdas Pophale) SiO2 
 PCOD9103473
Probable space group: P -1
;
_chemical_formula_sum "Si O2"
_cell_formula_units_Z 16
_cell_length_a 7.858823
_cell_length_b 19.154577
_cell_length_c 5.725097
_cell_angle_alpha 75.191132
_cell_angle_beta 66.500162
_cell_angle_gamma 69.030008
_cell_volume 731.548253
_symmetry_space_group_name_H-M "P -1"
_symmetry_group_IT_number 2
_symmetry_cell_setting 'triclinic'
loop_
_space_group_symop_operation_xyz
x,y,z
-x,-y,-z
loop_
_atom_site_type_symbol
_atom_site_label
_atom_site_fract_x
_atom_site_fract_y
_atom_site_fract_z
Si Si1 0.611196 0.031162 0.612570
Si Si2 0.308021 0.491932 0.897516
Si Si3 0.026017 0.419208 0.313365
Si Si4 0.291947 0.609657 0.169702
Si Si5 0.111619 0.255213 0.215882
Si Si6 0.575072 0.888732 0.959010
Si Si7 0.839954 0.075390 0.089823
Si Si8 0.075832 0.768129 0.161811
O O1 0.779564 0.061737 0.397226
O O2 0.500000 0.000000 0.500000
O O3 0.676696 0.954685 0.794098
O O4 0.456532 0.101907 0.755738
O O5 0.325365 0.569354 0.934751
O O6 0.210644 0.451352 0.185340
O O7 0.148586 0.516109 0.764305
O O8 0.516705 0.438214 0.757569
O O9 0.914529 0.397453 0.614686
O O10 0.096588 0.342773 0.187426
O O11 0.271076 0.697761 0.116421
O O12 0.316088 0.191467 0.135284
O O13 0.018029 0.234953 0.526902
O O14 0.021700 0.247938 0.015137
O O15 0.356193 0.913805 0.961234
O O16 0.902690 0.149574 0.953987
O O17 0.000000 0.000000 0.000000
#
# Coordination Sequence:
#
# PCOD9103473 Si02
#       8
#     2   2   2   2   2   2   2   2
#     4   9  21  41  64  92 123 165 221 266 324 390
#     4  10  20  38  66  93 126 174 221 269 330 399
#     4  10  21  39  63  94 128 171 224 265 333 391
#     4  10  21  40  63  93 133 169 219 273 334 387
#     4  11  25  44  67  92 134 174 215 273 331 391
#     4  10  23  40  66  91 126 173 220 267 329 395
#     4  11  25  40  64  94 130 169 220 270 327 393
#     4  11  26  44  66  96 135 170 217 276 336 384
#
# _framework density 21.871421000000002
#
# number of rings (size 3 to 8) (size 9 to 14) (size 15 to 20)
#    0.000    1.750    1.250    1.500   12.250    0.500 
#    0.000    0.000    2.750    0.000    0.000    0.000 
#    0.000    0.000    0.000    0.000    0.000    0.000 
#
# Total GULP energy -89139.912121 kJ/mol
# GULP energy per Si atom -5571.244508 kJ/mol
# Density = 2.182164 g / cm^3
# Si number density = 21.871421 Si / 1000 Ang^3
#
#
#
# Elastic Constant Matrix: (Units=GPa)
#
#
# Indices 1 2 3 4 5 6 
#
# 1 46.7843 34.4063 11.1025 10.6491 0.8270 -9.0158
# 2 34.4063 176.2881 38.6037 25.1185 -14.1231 -9.2526
# 3 11.1025 38.6037 93.0276 10.2437 -5.8527 -3.0725
# 4 10.6491 25.1185 10.2437 35.1669 2.7701 -4.2269
# 5 0.8270 -14.1231 -5.8527 2.7701 24.3208 2.5671
# 6 -9.0158 -9.2526 -3.0725 -4.2269 2.5671 34.6668
#
#
#
# Elastic Compliance Matrix: (Units=1/GPa)
#
#
# Indices 1 2 3 4 5 6 
#
# 1 0.026920 -0.004545 -0.000992 -0.003637 -0.003965 0.005550
# 2 -0.004545 0.007964 -0.002012 -0.004113 0.004773 -0.000090
# 3 -0.000992 -0.002012 0.012038 -0.001940 0.001995 -0.000112
# 4 -0.003637 -0.004113 -0.001940 0.033870 -0.006845 0.002421
# 5 -0.003965 0.004773 0.001995 -0.006845 0.045684 -0.003798
# 6 0.005550 -0.000090 -0.000112 0.002421 -0.003798 0.030832
#
#
# Mechanical properties :
#
#
# Convention : Reuss Voigt Hill
#
# Bulk Modulus (GPa) = 31.42348 53.81390 42.61869
# Shear Modulus (GPa) = 27.32020 34.29674 30.80847
#
# Velocity S-wave (km/s) = 3.53813 3.96423 3.75723
# Velocity P-wave (km/s) = 5.57582 6.75363 6.19279
#
# Compressibility (1/GPa) = 0.03182334
#
# Stress axis : x y z
#
# Youngs Moduli (GPa) = 37.14694 125.56782 83.06813
#
# Poissons Ratio (x) = 0.57068 0.08244
# Poissons Ratio (y) = 0.16882 0.16715
# Poissons Ratio (z) = 0.03687 0.25266
#
# Static dielectric constant tensor:
#      x y z
#    x 1.873590 -0.005820 0.061960 
#    y -0.005820 1.811630 -0.030940 
#    z 0.061960 -0.030940 1.977800 
# 
# From -- ./inp_files/52699.got.cif
#   From: 2010.05.17/outbox.cif.g08.bks.cpg/sg2_27_cif.got.tgz:52699.got - 2010.06.03 11:33:40.
