data_PCOD9103313
_publ_section_title
;
Structure prediction by ZEFSAII (Michael W. Deem and Ramdas Pophale) SiO2 
 PCOD9103313
Probable space group: P -1
;
_chemical_formula_sum "Si O2"
_cell_formula_units_Z 14
_cell_length_a 8.704778
_cell_length_b 20.375255
_cell_length_c 15.107094
_cell_angle_alpha 149.817211
_cell_angle_beta 128.970168
_cell_angle_gamma 33.263515
_cell_volume 694.740072
_symmetry_space_group_name_H-M "P -1"
_symmetry_group_IT_number 2
_symmetry_cell_setting 'triclinic'
loop_
_space_group_symop_operation_xyz
x,y,z
-x,-y,-z
loop_
_atom_site_type_symbol
_atom_site_label
_atom_site_fract_x
_atom_site_fract_y
_atom_site_fract_z
Si Si1 0.791247 0.581101 0.421901
Si Si2 0.690953 0.083202 0.971519
Si Si3 0.271702 0.174731 0.189629
Si Si4 0.833085 0.663131 0.262264
Si Si5 0.262063 0.505604 0.390167
Si Si6 0.260271 0.226556 0.845448
Si Si7 0.325738 0.894579 0.485166
O O1 0.653779 0.720185 0.620017
O O2 0.536261 0.703086 0.400015
O O3 0.954192 0.365451 0.251948
O O4 0.037121 0.560957 0.447408
O O5 0.567239 0.137109 0.889626
O O6 0.728079 0.925297 0.846060
O O7 0.454627 0.285354 0.175391
O O8 0.000000 0.000000 0.000000
O O9 0.500000 0.000000 0.000000
O O10 0.791619 0.744292 0.244535
O O11 0.511161 0.805899 0.357422
O O12 0.046332 0.636906 0.378789
O O13 0.999093 0.442276 0.047062
O O14 0.500000 0.500000 0.500000
O O15 0.288207 0.064115 0.697189
O O16 0.000000 0.000000 0.500000
#
# Coordination Sequence:
#
# PCOD9103313 Si02
#       7
#     2   2   2   2   2   2   2
#     4  10  22  40  62  88 129 165 206 268 312 381
#     4  11  22  39  64  94 126 167 207 267 326 373
#     4  11  21  41  62  88 123 165 207 257 326 377
#     4   9  22  42  68  91 126 174 211 268 322 374
#     4  10  20  38  65  97 128 162 213 265 320 385
#     4  10  21  45  63  91 133 164 218 268 314 388
#     4  11  23  42  65  93 126 172 213 262 325 380
#
# _framework density 20.151422
#
# number of rings (size 3 to 8) (size 9 to 14) (size 15 to 20)
#    0.000    1.714    2.857    1.286    2.000    0.571 
#   15.429    0.000    0.000    0.000    0.000    0.000 
#    0.000    0.000    0.000    0.000    0.000    0.000 
#
# Total GULP energy -77992.160998 kJ/mol
# GULP energy per Si atom -5570.868643 kJ/mol
# Density = 2.010556 g / cm^3
# Si number density = 20.151422 Si / 1000 Ang^3
#
#
#
# Elastic Constant Matrix: (Units=GPa)
#
#
# Indices 1 2 3 4 5 6 
#
# 1 40.2701 62.2155 25.5070 1.6554 -6.2662 -7.5973
# 2 62.2155 129.5260 50.2494 5.4153 2.3874 1.7614
# 3 25.5070 50.2494 106.9689 15.6930 -5.1871 3.4604
# 4 1.6554 5.4153 15.6930 35.3366 4.6606 1.6915
# 5 -6.2662 2.3874 -5.1871 4.6606 25.5542 10.5017
# 6 -7.5973 1.7614 3.4604 1.6915 10.5017 37.2734
#
#
#
# Elastic Compliance Matrix: (Units=1/GPa)
#
#
# Indices 1 2 3 4 5 6 
#
# 1 0.136202 -0.066030 -0.000545 -0.001108 0.030452 0.022403
# 2 -0.066030 0.041572 -0.004490 0.001455 -0.017030 -0.010274
# 3 -0.000545 -0.004490 0.012686 -0.005442 0.004744 -0.002166
# 4 -0.001108 0.001455 -0.005442 0.031509 -0.007643 0.000934
# 5 0.030452 -0.017030 0.004744 -0.007643 0.053951 -0.008282
# 6 0.022403 -0.010274 -0.002166 0.000934 -0.008282 0.034373
#
#
# Mechanical properties :
#
#
# Convention : Reuss Voigt Hill
#
# Bulk Modulus (GPa) = 20.69156 61.41210 41.05183
# Shear Modulus (GPa) = 10.67158 28.88573 19.77865
#
# Velocity S-wave (km/s) = 2.30373 3.79018 3.13629
# Velocity P-wave (km/s) = 4.16732 7.04950 5.79060
#
# Compressibility (1/GPa) = 0.04832888
#
# Stress axis : x y z
#
# Youngs Moduli (GPa) = 7.34203 24.05475 78.82483
#
# Poissons Ratio (x) = 1.58835 0.04295
# Poissons Ratio (y) = 0.48480 0.35395
# Poissons Ratio (z) = 0.00400 0.10801
#
# Static dielectric constant tensor:
#      x y z
#    x 1.706530 0.012400 -0.048860 
#    y 0.012400 1.700280 -0.062930 
#    z -0.048860 -0.062930 1.688560 
# 
# From -- ./inp_files/416162.got.cif
#   From: 2010.05.17/outbox.cif.g08.bks.cpg/sg2_209_cif.got.tgz:416162.got - 2010.06.03 11:33:40.
