data_PCOD9103999
_publ_section_title
;
Structure prediction by ZEFSAII (Michael W. Deem and Ramdas Pophale) SiO2 
 PCOD9103999
Probable space group: P -1
;
_chemical_formula_sum "Si O2"
_cell_formula_units_Z 16
_cell_length_a 31.138271
_cell_length_b 15.391169
_cell_length_c 9.091023
_cell_angle_alpha 45.108257
_cell_angle_beta 144.412969
_cell_angle_gamma 161.567092
_cell_volume 748.785037
_symmetry_space_group_name_H-M "P -1"
_symmetry_group_IT_number 2
_symmetry_cell_setting 'triclinic'
loop_
_space_group_symop_operation_xyz
x,y,z
-x,-y,-z
loop_
_atom_site_type_symbol
_atom_site_label
_atom_site_fract_x
_atom_site_fract_y
_atom_site_fract_z
Si Si1 0.688402 0.953423 0.773843
Si Si2 0.012822 0.907628 0.034564
Si Si3 0.826802 0.390321 0.191462
Si Si4 0.472318 0.100693 0.839924
Si Si5 0.318671 0.265052 0.642247
Si Si6 0.171095 0.278006 0.776201
Si Si7 0.149281 0.050833 0.750592
Si Si8 0.843018 0.221768 0.188670
O O1 0.631830 0.973086 0.479674
O O2 0.505016 0.613590 0.726856
O O3 0.798480 0.000303 0.969707
O O4 0.804779 0.183544 0.956761
O O5 0.853481 0.573667 0.016398
O O6 0.192551 0.112408 0.339457
O O7 0.034360 0.987949 0.834848
O O8 0.000000 0.000000 0.000000
O O9 0.852833 0.356356 0.154022
O O10 0.976662 0.577644 0.504968
O O11 0.641570 0.073082 0.121594
O O12 0.662490 0.445327 0.989336
O O13 0.500000 0.000000 0.000000
O O14 0.225753 0.158904 0.667206
O O15 0.314253 0.110537 0.807320
O O16 0.222910 0.276337 0.780881
O O17 0.060197 0.235026 0.493314
#
# Coordination Sequence:
#
# PCOD9103999 Si02
#       8
#     2   2   2   2   2   2   2   2
#     4  11  24  42  70  98 130 178 229 269 327 401
#     4  11  20  41  70  89 128 179 221 256 325 405
#     4  10  24  42  66  97 135 174 215 275 335 390
#     4  12  28  44  63  99 139 172 217 278 340 385
#     4  10  20  38  71  95 128 169 227 268 323 389
#     4  11  24  44  68  99 134 169 221 276 326 396
#     4  10  23  41  68 101 128 170 221 278 326 383
#     4   9  21  43  66  96 130 175 219 274 329 394
#
# _framework density 21.367948999999999
#
# number of rings (size 3 to 8) (size 9 to 14) (size 15 to 20)
#    0.000    1.500    2.500    2.250    7.000    4.000 
#    4.500    0.625    0.000    0.000    0.000    0.000 
#    0.000    0.000    0.000    0.000    0.000    0.000 
#
# Total GULP energy -89307.887211 kJ/mol
# GULP energy per Si atom -5581.742951 kJ/mol
# Density = 2.131931 g / cm^3
# Si number density = 21.367949 Si / 1000 Ang^3
#
#
#
# Elastic Constant Matrix: (Units=GPa)
#
#
# Indices 1 2 3 4 5 6 
#
# 1 83.0898 24.4414 32.8108 -9.7178 3.9547 -18.3247
# 2 24.4414 69.0935 21.2618 -15.8398 -0.3458 -6.7556
# 3 32.8108 21.2618 128.4753 -10.7945 6.0350 -16.0093
# 4 -9.7178 -15.8398 -10.7945 24.2909 -9.0514 5.1940
# 5 3.9547 -0.3458 6.0350 -9.0514 27.0287 3.5723
# 6 -18.3247 -6.7556 -16.0093 5.1940 3.5723 23.7670
#
#
#
# Elastic Compliance Matrix: (Units=1/GPa)
#
#
# Indices 1 2 3 4 5 6 
#
# 1 0.016632 -0.004401 -0.002051 -0.000874 -0.003772 0.010949
# 2 -0.004401 0.019232 -0.001592 0.012849 0.005905 -0.002695
# 3 -0.002051 -0.001592 0.009268 0.000487 -0.002213 0.004435
# 4 -0.000874 0.012849 0.000487 0.060521 0.022203 -0.013257
# 5 -0.003772 0.005905 -0.002213 0.022203 0.047499 -0.014712
# 6 0.010949 -0.002695 0.004435 -0.013257 -0.014712 0.057847
#
#
# Mechanical properties :
#
#
# Convention : Reuss Voigt Hill
#
# Bulk Modulus (GPa) = 34.43185 48.63181 41.53183
# Shear Modulus (GPa) = 21.11772 28.49364 24.80568
#
# Velocity S-wave (km/s) = 3.14712 3.65564 3.41087
# Velocity P-wave (km/s) = 5.41799 6.37392 5.91530
#
# Compressibility (1/GPa) = 0.02904287
#
# Stress axis : x y z
#
# Youngs Moduli (GPa) = 60.12669 51.99768 107.89237
#
# Poissons Ratio (x) = 0.22884 0.22130
# Poissons Ratio (y) = 0.26461 0.17180
# Poissons Ratio (z) = 0.12333 0.08280
#
# Static dielectric constant tensor:
#      x y z
#    x 1.770960 0.029250 0.008270 
#    y 0.029250 1.848280 -0.044540 
#    z 0.008270 -0.044540 1.842830 
# 
# From -- ./inp_files/358772.got.cif
#   From: 2010.05.17/outbox.cif.g08.bks.cpg/sg2_180_cif.got.tgz:358772.got - 2010.06.03 11:33:40.
