data_PCOD9103208
_publ_section_title
;
Structure prediction by ZEFSAII (Michael W. Deem and Ramdas Pophale) SiO2 
 PCOD9103208
Probable space group: P -1
;
_chemical_formula_sum "Si O2"
_cell_formula_units_Z 12
_cell_length_a 11.267555
_cell_length_b 7.413449
_cell_length_c 8.260755
_cell_angle_alpha 80.759958
_cell_angle_beta 71.281257
_cell_angle_gamma 112.309093
_cell_volume 572.354849
_symmetry_space_group_name_H-M "P -1"
_symmetry_group_IT_number 2
_symmetry_cell_setting 'triclinic'
loop_
_space_group_symop_operation_xyz
x,y,z
-x,-y,-z
loop_
_atom_site_type_symbol
_atom_site_label
_atom_site_fract_x
_atom_site_fract_y
_atom_site_fract_z
Si Si1 0.070790 0.619955 0.701693
Si Si2 0.375582 0.825342 0.680258
Si Si3 0.369461 0.506014 0.964857
Si Si4 0.660399 0.135036 0.959431
Si Si5 0.071963 0.811124 0.330858
Si Si6 0.067143 0.151478 0.100059
O O1 0.235802 0.709907 0.652844
O O2 0.048017 0.716745 0.531976
O O3 0.005385 0.377648 0.733548
O O4 0.999216 0.694186 0.861429
O O5 0.418789 0.660440 0.766598
O O6 0.500000 0.000000 0.500000
O O7 0.330986 0.910592 0.848047
O O8 0.500000 0.500000 0.000000
O O9 0.308531 0.626208 0.091095
O O10 0.236842 0.293962 0.001155
O O11 0.763989 0.100530 0.801559
O O12 0.500000 0.000000 0.000000
O O13 0.032127 0.991589 0.287019
O O14 0.000000 0.000000 0.000000
#
# Coordination Sequence:
#
# PCOD9103208 Si02
#       6
#     2   2   2   2   2   2
#     4  11  23  43  63 101 131 176 227 278 336 400
#     4  10  22  39  65  93 135 171 220 279 333 398
#     4  10  23  40  66  99 135 170 229 272 335 409
#     4  10  20  38  65  92 128 179 219 266 341 395
#     4  11  23  40  68  93 137 174 224 275 335 402
#     4  12  24  41  70  98 135 176 228 281 336 403
#
# _framework density 20.966014999999999
#
# number of rings (size 3 to 8) (size 9 to 14) (size 15 to 20)
#    1.000    0.333    1.667    4.500    2.333    2.000 
#    0.000    0.000    0.000    5.000    0.000    0.000 
#    0.000    0.000    0.000    0.000    0.000    0.000 
#
# Total GULP energy -66968.786301 kJ/mol
# GULP energy per Si atom -5580.732192 kJ/mol
# Density = 2.091830 g / cm^3
# Si number density = 20.966015 Si / 1000 Ang^3
#
#
#
# Elastic Constant Matrix: (Units=GPa)
#
#
# Indices 1 2 3 4 5 6 
#
# 1 99.5977 58.0705 15.2078 -6.2432 8.9948 10.7177
# 2 58.0705 131.9676 27.5620 -6.1100 7.0734 19.2793
# 3 15.2078 27.5620 65.4440 -5.2847 11.2241 -1.0580
# 4 -6.2432 -6.1100 -5.2847 37.9934 -5.3497 1.7262
# 5 8.9948 7.0734 11.2241 -5.3497 36.0532 -2.4125
# 6 10.7177 19.2793 -1.0580 1.7262 -2.4125 48.5126
#
#
#
# Elastic Compliance Matrix: (Units=1/GPa)
#
#
# Indices 1 2 3 4 5 6 
#
# 1 0.013767 -0.005682 -0.000375 0.001041 -0.002111 -0.000934
# 2 -0.005682 0.011308 -0.003474 0.000573 0.000143 -0.003328
# 3 -0.000375 -0.003474 0.017714 0.001143 -0.004464 0.001587
# 4 0.001041 0.000573 0.001143 0.027254 0.003233 -0.001242
# 5 -0.002111 0.000143 -0.004464 0.003233 0.030219 0.001700
# 6 -0.000934 -0.003328 0.001587 -0.001242 0.001700 0.022305
#
#
# Mechanical properties :
#
#
# Convention : Reuss Voigt Hill
#
# Bulk Modulus (GPa) = 42.14605 55.40996 48.77801
# Shear Modulus (GPa) = 33.43606 37.58979 35.51292
#
# Velocity S-wave (km/s) = 3.99779 4.23885 4.12008
# Velocity P-wave (km/s) = 6.43860 7.10232 6.77859
#
# Compressibility (1/GPa) = 0.02372702
#
# Stress axis : x y z
#
# Youngs Moduli (GPa) = 72.63829 88.42930 56.45198
#
# Poissons Ratio (x) = 0.50244 0.02118
# Poissons Ratio (y) = 0.41271 0.19613
# Poissons Ratio (z) = 0.02725 0.30723
#
# Static dielectric constant tensor:
#      x y z
#    x 1.802260 -0.021600 0.028340 
#    y -0.021600 1.772010 0.012770 
#    z 0.028340 0.012770 1.768120 
# 
# From -- ./inp_files/158598.got.cif
#   From: 2010.05.17/outbox.cif.g08.bks.cpg/sg2_80_cif.got.tgz:158598.got - 2010.06.03 11:33:40.
