data_PCOD9103272
_publ_section_title
;
Structure prediction by ZEFSAII (Michael W. Deem and Ramdas Pophale) SiO2 
 PCOD9103272
Probable space group: P -1
;
_chemical_formula_sum "Si O2"
_cell_formula_units_Z 16
_cell_length_a 12.255994
_cell_length_b 8.388761
_cell_length_c 11.698222
_cell_angle_alpha 58.337139
_cell_angle_beta 83.888948
_cell_angle_gamma 60.907623
_cell_volume 876.470042
_symmetry_space_group_name_H-M "P -1"
_symmetry_group_IT_number 2
_symmetry_cell_setting 'triclinic'
loop_
_space_group_symop_operation_xyz
x,y,z
-x,-y,-z
loop_
_atom_site_type_symbol
_atom_site_label
_atom_site_fract_x
_atom_site_fract_y
_atom_site_fract_z
Si Si1 0.350634 0.687963 0.954410
Si Si2 0.076061 0.875928 0.425254
Si Si3 0.252081 0.369820 0.618067
Si Si4 0.268065 0.001448 0.409014
Si Si5 0.174790 0.039891 0.665326
Si Si6 0.569487 0.998708 0.107725
Si Si7 0.639310 0.685445 0.801108
Si Si8 0.536934 0.756460 0.549444
O O1 0.353161 0.873068 0.962019
O O2 0.280019 0.818932 0.798629
O O3 0.500000 0.500000 0.000000
O O4 0.289626 0.547847 0.058054
O O5 0.155356 0.622735 0.543370
O O6 0.177155 0.952298 0.360511
O O7 0.966140 0.924858 0.328237
O O8 0.000000 0.000000 0.500000
O O9 0.180758 0.238040 0.647542
O O10 0.346616 0.334953 0.515749
O O11 0.339532 0.244136 0.764389
O O12 0.411126 0.794004 0.485145
O O13 0.214420 0.039218 0.529754
O O14 0.279364 0.205576 0.288612
O O15 0.468576 0.133778 0.170422
O O16 0.500000 0.000000 0.000000
O O17 0.576607 0.643924 0.710648
O O18 0.500000 0.000000 0.500000
#
# Coordination Sequence:
#
# PCOD9103272 Si02
#       8
#     2   2   2   2   2   2   2   2
#     4   9  19  33  58  83 110 152 191 224 293 347
#     4  10  24  36  53  85 117 156 196 241 283 336
#     4  11  19  36  61  85 110 155 195 238 289 340
#     4  10  18  35  57  85 121 141 191 241 292 328
#     4  10  19  38  59  83 114 153 199 238 271 356
#     4  10  20  33  52  88 125 146 178 233 297 352
#     4  10  18  35  56  87 115 151 181 234 293 344
#     4  10  16  32  61  88 112 140 189 244 290 332
#
# _framework density 18.255044999999999
#
# number of rings (size 3 to 8) (size 9 to 14) (size 15 to 20)
#    0.000    2.000    5.000    1.875    0.000    5.500 
#    2.250    0.625    0.000    0.750    0.000    0.000 
#    0.000    0.000    0.000    0.000    0.000    0.000 
#
# Total GULP energy -89091.498160 kJ/mol
# GULP energy per Si atom -5568.218635 kJ/mol
# Density = 1.821350 g / cm^3
# Si number density = 18.255045 Si / 1000 Ang^3
#
#
#
# Elastic Constant Matrix: (Units=GPa)
#
#
# Indices 1 2 3 4 5 6 
#
# 1 138.0824 27.3894 51.3861 -2.6276 5.2802 8.5661
# 2 27.3894 70.8889 41.6598 -17.1769 9.6024 -9.7541
# 3 51.3861 41.6598 110.3292 -17.1648 -4.0612 9.8733
# 4 -2.6276 -17.1769 -17.1648 26.3170 6.2785 3.2913
# 5 5.2802 9.6024 -4.0612 6.2785 27.0523 -2.3174
# 6 8.5661 -9.7541 9.8733 3.2913 -2.3174 13.5118
#
#
#
# Elastic Compliance Matrix: (Units=1/GPa)
#
#
# Indices 1 2 3 4 5 6 
#
# 1 0.009314 -0.002768 -0.003169 -0.001964 -0.001312 -0.005334
# 2 -0.002768 0.029602 -0.010880 0.011543 -0.012035 0.026199
# 3 -0.003169 -0.010880 0.017328 0.005259 0.004228 -0.019063
# 4 -0.001964 0.011543 0.005259 0.053935 -0.016316 -0.010201
# 5 -0.001312 -0.012035 0.004228 -0.016316 0.045994 0.000917
# 6 -0.005334 0.026199 -0.019063 -0.010201 0.000917 0.112876
#
#
# Mechanical properties :
#
#
# Convention : Reuss Voigt Hill
#
# Bulk Modulus (GPa) = 44.22964 62.24124 53.23544
# Shear Modulus (GPa) = 16.11753 26.63389 21.37571
#
# Velocity S-wave (km/s) = 2.97460 3.82381 3.42562
# Velocity P-wave (km/s) = 6.00658 7.32563 6.69865
#
# Compressibility (1/GPa) = 0.02260927
#
# Stress axis : x y z
#
# Youngs Moduli (GPa) = 107.36143 33.78109 57.71015
#
# Poissons Ratio (x) = 0.09352 0.18290
# Poissons Ratio (y) = 0.29721 0.62789
# Poissons Ratio (z) = 0.34026 0.36754
#
# Static dielectric constant tensor:
#      x y z
#    x 1.711800 0.013790 -0.007610 
#    y 0.013790 1.618940 0.002060 
#    z -0.007610 0.002060 1.677910 
# 
# From -- ./inp_files/416307.got.cif
#   From: 2010.05.17/outbox.cif.g08.bks.cpg/sg2_209_cif.got.tgz:416307.got - 2010.06.03 11:33:40.
