data_PCOD9103750
_publ_section_title
;
Structure prediction by ZEFSAII (Michael W. Deem and Ramdas Pophale) SiO2 
 PCOD9103750
Probable space group: P -1
;
_chemical_formula_sum "Si O2"
_cell_formula_units_Z 16
_cell_length_a 12.643095
_cell_length_b 11.628392
_cell_length_c 5.172773
_cell_angle_alpha 106.047623
_cell_angle_beta 83.028720
_cell_angle_gamma 92.448420
_cell_volume 725.423759
_symmetry_space_group_name_H-M "P -1"
_symmetry_group_IT_number 2
_symmetry_cell_setting 'triclinic'
loop_
_space_group_symop_operation_xyz
x,y,z
-x,-y,-z
loop_
_atom_site_type_symbol
_atom_site_label
_atom_site_fract_x
_atom_site_fract_y
_atom_site_fract_z
Si Si1 0.126868 0.249566 0.848549
Si Si2 0.613489 0.941824 0.901293
Si Si3 0.434531 0.459805 0.747635
Si Si4 0.192282 0.521815 0.018000
Si Si5 0.641326 0.798699 0.318631
Si Si6 0.917292 0.391858 0.404315
Si Si7 0.984358 0.137435 0.400253
Si Si8 0.158731 0.014468 0.999834
O O1 0.136408 0.390204 0.989662
O O2 0.237586 0.231254 0.647964
O O3 0.150922 0.153429 0.003055
O O4 0.025965 0.200019 0.690331
O O5 0.614335 0.905311 0.580539
O O6 0.623614 0.835895 0.048673
O O7 0.722907 0.015508 0.967311
O O8 0.500000 0.000000 0.000000
O O9 0.500000 0.500000 0.500000
O O10 0.313315 0.504099 0.869916
O O11 0.426702 0.316810 0.662772
O O12 0.500000 0.500000 0.000000
O O13 0.131887 0.588212 0.848361
O O14 0.172551 0.592474 0.335020
O O15 0.972705 0.263194 0.321583
O O16 0.000000 0.500000 0.500000
O O17 0.879539 0.068866 0.276411
O O18 0.069638 0.028646 0.257483
#
# Coordination Sequence:
#
# PCOD9103750 Si02
#       8
#     2   2   2   2   2   2   2   2
#     4  10  20  38  68  88 126 168 215 273 310 401
#     4  11  22  43  66  94 128 168 219 275 328 395
#     4  11  23  44  70  96 131 175 225 281 331 390
#     4  11  25  42  67  98 135 170 228 269 334 402
#     4  10  22  40  68  95 120 171 220 263 330 396
#     4  12  24  41  64  99 137 179 213 270 334 406
#     4  11  22  39  64  90 135 172 217 270 327 393
#     4  10  23  40  62  97 124 173 224 268 330 388
#
# _framework density 22.056072
#
# number of rings (size 3 to 8) (size 9 to 14) (size 15 to 20)
#    0.000    1.250    2.500    3.375    1.750    2.000 
#    6.750    0.000    0.000    0.000    0.000    0.000 
#    0.000    0.000    0.000    0.000    0.000    0.000 
#
# Total GULP energy -89139.304907 kJ/mol
# GULP energy per Si atom -5571.206557 kJ/mol
# Density = 2.200587 g / cm^3
# Si number density = 22.056072 Si / 1000 Ang^3
#
#
#
# Elastic Constant Matrix: (Units=GPa)
#
#
# Indices 1 2 3 4 5 6 
#
# 1 128.1578 28.6695 28.0694 16.2933 7.0436 1.1513
# 2 28.6695 78.1539 9.1279 -0.0826 7.8952 1.2375
# 3 28.0694 9.1279 81.1384 -2.8723 4.4026 7.0539
# 4 16.2933 -0.0826 -2.8723 33.1422 -2.4453 -3.2330
# 5 7.0436 7.8952 4.4026 -2.4453 32.4056 -2.2702
# 6 1.1513 1.2375 7.0539 -3.2330 -2.2702 35.0917
#
#
#
# Elastic Compliance Matrix: (Units=1/GPa)
#
#
# Indices 1 2 3 4 5 6 
#
# 1 0.009955 -0.003144 -0.003190 -0.005294 -0.001375 -0.000151
# 2 -0.003144 0.014261 -0.000291 0.001320 -0.002680 -0.000393
# 3 -0.003190 -0.000291 0.013825 0.002439 -0.001106 -0.002511
# 4 -0.005294 0.001320 0.002439 0.033515 0.003232 0.002934
# 5 -0.001375 -0.002680 -0.001106 0.003232 0.032398 0.002756
# 6 -0.000151 -0.000393 -0.002511 0.002934 0.002756 0.029469
#
#
# Mechanical properties :
#
#
# Convention : Reuss Voigt Hill
#
# Bulk Modulus (GPa) = 40.33376 46.57597 43.45487
# Shear Modulus (GPa) = 32.27162 34.90012 33.58587
#
# Velocity S-wave (km/s) = 3.82928 3.98217 3.90648
# Velocity P-wave (km/s) = 6.15449 6.50435 6.33184
#
# Compressibility (1/GPa) = 0.02479313
#
# Stress axis : x y z
#
# Youngs Moduli (GPa) = 100.45450 70.12297 72.33030
#
# Poissons Ratio (x) = 0.22043 0.23072
# Poissons Ratio (y) = 0.31578 0.02101
# Poissons Ratio (z) = 0.32043 0.02037
#
# Static dielectric constant tensor:
#      x y z
#    x 1.868860 -0.027700 -0.034370 
#    y -0.027700 1.687450 0.120080 
#    z -0.034370 0.120080 1.710290 
# 
# From -- ./inp_files/72301.got.cif
#   From: 2010.05.17/outbox.cif.g08.bks.cpg/sg2_37_cif.got.tgz:72301.got - 2010.06.03 11:33:40.
