data_PCOD9103989
_publ_section_title
;
Structure prediction by ZEFSAII (Michael W. Deem and Ramdas Pophale) SiO2 
 PCOD9103989
Probable space group: P -1
;
_chemical_formula_sum "Si O2"
_cell_formula_units_Z 15
_cell_length_a 11.493233
_cell_length_b 7.510361
_cell_length_c 11.448064
_cell_angle_alpha 111.712841
_cell_angle_beta 113.993449
_cell_angle_gamma 40.830708
_cell_volume 587.051549
_symmetry_space_group_name_H-M "P -1"
_symmetry_group_IT_number 2
_symmetry_cell_setting 'triclinic'
loop_
_space_group_symop_operation_xyz
x,y,z
-x,-y,-z
loop_
_atom_site_type_symbol
_atom_site_label
_atom_site_fract_x
_atom_site_fract_y
_atom_site_fract_z
Si Si1 0.500000 0.000000 0.000000
Si Si2 0.774468 0.801933 0.403564
Si Si3 0.265449 0.849606 0.114138
Si Si4 0.799542 0.447752 0.855701
Si Si5 0.879603 0.679228 0.676665
Si Si6 0.206866 0.014893 0.865994
Si Si7 0.648843 0.498412 0.318260
Si Si8 0.388186 0.377142 0.400296
O O1 0.339826 0.239295 0.086739
O O2 0.647353 0.987378 0.117019
O O3 0.848790 0.783672 0.556985
O O4 0.720985 0.633870 0.350470
O O5 0.935271 0.640347 0.336390
O O6 0.594317 0.115255 0.387776
O O7 0.201234 0.703137 0.076281
O O8 0.459914 0.671344 0.213539
O O9 0.125764 0.144891 0.190997
O O10 0.281360 0.871733 0.989790
O O11 0.720799 0.420706 0.703829
O O12 0.000344 0.301572 0.871851
O O13 0.712413 0.719775 0.647038
O O14 0.215988 0.812992 0.743604
O O15 0.621465 0.518517 0.451358
#
# Coordination Sequence:
#
# PCOD9103989 Si02
#       8
#     1   2   2   2   2   2   2   2
#     4  12  28  50  72 102 140 182 232 294 354 402
#     4  10  20  38  71 102 138 181 228 283 344 410
#     4  12  23  47  73  99 142 186 236 282 339 416
#     4  12  29  46  71 106 139 187 229 287 357 410
#     4  10  20  40  70 102 132 185 232 277 344 408
#     4  12  28  50  72 101 138 186 242 284 342 422
#     4  11  22  45  73 101 138 186 230 286 347 405
#     4  11  23  44  69 105 150 172 226 293 346 416
#
# _framework density 25.551418000000002
#
# number of rings (size 3 to 8) (size 9 to 14) (size 15 to 20)
#    0.000    0.800    4.000    3.600    0.000    3.200 
#    0.000    0.000    0.000    0.000    0.000    0.000 
#    0.000    0.000    0.000    0.000    0.000    0.000 
#
# Total GULP energy -83892.216249 kJ/mol
# GULP energy per Si atom -5592.814417 kJ/mol
# Density = 2.549326 g / cm^3
# Si number density = 25.551418 Si / 1000 Ang^3
#
#
#
# Elastic Constant Matrix: (Units=GPa)
#
#
# Indices 1 2 3 4 5 6 
#
# 1 72.7619 40.4987 14.2529 0.6401 14.0182 -25.7380
# 2 40.4987 108.1449 41.8956 4.3970 -8.2588 -38.9746
# 3 14.2529 41.8956 137.9923 11.2891 -10.3743 -8.6387
# 4 0.6401 4.3970 11.2891 46.7132 -3.6731 1.2244
# 5 14.0182 -8.2588 -10.3743 -3.6731 29.1667 9.4667
# 6 -25.7380 -38.9746 -8.6387 1.2244 9.4667 34.2665
#
#
#
# Elastic Compliance Matrix: (Units=1/GPa)
#
#
# Indices 1 2 3 4 5 6 
#
# 1 0.029166 -0.002885 -0.002212 -0.002123 -0.023923 0.024752
# 2 -0.002885 0.018397 -0.004125 -0.001236 -0.000870 0.018002
# 3 -0.002212 -0.004125 0.008839 -0.001213 0.004626 -0.005359
# 4 -0.002123 -0.001236 -0.001213 0.022367 0.004821 -0.005437
# 5 -0.023923 -0.000870 0.004626 0.004821 0.058902 -0.034236
# 6 0.024752 0.018002 -0.005359 -0.005437 -0.034236 0.076551
#
#
# Mechanical properties :
#
#
# Convention : Reuss Voigt Hill
#
# Bulk Modulus (GPa) = 26.34489 56.91040 41.62764
# Shear Modulus (GPa) = 20.38163 36.84607 28.61385
#
# Velocity S-wave (km/s) = 2.82737 3.80154 3.35005
# Velocity P-wave (km/s) = 4.58166 6.44904 5.59383
#
# Compressibility (1/GPa) = 0.03795803
#
# Stress axis : x y z
#
# Youngs Moduli (GPa) = 34.28662 54.35709 113.13416
#
# Poissons Ratio (x) = 0.15685 0.25022
# Poissons Ratio (y) = 0.09893 0.46665
# Poissons Ratio (z) = 0.07583 0.22421
#
# Static dielectric constant tensor:
#      x y z
#    x 2.000660 0.038330 -0.031820 
#    y 0.038330 2.010360 -0.057320 
#    z -0.031820 -0.057320 1.855650 
# 
# From -- ./inp_files/418241.got.cif
#   From: 2010.05.17/outbox.cif.g08.bks.cpg/sg2_210_cif.got.tgz:418241.got - 2010.06.03 11:33:40.
