data_PCOD9103998
_publ_section_title
;
Structure prediction by ZEFSAII (Michael W. Deem and Ramdas Pophale) SiO2 
 PCOD9103998
Probable space group: P -1
;
_chemical_formula_sum "Si O2"
_cell_formula_units_Z 16
_cell_length_a 26.119053
_cell_length_b 19.097786
_cell_length_c 5.583322
_cell_angle_alpha 53.272555
_cell_angle_beta 127.280551
_cell_angle_gamma 161.992579
_cell_volume 682.320951
_symmetry_space_group_name_H-M "P -1"
_symmetry_group_IT_number 2
_symmetry_cell_setting 'triclinic'
loop_
_space_group_symop_operation_xyz
x,y,z
-x,-y,-z
loop_
_atom_site_type_symbol
_atom_site_label
_atom_site_fract_x
_atom_site_fract_y
_atom_site_fract_z
Si Si1 0.977737 0.706706 0.906745
Si Si2 0.933372 0.376184 0.814950
Si Si3 0.604429 0.925165 0.989230
Si Si4 0.505428 0.350377 0.115775
Si Si5 0.790461 0.014554 0.615525
Si Si6 0.287204 0.208272 0.545101
Si Si7 0.303659 0.531621 0.253897
Si Si8 0.100290 0.142094 0.243005
O O1 0.001064 0.642017 0.986303
O O2 0.027253 0.756825 0.224781
O O3 0.799820 0.530695 0.750800
O O4 0.120032 0.951120 0.709742
O O5 0.000000 0.500000 0.500000
O O6 0.730045 0.137043 0.745288
O O7 0.000000 0.500000 0.000000
O O8 0.492846 0.720272 0.936132
O O9 0.471372 0.785837 0.099305
O O10 0.743123 0.034578 0.271692
O O11 0.646372 0.494423 0.403305
O O12 0.334586 0.122979 0.241486
O O13 0.456744 0.381916 0.791327
O O14 0.734032 0.854026 0.658118
O O15 0.251834 0.263462 0.391359
O O16 0.175671 0.332918 0.099240
O O17 0.000000 0.000000 0.500000
O O18 0.000000 0.000000 0.000000
#
# Coordination Sequence:
#
# PCOD9103998 Si02
#       8
#     2   2   2   2   2   2   2   2
#     4  11  21  41  68 103 133 191 231 283 365 426
#     4  12  26  45  77 108 134 178 239 298 347 434
#     4  10  21  43  66 100 138 184 229 289 358 427
#     4   9  20  38  66  96 133 189 235 277 358 417
#     4   9  16  36  67  92 129 186 236 278 337 426
#     4  10  20  38  71  92 140 191 239 293 335 425
#     4  11  25  41  71 101 147 192 229 300 355 415
#     4  12  27  45  65 110 149 185 250 298 339 401
#
# _framework density 23.449376999999998
#
# number of rings (size 3 to 8) (size 9 to 14) (size 15 to 20)
#    0.000    1.500    5.000    1.500    5.250    1.500 
#    0.000    6.875    0.000    0.000    0.000    0.000 
#    0.000    0.000    0.000    0.000    0.000    0.000 
#
# Total GULP energy -89157.954174 kJ/mol
# GULP energy per Si atom -5572.372136 kJ/mol
# Density = 2.339601 g / cm^3
# Si number density = 23.449377 Si / 1000 Ang^3
#
#
#
# Elastic Constant Matrix: (Units=GPa)
#
#
# Indices 1 2 3 4 5 6 
#
# 1 136.3912 54.0817 29.8873 5.3837 6.6143 24.8563
# 2 54.0817 102.5629 29.6888 -6.4520 -1.4693 24.8669
# 3 29.8873 29.6888 66.4989 11.0452 -16.3643 6.4707
# 4 5.3837 -6.4520 11.0452 38.5735 4.7263 -5.9104
# 5 6.6143 -1.4693 -16.3643 4.7263 29.1462 -1.3631
# 6 24.8563 24.8669 6.4707 -5.9104 -1.3631 45.8216
#
#
#
# Elastic Compliance Matrix: (Units=1/GPa)
#
#
# Indices 1 2 3 4 5 6 
#
# 1 0.010526 -0.003788 -0.003686 -0.000999 -0.004646 -0.003401
# 2 -0.003788 0.014785 -0.005775 0.004250 -0.002546 -0.004681
# 3 -0.003686 -0.005775 0.024655 -0.009323 0.015943 0.000924
# 4 -0.000999 0.004250 -0.009323 0.031134 -0.009689 0.003280
# 5 -0.004646 -0.002546 0.015943 -0.009689 0.045841 0.001764
# 6 -0.003401 -0.004681 0.000924 0.003280 0.001764 0.026554
#
#
# Mechanical properties :
#
#
# Convention : Reuss Voigt Hill
#
# Bulk Modulus (GPa) = 42.61313 59.19650 50.90482
# Shear Modulus (GPa) = 26.62167 35.49460 31.05813
#
# Velocity S-wave (km/s) = 3.37305 3.89481 3.64328
# Velocity P-wave (km/s) = 5.77770 6.74724 6.28120
#
# Compressibility (1/GPa) = 0.02346694
#
# Stress axis : x y z
#
# Youngs Moduli (GPa) = 95.00029 67.63497 40.55990
#
# Poissons Ratio (x) = 0.25623 0.14951
# Poissons Ratio (y) = 0.35990 0.23424
# Poissons Ratio (z) = 0.35018 0.39060
#
# Static dielectric constant tensor:
#      x y z
#    x 1.618380 0.235490 0.134700 
#    y 0.235490 1.737750 -0.215810 
#    z 0.134700 -0.215810 2.026320 
# 
# From -- ./inp_files/124656.got.cif
#   From: 2010.05.17/outbox.cif.g08.bks.cpg/sg2_63_cif.got.tgz:124656.got - 2010.06.03 11:33:40.
