data_PCOD9103650
_publ_section_title
;
Structure prediction by ZEFSAII (Michael W. Deem and Ramdas Pophale) SiO2 
 PCOD9103650
Probable space group: P -1
;
_chemical_formula_sum "Si O2"
_cell_formula_units_Z 12
_cell_length_a 8.197282
_cell_length_b 8.617140
_cell_length_c 21.024998
_cell_angle_alpha 139.535560
_cell_angle_beta 29.362122
_cell_angle_gamma 121.603201
_cell_volume 425.088781
_symmetry_space_group_name_H-M "P -1"
_symmetry_group_IT_number 2
_symmetry_cell_setting 'triclinic'
loop_
_space_group_symop_operation_xyz
x,y,z
-x,-y,-z
loop_
_atom_site_type_symbol
_atom_site_label
_atom_site_fract_x
_atom_site_fract_y
_atom_site_fract_z
Si Si1 0.363773 0.719653 0.535673
Si Si2 0.268668 0.450167 0.277084
Si Si3 0.813107 0.050199 0.720885
Si Si4 0.633924 0.232892 0.221422
Si Si5 0.527102 0.391088 0.036921
Si Si6 0.265980 0.263449 0.787666
O O1 0.685294 0.443841 0.315525
O O2 0.085792 0.609513 0.625151
O O3 0.376405 0.947939 0.647518
O O4 0.186482 0.868788 0.574932
O O5 0.421280 0.356514 0.266728
O O6 0.499681 0.299685 0.088744
O O7 0.352319 0.710666 0.329980
O O8 0.772389 0.306347 0.775424
O O9 0.631319 0.886119 0.694384
O O10 0.532122 0.189569 0.919104
O O11 0.000000 0.000000 0.000000
O O12 0.943268 0.370290 0.876586
O O13 0.000000 0.500000 0.000000
#
# Coordination Sequence:
#
# PCOD9103650 Si02
#       6
#     2   2   2   2   2   2
#     4  10  22  40  62  93 127 164 212 261 312 376
#     4  10  20  38  67  93 125 166 208 259 317 374
#     4   9  18  36  62  91 127 161 206 259 314 378
#     4  11  23  40  61  87 126 173 215 260 314 370
#     4   9  18  34  62  96 126 165 206 253 317 381
#     4   9  19  35  62  96 128 159 202 257 315 374
#
# _framework density 28.229396999999999
#
# number of rings (size 3 to 8) (size 9 to 14) (size 15 to 20)
#    0.000    2.333    0.000    3.000    0.000   11.333 
#    0.000    6.667    0.000   40.000    0.000    9.333 
#    0.000    0.000    0.000    0.000    0.000    0.000 
#
# Total GULP energy -66865.340135 kJ/mol
# GULP energy per Si atom -5572.111678 kJ/mol
# Density = 2.816515 g / cm^3
# Si number density = 28.229397 Si / 1000 Ang^3
#
#
#
# Elastic Constant Matrix: (Units=GPa)
#
#
# Indices 1 2 3 4 5 6 
#
# 1 88.4678 54.4428 40.2054 11.9975 40.4866 29.2653
# 2 54.4428 124.3831 69.8829 13.0034 28.6421 55.6842
# 3 40.2054 69.8829 180.9665 28.2924 30.4997 30.4920
# 4 11.9975 13.0034 28.2924 52.6274 20.4172 14.2722
# 5 40.4866 28.6421 30.4997 20.4172 49.0774 8.0823
# 6 29.2653 55.6842 30.4920 14.2722 8.0823 54.4560
#
#
#
# Elastic Compliance Matrix: (Units=1/GPa)
#
#
# Indices 1 2 3 4 5 6 
#
# 1 0.023597 -0.002648 -0.000512 0.004877 -0.018272 -0.008253
# 2 -0.002648 0.020072 -0.003968 0.004877 -0.006255 -0.017229
# 3 -0.000512 -0.003968 0.007622 -0.002892 -0.000955 0.000964
# 4 0.004877 0.004877 -0.002892 0.026783 -0.014425 -0.010867
# 5 -0.018272 -0.006255 -0.000955 -0.014425 0.043374 0.014093
# 6 -0.008253 -0.017229 0.000964 -0.010867 0.014093 0.040633
#
#
# Mechanical properties :
#
#
# Convention : Reuss Voigt Hill
#
# Bulk Modulus (GPa) = 27.00174 80.31997 53.66086
# Shear Modulus (GPa) = 26.49958 46.51792 36.50875
#
# Velocity S-wave (km/s) = 3.06718 4.06378 3.60013
# Velocity P-wave (km/s) = 4.70418 7.10869 6.02755
#
# Compressibility (1/GPa) = 0.03703465
#
# Stress axis : x y z
#
# Youngs Moduli (GPa) = 42.37849 49.82066 131.19100
#
# Poissons Ratio (x) = 0.13194 0.06720
# Poissons Ratio (y) = 0.11223 0.52055
# Poissons Ratio (z) = 0.02171 0.19768
#
# Static dielectric constant tensor:
#      x y z
#    x 2.257210 0.095970 0.017820 
#    y 0.095970 2.322580 0.020020 
#    z 0.017820 0.020020 2.317790 
# 
# From -- ./inp_files/587568.got.cif
#   From: 2010.05.17/outbox.cif.g08.bks.cpg/sg2_294_cif.got.tgz:587568.got - 2010.06.03 11:33:40.
