data_PCOD9103708
_publ_section_title
;
Structure prediction by ZEFSAII (Michael W. Deem and Ramdas Pophale) SiO2 
 PCOD9103708
Probable space group: P -1
;
_chemical_formula_sum "Si O2"
_cell_formula_units_Z 16
_cell_length_a 24.793175
_cell_length_b 9.026287
_cell_length_c 9.555893
_cell_angle_alpha 132.784237
_cell_angle_beta 46.393250
_cell_angle_gamma 151.792160
_cell_volume 715.797614
_symmetry_space_group_name_H-M "P -1"
_symmetry_group_IT_number 2
_symmetry_cell_setting 'triclinic'
loop_
_space_group_symop_operation_xyz
x,y,z
-x,-y,-z
loop_
_atom_site_type_symbol
_atom_site_label
_atom_site_fract_x
_atom_site_fract_y
_atom_site_fract_z
Si Si1 0.463820 0.646348 0.334925
Si Si2 0.235299 0.514170 0.056479
Si Si3 0.319276 0.706365 0.529349
Si Si4 0.463540 0.202348 0.017729
Si Si5 0.047436 0.602691 0.137858
Si Si6 0.880358 0.680962 0.156905
Si Si7 0.957857 0.614127 0.570233
Si Si8 0.734231 0.683031 0.873691
O O1 0.362182 0.597919 0.470017
O O2 0.417267 0.323948 0.223251
O O3 0.561796 0.911357 0.443481
O O4 0.531681 0.798292 0.160412
O O5 0.169986 0.572233 0.276253
O O6 0.216176 0.286975 0.048134
O O7 0.374865 0.849994 0.008087
O O8 0.181758 0.375186 0.909249
O O9 0.216081 0.586544 0.726573
O O10 0.275497 0.532178 0.348310
O O11 0.599888 0.475701 0.994406
O O12 0.972476 0.588216 0.364850
O O13 0.179448 0.975418 0.134288
O O14 0.050803 0.379438 0.041528
O O15 0.000000 0.500000 0.000000
O O16 0.957949 0.021043 0.303490
O O17 0.000000 0.500000 0.500000
#
# Coordination Sequence:
#
# PCOD9103708 Si02
#       8
#     2   2   2   2   2   2   2   2
#     4   9  19  36  66  98 131 181 231 283 332 412
#     4  12  26  44  70 103 147 188 224 291 353 411
#     4  10  20  38  67  98 133 178 235 280 337 408
#     4  10  21  40  67 100 138 181 234 277 353 410
#     4  12  28  48  76 103 135 186 236 292 351 408
#     4  12  25  46  74 101 138 185 236 281 349 418
#     4  12  28  47  71 106 142 180 238 288 344 422
#     4  11  25  44  69 101 145 179 233 294 344 408
#
# _framework density 22.352685999999999
#
# number of rings (size 3 to 8) (size 9 to 14) (size 15 to 20)
#    0.000    1.000    3.750    2.250    8.750    1.000 
#    0.000    0.625    0.000    0.000    0.000    0.000 
#    0.000    0.000    0.000    0.000    0.000    0.000 
#
# Total GULP energy -89496.231928 kJ/mol
# GULP energy per Si atom -5593.514495 kJ/mol
# Density = 2.230181 g / cm^3
# Si number density = 22.352686 Si / 1000 Ang^3
#
#
#
# Elastic Constant Matrix: (Units=GPa)
#
#
# Indices 1 2 3 4 5 6 
#
# 1 39.6251 1.9851 4.4610 10.7156 15.1467 2.9500
# 2 1.9851 60.5952 12.3735 -0.9822 3.2494 7.6421
# 3 4.4610 12.3735 100.8218 10.1198 4.5533 7.2147
# 4 10.7156 -0.9822 10.1198 35.1763 3.8691 -4.3839
# 5 15.1467 3.2494 4.5533 3.8691 33.6320 3.8350
# 6 2.9500 7.6421 7.2147 -4.3839 3.8350 30.2186
#
#
#
# Elastic Compliance Matrix: (Units=1/GPa)
#
#
# Indices 1 2 3 4 5 6 
#
# 1 0.033038 -0.000203 0.000282 -0.009015 -0.013538 -0.002831
# 2 -0.000203 0.017429 -0.001895 0.000742 -0.000999 -0.003701
# 3 0.000282 -0.001895 0.010697 -0.003451 -0.000708 -0.002513
# 4 -0.009015 0.000742 -0.003451 0.032981 -0.000058 0.006308
# 5 -0.013538 -0.000999 -0.000708 -0.000058 0.036358 -0.002879
# 6 -0.002831 -0.003701 -0.002513 0.006308 -0.002879 0.036185
#
#
# Mechanical properties :
#
#
# Convention : Reuss Voigt Hill
#
# Bulk Modulus (GPa) = 17.38140 26.52014 21.95077
# Shear Modulus (GPa) = 26.38570 31.95356 29.16963
#
# Velocity S-wave (km/s) = 3.43946 3.78500 3.61636
# Velocity P-wave (km/s) = 4.85449 5.56703 5.22292
#
# Compressibility (1/GPa) = 0.05753278
#
# Stress axis : x y z
#
# Youngs Moduli (GPa) = 30.26781 57.37608 93.48610
#
# Poissons Ratio (x) = 0.01165 -0.02635
# Poissons Ratio (y) = 0.00615 0.17711
# Poissons Ratio (z) = -0.00853 0.10870
#
# Static dielectric constant tensor:
#      x y z
#    x 1.820750 0.014960 -0.004110 
#    y 0.014960 1.819480 -0.005120 
#    z -0.004110 -0.005120 1.818360 
# 
# From -- ./inp_files/352412.got.cif
#   From: 2010.05.17/outbox.cif.g08.bks.cpg/sg2_177_cif.got.tgz:352412.got - 2010.06.03 11:33:40.
