data_PCOD9103186
_publ_section_title
;
Structure prediction by ZEFSAII (Michael W. Deem and Ramdas Pophale) SiO2 
 PCOD9103186
Probable space group: P -1
;
_chemical_formula_sum "Si O2"
_cell_formula_units_Z 14
_cell_length_a 9.971555
_cell_length_b 9.613629
_cell_length_c 9.182049
_cell_angle_alpha 81.684150
_cell_angle_beta 97.332736
_cell_angle_gamma 49.637192
_cell_volume 634.406618
_symmetry_space_group_name_H-M "P -1"
_symmetry_group_IT_number 2
_symmetry_cell_setting 'triclinic'
loop_
_space_group_symop_operation_xyz
x,y,z
-x,-y,-z
loop_
_atom_site_type_symbol
_atom_site_label
_atom_site_fract_x
_atom_site_fract_y
_atom_site_fract_z
Si Si1 0.781934 0.810413 0.146940
Si Si2 0.561003 0.141899 0.860178
Si Si3 0.201676 0.996346 0.650109
Si Si4 0.417106 0.204412 0.395732
Si Si5 0.066956 0.793497 0.677806
Si Si6 0.592819 0.550184 0.405669
Si Si7 0.865999 0.730262 0.850923
O O1 0.637645 0.792153 0.171366
O O2 0.871659 0.815640 0.299801
O O3 0.887673 0.684767 0.034591
O O4 0.658887 0.032001 0.041208
O O5 0.534846 0.314376 0.769236
O O6 0.698120 0.962745 0.799847
O O7 0.116317 0.059029 0.466431
O O8 0.420693 0.850102 0.676949
O O9 0.130239 0.901814 0.725426
O O10 0.382348 0.331973 0.506358
O O11 0.229810 0.314653 0.261096
O O12 0.500000 0.000000 0.500000
O O13 0.220717 0.636083 0.609581
O O14 0.032280 0.698067 0.807040
O O15 0.500000 0.500000 0.500000
#
# Coordination Sequence:
#
# PCOD9103186 Si02
#       7
#     2   2   2   2   2   2   2
#     4   9  18  39  71  86 114 166 220 245 291 383
#     4   9  18  38  66  87 115 160 215 244 295 374
#     4  11  20  39  63  89 124 169 203 248 313 373
#     4  12  18  38  67  85 115 168 210 244 301 369
#     4  11  25  35  57  97 132 153 206 261 309 362
#     4  12  24  39  60  95 133 160 199 266 316 358
#     4  10  20  38  65  92 111 162 217 250 292 368
#
# _framework density 22.067865999999999
#
# number of rings (size 3 to 8) (size 9 to 14) (size 15 to 20)
#    0.857    0.571    5.714    0.000    2.000    1.143 
#    0.000    1.429    3.143    0.000    0.000    0.000 
#    0.000    0.000    0.000    0.000    0.000    0.000 
#
# Total GULP energy -78078.058456 kJ/mol
# GULP energy per Si atom -5577.004175 kJ/mol
# Density = 2.201764 g / cm^3
# Si number density = 22.067866 Si / 1000 Ang^3
#
#
#
# Elastic Constant Matrix: (Units=GPa)
#
#
# Indices 1 2 3 4 5 6 
#
# 1 88.7854 -4.0630 35.0282 9.9209 -20.9367 -2.0128
# 2 -4.0630 38.9072 2.8728 12.3351 -2.1985 -1.6731
# 3 35.0282 2.8728 64.8772 6.9328 -16.4322 -1.8292
# 4 9.9209 12.3351 6.9328 48.4204 1.7312 -6.5819
# 5 -20.9367 -2.1985 -16.4322 1.7312 41.6908 9.0635
# 6 -2.0128 -1.6731 -1.8292 -6.5819 9.0635 21.8330
#
#
#
# Elastic Compliance Matrix: (Units=1/GPa)
#
#
# Indices 1 2 3 4 5 6 
#
# 1 0.015971 0.003614 -0.006878 -0.003776 0.006210 -0.002543
# 2 0.003614 0.028925 -0.001537 -0.008209 0.003394 -0.001463
# 3 -0.006878 -0.001537 0.020576 -0.001535 0.004977 -0.001557
# 4 -0.003776 -0.008209 -0.001535 0.025164 -0.005922 0.008939
# 5 0.006210 0.003394 0.004977 -0.005922 0.032545 -0.014046
# 6 -0.002543 -0.001463 -0.001557 0.008939 -0.014046 0.053851
#
#
# Mechanical properties :
#
#
# Convention : Reuss Voigt Hill
#
# Bulk Modulus (GPa) = 17.89871 28.91621 23.40746
# Shear Modulus (GPa) = 24.35986 32.97097 28.66541
#
# Velocity S-wave (km/s) = 3.32605 3.86952 3.60803
# Velocity P-wave (km/s) = 4.78314 5.75291 5.29029
#
# Compressibility (1/GPa) = 0.05586993
#
# Stress axis : x y z
#
# Youngs Moduli (GPa) = 62.61447 34.57271 48.59987
#
# Poissons Ratio (x) = -0.12496 0.33429
# Poissons Ratio (y) = -0.22631 0.07468
# Poissons Ratio (z) = 0.43068 0.05313
#
# Static dielectric constant tensor:
#      x y z
#    x 1.804220 0.029950 0.023660 
#    y 0.029950 1.868140 -0.014030 
#    z 0.023660 -0.014030 1.899640 
# 
# From -- ./inp_files/382301.got.cif
#   From: 2010.05.17/outbox.cif.g08.bks.cpg/sg2_192_cif.got.tgz:382301.got - 2010.06.03 11:33:40.
