data_PCOD9103642
_publ_section_title
;
Structure prediction by ZEFSAII (Michael W. Deem and Ramdas Pophale) SiO2 
 PCOD9103642
Probable space group: P -1
;
_chemical_formula_sum "Si O2"
_cell_formula_units_Z 16
_cell_length_a 15.594863
_cell_length_b 8.305232
_cell_length_c 12.104595
_cell_angle_alpha 89.254440
_cell_angle_beta 126.454781
_cell_angle_gamma 131.148055
_cell_volume 741.961224
_symmetry_space_group_name_H-M "P -1"
_symmetry_group_IT_number 2
_symmetry_cell_setting 'triclinic'
loop_
_space_group_symop_operation_xyz
x,y,z
-x,-y,-z
loop_
_atom_site_type_symbol
_atom_site_label
_atom_site_fract_x
_atom_site_fract_y
_atom_site_fract_z
Si Si1 0.624891 0.065225 0.267965
Si Si2 0.090317 0.772537 0.389473
Si Si3 0.351679 0.692915 0.252448
Si Si4 0.343266 0.375092 0.620243
Si Si5 0.027081 0.695782 0.090207
Si Si6 0.568773 0.843943 0.615401
Si Si7 0.541464 0.422703 0.939375
Si Si8 0.218716 0.444468 0.718140
O O1 0.790456 0.232274 0.476454
O O2 0.634966 0.246818 0.215071
O O3 0.444680 0.817672 0.203337
O O4 0.613923 0.903862 0.176529
O O5 0.006789 0.637074 0.206654
O O6 0.953440 0.657807 0.382576
O O7 0.220053 0.086943 0.475162
O O8 0.466290 0.718247 0.420549
O O9 0.380863 0.908731 0.321823
O O10 0.139457 0.397952 0.077880
O O11 0.428055 0.604591 0.598741
O O12 0.511615 0.485845 0.804648
O O13 0.224884 0.319996 0.626133
O O14 0.236013 0.004794 0.233414
O O15 0.000000 0.500000 0.000000
O O16 0.500000 0.500000 0.000000
O O17 0.724561 0.566214 0.122086
#
# Coordination Sequence:
#
# PCOD9103642 Si02
#       8
#     2   2   2   2   2   2   2   2
#     4  11  20  38  65  91 125 173 209 263 321 372
#     4  11  23  40  60  95 133 164 215 269 316 383
#     4  10  20  38  67  92 126 163 213 266 316 372
#     4  10  22  41  65  88 132 174 202 265 335 373
#     4  10  22  39  62  92 126 164 212 266 311 374
#     4  10  20  41  65  92 129 165 209 263 321 382
#     4   9  21  38  57  87 126 163 208 259 315 378
#     4  11  21  39  65  93 125 167 221 259 316 384
#
# _framework density 21.564467
#
# number of rings (size 3 to 8) (size 9 to 14) (size 15 to 20)
#    0.000    1.750    2.500    1.875    0.000    0.500 
#    4.500    0.625    0.000    0.000    0.000    0.000 
#    0.000    0.000    0.000    0.000    0.000    0.000 
#
# Total GULP energy -89204.697332 kJ/mol
# GULP energy per Si atom -5575.293583 kJ/mol
# Density = 2.151539 g / cm^3
# Si number density = 21.564467 Si / 1000 Ang^3
#
#
#
# Elastic Constant Matrix: (Units=GPa)
#
#
# Indices 1 2 3 4 5 6 
#
# 1 76.7414 8.7513 32.3854 -1.7943 -4.1871 13.1666
# 2 8.7513 40.6473 21.4342 -4.1664 -4.7632 14.9092
# 3 32.3854 21.4342 110.0824 -7.1826 -0.7870 9.1889
# 4 -1.7943 -4.1664 -7.1826 11.4187 3.3234 3.2137
# 5 -4.1871 -4.7632 -0.7870 3.3234 42.4845 7.6888
# 6 13.1666 14.9092 9.1889 3.2137 7.6888 31.0695
#
#
#
# Elastic Compliance Matrix: (Units=1/GPa)
#
#
# Indices 1 2 3 4 5 6 
#
# 1 0.016129 0.002112 -0.004396 0.001780 0.002957 -0.007464
# 2 0.002112 0.036373 -0.005070 0.014082 0.006704 -0.019965
# 3 -0.004396 -0.005070 0.011623 0.004960 -0.001295 0.000666
# 4 0.001780 0.014082 0.004960 0.102221 -0.002734 -0.018876
# 5 0.002957 0.006704 -0.001295 -0.002734 0.026653 -0.010400
# 6 -0.007464 -0.019965 0.000666 -0.018876 -0.010400 0.049259
#
#
# Mechanical properties :
#
#
# Convention : Reuss Voigt Hill
#
# Bulk Modulus (GPa) = 20.23581 39.17919 29.70750
# Shear Modulus (GPa) = 18.28567 27.98791 23.13679
#
# Velocity S-wave (km/s) = 2.91512 3.60651 3.27909
# Velocity P-wave (km/s) = 4.55355 5.96241 5.30496
#
# Compressibility (1/GPa) = 0.04941735
#
# Stress axis : x y z
#
# Youngs Moduli (GPa) = 62.00178 27.49300 86.03353
#
# Poissons Ratio (x) = -0.05808 0.37819
# Poissons Ratio (y) = -0.13097 0.43622
# Poissons Ratio (z) = 0.27255 0.13940
#
# Static dielectric constant tensor:
#      x y z
#    x 1.879210 -0.010070 0.004260 
#    y -0.010070 1.737090 -0.013160 
#    z 0.004260 -0.013160 1.840680 
# 
# From -- ./inp_files/205662.got.cif
#   From: 2010.05.17/outbox.cif.g08.bks.cpg/sg2_103_cif.got.tgz:205662.got - 2010.06.03 11:33:40.
