data_PCOD9103523
_publ_section_title
;
Structure prediction by ZEFSAII (Michael W. Deem and Ramdas Pophale) SiO2 
 PCOD9103523
Probable space group: P -1
;
_chemical_formula_sum "Si O2"
_cell_formula_units_Z 14
_cell_length_a 12.276120
_cell_length_b 7.930467
_cell_length_c 8.703200
_cell_angle_alpha 123.362950
_cell_angle_beta 62.185104
_cell_angle_gamma 124.053727
_cell_volume 570.693234
_symmetry_space_group_name_H-M "P -1"
_symmetry_group_IT_number 2
_symmetry_cell_setting 'triclinic'
loop_
_space_group_symop_operation_xyz
x,y,z
-x,-y,-z
loop_
_atom_site_type_symbol
_atom_site_label
_atom_site_fract_x
_atom_site_fract_y
_atom_site_fract_z
Si Si1 0.609060 0.266266 0.628050
Si Si2 0.628165 0.583774 0.175274
Si Si3 0.787437 0.943848 0.807812
Si Si4 0.525072 0.904052 0.093812
Si Si5 0.719909 0.548683 0.435580
Si Si6 0.014953 0.599305 0.209832
Si Si7 0.147508 0.336531 0.161825
O O1 0.465942 0.286386 0.716007
O O2 0.560227 0.073006 0.691786
O O3 0.663858 0.312869 0.441486
O O4 0.736255 0.463842 0.722473
O O5 0.649876 0.534503 0.311773
O O6 0.545549 0.358930 0.024574
O O7 0.774400 0.696350 0.055462
O O8 0.704295 0.736270 0.647228
O O9 0.889578 0.871766 0.804317
O O10 0.860720 0.161530 0.767328
O O11 0.685454 0.972603 0.013683
O O12 0.500000 0.000000 0.000000
O O13 0.879273 0.625604 0.350805
O O14 0.041573 0.431874 0.224146
O O15 0.000000 0.500000 0.000000
#
# Coordination Sequence:
#
# PCOD9103523 Si02
#       7
#     2   2   2   2   2   2   2
#     4  10  20  38  66  96 127 171 213 265 336 392
#     4  11  18  40  66  97 130 168 211 269 339 390
#     4  11  23  43  69  97 130 179 226 269 333 396
#     4  11  21  37  68  99 131 172 220 270 333 404
#     4  11  24  40  68 100 136 176 214 276 335 394
#     4  12  26  45  68  95 133 179 233 274 321 396
#     4  10  20  41  70  92 129 177 225 265 329 392
#
# _framework density 24.531568
#
# number of rings (size 3 to 8) (size 9 to 14) (size 15 to 20)
#    0.000    1.143    5.714    3.429    0.000    2.857 
#    0.000    2.143    6.286    0.000    0.000    0.000 
#    0.000    0.000    0.000    0.000    0.000    0.000 
#
# Total GULP energy -78155.337316 kJ/mol
# GULP energy per Si atom -5582.524094 kJ/mol
# Density = 2.447573 g / cm^3
# Si number density = 24.531568 Si / 1000 Ang^3
#
#
#
# Elastic Constant Matrix: (Units=GPa)
#
#
# Indices 1 2 3 4 5 6 
#
# 1 117.6176 -8.8633 4.2095 -4.8908 18.1018 -19.9560
# 2 -8.8633 58.8432 9.1107 -10.1120 7.6610 -2.0195
# 3 4.2095 9.1107 78.8687 -6.7473 17.6088 1.4577
# 4 -4.8908 -10.1120 -6.7473 35.1547 -7.0740 8.0323
# 5 18.1018 7.6610 17.6088 -7.0740 37.5798 -14.1938
# 6 -19.9560 -2.0195 1.4577 8.0323 -14.1938 37.4696
#
#
#
# Elastic Compliance Matrix: (Units=1/GPa)
#
#
# Indices 1 2 3 4 5 6 
#
# 1 0.009911 0.002168 -0.000003 0.000367 -0.003661 0.003930
# 2 0.002168 0.018769 -0.001084 0.004821 -0.003514 -0.000156
# 3 -0.000003 -0.001084 0.014797 0.001861 -0.007879 -0.004019
# 4 0.000367 0.004821 0.001861 0.031922 0.001794 -0.005780
# 5 -0.003661 -0.003514 -0.007879 0.001794 0.037672 0.012053
# 6 0.003930 -0.000156 -0.004019 -0.005780 0.012053 0.034734
#
#
# Mechanical properties :
#
#
# Convention : Reuss Voigt Hill
#
# Bulk Modulus (GPa) = 21.91098 29.36039 25.63569
# Shear Modulus (GPa) = 31.08335 38.76564 34.92449
#
# Velocity S-wave (km/s) = 3.56346 3.97953 3.77723
# Velocity P-wave (km/s) = 5.08745 5.75412 5.43103
#
# Compressibility (1/GPa) = 0.04563921
#
# Stress axis : x y z
#
# Youngs Moduli (GPa) = 100.89670 53.27836 67.58014
#
# Poissons Ratio (x) = -0.11551 0.00022
# Poissons Ratio (y) = -0.21874 0.07326
# Poissons Ratio (z) = 0.00033 0.05775
#
# Static dielectric constant tensor:
#      x y z
#    x 1.957180 -0.029470 -0.017660 
#    y -0.029470 2.039110 -0.045230 
#    z -0.017660 -0.045230 2.145090 
# 
# From -- ./inp_files/178447.got.cif
#   From: 2010.05.17/outbox.cif.g08.bks.cpg/sg2_90_cif.got.tgz:178447.got - 2010.06.03 11:33:40.
