data_PCOD9103875
_publ_section_title
;
Structure prediction by ZEFSAII (Michael W. Deem and Ramdas Pophale) SiO2 
 PCOD9103875
Probable space group: P -1
;
_chemical_formula_sum "Si O2"
_cell_formula_units_Z 16
_cell_length_a 23.408822
_cell_length_b 19.503439
_cell_length_c 13.702033
_cell_angle_alpha 147.811161
_cell_angle_beta 163.193438
_cell_angle_gamma 24.039855
_cell_volume 715.791533
_symmetry_space_group_name_H-M "P -1"
_symmetry_group_IT_number 2
_symmetry_cell_setting 'triclinic'
loop_
_space_group_symop_operation_xyz
x,y,z
-x,-y,-z
loop_
_atom_site_type_symbol
_atom_site_label
_atom_site_fract_x
_atom_site_fract_y
_atom_site_fract_z
Si Si1 0.700282 0.152073 0.162239
Si Si2 0.953640 0.499549 0.162724
Si Si3 0.838977 0.907874 0.550445
Si Si4 0.422610 0.774820 0.369998
Si Si5 0.816757 0.386172 0.629061
Si Si6 0.447272 0.747155 0.156931
Si Si7 0.782345 0.661441 0.267512
Si Si8 0.971759 0.758034 0.391709
O O1 0.650355 0.328290 0.296595
O O2 0.690385 0.113617 0.986700
O O3 0.479856 0.195300 0.926048
O O4 0.000000 0.000000 0.500000
O O5 0.253727 0.390544 0.559718
O O6 0.932464 0.633813 0.220896
O O7 0.760726 0.581350 0.038928
O O8 0.916481 0.394372 0.905127
O O9 0.851892 0.765689 0.454343
O O10 0.805965 0.914723 0.386812
O O11 0.616297 0.093349 0.458602
O O12 0.130681 0.838266 0.963486
O O13 0.640659 0.575813 0.520301
O O14 0.472577 0.792836 0.361473
O O15 0.049241 0.246960 0.764797
O O16 0.270228 0.693032 0.811378
O O17 0.000000 0.500000 0.500000
#
# Coordination Sequence:
#
# PCOD9103875 Si02
#       8
#     2   2   2   2   2   2   2   2
#     4  11  26  47  63  93 132 180 221 262 323 391
#     4  11  21  37  63 102 121 163 224 268 318 381
#     4   9  21  38  63  97 132 165 216 273 326 384
#     4  10  20  39  65 103 130 161 214 276 342 373
#     4  11  23  39  67  94 132 167 215 274 324 392
#     4  10  20  38  69  89 127 173 215 260 320 393
#     4  11  22  43  68  89 130 182 226 256 315 398
#     4   9  19  36  64  94 125 168 207 264 332 386
#
# _framework density 22.352878
#
# number of rings (size 3 to 8) (size 9 to 14) (size 15 to 20)
#    0.000    1.750    2.500    1.500    7.000    1.500 
#   13.500    2.500    0.000    0.000    0.000    0.000 
#    0.000    0.000    0.000    0.000    0.000    0.000 
#
# Total GULP energy -89228.113832 kJ/mol
# GULP energy per Si atom -5576.757114 kJ/mol
# Density = 2.230200 g / cm^3
# Si number density = 22.352878 Si / 1000 Ang^3
#
#
#
# Elastic Constant Matrix: (Units=GPa)
#
#
# Indices 1 2 3 4 5 6 
#
# 1 111.7181 33.8439 9.0419 -1.5768 -12.1942 -14.8815
# 2 33.8439 64.5421 5.0132 -6.4786 -14.8415 -27.2070
# 3 9.0419 5.0132 35.9305 -16.5841 -9.6304 -16.3276
# 4 -1.5768 -6.4786 -16.5841 36.3045 -8.9688 -8.0328
# 5 -12.1942 -14.8415 -9.6304 -8.9688 34.8746 0.9274
# 6 -14.8815 -27.2070 -16.3276 -8.0328 0.9274 21.6784
#
#
#
# Elastic Compliance Matrix: (Units=1/GPa)
#
#
# Indices 1 2 3 4 5 6 
#
# 1 0.010750 -0.004030 -0.000103 0.000771 0.002149 0.002438
# 2 -0.004030 0.000214 -0.029093 -0.024323 -0.014735 -0.032792
# 3 -0.000103 -0.029093 -0.010250 -0.026801 -0.020721 -0.053348
# 4 0.000771 -0.024323 -0.026801 -0.004596 -0.017304 -0.051145
# 5 0.002149 -0.014735 -0.020721 -0.017304 0.014037 -0.039637
# 6 0.002438 -0.032792 -0.053348 -0.051145 -0.039637 -0.050788
#
#
# Mechanical properties :
#
#
# Convention : Reuss Voigt Hill
#
# Bulk Modulus (GPa) = -15.21192 34.22098 9.50453
# Shear Modulus (GPa) = 1280.19395 29.52430 654.85912
#
# Velocity S-wave (km/s) = 23.95753 3.63826 17.13476
# Velocity P-wave (km/s) = 27.54023 5.74386 19.89292
#
# Compressibility (1/GPa) = -0.06573791
#
# Stress axis : x y z
#
# Youngs Moduli (GPa) = 93.01899 4679.52681 -97.56202
#
# Poissons Ratio (x) = 18.85798 -0.01008
# Poissons Ratio (y) = 0.37486 -2.83836
# Poissons Ratio (z) = 0.00961 136.14109
#
# Static dielectric constant tensor:
#      x y z
#    x 1.854860 -0.027260 -0.030980 
#    y -0.027260 1.851670 -0.005490 
#    z -0.030980 -0.005490 1.871980 
# 
# From -- ./inp_files/472449.got.cif
#   From: 2010.05.17/outbox.cif.g08.bks.cpg/sg2_237_cif.got.tgz:472449.got - 2010.06.03 11:33:40.
