data_PCOD9103537
_publ_section_title
;
Structure prediction by ZEFSAII (Michael W. Deem and Ramdas Pophale) SiO2 
 PCOD9103537
Probable space group: P -1
;
_chemical_formula_sum "Si O2"
_cell_formula_units_Z 14
_cell_length_a 22.749294
_cell_length_b 9.637251
_cell_length_c 13.431048
_cell_angle_alpha 29.796111
_cell_angle_beta 22.601994
_cell_angle_gamma 36.895903
_cell_volume 562.344592
_symmetry_space_group_name_H-M "P -1"
_symmetry_group_IT_number 2
_symmetry_cell_setting 'triclinic'
loop_
_space_group_symop_operation_xyz
x,y,z
-x,-y,-z
loop_
_atom_site_type_symbol
_atom_site_label
_atom_site_fract_x
_atom_site_fract_y
_atom_site_fract_z
Si Si1 0.069615 0.717318 0.337433
Si Si2 0.369596 0.933483 0.627297
Si Si3 0.965009 0.679977 0.728366
Si Si4 0.133403 0.753938 0.703825
Si Si5 0.582673 0.548389 0.655290
Si Si6 0.669563 0.480846 0.203707
Si Si7 0.641008 0.846892 0.824453
O O1 0.000000 0.500000 0.500000
O O2 0.066657 0.585541 0.534076
O O3 0.967534 0.995742 0.336117
O O4 0.233458 0.830053 0.977325
O O5 0.522520 0.766672 0.527658
O O6 0.319081 0.833899 0.659456
O O7 0.390989 0.258945 0.410998
O O8 0.973663 0.481936 0.933913
O O9 0.000000 0.000000 0.500000
O O10 0.266204 0.614292 0.516194
O O11 0.208418 0.378944 0.001543
O O12 0.228046 0.924074 0.536343
O O13 0.440402 0.334027 0.020121
O O14 0.500000 0.500000 0.500000
O O15 0.689163 0.648433 0.964569
O O16 0.500000 0.000000 0.000000
#
# Coordination Sequence:
#
# PCOD9103537 Si02
#       7
#     2   2   2   2   2   2   2
#     4  12  24  46  70 101 144 189 231 290 366 424
#     4  10  20  38  66  97 140 183 229 292 359 415
#     4  12  26  43  70 107 141 188 243 290 352 434
#     4  11  23  44  73  99 142 190 236 289 351 433
#     4   9  19  37  67 103 129 184 235 285 352 421
#     4  11  21  41  67  97 137 183 239 296 354 419
#     4   9  17  36  64  97 129 176 224 285 350 411
#
# _framework density 24.895766999999999
#
# number of rings (size 3 to 8) (size 9 to 14) (size 15 to 20)
#    0.000    1.429    2.857    4.286    0.000    4.000 
#    0.000    0.000    0.000    7.714    0.000    0.000 
#    0.000    0.000    0.000    0.000    0.000    0.000 
#
# Total GULP energy -78218.034850 kJ/mol
# GULP energy per Si atom -5587.002489 kJ/mol
# Density = 2.483910 g / cm^3
# Si number density = 24.895767 Si / 1000 Ang^3
#
#
#
# Elastic Constant Matrix: (Units=GPa)
#
#
# Indices 1 2 3 4 5 6 
#
# 1 91.0840 46.3180 26.9711 -7.4569 -21.7901 20.2916
# 2 46.3180 156.4786 39.9335 -14.3266 -16.2293 11.2108
# 3 26.9711 39.9335 129.3271 -17.4373 -18.4734 15.5337
# 4 -7.4569 -14.3266 -17.4373 51.7895 4.0120 -17.1460
# 5 -21.7901 -16.2293 -18.4734 4.0120 39.6145 -8.7382
# 6 20.2916 11.2108 15.5337 -17.1460 -8.7382 49.2143
#
#
#
# Elastic Compliance Matrix: (Units=1/GPa)
#
#
# Indices 1 2 3 4 5 6 
#
# 1 0.015307 -0.003479 -0.000895 -0.001017 0.005669 -0.004584
# 2 -0.003479 0.007955 -0.001539 0.001362 0.000643 0.000697
# 3 -0.000895 -0.001539 0.009173 0.001992 0.002733 -0.000996
# 4 -0.001017 0.001362 0.001992 0.022645 0.000271 0.007417
# 5 0.005669 0.000643 0.002733 0.000271 0.030343 0.002135
# 6 -0.004584 0.000697 -0.000996 0.007417 0.002135 0.025328
#
#
# Mechanical properties :
#
#
# Convention : Reuss Voigt Hill
#
# Bulk Modulus (GPa) = 48.52188 67.03719 57.77954
# Shear Modulus (GPa) = 38.62589 45.70148 42.16369
#
# Velocity S-wave (km/s) = 3.94319 4.28917 4.11981
# Velocity P-wave (km/s) = 6.34539 7.17739 6.77417
#
# Compressibility (1/GPa) = 0.02060926
#
# Stress axis : x y z
#
# Youngs Moduli (GPa) = 65.32823 125.71085 109.01772
#
# Poissons Ratio (x) = 0.43739 0.09753
# Poissons Ratio (y) = 0.22730 0.16776
# Poissons Ratio (z) = 0.05845 0.19344
#
# Static dielectric constant tensor:
#      x y z
#    x 2.146500 0.078350 0.011650 
#    y 0.078350 2.218910 -0.021190 
#    z 0.011650 -0.021190 1.959930 
# 
# From -- ./inp_files/473534.got.cif
#   From: 2010.05.17/outbox.cif.g08.bks.cpg/sg2_237_cif.got.tgz:473534.got - 2010.06.03 11:33:40.
