data_PCOD9103121
_publ_section_title
;
Structure prediction by ZEFSAII (Michael W. Deem and Ramdas Pophale) SiO2 
 PCOD9103121
Probable space group: P -1
;
_chemical_formula_sum "Si O2"
_cell_formula_units_Z 16
_cell_length_a 9.069908
_cell_length_b 8.373417
_cell_length_c 17.447124
_cell_angle_alpha 131.768323
_cell_angle_beta 67.960631
_cell_angle_gamma 132.360260
_cell_volume 723.720854
_symmetry_space_group_name_H-M "P -1"
_symmetry_group_IT_number 2
_symmetry_cell_setting 'triclinic'
loop_
_space_group_symop_operation_xyz
x,y,z
-x,-y,-z
loop_
_atom_site_type_symbol
_atom_site_label
_atom_site_fract_x
_atom_site_fract_y
_atom_site_fract_z
Si Si1 0.169600 0.765490 0.597660
Si Si2 0.364871 0.434650 0.120786
Si Si3 0.282462 0.417948 0.533193
Si Si4 0.122101 0.116944 0.629700
Si Si5 0.156415 0.412668 0.015274
Si Si6 0.035673 0.834038 0.802192
Si Si7 0.283788 0.499532 0.856071
Si Si8 0.750122 0.137760 0.093313
O O1 0.291648 0.674290 0.585688
O O2 0.063780 0.808528 0.700702
O O3 0.000000 0.500000 0.500000
O O4 0.245187 0.006047 0.598802
O O5 0.572858 0.576903 0.169342
O O6 0.192011 0.381953 0.193033
O O7 0.340928 0.545883 0.081919
O O8 0.318218 0.150247 0.014666
O O9 0.500000 0.500000 0.500000
O O10 0.220914 0.318881 0.602215
O O11 0.100435 0.148062 0.435893
O O12 0.127169 0.275284 0.753597
O O13 0.214092 0.548914 0.965412
O O14 0.088568 0.117132 0.909699
O O15 0.968492 0.350805 0.077831
O O16 0.192467 0.822669 0.816642
O O17 0.387140 0.778339 0.878165
#
# Coordination Sequence:
#
# PCOD9103121 Si02
#       8
#     2   2   2   2   2   2   2   2
#     4  10  20  38  65  88 118 159 193 250 313 359
#     4   9  20  33  54  81 110 161 197 235 295 355
#     4  10  23  45  66  88 126 156 200 255 311 363
#     4  10  23  40  63  95 119 162 202 249 308 367
#     4   9  18  34  53  73 115 154 188 234 289 347
#     4   9  17  37  55  73 111 152 197 232 292 361
#     4  12  19  32  55  85 121 140 198 253 287 348
#     4   9  19  33  53  78 111 163 193 235 303 346
#
# _framework density 22.107970999999999
#
# number of rings (size 3 to 8) (size 9 to 14) (size 15 to 20)
#    0.000    2.250    1.250    3.375    0.000    2.500 
#    0.000    5.000    0.000    0.000    0.000    0.000 
#    0.000    0.000    0.000    0.000    0.000    0.000 
#
# Total GULP energy -89142.320006 kJ/mol
# GULP energy per Si atom -5571.395000 kJ/mol
# Density = 2.205765 g / cm^3
# Si number density = 22.107971 Si / 1000 Ang^3
#
#
#
# Elastic Constant Matrix: (Units=GPa)
#
#
# Indices 1 2 3 4 5 6 
#
# 1 98.1562 38.4755 35.0212 -12.0195 8.1773 -20.6517
# 2 38.4755 57.8790 17.0791 -6.8686 8.0676 -11.2808
# 3 35.0212 17.0791 101.9017 -9.3434 21.7677 -4.0737
# 4 -12.0195 -6.8686 -9.3434 21.4722 -10.2078 -0.1696
# 5 8.1773 8.0676 21.7677 -10.2078 33.9514 -0.9011
# 6 -20.6517 -11.2808 -4.0737 -0.1696 -0.9011 45.1133
#
#
#
# Elastic Compliance Matrix: (Units=1/GPa)
#
#
# Indices 1 2 3 4 5 6 
#
# 1 0.016566 -0.008443 -0.004067 0.006074 0.002587 0.005180
# 2 -0.008443 0.023952 -0.000258 0.001406 -0.003016 0.002046
# 3 -0.004067 -0.000258 0.012738 -0.000260 -0.007229 -0.000921
# 4 0.006074 0.001406 -0.000260 0.057881 0.015869 0.003643
# 5 0.002587 -0.003016 -0.007229 0.015869 0.038969 0.000616
# 6 0.005180 0.002046 -0.000921 0.003643 0.000616 0.024992
#
#
# Mechanical properties :
#
#
# Convention : Reuss Voigt Hill
#
# Bulk Modulus (GPa) = 36.07453 48.78761 42.43107
# Shear Modulus (GPa) = 23.82378 31.26480 27.54429
#
# Velocity S-wave (km/s) = 3.28626 3.76465 3.53356
# Velocity P-wave (km/s) = 5.54547 6.40410 5.99019
#
# Compressibility (1/GPa) = 0.02772039
#
# Stress axis : x y z
#
# Youngs Moduli (GPa) = 60.36313 41.75026 78.50643
#
# Poissons Ratio (x) = 0.35249 0.31930
# Poissons Ratio (y) = 0.50963 0.02025
# Poissons Ratio (z) = 0.24551 0.01077
#
# Static dielectric constant tensor:
#      x y z
#    x 1.900580 -0.032140 0.003590 
#    y -0.032140 1.861270 0.012140 
#    z 0.003590 0.012140 1.790630 
# 
# From -- ./inp_files/213651.got.cif
#   From: 2010.05.17/outbox.cif.g08.bks.cpg/sg2_107_cif.got.tgz:213651.got - 2010.06.03 11:33:40.
