data_PCOD9103421
_publ_section_title
;
Structure prediction by ZEFSAII (Michael W. Deem and Ramdas Pophale) SiO2 
 PCOD9103421
Probable space group: P -1
;
_chemical_formula_sum "Si O2"
_cell_formula_units_Z 15
_cell_length_a 9.007144
_cell_length_b 20.830918
_cell_length_c 17.901872
_cell_angle_alpha 158.687935
_cell_angle_beta 45.850502
_cell_angle_gamma 145.593127
_cell_volume 645.920962
_symmetry_space_group_name_H-M "P -1"
_symmetry_group_IT_number 2
_symmetry_cell_setting 'triclinic'
loop_
_space_group_symop_operation_xyz
x,y,z
-x,-y,-z
loop_
_atom_site_type_symbol
_atom_site_label
_atom_site_fract_x
_atom_site_fract_y
_atom_site_fract_z
Si Si1 0.895071 0.676678 0.648862
Si Si2 0.720740 0.670122 0.442678
Si Si3 0.780192 0.008011 0.993810
Si Si4 0.500000 0.000000 0.500000
Si Si5 0.919218 0.791909 0.048011
Si Si6 0.862114 0.439690 0.258865
Si Si7 0.347228 0.520767 0.011590
Si Si8 0.983198 0.279641 0.752002
O O1 0.597494 0.476534 0.578360
O O2 0.958075 0.583896 0.458507
O O3 0.870183 0.859087 0.820450
O O4 0.136497 0.820154 0.780818
O O5 0.830406 0.576023 0.356757
O O6 0.786642 0.647229 0.311126
O O7 0.907374 0.949805 0.695599
O O8 0.948192 0.159391 0.026595
O O9 0.450388 0.810854 0.886251
O O10 0.665471 0.282721 0.746931
O O11 0.688235 0.058372 0.576163
O O12 0.600933 0.670361 0.023618
O O13 0.963531 0.632144 0.901079
O O14 0.500000 0.500000 0.000000
O O15 0.083527 0.278437 0.799198
O O16 0.000000 0.500000 0.000000
#
# Coordination Sequence:
#
# PCOD9103421 Si02
#       8
#     2   2   2   1   2   2   2   2
#     4  10  20  38  66  90 132 176 210 268 322 392
#     4  11  21  43  65  91 134 171 220 270 334 387
#     4  10  20  39  62  94 128 172 220 260 324 393
#     4  10  22  46  72  90 128 166 216 284 334 390
#     4  12  23  39  67  93 132 173 218 268 334 396
#     4  11  23  39  62  96 134 173 210 273 318 395
#     4  11  26  45  68  99 130 171 227 281 335 398
#     4  10  23  44  73  96 125 178 222 280 342 394
#
# _framework density 23.222655
#
# number of rings (size 3 to 8) (size 9 to 14) (size 15 to 20)
#    0.000    1.333    4.000    2.000    3.733    1.067 
#    2.400    0.000    0.000    0.000    0.000    0.000 
#    0.000    0.000    0.000    0.000    0.000    0.000 
#
# Total GULP energy -83543.644197 kJ/mol
# GULP energy per Si atom -5569.576280 kJ/mol
# Density = 2.316980 g / cm^3
# Si number density = 23.222655 Si / 1000 Ang^3
#
#
#
# Elastic Constant Matrix: (Units=GPa)
#
#
# Indices 1 2 3 4 5 6 
#
# 1 134.3402 -0.2071 237.9058 -100.1255 -42.8184 -122.9650
# 2 -0.2071 19.0756 8.0948 9.7442 -20.7710 -36.9637
# 3 237.9058 8.0948 632.5586 -280.5202 -145.0240 -240.7606
# 4 -100.1255 9.7442 -280.5202 170.8205 106.3002 149.2314
# 5 -42.8184 -20.7710 -145.0240 106.3002 85.8999 29.7505
# 6 -122.9650 -36.9637 -240.7606 149.2314 29.7505 58.7513
#
#
#
# Elastic Compliance Matrix: (Units=1/GPa)
#
#
# Indices 1 2 3 4 5 6 
#
# 1 0.027062 -0.008466 -0.008074 0.008467 -0.013983 0.003801
# 2 -0.008466 0.025725 0.000147 0.004576 0.001133 -0.013128
# 3 -0.008074 0.000147 0.008776 0.006152 0.002415 0.002308
# 4 0.008467 0.004576 0.006152 0.014902 -0.006651 0.011327
# 5 -0.013983 0.001133 0.002415 -0.006651 0.021663 -0.012734
# 6 0.003801 -0.013128 0.002308 0.011327 -0.012734 0.003851
#
#
# Mechanical properties :
#
#
# Convention : Reuss Voigt Hill
#
# Bulk Modulus (GPa) = 34.74955 141.95126 88.35040
# Shear Modulus (GPa) = 34.63672 99.10640 66.87156
#
# Velocity S-wave (km/s) = 3.86619 6.53982 5.37200
# Velocity P-wave (km/s) = 5.90983 10.87587 8.75245
#
# Compressibility (1/GPa) = 0.02877735
#
# Stress axis : x y z
#
# Youngs Moduli (GPa) = 36.95226 38.87284 113.95092
#
# Poissons Ratio (x) = 0.32908 0.92002
# Poissons Ratio (y) = 0.31282 -0.01674
# Poissons Ratio (z) = 0.29835 -0.00571
#
# Static dielectric constant tensor:
#      x y z
#    x 2.001780 -0.030630 -0.014690 
#    y -0.030630 1.987520 -0.035310 
#    z -0.014690 -0.035310 1.830380 
# 
# From -- ./inp_files/562752.got.cif
#   From: 2010.05.17/outbox.cif.g08.bks.cpg/sg2_282_cif.got.tgz:562752.got - 2010.06.03 11:33:40.
