data_PCOD9103584
_publ_section_title
;
Structure prediction by ZEFSAII (Michael W. Deem and Ramdas Pophale) SiO2 
 PCOD9103584
Probable space group: P -1
;
_chemical_formula_sum "Si O2"
_cell_formula_units_Z 16
_cell_length_a 15.965027
_cell_length_b 17.449890
_cell_length_c 5.894756
_cell_angle_alpha 105.963084
_cell_angle_beta 105.684792
_cell_angle_gamma 23.342174
_cell_volume 624.901254
_symmetry_space_group_name_H-M "P -1"
_symmetry_group_IT_number 2
_symmetry_cell_setting 'triclinic'
loop_
_space_group_symop_operation_xyz
x,y,z
-x,-y,-z
loop_
_atom_site_type_symbol
_atom_site_label
_atom_site_fract_x
_atom_site_fract_y
_atom_site_fract_z
Si Si1 0.526725 0.801109 0.441606
Si Si2 0.077134 0.096665 0.213930
Si Si3 0.484241 0.728981 0.706782
Si Si4 0.101687 0.326437 0.939566
Si Si5 0.217386 0.264282 0.475893
Si Si6 0.034426 0.048173 0.724043
Si Si7 0.689860 0.402835 0.517604
Si Si8 0.190454 0.543355 0.922639
O O1 0.533327 0.776123 0.694245
O O2 0.580250 0.845889 0.452081
O O3 0.727805 0.586721 0.309734
O O4 0.306218 0.943719 0.320897
O O5 0.888664 0.228165 0.352627
O O6 0.969147 0.261386 0.140921
O O7 0.100943 0.997467 0.994890
O O8 0.236035 0.925334 0.672642
O O9 0.586082 0.572800 0.507713
O O10 0.587515 0.618814 0.930387
O O11 0.199324 0.234484 0.683186
O O12 0.223021 0.221635 0.189416
O O13 0.000000 0.500000 0.000000
O O14 0.929899 0.400858 0.914918
O O15 0.000000 0.500000 0.500000
O O16 0.000000 0.000000 0.500000
O O17 0.822568 0.277395 0.742228
O O18 0.500000 0.500000 0.500000
#
# Coordination Sequence:
#
# PCOD9103584 Si02
#       8
#     2   2   2   2   2   2   2   2
#     4  12  24  42  74 101 144 192 234 303 359 424
#     4  12  28  46  70 112 138 184 252 292 362 444
#     4  12  24  44  72 102 138 190 238 298 366 426
#     4  10  20  38  67 104 141 192 248 288 361 446
#     4  10  20  38  67 104 141 192 248 288 361 446
#     4  12  26  47  70 104 142 181 239 301 363 437
#     4  12  26  47  70 104 142 181 239 301 363 437
#     4  12  24  42  74 101 144 192 234 303 359 424
#
# _framework density 25.604043999999998
#
# number of rings (size 3 to 8) (size 9 to 14) (size 15 to 20)
#    0.000    0.500    8.750    1.500    0.000    1.000 
#    2.250    1.250    0.000    0.000    0.000    0.000 
#    0.000    0.000    0.000    0.000    0.000    0.000 
#
# Total GULP energy -89111.771091 kJ/mol
# GULP energy per Si atom -5569.485693 kJ/mol
# Density = 2.554577 g / cm^3
# Si number density = 25.604044 Si / 1000 Ang^3
#
#
#
# Elastic Constant Matrix: (Units=GPa)
#
#
# Indices 1 2 3 4 5 6 
#
# 1 117.0250 37.9294 24.3164 -7.0745 -22.7161 -26.5866
# 2 37.9294 110.1330 29.2814 -12.0526 -3.2094 -21.1369
# 3 24.3164 29.2814 101.7614 -11.3472 -0.9165 -26.2411
# 4 -7.0745 -12.0526 -11.3472 37.8308 -4.6935 -4.7014
# 5 -22.7161 -3.2094 -0.9165 -4.6935 32.7608 -2.9350
# 6 -26.5866 -21.1369 -26.2411 -4.7014 -2.9350 41.8424
#
#
#
# Elastic Compliance Matrix: (Units=1/GPa)
#
#
# Indices 1 2 3 4 5 6 
#
# 1 0.013553 -0.002257 0.000275 0.004315 0.010597 0.008872
# 2 -0.002257 0.011323 -0.001363 0.003291 0.000320 0.003823
# 3 0.000275 -0.001363 0.012800 0.004698 0.001820 0.008170
# 4 0.004315 0.003291 0.004698 0.032272 0.009110 0.011616
# 5 0.010597 0.000320 0.001820 0.009110 0.040325 0.011889
# 6 0.008872 0.003823 0.008170 0.011616 0.011889 0.038731
#
#
# Mechanical properties :
#
#
# Convention : Reuss Voigt Hill
#
# Bulk Modulus (GPa) = 32.27151 56.88598 44.57874
# Shear Modulus (GPa) = 30.11650 38.31296 34.21473
#
# Velocity S-wave (km/s) = 3.43336 3.87248 3.65951
# Velocity P-wave (km/s) = 5.32435 6.50082 5.94177
#
# Compressibility (1/GPa) = 0.03098709
#
# Stress axis : x y z
#
# Youngs Moduli (GPa) = 73.78366 88.31660 78.12374
#
# Poissons Ratio (x) = 0.19933 -0.02152
# Poissons Ratio (y) = 0.16653 0.10648
# Poissons Ratio (z) = -0.02032 0.12038
#
# Static dielectric constant tensor:
#      x y z
#    x 2.162420 0.016780 -0.027800 
#    y 0.016780 2.031780 0.035950 
#    z -0.027800 0.035950 2.308400 
# 
# From -- ./inp_files/112448.got.cif
#   From: 2010.05.17/outbox.cif.g08.bks.cpg/sg2_57_cif.got.tgz:112448.got - 2010.06.03 11:33:40.
