data_PCOD9103261
_publ_section_title
;
Structure prediction by ZEFSAII (Michael W. Deem and Ramdas Pophale) SiO2 
 PCOD9103261
Probable space group: P -1
;
_chemical_formula_sum "Si O2"
_cell_formula_units_Z 16
_cell_length_a 8.262949
_cell_length_b 13.138108
_cell_length_c 9.279073
_cell_angle_alpha 74.457430
_cell_angle_beta 59.067114
_cell_angle_gamma 98.016400
_cell_volume 784.235351
_symmetry_space_group_name_H-M "P -1"
_symmetry_group_IT_number 2
_symmetry_cell_setting 'triclinic'
loop_
_space_group_symop_operation_xyz
x,y,z
-x,-y,-z
loop_
_atom_site_type_symbol
_atom_site_label
_atom_site_fract_x
_atom_site_fract_y
_atom_site_fract_z
Si Si1 0.457535 0.813660 0.171789
Si Si2 0.203418 0.567336 0.295943
Si Si3 0.807493 0.413896 0.047159
Si Si4 0.275646 0.006159 0.578134
Si Si5 0.590298 0.958764 0.798734
Si Si6 0.757275 0.794476 0.287917
Si Si7 0.552720 0.562247 0.606488
Si Si8 0.844255 0.171668 0.086329
O O1 0.286431 0.700380 0.242928
O O2 0.582786 0.783332 0.254159
O O3 0.376251 0.913898 0.217006
O O4 0.604017 0.875215 0.950138
O O5 0.361028 0.513748 0.305850
O O6 0.000000 0.500000 0.500000
O O7 0.193282 0.554345 0.133031
O O8 0.624568 0.418027 0.228362
O O9 0.817917 0.289251 0.088083
O O10 0.000000 0.500000 0.000000
O O11 0.268499 0.034209 0.404207
O O12 0.241033 0.101915 0.653746
O O13 0.500000 0.000000 0.500000
O O14 0.136593 0.889270 0.750690
O O15 0.357417 0.905560 0.873383
O O16 0.706946 0.683530 0.449024
O O17 0.964874 0.814860 0.104047
O O18 0.500000 0.500000 0.500000
#
# Coordination Sequence:
#
# PCOD9103261 Si02
#       8
#     2   2   2   2   2   2   2   2
#     4  11  23  40  71  95 141 172 225 274 349 398
#     4  12  26  46  70 101 139 184 231 290 346 414
#     4  12  27  46  70  99 136 183 237 292 348 415
#     4  10  20  38  65  94 129 177 221 271 331 401
#     4  10  22  42  68  98 133 182 221 279 347 407
#     4  12  23  39  68  99 137 178 227 278 341 410
#     4  12  25  44  69  99 135 181 233 281 352 413
#     4  11  22  41  68  98 133 174 229 278 337 413
#
# _framework density 20.40204
#
# number of rings (size 3 to 8) (size 9 to 14) (size 15 to 20)
#    0.000    0.750    5.000    4.500    0.000    0.000 
#    0.000    0.625    0.000    0.000    0.000    0.000 
#    0.000    0.000    0.000    0.000    0.000    0.000 
#
# Total GULP energy -89428.635138 kJ/mol
# GULP energy per Si atom -5589.289696 kJ/mol
# Density = 2.035560 g / cm^3
# Si number density = 20.402040 Si / 1000 Ang^3
#
#
#
# Elastic Constant Matrix: (Units=GPa)
#
#
# Indices 1 2 3 4 5 6 
#
# 1 45.0937 50.4752 37.9189 5.7621 11.6208 16.8283
# 2 50.4752 167.2735 85.7163 2.8124 0.1927 -2.1299
# 3 37.9189 85.7163 191.0694 11.2075 0.7996 9.8620
# 4 5.7621 2.8124 11.2075 42.8394 -6.9764 2.4533
# 5 11.6208 0.1927 0.7996 -6.9764 42.2174 7.3534
# 6 16.8283 -2.1299 9.8620 2.4533 7.3534 14.9328
#
#
#
# Elastic Compliance Matrix: (Units=1/GPa)
#
#
# Indices 1 2 3 4 5 6 
#
# 1 0.111283 -0.035398 0.000708 -0.007301 -0.009948 -0.124827
# 2 -0.035398 0.019223 -0.004006 0.002463 0.002541 0.043623
# 3 0.000708 -0.004006 0.007286 -0.001289 0.000560 -0.006245
# 4 -0.007301 0.002463 -0.001289 0.025303 0.005782 0.002426
# 5 -0.009948 0.002541 0.000560 0.005782 0.027972 -0.003521
# 6 -0.124827 0.043623 -0.006245 0.002426 -0.003521 0.219320
#
#
# Mechanical properties :
#
#
# Convention : Reuss Voigt Hill
#
# Bulk Modulus (GPa) = 16.55597 83.51750 50.03673
# Shear Modulus (GPa) = 9.84422 35.28634 22.56528
#
# Velocity S-wave (km/s) = 2.19900 4.16330 3.32931
# Velocity P-wave (km/s) = 3.81837 8.00846 6.27357
#
# Compressibility (1/GPa) = 0.06040119
#
# Stress axis : x y z
#
# Youngs Moduli (GPa) = 8.98607 52.01993 137.25374
#
# Poissons Ratio (x) = 1.84140 -0.09717
# Poissons Ratio (y) = 0.31809 0.54978
# Poissons Ratio (z) = -0.00636 0.20837
#
# Static dielectric constant tensor:
#      x y z
#    x 1.755210 0.003920 0.024800 
#    y 0.003920 1.695820 -0.006500 
#    z 0.024800 -0.006500 1.755310 
# 
# From -- ./inp_files/186426.got.cif
#   From: 2010.05.17/outbox.cif.g08.bks.cpg/sg2_94_cif.got.tgz:186426.got - 2010.06.03 11:33:40.
