data_PCOD9103287
_publ_section_title
;
Structure prediction by ZEFSAII (Michael W. Deem and Ramdas Pophale) SiO2 
 PCOD9103287
Probable space group: P -1
;
_chemical_formula_sum "Si O2"
_cell_formula_units_Z 11
_cell_length_a 15.819561
_cell_length_b 9.866793
_cell_length_c 15.423563
_cell_angle_alpha 31.754387
_cell_angle_beta 160.646641
_cell_angle_gamma 137.945224
_cell_volume 394.453787
_symmetry_space_group_name_H-M "P -1"
_symmetry_group_IT_number 2
_symmetry_cell_setting 'triclinic'
loop_
_space_group_symop_operation_xyz
x,y,z
-x,-y,-z
loop_
_atom_site_type_symbol
_atom_site_label
_atom_site_fract_x
_atom_site_fract_y
_atom_site_fract_z
Si Si1 0.500000 0.000000 0.000000
Si Si2 0.731968 0.656728 0.245047
Si Si3 0.859182 0.159453 0.051143
Si Si4 0.987972 0.297394 0.282826
Si Si5 0.864190 0.795556 0.020424
Si Si6 0.430064 0.029031 0.607254
O O1 0.426351 0.233241 0.878882
O O2 0.308398 0.230417 0.620769
O O3 0.933274 0.353915 0.622566
O O4 0.918551 0.846587 0.311605
O O5 0.531476 0.758970 0.914740
O O6 0.850365 0.311248 0.050564
O O7 0.110212 0.163112 0.234270
O O8 0.409634 0.788462 0.292880
O O9 0.866717 0.552684 0.089363
O O10 0.000000 0.000000 0.500000
O O11 0.000000 0.000000 0.000000
O O12 0.568686 0.940009 0.697285
#
# Coordination Sequence:
#
# PCOD9103287 Si02
#       6
#     1   2   2   2   2   2
#     4  10  16  32  62 100 124 154 224 284 316 368
#     4   9  20  36  69  95 129 166 232 269 332 379
#     4  10  20  40  72 101 122 173 241 285 317 393
#     4  11  19  39  64  99 123 178 228 282 323 400
#     4  11  24  43  63  99 146 176 215 281 359 404
#     4  10  22  43  68 102 132 177 231 283 334 399
#
# _framework density 27.886666000000002
#
# number of rings (size 3 to 8) (size 9 to 14) (size 15 to 20)
#    1.091    0.727    5.455    0.545    0.000    0.727 
#    6.545    2.727    0.000    0.000    0.000    0.000 
#    0.000    0.000    0.000    0.000    0.000    0.000 
#
# Total GULP energy -61355.449358 kJ/mol
# GULP energy per Si atom -5577.768123 kJ/mol
# Density = 2.782319 g / cm^3
# Si number density = 27.886666 Si / 1000 Ang^3
#
#
#
# Elastic Constant Matrix: (Units=GPa)
#
#
# Indices 1 2 3 4 5 6 
#
# 1 121.8533 60.7324 39.5542 -14.0050 20.9856 -32.5014
# 2 60.7324 150.4063 51.4369 -15.9224 15.8992 2.6207
# 3 39.5542 51.4369 80.2011 -6.3782 -18.1162 -7.2349
# 4 -14.0050 -15.9224 -6.3782 52.3969 2.8644 -0.9129
# 5 20.9856 15.8992 -18.1162 2.8644 51.0939 -17.6672
# 6 -32.5014 2.6207 -7.2349 -0.9129 -17.6672 48.2759
#
#
#
# Elastic Compliance Matrix: (Units=1/GPa)
#
#
# Indices 1 2 3 4 5 6 
#
# 1 0.014771 -0.003747 -0.004859 0.002576 -0.004000 0.008005
# 2 -0.003747 0.012094 -0.008139 0.001979 -0.007704 -0.007181
# 3 -0.004859 -0.008139 0.023991 -0.001578 0.015316 0.006342
# 4 0.002576 0.001979 -0.001578 0.020367 -0.003161 0.000619
# 5 -0.004000 -0.007704 0.015316 -0.003161 0.033438 0.012198
# 6 0.008005 -0.007181 0.006342 0.000619 0.012198 0.031919
#
#
# Mechanical properties :
#
#
# Convention : Reuss Voigt Hill
#
# Bulk Modulus (GPa) = 57.58042 72.87862 65.22952
# Shear Modulus (GPa) = 28.43190 43.73583 36.08386
#
# Velocity S-wave (km/s) = 3.19651 3.96453 3.60105
# Velocity P-wave (km/s) = 5.85802 6.86638 6.38215
#
# Compressibility (1/GPa) = 0.01736702
#
# Stress axis : x y z
#
# Youngs Moduli (GPa) = 67.69932 82.68433 41.68171
#
# Poissons Ratio (x) = 0.30980 0.20252
# Poissons Ratio (y) = 0.25365 0.33927
# Poissons Ratio (z) = 0.32893 0.67301
#
# Static dielectric constant tensor:
#      x y z
#    x 2.173310 0.061230 0.019680 
#    y 0.061230 2.335360 0.076380 
#    z 0.019680 0.076380 2.193510 
# 
# From -- ./inp_files/42802.got.cif
#   From: 2010.05.17/outbox.cif.g08.bks.cpg/sg2_22_cif.got.tgz:42802.got - 2010.06.03 11:33:40.
