data_PCOD9103602
_publ_section_title
;
Structure prediction by ZEFSAII (Michael W. Deem and Ramdas Pophale) SiO2 
 PCOD9103602
Probable space group: P -1
;
_chemical_formula_sum "Si O2"
_cell_formula_units_Z 14
_cell_length_a 8.149722
_cell_length_b 25.154335
_cell_length_c 18.951569
_cell_angle_alpha 19.117201
_cell_angle_beta 30.235645
_cell_angle_gamma 39.894530
_cell_volume 611.670982
_symmetry_space_group_name_H-M "P -1"
_symmetry_group_IT_number 2
_symmetry_cell_setting 'triclinic'
loop_
_space_group_symop_operation_xyz
x,y,z
-x,-y,-z
loop_
_atom_site_type_symbol
_atom_site_label
_atom_site_fract_x
_atom_site_fract_y
_atom_site_fract_z
Si Si1 0.563531 0.163245 0.175780
Si Si2 0.422693 0.762395 0.383317
Si Si3 0.948805 0.295731 0.722538
Si Si4 0.537511 0.499427 0.403553
Si Si5 0.971987 0.305490 0.261293
Si Si6 0.069268 0.817545 0.838669
Si Si7 0.455049 0.979990 0.882657
O O1 0.790562 0.217638 0.093493
O O2 0.276031 0.258532 0.169278
O O3 0.366421 0.962449 0.508220
O O4 0.769749 0.207999 0.971021
O O5 0.425155 0.679765 0.410957
O O6 0.057899 0.726961 0.601451
O O7 0.605021 0.956325 0.096338
O O8 0.649114 0.658863 0.470773
O O9 0.778647 0.442772 0.582482
O O10 0.846856 0.155191 0.874838
O O11 0.500000 0.500000 0.500000
O O12 0.887422 0.651093 0.069232
O O13 0.621374 0.159063 0.554589
O O14 0.000000 0.500000 0.000000
O O15 0.766120 0.899121 0.866169
#
# Coordination Sequence:
#
# PCOD9103602 Si02
#       7
#     2   2   2   2   2   2   2
#     4  10  20  38  67  88 115 163 199 246 286 358
#     4  10  21  38  58  85 123 150 196 248 299 343
#     4  11  21  38  64  89 116 157 210 236 291 361
#     4  11  23  38  59  89 122 159 198 247 297 354
#     4   9  19  34  57  87 123 149 189 245 302 340
#     4   9  20  40  62  85 124 153 207 233 297 354
#     4   8  20  37  60  84 120 152 196 245 292 346
#
# _framework density 22.888123
#
# number of rings (size 3 to 8) (size 9 to 14) (size 15 to 20)
#    0.857    1.429    0.000    2.571    0.000    7.429 
#    0.000    8.571    0.000    0.000    0.000    0.000 
#    0.000    0.000    0.000    0.000    0.000    0.000 
#
# Total GULP energy -78049.427975 kJ/mol
# GULP energy per Si atom -5574.959141 kJ/mol
# Density = 2.283603 g / cm^3
# Si number density = 22.888123 Si / 1000 Ang^3
#
#
#
# Elastic Constant Matrix: (Units=GPa)
#
#
# Indices 1 2 3 4 5 6 
#
# 1 46.1348 6.2129 11.0180 1.9742 1.0818 8.6877
# 2 6.2129 92.6392 24.7415 -11.8279 -5.4361 31.8291
# 3 11.0180 24.7415 81.6464 -12.7034 -2.1754 3.8125
# 4 1.9742 -11.8279 -12.7034 43.7348 6.2017 -8.4954
# 5 1.0818 -5.4361 -2.1754 6.2017 32.1426 -0.4094
# 6 8.6877 31.8291 3.8125 -8.4954 -0.4094 39.1166
#
#
#
# Elastic Compliance Matrix: (Units=1/GPa)
#
#
# Indices 1 2 3 4 5 6 
#
# 1 0.023791 0.001278 -0.003774 -0.003064 -0.000333 -0.006625
# 2 0.001278 0.016648 -0.004499 0.000231 0.002254 -0.013318
# 3 -0.003774 -0.004499 0.014549 0.003998 -0.000370 0.003946
# 4 -0.003064 0.000231 0.003998 0.025976 -0.004526 0.005697
# 5 -0.000333 0.002254 -0.000370 -0.004526 0.032322 -0.002369
# 6 -0.006625 -0.013318 0.003946 0.005697 -0.002369 0.038701
#
#
# Mechanical properties :
#
#
# Convention : Reuss Voigt Hill
#
# Bulk Modulus (GPa) = 24.39219 33.81835 29.10527
# Shear Modulus (GPa) = 27.83288 34.89535 31.36412
#
# Velocity S-wave (km/s) = 3.49096 3.90885 3.70580
# Velocity P-wave (km/s) = 5.18935 5.93125 5.57266
#
# Compressibility (1/GPa) = 0.04099672
#
# Stress axis : x y z
#
# Youngs Moduli (GPa) = 42.03207 60.06665 68.73466
#
# Poissons Ratio (x) = -0.07675 0.25941
# Poissons Ratio (y) = -0.05371 0.30927
# Poissons Ratio (z) = 0.15863 0.27027
#
# Static dielectric constant tensor:
#      x y z
#    x 1.915330 0.020370 -0.006710 
#    y 0.020370 1.865860 -0.026680 
#    z -0.006710 -0.026680 1.922740 
# 
# From -- ./inp_files/592064.got.cif
#   From: 2010.05.17/outbox.cif.g08.bks.cpg/sg2_297_cif.got.tgz:592064.got - 2010.06.03 11:33:40.
