data_PCOD9103619
_publ_section_title
;
Structure prediction by ZEFSAII (Michael W. Deem and Ramdas Pophale) SiO2 
 PCOD9103619
Probable space group: P -1
;
_chemical_formula_sum "Si O2"
_cell_formula_units_Z 16
_cell_length_a 11.701011
_cell_length_b 9.184344
_cell_length_c 12.094247
_cell_angle_alpha 127.379750
_cell_angle_beta 106.182646
_cell_angle_gamma 56.219053
_cell_volume 855.013942
_symmetry_space_group_name_H-M "P -1"
_symmetry_group_IT_number 2
_symmetry_cell_setting 'triclinic'
loop_
_space_group_symop_operation_xyz
x,y,z
-x,-y,-z
loop_
_atom_site_type_symbol
_atom_site_label
_atom_site_fract_x
_atom_site_fract_y
_atom_site_fract_z
Si Si1 0.033899 0.347499 0.542096
Si Si2 0.457584 0.229445 0.144464
Si Si3 0.739170 0.684363 0.261909
Si Si4 0.771071 0.138547 0.692589
Si Si5 0.472557 0.234386 0.580250
Si Si6 0.393528 0.820107 0.618448
Si Si7 0.225441 0.605824 0.380520
Si Si8 0.369402 0.513943 0.033336
O O1 0.895936 0.367780 0.563043
O O2 0.000000 0.500000 0.500000
O O3 0.111015 0.394862 0.683876
O O4 0.139955 0.110846 0.416438
O O5 0.571919 0.200374 0.252298
O O6 0.319909 0.368472 0.246356
O O7 0.430496 0.377133 0.098983
O O8 0.500000 0.000000 0.000000
O O9 0.658364 0.640091 0.319258
O O10 0.682194 0.932394 0.326743
O O11 0.706376 0.583592 0.102224
O O12 0.612392 0.220830 0.652614
O O13 0.830649 0.244923 0.674981
O O14 0.745421 0.245073 0.854338
O O15 0.470115 0.281434 0.471499
O O16 0.500000 0.000000 0.500000
O O17 0.310277 0.703369 0.508911
O O18 0.500000 0.500000 0.000000
#
# Coordination Sequence:
#
# PCOD9103619 Si02
#       8
#     2   2   2   2   2   2   2   2
#     4  12  26  40  64  90 125 167 218 260 302 371
#     4  11  23  39  63 102 127 158 205 257 321 369
#     4  11  21  38  62  95 126 166 207 258 325 358
#     4  10  20  40  62  91 122 166 209 250 316 365
#     4   9  16  31  63  92 116 157 198 267 305 354
#     4  10  20  38  67  90 129 156 214 264 308 364
#     4  10  23  41  63  90 127 169 208 254 308 373
#     4  11  23  38  64  94 133 164 195 257 327 382
#
# _framework density 18.713145999999998
#
# number of rings (size 3 to 8) (size 9 to 14) (size 15 to 20)
#    0.000    1.500    6.250    0.750    1.750    2.000 
#    0.000    4.375    0.000    0.000    0.000    0.000 
#    0.000    0.000    0.000    0.000    0.000    0.000 
#
# Total GULP energy -89106.432402 kJ/mol
# GULP energy per Si atom -5569.152025 kJ/mol
# Density = 1.867055 g / cm^3
# Si number density = 18.713146 Si / 1000 Ang^3
#
#
#
# Elastic Constant Matrix: (Units=GPa)
#
#
# Indices 1 2 3 4 5 6 
#
# 1 119.3012 34.8782 58.9170 -9.1582 -3.1381 13.5598
# 2 34.8782 75.6917 46.9004 -6.9196 5.4918 2.1370
# 3 58.9170 46.9004 149.5980 -0.6808 13.2926 1.6034
# 4 -9.1582 -6.9196 -0.6808 37.5657 5.7007 0.1033
# 5 -3.1381 5.4918 13.2926 5.7007 24.7631 -3.5975
# 6 13.5598 2.1370 1.6034 0.1033 -3.5975 13.9068
#
#
#
# Elastic Compliance Matrix: (Units=1/GPa)
#
#
# Indices 1 2 3 4 5 6 
#
# 1 0.012794 -0.002966 -0.004200 0.002155 0.002452 -0.010917
# 2 -0.002966 0.017570 -0.004082 0.002857 -0.002749 -0.000070
# 3 -0.004200 -0.004082 0.009981 -0.000932 -0.004416 0.002436
# 4 0.002155 0.002857 -0.000932 0.028749 -0.007131 -0.004491
# 5 0.002452 -0.002749 -0.004416 -0.007131 0.046872 0.010719
# 6 -0.010917 -0.000070 0.002436 -0.004491 0.010719 0.085088
#
#
# Mechanical properties :
#
#
# Convention : Reuss Voigt Hill
#
# Bulk Modulus (GPa) = 56.02685 69.55359 62.79022
# Shear Modulus (GPa) = 21.78652 28.84013 25.31333
#
# Velocity S-wave (km/s) = 3.41579 3.93003 3.68190
# Velocity P-wave (km/s) = 6.74994 7.60543 7.19042
#
# Compressibility (1/GPa) = 0.01784859
#
# Stress axis : x y z
#
# Youngs Moduli (GPa) = 78.16153 56.91452 100.19431
#
# Poissons Ratio (x) = 0.16879 0.42082
# Poissons Ratio (y) = 0.23180 0.40904
# Poissons Ratio (z) = 0.32828 0.23235
#
# Static dielectric constant tensor:
#      x y z
#    x 7.314770 -1.523250 2.181950 
#    y -1.523250 2.092650 -0.585180 
#    z 2.181950 -0.585180 2.558600 
# 
# From -- ./inp_files/418155.got.cif
#   From: 2010.05.17/outbox.cif.g08.bks.cpg/sg2_210_cif.got.tgz:418155.got - 2010.06.03 11:33:40.
