data_PCOD9103943
_publ_section_title
;
Structure prediction by ZEFSAII (Michael W. Deem and Ramdas Pophale) SiO2 
 PCOD9103943
Probable space group: P -1
;
_chemical_formula_sum "Si O2"
_cell_formula_units_Z 15
_cell_length_a 9.492511
_cell_length_b 15.772819
_cell_length_c 7.741261
_cell_angle_alpha 101.426654
_cell_angle_beta 74.658212
_cell_angle_gamma 149.977137
_cell_volume 558.106934
_symmetry_space_group_name_H-M "P -1"
_symmetry_group_IT_number 2
_symmetry_cell_setting 'triclinic'
loop_
_space_group_symop_operation_xyz
x,y,z
-x,-y,-z
loop_
_atom_site_type_symbol
_atom_site_label
_atom_site_fract_x
_atom_site_fract_y
_atom_site_fract_z
Si Si1 0.410753 0.890286 0.751410
Si Si2 0.645127 0.572742 0.694062
Si Si3 0.981109 0.588700 0.487515
Si Si4 0.000000 0.500000 0.000000
Si Si5 0.626231 0.860538 0.861169
Si Si6 0.999664 0.919057 0.604230
Si Si7 0.128028 0.371795 0.986424
Si Si8 0.484502 0.867043 0.259692
O O1 0.197040 0.745342 0.615148
O O2 0.668903 0.958965 0.748951
O O3 0.525743 0.036790 0.699126
O O4 0.216072 0.812960 0.953567
O O5 0.831325 0.739765 0.595068
O O6 0.316111 0.431178 0.789523
O O7 0.702539 0.507324 0.559917
O O8 0.767188 0.622829 0.870018
O O9 0.148873 0.668786 0.280517
O O10 0.000000 0.500000 0.500000
O O11 0.706454 0.331260 0.138337
O O12 0.839169 0.507561 0.972150
O O13 0.820657 0.877357 0.793915
O O14 0.640659 0.910312 0.061403
O O15 0.000000 0.000000 0.500000
O O16 0.323086 0.069737 0.622717
#
# Coordination Sequence:
#
# PCOD9103943 Si02
#       8
#     2   2   2   1   2   2   2   2
#     4  10  22  45  71 102 142 190 232 306 367 430
#     4  10  21  41  68 101 139 193 236 295 359 425
#     4  11  25  42  71 102 140 191 247 293 366 434
#     4  10  20  38  70 110 136 184 226 306 346 434
#     4  11  25  41  74 103 146 182 253 288 367 428
#     4  12  25  45  72 106 150 196 235 301 368 435
#     4   9  18  37  72  98 137 180 238 283 363 419
#     4  12  25  45  71 106 142 191 247 299 363 433
#
# _framework density 26.876566
#
# number of rings (size 3 to 8) (size 9 to 14) (size 15 to 20)
#    0.000    1.333    4.000    2.000    7.467    0.000 
#    2.400    0.000    0.000    6.400    0.000    0.000 
#    0.000    0.000    0.000    0.000    0.000    0.000 
#
# Total GULP energy -83572.485253 kJ/mol
# GULP energy per Si atom -5571.499017 kJ/mol
# Density = 2.681539 g / cm^3
# Si number density = 26.876566 Si / 1000 Ang^3
#
#
#
# Elastic Constant Matrix: (Units=GPa)
#
#
# Indices 1 2 3 4 5 6 
#
# 1 186.5953 51.4866 45.6587 -10.7613 -21.4500 -13.4206
# 2 51.4866 68.6210 -7.4127 -7.1243 5.2462 -20.7569
# 3 45.6587 -7.4127 74.0967 -3.4656 -0.4949 -1.1010
# 4 -10.7613 -7.1243 -3.4656 31.0603 4.5963 0.6895
# 5 -21.4500 5.2462 -0.4949 4.5963 71.0893 -7.0584
# 6 -13.4206 -20.7569 -1.1010 0.6895 -7.0584 59.0639
#
#
#
# Elastic Compliance Matrix: (Units=1/GPa)
#
#
# Indices 1 2 3 4 5 6 
#
# 1 0.009719 -0.008414 -0.006806 0.000178 0.003449 -0.000465
# 2 -0.008414 0.024348 0.007874 0.003988 -0.003915 0.006277
# 3 -0.006806 0.007874 0.018567 0.001862 -0.002502 0.001246
# 4 0.000178 0.003988 0.001862 0.033706 -0.002327 0.000805
# 5 0.003449 -0.003915 -0.002502 -0.002327 0.015654 0.001259
# 6 -0.000465 0.006277 0.001246 0.000805 0.001259 0.019195
#
#
# Mechanical properties :
#
#
# Convention : Reuss Voigt Hill
#
# Bulk Modulus (GPa) = 26.35576 56.53091 41.44333
# Shear Modulus (GPa) = 33.66320 48.21472 40.93896
#
# Velocity S-wave (km/s) = 3.54292 4.24008 3.90708
# Velocity P-wave (km/s) = 5.15402 6.71195 5.98390
#
# Compressibility (1/GPa) = 0.03794238
#
# Stress axis : x y z
#
# Youngs Moduli (GPa) = 102.88604 41.07044 53.85999
#
# Poissons Ratio (x) = 0.34555 0.36660
# Poissons Ratio (y) = 0.86565 -0.42410
# Poissons Ratio (z) = 0.70029 -0.32339
#
# Static dielectric constant tensor:
#      x y z
#    x 2.078250 0.003560 -0.030430 
#    y 0.003560 2.113590 -0.025560 
#    z -0.030430 -0.025560 2.467080 
# 
# From -- ./inp_files/202505.got.cif
#   From: 2010.05.17/outbox.cif.g08.bks.cpg/sg2_102_cif.got.tgz:202505.got - 2010.06.03 11:33:40.
