data_PCOD9103018
_publ_section_title
;
Structure prediction by ZEFSAII (Michael W. Deem and Ramdas Pophale) SiO2 
 PCOD9103018
Probable space group: P -1
;
_chemical_formula_sum "Si O2"
_cell_formula_units_Z 15
_cell_length_a 13.500015
_cell_length_b 9.635286
_cell_length_c 8.317850
_cell_angle_alpha 43.955148
_cell_angle_beta 90.171266
_cell_angle_gamma 69.583135
_cell_volume 647.876996
_symmetry_space_group_name_H-M "P -1"
_symmetry_group_IT_number 2
_symmetry_cell_setting 'triclinic'
loop_
_space_group_symop_operation_xyz
x,y,z
-x,-y,-z
loop_
_atom_site_type_symbol
_atom_site_label
_atom_site_fract_x
_atom_site_fract_y
_atom_site_fract_z
Si Si1 0.208128 0.085628 0.027947
Si Si2 0.033341 0.799602 0.033916
Si Si3 0.345678 0.026305 0.571706
Si Si4 0.000000 0.000000 0.500000
Si Si5 0.625365 0.804456 0.221065
Si Si6 0.397849 0.375532 0.125986
Si Si7 0.716269 0.375625 0.762922
Si Si8 0.245922 0.796678 0.587096
O O1 0.242437 0.889100 0.054878
O O2 0.248333 0.924208 0.320522
O O3 0.070599 0.252967 0.901792
O O4 0.279753 0.209280 0.888970
O O5 0.165998 0.615348 0.223699
O O6 0.028047 0.883909 0.781353
O O7 0.000000 0.000000 0.000000
O O8 0.466669 0.791746 0.738896
O O9 0.246674 0.969588 0.580806
O O10 0.352683 0.113189 0.674707
O O11 0.344276 0.210862 0.291743
O O12 0.872775 0.195841 0.399748
O O13 0.643375 0.553652 0.472379
O O14 0.500000 0.000000 0.000000
O O15 0.357618 0.536536 0.149544
O O16 0.348049 0.540563 0.835617
#
# Coordination Sequence:
#
# PCOD9103018 Si02
#       8
#     2   2   2   1   2   2   2   2
#     4  10  24  38  64  96 121 164 207 259 313 381
#     4   9  19  39  65  94 125 162 211 259 320 375
#     4  10  24  40  62  89 122 168 207 261 310 375
#     4  10  20  38  64  96 128 160 212 266 304 388
#     4  11  26  42  62  90 129 165 211 266 308 375
#     4  10  21  40  64  86 121 163 212 253 311 372
#     4  10  21  42  67  89 124 168 206 260 319 379
#     4  11  22  39  67  90 125 165 206 258 319 375
#
# _framework density 23.152543000000001
#
# number of rings (size 3 to 8) (size 9 to 14) (size 15 to 20)
#    0.000    1.867    1.333    1.200    9.333    1.067 
#    0.000    0.667    0.000    0.000    0.000    0.000 
#    0.000    0.000    0.000    0.000    0.000    0.000 
#
# Total GULP energy -83547.162301 kJ/mol
# GULP energy per Si atom -5569.810820 kJ/mol
# Density = 2.309985 g / cm^3
# Si number density = 23.152543 Si / 1000 Ang^3
#
#
#
# Elastic Constant Matrix: (Units=GPa)
#
#
# Indices 1 2 3 4 5 6 
#
# 1 35.9366 -7.6867 18.7403 1.6425 -11.5152 -6.9885
# 2 -7.6867 76.4696 7.4237 15.5009 -0.8591 -7.6260
# 3 18.7403 7.4237 64.7765 7.3394 8.2984 -14.9141
# 4 1.6425 15.5009 7.3394 33.8924 -7.1714 -5.1409
# 5 -11.5152 -0.8591 8.2984 -7.1714 26.6090 8.4284
# 6 -6.9885 -7.6260 -14.9141 -5.1409 8.4284 22.2457
#
#
#
# Elastic Compliance Matrix: (Units=1/GPa)
#
#
# Indices 1 2 3 4 5 6 
#
# 1 0.048274 0.005412 -0.021004 0.005215 0.031488 -0.007785
# 2 0.005412 0.015488 -0.001675 -0.006262 0.000308 0.004323
# 3 -0.021004 -0.001675 0.031435 -0.007527 -0.028214 0.022852
# 4 0.005215 -0.006262 -0.007527 0.036519 0.015148 -0.002854
# 5 0.031488 0.000308 -0.028214 0.015148 0.074790 -0.033754
# 6 -0.007785 0.004323 0.022852 -0.002854 -0.033754 0.071438
#
#
# Mechanical properties :
#
#
# Convention : Reuss Voigt Hill
#
# Bulk Modulus (GPa) = 16.48457 23.79303 20.13880
# Shear Modulus (GPa) = 15.02860 27.12981 21.07920
#
# Velocity S-wave (km/s) = 2.55053 3.42685 3.02064
# Velocity P-wave (km/s) = 3.97606 5.09477 4.56978
#
# Compressibility (1/GPa) = 0.06066278
#
# Stress axis : x y z
#
# Youngs Moduli (GPa) = 20.71489 64.56772 31.81182
#
# Poissons Ratio (x) = -0.34942 0.66816
# Poissons Ratio (y) = -0.11210 0.05329
# Poissons Ratio (z) = 0.43509 0.10817
#
# Static dielectric constant tensor:
#      x y z
#    x 1.947270 0.066620 -0.004670 
#    y 0.066620 1.878680 0.015760 
#    z -0.004670 0.015760 1.874540 
# 
# From -- ./inp_files/304547.got.cif
#   From: 2010.05.17/outbox.cif.g08.bks.cpg/sg2_153_cif.got.tgz:304547.got - 2010.06.03 11:33:40.
