data_PCOD9103462
_publ_section_title
;
Structure prediction by ZEFSAII (Michael W. Deem and Ramdas Pophale) SiO2 
 PCOD9103462
Probable space group: P -1
;
_chemical_formula_sum "Si O2"
_cell_formula_units_Z 15
_cell_length_a 11.822323
_cell_length_b 15.047868
_cell_length_c 8.355094
_cell_angle_alpha 94.101850
_cell_angle_beta 77.363800
_cell_angle_gamma 148.065616
_cell_volume 748.184816
_symmetry_space_group_name_H-M "P -1"
_symmetry_group_IT_number 2
_symmetry_cell_setting 'triclinic'
loop_
_space_group_symop_operation_xyz
x,y,z
-x,-y,-z
loop_
_atom_site_type_symbol
_atom_site_label
_atom_site_fract_x
_atom_site_fract_y
_atom_site_fract_z
Si Si1 0.963170 0.303218 0.721537
Si Si2 0.751366 0.668475 0.505448
Si Si3 0.000000 0.000000 0.500000
Si Si4 0.539461 0.034642 0.303949
Si Si5 0.862889 0.124664 0.020805
Si Si6 0.270697 0.306992 0.107537
Si Si7 0.648393 0.833440 0.829971
Si Si8 0.196030 0.610464 0.826756
O O1 0.109696 0.326767 0.585829
O O2 0.079269 0.476060 0.705187
O O3 0.706102 0.131293 0.722111
O O4 0.961245 0.268997 0.901591
O O5 0.500000 0.500000 0.500000
O O6 0.767139 0.691932 0.694902
O O7 0.861525 0.831052 0.425313
O O8 0.233278 0.109177 0.368966
O O9 0.688840 0.052644 0.189763
O O10 0.673744 0.214386 0.245734
O O11 0.500000 0.000000 0.500000
O O12 0.061632 0.203748 0.057720
O O13 0.740655 0.978951 0.915082
O O14 0.295633 0.217044 0.089633
O O15 0.500000 0.500000 0.000000
O O16 0.387747 0.676314 0.857471
O O17 0.000000 0.500000 0.000000
#
# Coordination Sequence:
#
# PCOD9103462 Si02
#       8
#     2   2   1   2   2   2   2   2
#     4  12  23  44  73  98 134 185 234 284 354 419
#     4  11  22  40  65  94 133 177 224 283 339 407
#     4  10  20  38  66  92 132 170 230 272 336 406
#     4  12  27  47  70 103 142 181 234 297 351 415
#     4  12  22  44  69  96 136 183 231 282 351 417
#     4  11  25  41  61 101 140 174 228 287 341 412
#     4  11  23  42  70 101 135 186 229 282 353 415
#     4  12  24  44  74 104 136 184 239 286 349 426
#
# _framework density 20.048521999999998
#
# number of rings (size 3 to 8) (size 9 to 14) (size 15 to 20)
#    0.000    0.533    4.000    5.600    0.000    1.600 
#    2.400    0.000    0.000    0.000    0.000    0.000 
#    0.000    0.000    0.000    0.000    0.000    0.000 
#
# Total GULP energy -83566.903172 kJ/mol
# GULP energy per Si atom -5571.126878 kJ/mol
# Density = 2.000289 g / cm^3
# Si number density = 20.048522 Si / 1000 Ang^3
#
#
#
# Elastic Constant Matrix: (Units=GPa)
#
#
# Indices 1 2 3 4 5 6 
#
# 1 119.8146 63.7176 40.2299 -6.0293 -23.5087 17.3321
# 2 63.7176 160.6417 11.6844 -0.3053 -20.4253 3.8901
# 3 40.2299 11.6844 81.3567 3.9848 -27.8354 9.2543
# 4 -6.0293 -0.3053 3.9848 25.1225 4.2068 -14.1444
# 5 -23.5087 -20.4253 -27.8354 4.2068 45.7942 4.7898
# 6 17.3321 3.8901 9.2543 -14.1444 4.7898 42.7206
#
#
#
# Elastic Compliance Matrix: (Units=1/GPa)
#
#
# Indices 1 2 3 4 5 6 
#
# 1 0.013496 -0.004633 -0.004938 0.001520 0.002110 -0.003717
# 2 -0.004633 0.008273 0.002236 -0.002056 0.002898 -0.000364
# 3 -0.004938 0.002236 0.020009 -0.010585 0.012374 -0.007427
# 4 0.001520 -0.002056 -0.010585 0.056693 -0.014102 0.022215
# 5 0.002110 0.002898 0.012374 -0.014102 0.034318 -0.012317
# 6 -0.003717 -0.000364 -0.007427 0.022215 -0.012317 0.035294
#
#
# Mechanical properties :
#
#
# Convention : Reuss Voigt Hill
#
# Bulk Modulus (GPa) = 36.88783 65.89742 51.39263
# Shear Modulus (GPa) = 26.07035 39.13953 32.60494
#
# Velocity S-wave (km/s) = 3.60997 4.42321 4.03712
# Velocity P-wave (km/s) = 5.98457 7.68288 6.88628
#
# Compressibility (1/GPa) = 0.02710921
#
# Stress axis : x y z
#
# Youngs Moduli (GPa) = 74.09490 120.86978 49.97746
#
# Poissons Ratio (x) = 0.55997 0.24680
# Poissons Ratio (y) = 0.34327 -0.11177
# Poissons Ratio (z) = 0.36589 -0.27031
#
# Static dielectric constant tensor:
#      x y z
#    x 1.656630 -0.067200 0.052280 
#    y -0.067200 1.779200 -0.046340 
#    z 0.052280 -0.046340 1.714320 
# 
# From -- ./inp_files/273346.got.cif
#   From: 2010.05.17/outbox.cif.g08.bks.cpg/sg2_137_cif.got.tgz:273346.got - 2010.06.03 11:33:40.
