data_PCOD9103481
_publ_section_title
;
Structure prediction by ZEFSAII (Michael W. Deem and Ramdas Pophale) SiO2 
 PCOD9103481
Probable space group: P -1
;
_chemical_formula_sum "Si O2"
_cell_formula_units_Z 12
_cell_length_a 9.059882
_cell_length_b 16.850968
_cell_length_c 10.326500
_cell_angle_alpha 146.168995
_cell_angle_beta 111.214207
_cell_angle_gamma 48.519872
_cell_volume 586.710530
_symmetry_space_group_name_H-M "P -1"
_symmetry_group_IT_number 2
_symmetry_cell_setting 'triclinic'
loop_
_space_group_symop_operation_xyz
x,y,z
-x,-y,-z
loop_
_atom_site_type_symbol
_atom_site_label
_atom_site_fract_x
_atom_site_fract_y
_atom_site_fract_z
Si Si1 0.049878 0.303905 0.125286
Si Si2 0.479809 0.375026 0.604293
Si Si3 0.586783 0.261819 0.953037
Si Si4 0.781472 0.040904 0.462699
Si Si5 0.944004 0.163765 0.109415
Si Si6 0.653929 0.609582 0.687306
O O1 0.169353 0.379581 0.272623
O O2 0.784390 0.482895 0.268443
O O3 0.098891 0.178121 0.099843
O O4 0.140683 0.160065 0.836595
O O5 0.520070 0.519519 0.824647
O O6 0.630151 0.203418 0.522753
O O7 0.511587 0.301136 0.366395
O O8 0.822181 0.162079 0.949898
O O9 0.458057 0.286429 0.070671
O O10 0.635307 0.133724 0.672505
O O11 0.000000 0.000000 0.500000
O O12 0.774022 0.380272 0.417891
O O13 0.000000 0.000000 0.000000
#
# Coordination Sequence:
#
# PCOD9103481 Si02
#       6
#     2   2   2   2   2   2
#     4  10  23  42  65  94 130 166 204 263 318 369
#     4  10  21  41  68  87 124 170 212 258 311 368
#     4  10  22  37  62  93 126 165 208 261 309 373
#     4  12  23  40  65  93 124 171 219 249 308 387
#     4  10  20  38  66  94 120 165 218 256 302 373
#     4  10  22  42  63  95 132 158 206 267 322 360
#
# _framework density 20.453016999999999
#
# number of rings (size 3 to 8) (size 9 to 14) (size 15 to 20)
#    0.000    2.000    3.333    4.500    4.667    1.333 
#    3.000    0.833    0.000    0.000    0.000    0.000 
#    0.000    0.000    0.000    0.000    0.000    0.000 
#
# Total GULP energy -66934.641558 kJ/mol
# GULP energy per Si atom -5577.886797 kJ/mol
# Density = 2.040646 g / cm^3
# Si number density = 20.453017 Si / 1000 Ang^3
#
#
#
# Elastic Constant Matrix: (Units=GPa)
#
#
# Indices 1 2 3 4 5 6 
#
# 1 103.8246 41.2083 41.2260 -9.8673 -8.6261 18.3779
# 2 41.2083 117.5155 56.6433 6.4533 0.1270 13.3951
# 3 41.2260 56.6433 124.8540 -21.7314 -20.1402 11.3045
# 4 -9.8673 6.4533 -21.7314 20.7385 11.6118 -3.3505
# 5 -8.6261 0.1270 -20.1402 11.6118 38.3457 -7.6002
# 6 18.3779 13.3951 11.3045 -3.3505 -7.6002 18.6251
#
#
#
# Elastic Compliance Matrix: (Units=1/GPa)
#
#
# Indices 1 2 3 4 5 6 
#
# 1 0.013604 -0.003229 -0.001453 0.005018 -0.001152 -0.009786
# 2 -0.003229 0.015002 -0.008015 -0.014594 -0.001773 -0.006088
# 3 -0.001453 -0.008015 0.015299 0.016392 0.003201 0.002168
# 4 0.005018 -0.014594 0.016392 0.080767 -0.013779 0.004502
# 5 -0.001152 -0.001773 0.003201 -0.013779 0.034033 0.011878
# 6 -0.009786 -0.006088 0.002168 0.004502 0.011878 0.072067
#
#
# Mechanical properties :
#
#
# Convention : Reuss Voigt Hill
#
# Bulk Modulus (GPa) = 54.02377 69.37214 61.69796
# Shear Modulus (GPa) = 19.05957 29.34964 24.20460
#
# Velocity S-wave (km/s) = 3.05597 3.79222 3.44383
# Velocity P-wave (km/s) = 6.23882 7.29150 6.78561
#
# Compressibility (1/GPa) = 0.01851037
#
# Stress axis : x y z
#
# Youngs Moduli (GPa) = 73.50979 66.65674 65.36557
#
# Poissons Ratio (x) = 0.21520 0.09500
# Poissons Ratio (y) = 0.23733 0.52391
# Poissons Ratio (z) = 0.10684 0.53426
#
# Static dielectric constant tensor:
#      x y z
#    x 1.780680 0.021460 -0.059620 
#    y 0.021460 1.735300 0.011340 
#    z -0.059620 0.011340 1.771560 
# 
# From -- ./inp_files/157025.got.cif
#   From: 2010.05.17/outbox.cif.g08.bks.cpg/sg2_79_cif.got.tgz:157025.got - 2010.06.03 11:33:40.
