data_PCOD9103553
_publ_section_title
;
Structure prediction by ZEFSAII (Michael W. Deem and Ramdas Pophale) SiO2 
 PCOD9103553
Probable space group: P -1
;
_chemical_formula_sum "Si O2"
_cell_formula_units_Z 16
_cell_length_a 9.650172
_cell_length_b 8.218659
_cell_length_c 14.862258
_cell_angle_alpha 142.894141
_cell_angle_beta 101.781767
_cell_angle_gamma 92.692188
_cell_volume 650.731982
_symmetry_space_group_name_H-M "P -1"
_symmetry_group_IT_number 2
_symmetry_cell_setting 'triclinic'
loop_
_space_group_symop_operation_xyz
x,y,z
-x,-y,-z
loop_
_atom_site_type_symbol
_atom_site_label
_atom_site_fract_x
_atom_site_fract_y
_atom_site_fract_z
Si Si1 0.023147 0.799722 0.034982
Si Si2 0.645794 0.300210 0.279592
Si Si3 0.440345 0.674120 0.393793
Si Si4 0.912448 0.089724 0.445513
Si Si5 0.156031 0.128372 0.360051
Si Si6 0.270909 0.657875 0.205581
Si Si7 0.578399 0.963890 0.293113
Si Si8 0.091973 0.695738 0.808730
O O1 0.945283 0.022103 0.090550
O O2 0.882416 0.549255 0.950873
O O3 0.152946 0.998905 0.204553
O O4 0.081769 0.658753 0.898399
O O5 0.530807 0.456717 0.303719
O O6 0.763554 0.536894 0.464978
O O7 0.745814 0.268631 0.195653
O O8 0.582489 0.023701 0.213757
O O9 0.291245 0.536075 0.252322
O O10 0.500000 0.000000 0.500000
O O11 0.425937 0.750494 0.528755
O O12 0.990329 0.049072 0.345283
O O13 0.966047 0.430730 0.623959
O O14 0.732629 0.938645 0.342784
O O15 0.000000 0.000000 0.500000
O O16 0.243564 0.957265 0.351552
O O17 0.422570 0.716369 0.193864
#
# Coordination Sequence:
#
# PCOD9103553 Si02
#       8
#     2   2   2   2   2   2   2   2
#     4  11  23  45  66  96 137 192 221 274 339 425
#     4  11  22  42  72 108 129 170 234 299 338 384
#     4  10  20  38  66  98 137 172 224 280 342 404
#     4  11  23  40  71 105 132 175 231 295 337 389
#     4  11  22  40  71  98 134 169 236 284 334 399
#     4  11  24  41  66 100 136 187 221 268 344 422
#     4  11  22  38  66 106 138 172 219 288 347 399
#     4  10  24  43  68  97 136 176 236 274 342 397
#
# _framework density 24.587698
#
# number of rings (size 3 to 8) (size 9 to 14) (size 15 to 20)
#    0.000    1.250    2.500    4.500    5.250    3.000 
#    0.000    3.125    2.750    0.000    0.000    0.000 
#    0.000    0.000    0.000    0.000    0.000    0.000 
#
# Total GULP energy -89399.399469 kJ/mol
# GULP energy per Si atom -5587.462467 kJ/mol
# Density = 2.453174 g / cm^3
# Si number density = 24.587698 Si / 1000 Ang^3
#
#
#
# Elastic Constant Matrix: (Units=GPa)
#
#
# Indices 1 2 3 4 5 6 
#
# 1 135.1340 36.6156 13.1611 -18.6207 -16.7181 4.0636
# 2 36.6156 54.9708 11.6251 -2.1798 -5.1855 5.7003
# 3 13.1611 11.6251 65.3194 -17.5333 -5.3474 5.6184
# 4 -18.6207 -2.1798 -17.5333 31.7541 1.0324 -0.3695
# 5 -16.7181 -5.1855 -5.3474 1.0324 25.6308 -2.6668
# 6 4.0636 5.7003 5.6184 -0.3695 -2.6668 37.4475
#
#
#
# Elastic Compliance Matrix: (Units=1/GPa)
#
#
# Indices 1 2 3 4 5 6 
#
# 1 0.010609 -0.006548 0.001145 0.006223 0.005597 0.000134
# 2 -0.006548 0.023398 -0.003851 -0.004374 -0.000408 -0.002346
# 3 0.001145 -0.003851 0.019120 0.010833 0.003306 -0.002064
# 4 0.006223 -0.004374 0.010833 0.040691 0.003694 -0.000970
# 5 0.005597 -0.000408 0.003306 0.003694 0.043341 0.002082
# 6 0.000134 -0.002346 -0.002064 -0.000970 0.002082 0.027495
#
#
# Mechanical properties :
#
#
# Convention : Reuss Voigt Hill
#
# Bulk Modulus (GPa) = 28.88458 42.02531 35.45494
# Shear Modulus (GPa) = 25.68040 31.90133 28.79086
#
# Velocity S-wave (km/s) = 3.23529 3.60592 3.42562
# Velocity P-wave (km/s) = 5.07239 5.87078 5.48613
#
# Compressibility (1/GPa) = 0.03462055
#
# Stress axis : x y z
#
# Youngs Moduli (GPa) = 94.26299 42.73797 52.30124
#
# Poissons Ratio (x) = 0.27983 -0.05988
# Poissons Ratio (y) = 0.61719 0.20139
# Poissons Ratio (z) = -0.10793 0.16457
#
# Static dielectric constant tensor:
#      x y z
#    x 1.977890 0.023370 0.050530 
#    y 0.023370 2.104600 -0.030680 
#    z 0.050530 -0.030680 1.981660 
# 
# From -- ./inp_files/495901.got.cif
#   From: 2010.05.17/outbox.cif.g08.bks.cpg/sg2_248_cif.got.tgz:495901.got - 2010.06.03 11:33:40.
