data_PCOD9103361
_publ_section_title
;
Structure prediction by ZEFSAII (Michael W. Deem and Ramdas Pophale) SiO2 
 PCOD9103361
Probable space group: P -1
;
_chemical_formula_sum "Si O2"
_cell_formula_units_Z 14
_cell_length_a 13.213375
_cell_length_b 23.365197
_cell_length_c 8.724174
_cell_angle_alpha 145.387679
_cell_angle_beta 148.862953
_cell_angle_gamma 24.245070
_cell_volume 560.301275
_symmetry_space_group_name_H-M "P -1"
_symmetry_group_IT_number 2
_symmetry_cell_setting 'triclinic'
loop_
_space_group_symop_operation_xyz
x,y,z
-x,-y,-z
loop_
_atom_site_type_symbol
_atom_site_label
_atom_site_fract_x
_atom_site_fract_y
_atom_site_fract_z
Si Si1 0.561111 0.284578 0.373658
Si Si2 0.851938 0.880398 0.260800
Si Si3 0.224011 0.156770 0.431057
Si Si4 0.305098 0.558209 0.522130
Si Si5 0.648428 0.034096 0.044053
Si Si6 0.566573 0.604964 0.220940
Si Si7 0.822410 0.696996 0.596283
O O1 0.317587 0.435220 0.309887
O O2 0.537381 0.174856 0.131153
O O3 0.596380 0.316213 0.660515
O O4 0.843981 0.206102 0.477799
O O5 0.776918 0.995726 0.295889
O O6 0.610028 0.947587 0.215672
O O7 0.846608 0.780048 0.931405
O O8 0.261942 0.233639 0.527978
O O9 0.995356 0.281683 0.525839
O O10 0.500000 0.000000 0.500000
O O11 0.124652 0.102010 0.069324
O O12 0.500000 0.500000 0.500000
O O13 0.441842 0.567362 0.863533
O O14 0.614853 0.689131 0.373677
O O15 0.872372 0.461457 0.357822
#
# Coordination Sequence:
#
# PCOD9103361 Si02
#       7
#     2   2   2   2   2   2   2
#     4  12  22  42  75 104 139 185 241 300 357 425
#     4  10  20  38  66 104 142 169 230 294 359 420
#     4  11  26  48  67  98 153 196 234 295 371 436
#     4  12  28  47  69 105 145 194 244 301 357 435
#     4  10  23  41  66 105 139 182 232 290 367 424
#     4  11  21  41  74 108 140 177 248 305 360 417
#     4  10  20  40  71 107 136 187 234 304 361 423
#
# _framework density 24.986560000000001
#
# number of rings (size 3 to 8) (size 9 to 14) (size 15 to 20)
#    0.000    1.143    4.286    2.571    2.000    1.143 
#    0.000    2.857    0.000    0.000    0.000    0.000 
#    0.000    0.000    0.000    0.000    0.000    0.000 
#
# Total GULP energy -78268.369886 kJ/mol
# GULP energy per Si atom -5590.597849 kJ/mol
# Density = 2.492969 g / cm^3
# Si number density = 24.986560 Si / 1000 Ang^3
#
#
#
# Elastic Constant Matrix: (Units=GPa)
#
#
# Indices 1 2 3 4 5 6 
#
# 1 120.8366 59.1602 16.9143 25.5798 4.6580 1.6304
# 2 59.1602 189.1729 23.4729 17.0124 8.6704 7.8929
# 3 16.9143 23.4729 41.8567 16.5606 21.5956 1.5062
# 4 25.5798 17.0124 16.5606 45.0266 1.8211 3.2015
# 5 4.6580 8.6704 21.5956 1.8211 32.7446 12.2419
# 6 1.6304 7.8929 1.5062 3.2015 12.2419 51.5039
#
#
#
# Elastic Compliance Matrix: (Units=1/GPa)
#
#
# Indices 1 2 3 4 5 6 
#
# 1 0.010801 -0.002859 -0.000806 -0.004785 -0.000151 0.000453
# 2 -0.002859 0.006541 -0.003253 0.000380 0.001222 -0.001131
# 3 -0.000806 -0.003253 0.049345 -0.015672 -0.033713 0.008068
# 4 -0.004785 0.000380 -0.015672 0.030392 0.010674 -0.003875
# 5 -0.000151 0.001222 -0.033713 0.010674 0.056880 -0.013380
# 6 0.000453 -0.001131 0.008068 -0.003875 -0.013380 0.022760
#
#
# Mechanical properties :
#
#
# Convention : Reuss Voigt Hill
#
# Bulk Modulus (GPa) = 18.92144 61.21787 40.06965
# Shear Modulus (GPa) = 24.01853 42.67627 33.34740
#
# Velocity S-wave (km/s) = 3.10378 4.13724 3.65720
# Velocity P-wave (km/s) = 4.52036 6.88301 5.82278
#
# Compressibility (1/GPa) = 0.05285011
#
# Stress axis : x y z
#
# Youngs Moduli (GPa) = 92.58256 152.88205 20.26547
#
# Poissons Ratio (x) = 0.43716 0.01634
# Poissons Ratio (y) = 0.26474 0.06592
# Poissons Ratio (z) = 0.07465 0.49728
#
# Static dielectric constant tensor:
#      x y z
#    x 1.982260 0.024200 -0.031900 
#    y 0.024200 2.060420 -0.037980 
#    z -0.031900 -0.037980 2.033200 
# 
# From -- ./inp_files/281295.got.cif
#   From: 2010.05.17/outbox.cif.g08.bks.cpg/sg2_141_cif.got.tgz:281295.got - 2010.06.03 11:33:40.
