data_PCOD9103784
_publ_section_title
;
Structure prediction by ZEFSAII (Michael W. Deem and Ramdas Pophale) SiO2 
 PCOD9103784
Probable space group: P -1
;
_chemical_formula_sum "Si O2"
_cell_formula_units_Z 14
_cell_length_a 13.900573
_cell_length_b 7.691899
_cell_length_c 8.584482
_cell_angle_alpha 84.830654
_cell_angle_beta 74.963629
_cell_angle_gamma 137.428073
_cell_volume 541.326114
_symmetry_space_group_name_H-M "P -1"
_symmetry_group_IT_number 2
_symmetry_cell_setting 'triclinic'
loop_
_space_group_symop_operation_xyz
x,y,z
-x,-y,-z
loop_
_atom_site_type_symbol
_atom_site_label
_atom_site_fract_x
_atom_site_fract_y
_atom_site_fract_z
Si Si1 0.653917 0.259471 0.540159
Si Si2 0.394433 0.921408 0.912380
Si Si3 0.011998 0.224866 0.485710
Si Si4 0.411227 0.175808 0.507475
Si Si5 0.891330 0.015168 0.881945
Si Si6 0.419500 0.357802 0.803960
Si Si7 0.027152 0.276288 0.129394
O O1 0.798041 0.483805 0.581056
O O2 0.590410 0.345086 0.472488
O O3 0.489282 0.976603 0.719939
O O4 0.695952 0.145874 0.433786
O O5 0.430906 0.178785 0.876308
O O6 0.208583 0.607648 0.019829
O O7 0.500000 0.000000 0.000000
O O8 0.965893 0.237779 0.334601
O O9 0.921244 0.148193 0.692130
O O10 0.000000 0.000000 0.500000
O O11 0.355109 0.222884 0.666743
O O12 0.429165 0.311884 0.331558
O O13 0.973057 0.937292 0.849446
O O14 0.951396 0.205650 0.994323
O O15 0.703602 0.718709 0.023591
#
# Coordination Sequence:
#
# PCOD9103784 Si02
#       7
#     2   2   2   2   2   2   2
#     4  10  20  38  68  93 130 171 224 266 320 405
#     4  11  22  41  66  91 129 176 220 272 331 391
#     4  10  22  39  64 100 129 175 220 264 322 397
#     4   9  21  38  66  98 126 169 223 273 330 381
#     4  10  23  40  68  95 131 173 222 267 330 395
#     4  10  22  41  62 100 132 170 219 280 330 383
#     4  10  22  42  66  96 129 177 221 266 326 399
#
# _framework density 25.862411999999999
#
# number of rings (size 3 to 8) (size 9 to 14) (size 15 to 20)
#    0.000    2.000    1.429    0.857   12.000    0.571 
#    0.000    5.000    0.000    0.000    0.000    0.000 
#    0.000    0.000    0.000    0.000    0.000    0.000 
#
# Total GULP energy -78104.357108 kJ/mol
# GULP energy per Si atom -5578.882651 kJ/mol
# Density = 2.580355 g / cm^3
# Si number density = 25.862412 Si / 1000 Ang^3
#
#
#
# Elastic Constant Matrix: (Units=GPa)
#
#
# Indices 1 2 3 4 5 6 
#
# 1 48.5450 25.2189 35.6422 13.2510 15.0005 1.4613
# 2 25.2189 98.2758 33.0316 7.6670 20.3925 4.0603
# 3 35.6422 33.0316 209.2110 8.5947 7.6294 13.5521
# 4 13.2510 7.6670 8.5947 32.7807 -0.9023 -1.7389
# 5 15.0005 20.3925 7.6294 -0.9023 37.7664 3.0176
# 6 1.4613 4.0603 13.5521 -1.7389 3.0176 25.5545
#
#
#
# Elastic Compliance Matrix: (Units=1/GPa)
#
#
# Indices 1 2 3 4 5 6 
#
# 1 0.031659 -0.003876 -0.004052 -0.011031 -0.010038 0.001389
# 2 -0.003876 0.012714 -0.001061 -0.001307 -0.005084 -0.000724
# 3 -0.004052 -0.001061 0.005762 0.000262 0.001247 -0.002785
# 4 -0.011031 -0.001307 0.000262 0.035488 0.005687 0.002443
# 5 -0.010038 -0.005084 0.001247 0.005687 0.033321 -0.002827
# 6 0.001389 -0.000724 -0.002785 0.002443 -0.002827 0.041145
#
#
# Mechanical properties :
#
#
# Convention : Reuss Voigt Hill
#
# Bulk Modulus (GPa) = 31.09841 60.42415 45.76128
# Shear Modulus (GPa) = 26.48506 36.69626 31.59066
#
# Velocity S-wave (km/s) = 3.20359 3.77092 3.49877
# Velocity P-wave (km/s) = 5.07293 6.50955 5.83562
#
# Compressibility (1/GPa) = 0.03215598
#
# Stress axis : x y z
#
# Youngs Moduli (GPa) = 31.58623 78.65597 173.55395
#
# Poissons Ratio (x) = 0.30488 0.70331
# Poissons Ratio (y) = 0.12243 0.18413
# Poissons Ratio (z) = 0.12800 0.08345
#
# Static dielectric constant tensor:
#      x y z
#    x 1.960130 0.137160 0.062940 
#    y 0.137160 1.872300 -0.029940 
#    z 0.062940 -0.029940 2.144420 
# 
# From -- ./inp_files/326067.got.cif
#   From: 2010.05.17/outbox.cif.g08.bks.cpg/sg2_164_cif.got.tgz:326067.got - 2010.06.03 11:33:40.
