data_PCOD9103924
_publ_section_title
;
Structure prediction by ZEFSAII (Michael W. Deem and Ramdas Pophale) SiO2 
 PCOD9103924
Probable space group: P -1
;
_chemical_formula_sum "Si O2"
_cell_formula_units_Z 16
_cell_length_a 8.446389
_cell_length_b 9.350846
_cell_length_c 16.892427
_cell_angle_alpha 59.428771
_cell_angle_beta 136.820128
_cell_angle_gamma 96.513756
_cell_volume 707.050517
_symmetry_space_group_name_H-M "P -1"
_symmetry_group_IT_number 2
_symmetry_cell_setting 'triclinic'
loop_
_space_group_symop_operation_xyz
x,y,z
-x,-y,-z
loop_
_atom_site_type_symbol
_atom_site_label
_atom_site_fract_x
_atom_site_fract_y
_atom_site_fract_z
Si Si1 0.237088 0.924975 0.671618
Si Si2 0.797522 0.465210 0.884849
Si Si3 0.284559 0.167261 0.923636
Si Si4 0.488267 0.371868 0.410513
Si Si5 0.245847 0.100838 0.111931
Si Si6 0.286854 0.757845 0.317101
Si Si7 0.703358 0.452468 0.214697
Si Si8 0.019415 0.677202 0.492360
O O1 0.532561 0.863751 0.770386
O O2 0.251606 0.732609 0.766269
O O3 0.000000 0.000000 0.500000
O O4 0.186434 0.110186 0.650247
O O5 0.732738 0.585665 0.746487
O O6 0.550021 0.494966 0.838081
O O7 0.000000 0.500000 0.000000
O O8 0.956416 0.252570 0.978592
O O9 0.313135 0.359155 0.880023
O O10 0.000009 0.213517 0.773345
O O11 0.291415 0.109038 0.033387
O O12 0.500000 0.000000 0.000000
O O13 0.426022 0.565236 0.376246
O O14 0.558849 0.236802 0.549047
O O15 0.735348 0.317480 0.461251
O O16 0.268919 0.910934 0.206355
O O17 0.936323 0.374066 0.384570
O O18 0.000000 0.500000 0.500000
#
# Coordination Sequence:
#
# PCOD9103924 Si02
#       8
#     2   2   2   2   2   2   2   2
#     4  10  23  43  66 101 140 182 227 285 361 420
#     4  11  22  46  69  98 139 190 229 283 346 428
#     4  12  27  42  69 108 141 182 238 299 361 419
#     4  10  23  40  69  98 134 180 235 283 349 417
#     4  12  25  44  70  99 142 186 236 290 359 421
#     4  11  24  45  69 103 140 181 233 295 357 420
#     4  10  23  43  68  97 143 182 228 287 353 422
#     4  10  20  38  70 101 134 177 230 293 349 411
#
# _framework density 22.629216
#
# number of rings (size 3 to 8) (size 9 to 14) (size 15 to 20)
#    0.000    1.250    2.500    2.625    7.000    3.500 
#    0.000    0.625    0.000    0.000    0.000    0.000 
#    0.000    0.000    0.000    0.000    0.000    0.000 
#
# Total GULP energy -89251.328668 kJ/mol
# GULP energy per Si atom -5578.208042 kJ/mol
# Density = 2.257771 g / cm^3
# Si number density = 22.629216 Si / 1000 Ang^3
#
#
#
# Elastic Constant Matrix: (Units=GPa)
#
#
# Indices 1 2 3 4 5 6 
#
# 1 70.8630 28.0564 39.9576 -21.7449 -15.8699 1.3591
# 2 28.0564 120.7139 41.9693 -31.9464 -17.5820 12.7109
# 3 39.9576 41.9693 125.1165 -7.2138 -17.4769 -1.8548
# 4 -21.7449 -31.9464 -7.2138 53.6465 -3.2083 1.3715
# 5 -15.8699 -17.5820 -17.4769 -3.2083 43.3795 -3.6930
# 6 1.3591 12.7109 -1.8548 1.3715 -3.6930 28.0205
#
#
#
# Elastic Compliance Matrix: (Units=1/GPa)
#
#
# Indices 1 2 3 4 5 6 
#
# 1 0.021058 0.000217 -0.005481 0.008321 0.006107 -0.001085
# 2 0.000217 0.012574 -0.003401 0.007498 0.003867 -0.005797
# 3 -0.005481 -0.003401 0.010911 -0.002789 0.001045 0.002805
# 4 0.008321 0.007498 -0.002789 0.026608 0.006550 -0.004429
# 5 0.006107 0.003867 0.001045 0.006550 0.027876 0.001372
# 6 -0.001085 -0.005797 0.002805 -0.004429 0.001372 0.038954
#
#
# Mechanical properties :
#
#
# Convention : Reuss Voigt Hill
#
# Bulk Modulus (GPa) = 36.74745 59.62890 48.18817
# Shear Modulus (GPa) = 30.41717 38.78998 34.60358
#
# Velocity S-wave (km/s) = 3.67025 4.14473 3.91468
# Velocity P-wave (km/s) = 5.85108 7.02229 6.46327
#
# Compressibility (1/GPa) = 0.02721277
#
# Stress axis : x y z
#
# Youngs Moduli (GPa) = 47.48719 79.53088 91.65470
#
# Poissons Ratio (x) = -0.01727 0.50240
# Poissons Ratio (y) = -0.01031 0.31168
# Poissons Ratio (z) = 0.26030 0.27046
#
# Static dielectric constant tensor:
#      x y z
#    x 1.829620 -0.028020 0.019740 
#    y -0.028020 1.920590 0.019820 
#    z 0.019740 0.019820 1.896010 
# 
# From -- ./inp_files/557056.got.cif
#   From: 2010.05.17/outbox.cif.g08.bks.cpg/sg2_279_cif.got.tgz:557056.got - 2010.06.03 11:33:40.
