data_PCOD9103181
_publ_section_title
;
Structure prediction by ZEFSAII (Michael W. Deem and Ramdas Pophale) SiO2 
 PCOD9103181
Probable space group: P -1
;
_chemical_formula_sum "Si O2"
_cell_formula_units_Z 12
_cell_length_a 9.440488
_cell_length_b 13.394257
_cell_length_c 11.771320
_cell_angle_alpha 149.183247
_cell_angle_beta 74.646271
_cell_angle_gamma 85.080306
_cell_volume 568.704373
_symmetry_space_group_name_H-M "P -1"
_symmetry_group_IT_number 2
_symmetry_cell_setting 'triclinic'
loop_
_space_group_symop_operation_xyz
x,y,z
-x,-y,-z
loop_
_atom_site_type_symbol
_atom_site_label
_atom_site_fract_x
_atom_site_fract_y
_atom_site_fract_z
Si Si1 0.969141 0.801329 0.839152
Si Si2 0.531290 0.200614 0.172052
Si Si3 0.251180 0.344840 0.185295
Si Si4 0.251450 0.661620 0.829215
Si Si5 0.220715 0.749041 0.188421
Si Si6 0.432506 0.258627 0.822177
O O1 0.772762 0.860476 0.970552
O O2 0.057898 0.607460 0.525701
O O3 0.088361 0.683848 0.817426
O O4 0.000000 0.000000 0.000000
O O5 0.402852 0.336258 0.218881
O O6 0.440397 0.393172 0.483962
O O7 0.725648 0.138961 0.032806
O O8 0.500000 0.000000 0.000000
O O9 0.308241 0.317100 0.017069
O O10 0.232200 0.687136 0.992139
O O11 0.376478 0.784433 0.222523
O O12 0.300063 0.500431 0.003277
O O13 0.000000 0.000000 0.500000
O O14 0.500000 0.000000 0.500000
#
# Coordination Sequence:
#
# PCOD9103181 Si02
#       6
#     2   2   2   2   2   2
#     4  10  22  38  66  94 132 172 211 283 340 394
#     4  10  20  38  65  91 126 169 216 280 336 401
#     4  10  22  41  59  99 129 170 228 267 338 407
#     4  10  22  39  62  98 126 170 227 272 338 400
#     4  11  27  48  70 101 137 183 234 283 336 406
#     4  11  27  48  71  98 139 187 227 284 340 403
#
# _framework density 21.100591999999999
#
# number of rings (size 3 to 8) (size 9 to 14) (size 15 to 20)
#    0.000    1.667    1.667    1.000    7.000    2.000 
#    0.000    0.000    0.000    0.000    0.000    0.000 
#    0.000    0.000    0.000    0.000    0.000    0.000 
#
# Total GULP energy -66882.958354 kJ/mol
# GULP energy per Si atom -5573.579863 kJ/mol
# Density = 2.105257 g / cm^3
# Si number density = 21.100592 Si / 1000 Ang^3
#
#
#
# Elastic Constant Matrix: (Units=GPa)
#
#
# Indices 1 2 3 4 5 6 
#
# 1 146.0207 64.8489 60.0722 -7.7082 2.3719 -0.0648
# 2 64.8489 127.9455 107.1727 -25.1385 13.6717 8.5759
# 3 60.0722 107.1727 145.4364 -24.7834 18.0066 -4.9549
# 4 -7.7082 -25.1385 -24.7834 45.8060 -4.7627 5.6482
# 5 2.3719 13.6717 18.0066 -4.7627 38.4284 5.5709
# 6 -0.0648 8.5759 -4.9549 5.6482 5.5709 41.6869
#
#
#
# Elastic Compliance Matrix: (Units=1/GPa)
#
#
# Indices 1 2 3 4 5 6 
#
# 1 0.009020 -0.004176 -0.000979 -0.001284 0.001115 0.000782
# 2 -0.004176 0.024874 -0.016059 0.005303 0.000728 -0.007848
# 3 -0.000979 -0.016059 0.019974 0.000608 -0.004407 0.006183
# 4 -0.001284 0.005303 0.000608 0.025622 0.001768 -0.004728
# 5 0.001115 0.000728 -0.004407 0.001768 0.028666 -0.004742
# 6 0.000782 -0.007848 0.006183 -0.004728 -0.004742 0.027613
#
#
# Mechanical properties :
#
#
# Convention : Reuss Voigt Hill
#
# Bulk Modulus (GPa) = 87.40325 98.17668 92.78997
# Shear Modulus (GPa) = 27.47112 37.67151 32.57132
#
# Velocity S-wave (km/s) = 3.61212 4.22990 3.93316
# Velocity P-wave (km/s) = 7.67520 8.39554 8.04343
#
# Compressibility (1/GPa) = 0.01144122
#
# Stress axis : x y z
#
# Youngs Moduli (GPa) = 110.86598 40.20256 50.06516
#
# Poissons Ratio (x) = 0.16787 0.04901
# Poissons Ratio (y) = 0.46293 0.80399
# Poissons Ratio (z) = 0.10852 0.64561
#
# Static dielectric constant tensor:
#      x y z
#    x 1.802520 -0.009670 -0.050000 
#    y -0.009670 1.874150 0.110110 
#    z -0.050000 0.110110 1.776440 
# 
# From -- ./inp_files/397951.got.cif
#   From: 2010.05.17/outbox.cif.g08.bks.cpg/sg2_199_cif.got.tgz:397951.got - 2010.06.03 11:33:40.
