data_PCOD9103664
_publ_section_title
;
Structure prediction by ZEFSAII (Michael W. Deem and Ramdas Pophale) SiO2 
 PCOD9103664
Probable space group: P -1
;
_chemical_formula_sum "Si O2"
_cell_formula_units_Z 16
_cell_length_a 19.247898
_cell_length_b 8.443670
_cell_length_c 9.679990
_cell_angle_alpha 97.224312
_cell_angle_beta 57.935108
_cell_angle_gamma 140.103448
_cell_volume 731.486194
_symmetry_space_group_name_H-M "P -1"
_symmetry_group_IT_number 2
_symmetry_cell_setting 'triclinic'
loop_
_space_group_symop_operation_xyz
x,y,z
-x,-y,-z
loop_
_atom_site_type_symbol
_atom_site_label
_atom_site_fract_x
_atom_site_fract_y
_atom_site_fract_z
Si Si1 0.134551 0.163219 0.280285
Si Si2 0.597898 0.458608 0.773537
Si Si3 0.759653 0.217795 0.443807
Si Si4 0.163876 0.836270 0.891696
Si Si5 0.639805 0.324190 0.444130
Si Si6 0.145593 0.187872 0.952217
Si Si7 0.093779 0.718179 0.240741
Si Si8 0.333039 0.054977 0.219442
O O1 0.281013 0.431495 0.244527
O O2 0.120183 0.949065 0.257862
O O3 0.138170 0.231056 0.125488
O O4 0.000000 0.000000 0.500000
O O5 0.595923 0.378354 0.615513
O O6 0.643955 0.720578 0.742447
O O7 0.449311 0.208540 0.993161
O O8 0.729100 0.055165 0.327132
O O9 0.752570 0.383300 0.407847
O O10 0.921663 0.425857 0.350739
O O11 0.650900 0.018267 0.665249
O O12 0.156824 0.014634 0.919590
O O13 0.191357 0.824833 0.016832
O O14 0.000000 0.500000 0.000000
O O15 0.719445 0.526627 0.248999
O O16 0.500000 0.000000 0.500000
O O17 0.000000 0.000000 0.000000
O O18 0.169384 0.759239 0.295959
#
# Coordination Sequence:
#
# PCOD9103664 Si02
#       8
#     2   2   2   2   2   2   2   2
#     4  10  20  38  67  94 125 168 218 276 330 394
#     4  10  23  45  63  91 132 168 225 275 339 404
#     4  11  22  40  62  93 133 167 223 273 328 395
#     4   9  19  37  65  95 130 162 216 281 329 396
#     4  12  28  45  62  96 142 183 229 274 333 407
#     4  11  22  42  69  99 134 181 225 275 339 395
#     4   9  19  37  61  97 121 158 213 274 331 391
#     4  10  22  40  69  92 123 172 218 277 340 397
#
# _framework density 21.873277000000002
#
# number of rings (size 3 to 8) (size 9 to 14) (size 15 to 20)
#    0.000    1.750    0.000    4.875    3.500    1.500 
#    2.250    1.250    0.000    0.000    0.000    0.000 
#    0.000    0.000    0.000    0.000    0.000    0.000 
#
# Total GULP energy -89330.740541 kJ/mol
# GULP energy per Si atom -5583.171284 kJ/mol
# Density = 2.182349 g / cm^3
# Si number density = 21.873277 Si / 1000 Ang^3
#
#
#
# Elastic Constant Matrix: (Units=GPa)
#
#
# Indices 1 2 3 4 5 6 
#
# 1 65.1311 14.6912 45.8284 6.7506 24.6748 9.0561
# 2 14.6912 78.5340 65.0708 8.7086 7.1820 15.4680
# 3 45.8284 65.0708 163.5156 28.9798 32.7798 7.8329
# 4 6.7506 8.7086 28.9798 37.8317 3.2695 4.8406
# 5 24.6748 7.1820 32.7798 3.2695 42.2854 -2.3127
# 6 9.0561 15.4680 7.8329 4.8406 -2.3127 25.6111
#
#
#
# Elastic Compliance Matrix: (Units=1/GPa)
#
#
# Indices 1 2 3 4 5 6 
#
# 1 0.023829 0.002747 -0.005387 0.001418 -0.010834 -0.009683
# 2 0.002747 0.022320 -0.009970 0.003412 0.001420 -0.011919
# 3 -0.005387 -0.009970 0.013665 -0.007387 -0.004928 0.004698
# 4 0.001418 0.003412 -0.007387 0.031708 0.001531 -0.006157
# 5 -0.010834 0.001420 -0.004928 0.001531 0.033828 0.007246
# 6 -0.009683 -0.011919 0.004698 -0.006157 0.007246 0.050049
#
#
# Mechanical properties :
#
#
# Convention : Reuss Voigt Hill
#
# Bulk Modulus (GPa) = 28.90783 62.04015 45.47399
# Shear Modulus (GPa) = 23.56807 33.25168 28.40988
#
# Velocity S-wave (km/s) = 3.28606 3.90320 3.60785
# Velocity P-wave (km/s) = 5.25760 6.98128 6.17983
#
# Compressibility (1/GPa) = 0.03459271
#
# Stress axis : x y z
#
# Youngs Moduli (GPa) = 41.96637 44.80295 73.17908
#
# Poissons Ratio (x) = -0.12306 0.39420
# Poissons Ratio (y) = -0.11527 0.72962
# Poissons Ratio (z) = 0.22607 0.44670
#
# Static dielectric constant tensor:
#      x y z
#    x 1.819480 0.031890 -0.015620 
#    y 0.031890 1.791140 -0.003340 
#    z -0.015620 -0.003340 1.837490 
# 
# From -- ./inp_files/329156.got.cif
#   From: 2010.05.17/outbox.cif.g08.bks.cpg/sg2_165_cif.got.tgz:329156.got - 2010.06.03 11:33:40.
