data_PCOD9103175
_publ_section_title
;
Structure prediction by ZEFSAII (Michael W. Deem and Ramdas Pophale) SiO2 
 PCOD9103175
Probable space group: P -1
;
_chemical_formula_sum "Si O2"
_cell_formula_units_Z 12
_cell_length_a 5.325262
_cell_length_b 12.327814
_cell_length_c 12.323027
_cell_angle_alpha 130.632152
_cell_angle_beta 72.496416
_cell_angle_gamma 93.195201
_cell_volume 574.444563
_symmetry_space_group_name_H-M "P -1"
_symmetry_group_IT_number 2
_symmetry_cell_setting 'triclinic'
loop_
_space_group_symop_operation_xyz
x,y,z
-x,-y,-z
loop_
_atom_site_type_symbol
_atom_site_label
_atom_site_fract_x
_atom_site_fract_y
_atom_site_fract_z
Si Si1 0.647567 0.813941 0.742307
Si Si2 0.786047 0.908348 0.013451
Si Si3 0.216207 0.586189 0.137937
Si Si4 0.950609 0.385534 0.583822
Si Si5 0.588271 0.428522 0.305304
Si Si6 0.924514 0.312258 0.995251
O O1 0.886167 0.755108 0.590723
O O2 0.441523 0.702276 0.695763
O O3 0.487123 0.977315 0.851836
O O4 0.747943 0.809689 0.850866
O O5 0.893611 0.815385 0.043935
O O6 0.000000 0.000000 0.000000
O O7 0.120897 0.709470 0.139848
O O8 0.180972 0.644318 0.302915
O O9 0.500000 0.500000 0.000000
O O10 0.044899 0.458727 0.077211
O O11 0.173083 0.487484 0.641075
O O12 0.702254 0.468520 0.599528
O O13 0.657590 0.356380 0.130590
#
# Coordination Sequence:
#
# PCOD9103175 Si02
#       6
#     2   2   2   2   2   2
#     4  11  24  39  60  94 128 171 212 259 325 378
#     4  11  24  41  63  88 131 175 213 257 310 395
#     4  10  20  38  65  91 125 162 211 268 313 375
#     4  11  24  38  65  97 130 165 210 271 323 375
#     4  11  21  38  64  96 130 162 208 271 324 377
#     4  10  21  38  63  94 121 166 216 255 318 375
#
# _framework density 20.889744
#
# number of rings (size 3 to 8) (size 9 to 14) (size 15 to 20)
#    0.000    1.333    3.333    3.000    2.333    0.000 
#    0.000    0.833    0.000    2.000    0.000    0.000 
#    0.000    0.000    0.000    0.000    0.000    0.000 
#
# Total GULP energy -67013.214674 kJ/mol
# GULP energy per Si atom -5584.434556 kJ/mol
# Density = 2.084220 g / cm^3
# Si number density = 20.889744 Si / 1000 Ang^3
#
#
#
# Elastic Constant Matrix: (Units=GPa)
#
#
# Indices 1 2 3 4 5 6 
#
# 1 83.3299 24.7094 33.7293 -1.3936 -8.8692 -6.1393
# 2 24.7094 117.4849 50.6836 -20.8967 -5.6805 -33.5569
# 3 33.7293 50.6836 154.6045 -20.2276 -28.1564 -16.9289
# 4 -1.3936 -20.8967 -20.2276 25.3853 0.0766 -7.6348
# 5 -8.8692 -5.6805 -28.1564 0.0766 36.4373 1.6144
# 6 -6.1393 -33.5569 -16.9289 -7.6348 1.6144 39.6446
#
#
#
# Elastic Compliance Matrix: (Units=1/GPa)
#
#
# Indices 1 2 3 4 5 6 
#
# 1 0.013930 -0.003485 -0.002747 -0.005199 0.000868 -0.003002
# 2 -0.003485 0.018431 -0.000426 0.020278 0.000823 0.018751
# 3 -0.002747 -0.000426 0.010216 0.009138 0.006916 0.005055
# 4 -0.005199 0.020278 0.009138 0.073310 0.007293 0.034083
# 5 0.000868 0.000823 0.006916 0.007293 0.032942 0.003847
# 6 -0.003002 0.018751 0.005055 0.034083 0.003847 0.049196
#
#
# Mechanical properties :
#
#
# Convention : Reuss Voigt Hill
#
# Bulk Modulus (GPa) = 34.17547 63.74041 48.95794
# Shear Modulus (GPa) = 22.61477 36.71323 29.66400
#
# Velocity S-wave (km/s) = 3.29382 4.19677 3.77241
# Velocity P-wave (km/s) = 5.55528 7.35275 6.51629
#
# Compressibility (1/GPa) = 0.02926075
#
# Stress axis : x y z
#
# Youngs Moduli (GPa) = 71.78659 54.25737 97.88953
#
# Poissons Ratio (x) = 0.18907 0.26894
# Poissons Ratio (y) = 0.25015 0.04168
# Poissons Ratio (z) = 0.19723 0.02310
#
# Static dielectric constant tensor:
#      x y z
#    x 0.249070 -1.340360 -0.380900 
#    y -1.340360 0.639250 -0.361800 
#    z -0.380900 -0.361800 1.699770 
# 
# From -- ./inp_files/19665.got.cif
#   From: 2010.05.17/outbox.cif.g08.bks.cpg/sg2_10_cif.got.tgz:19665.got - 2010.06.03 11:33:40.
