data_PCOD9103897
_publ_section_title
;
Structure prediction by ZEFSAII (Michael W. Deem and Ramdas Pophale) SiO2 
 PCOD9103897
Probable space group: P -1
;
_chemical_formula_sum "Si O2"
_cell_formula_units_Z 14
_cell_length_a 18.251686
_cell_length_b 12.083568
_cell_length_c 9.618890
_cell_angle_alpha 64.665163
_cell_angle_beta 37.340797
_cell_angle_gamma 34.346879
_cell_volume 540.428782
_symmetry_space_group_name_H-M "P -1"
_symmetry_group_IT_number 2
_symmetry_cell_setting 'triclinic'
loop_
_space_group_symop_operation_xyz
x,y,z
-x,-y,-z
loop_
_atom_site_type_symbol
_atom_site_label
_atom_site_fract_x
_atom_site_fract_y
_atom_site_fract_z
Si Si1 0.280636 0.268702 0.770258
Si Si2 0.335383 0.093296 0.071372
Si Si3 0.197250 0.934867 0.740980
Si Si4 0.084221 0.694406 0.800921
Si Si5 0.479751 0.547596 0.760963
Si Si6 0.708163 0.090535 0.926331
Si Si7 0.997697 0.194530 0.621479
O O1 0.298690 0.397532 0.646763
O O2 0.500000 0.000000 0.500000
O O3 0.293871 0.225994 0.936955
O O4 0.000000 0.500000 0.000000
O O5 0.459891 0.860449 0.930209
O O6 0.065850 0.274992 0.439020
O O7 0.500000 0.000000 0.000000
O O8 0.197282 0.983898 0.558941
O O9 0.417215 0.672796 0.641562
O O10 0.076793 0.151821 0.897859
O O11 0.000000 0.000000 0.000000
O O12 0.210173 0.714562 0.571198
O O13 0.883743 0.854216 0.893774
O O14 0.292107 0.597217 0.022700
O O15 0.410583 0.693879 0.920933
O O16 0.901610 0.962607 0.584369
#
# Coordination Sequence:
#
# PCOD9103897 Si02
#       7
#     2   2   2   2   2   2   2
#     4  12  26  49  78 107 146 199 262 308 359 451
#     4  10  23  43  67 101 144 193 237 304 372 430
#     4   9  21  41  63  96 138 175 233 296 359 448
#     4  11  23  38  70 102 133 188 245 299 369 437
#     4  10  20  38  69  95 132 179 235 299 363 444
#     4   9  20  41  61  99 130 175 237 295 361 435
#     4   9  20  39  64  94 140 176 231 304 367 440
#
# _framework density 25.905356999999999
#
# number of rings (size 3 to 8) (size 9 to 14) (size 15 to 20)
#    0.857    1.143    1.429    1.286    4.000    2.857 
#    0.000    7.143    6.286    0.000    0.000    0.000 
#    0.000    0.000    0.000    0.000    0.000    0.000 
#
# Total GULP energy -78111.908371 kJ/mol
# GULP energy per Si atom -5579.422026 kJ/mol
# Density = 2.584640 g / cm^3
# Si number density = 25.905357 Si / 1000 Ang^3
#
#
#
# Elastic Constant Matrix: (Units=GPa)
#
#
# Indices 1 2 3 4 5 6 
#
# 1 195.1373 50.7196 61.7478 -7.7283 -0.9925 -16.6345
# 2 50.7196 118.5955 42.2645 -19.5724 16.3462 -2.1063
# 3 61.7478 42.2645 116.9907 -17.9734 3.7215 -10.9345
# 4 -7.7283 -19.5724 -17.9734 38.2521 5.0092 9.1119
# 5 -0.9925 16.3462 3.7215 5.0092 61.2523 -10.8252
# 6 -16.6345 -2.1063 -10.9345 9.1119 -10.8252 31.6190
#
#
#
# Elastic Compliance Matrix: (Units=1/GPa)
#
#
# Indices 1 2 3 4 5 6 
#
# 1 0.006907 -0.002530 -0.002796 -0.002357 0.001821 0.003801
# 2 -0.002530 0.011872 -0.002299 0.006156 -0.004388 -0.004612
# 3 -0.002796 -0.002299 0.011501 0.003370 -0.000172 0.001323
# 4 -0.002357 0.006156 0.003370 0.034097 -0.006761 -0.011805
# 5 0.001821 -0.004388 -0.000172 -0.006761 0.019735 0.009311
# 6 0.003801 -0.004612 0.001323 -0.011805 0.009311 0.040366
#
#
# Mechanical properties :
#
#
# Convention : Reuss Voigt Hill
#
# Bulk Modulus (GPa) = 66.53703 82.24305 74.39004
# Shear Modulus (GPa) = 34.54472 44.62412 39.58442
#
# Velocity S-wave (km/s) = 3.65567 4.15490 3.91326
# Velocity P-wave (km/s) = 6.59992 7.40500 7.01402
#
# Compressibility (1/GPa) = 0.01502922
#
# Stress axis : x y z
#
# Youngs Moduli (GPa) = 144.78225 84.22946 86.94792
#
# Poissons Ratio (x) = 0.21309 0.24313
# Poissons Ratio (y) = 0.36628 0.19993
# Poissons Ratio (z) = 0.40486 0.19368
#
# Static dielectric constant tensor:
#      x y z
#    x 2.235760 -0.015790 -0.067830 
#    y -0.015790 2.145980 0.031690 
#    z -0.067830 0.031690 2.084060 
# 
# From -- ./inp_files/333082.got.cif
#   From: 2010.05.17/outbox.cif.g08.bks.cpg/sg2_167_cif.got.tgz:333082.got - 2010.06.03 11:33:40.
