data_PCOD9103807
_publ_section_title
;
Structure prediction by ZEFSAII (Michael W. Deem and Ramdas Pophale) SiO2 
 PCOD9103807
Probable space group: P -1
;
_chemical_formula_sum "Si O2"
_cell_formula_units_Z 13
_cell_length_a 13.046967
_cell_length_b 10.242501
_cell_length_c 13.940427
_cell_angle_alpha 44.871619
_cell_angle_beta 20.730314
_cell_angle_gamma 48.296679
_cell_volume 465.207043
_symmetry_space_group_name_H-M "P -1"
_symmetry_group_IT_number 2
_symmetry_cell_setting 'triclinic'
loop_
_space_group_symop_operation_xyz
x,y,z
-x,-y,-z
loop_
_atom_site_type_symbol
_atom_site_label
_atom_site_fract_x
_atom_site_fract_y
_atom_site_fract_z
Si Si1 0.539229 0.361185 0.724039
Si Si2 0.290344 0.310256 0.707469
Si Si3 0.862016 0.092568 0.304907
Si Si4 0.860215 0.796079 0.621943
Si Si5 0.500000 0.000000 0.000000
Si Si6 0.932457 0.780780 0.263672
Si Si7 0.460890 0.559645 0.877991
O O1 0.624340 0.477998 0.497579
O O2 0.384361 0.491928 0.870509
O O3 0.828670 0.271610 0.570763
O O4 0.369463 0.174177 0.958608
O O5 0.559297 0.175176 0.560364
O O6 0.183775 0.253702 0.722861
O O7 0.053442 0.267480 0.016227
O O8 0.941196 0.926900 0.394963
O O9 0.850359 0.977984 0.274587
O O10 0.654864 0.620093 0.870671
O O11 0.683833 0.916771 0.789978
O O12 0.785020 0.626322 0.542016
O O13 0.270308 0.734192 0.985831
#
# Coordination Sequence:
#
# PCOD9103807 Si02
#       7
#     2   2   2   2   1   2   2
#     4  10  22  45  74  93 128 172 227 264 339 397
#     4  11  23  43  64  97 139 181 210 266 322 397
#     4  12  27  39  67  99 144 170 224 266 324 377
#     4  11  24  45  68 101 128 171 221 289 323 390
#     4  10  24  44  80  94 122 168 232 270 346 396
#     4  11  21  41  65  97 134 191 219 253 311 401
#     4  10  20  38  68  95 131 168 231 261 313 372
#
# _framework density 27.944545999999999
#
# number of rings (size 3 to 8) (size 9 to 14) (size 15 to 20)
#    0.000    1.231    3.077    4.154    6.462    1.231 
#    0.000    1.538    0.000    0.000    0.000    0.000 
#    0.000    0.000    0.000    0.000    0.000    0.000 
#
# Total GULP energy -72615.794451 kJ/mol
# GULP energy per Si atom -5585.830342 kJ/mol
# Density = 2.788094 g / cm^3
# Si number density = 27.944546 Si / 1000 Ang^3
#
#
#
# Elastic Constant Matrix: (Units=GPa)
#
#
# Indices 1 2 3 4 5 6 
#
# 1 75.3372 29.7039 23.8805 -16.5718 20.8406 -22.1413
# 2 29.7039 86.3656 5.2244 -10.5269 7.9792 -6.1705
# 3 23.8805 5.2244 122.1894 -15.4585 30.2290 -16.3864
# 4 -16.5718 -10.5269 -15.4585 76.0876 -8.8140 19.7420
# 5 20.8406 7.9792 30.2290 -8.8140 31.3860 -6.9732
# 6 -22.1413 -6.1705 -16.3864 19.7420 -6.9732 55.1995
#
#
#
# Elastic Compliance Matrix: (Units=1/GPa)
#
#
# Indices 1 2 3 4 5 6 
#
# 1 0.020267 -0.005482 -0.000303 0.000901 -0.010228 0.005812
# 2 -0.005482 0.013510 0.000561 0.000996 -0.000258 -0.000911
# 3 -0.000303 0.000561 0.010998 0.000646 -0.009972 0.001715
# 4 0.000901 0.000996 0.000646 0.014969 0.001737 -0.004470
# 5 -0.010228 -0.000258 -0.009972 0.001737 0.048456 -0.001591
# 6 0.005812 -0.000911 0.001715 -0.004470 -0.001591 0.022252
#
#
# Mechanical properties :
#
#
# Convention : Reuss Voigt Hill
#
# Bulk Modulus (GPa) = 29.13066 44.61221 36.87143
# Shear Modulus (GPa) = 32.82082 47.54018 40.18050
#
# Velocity S-wave (km/s) = 3.43081 4.12908 3.79603
# Velocity P-wave (km/s) = 5.11283 6.22347 5.69529
#
# Compressibility (1/GPa) = 0.03432809
#
# Stress axis : x y z
#
# Youngs Moduli (GPa) = 49.34171 74.01751 90.92678
#
# Poissons Ratio (x) = 0.40577 0.02753
# Poissons Ratio (y) = 0.27050 -0.05105
# Poissons Ratio (z) = 0.01494 -0.04155
#
# Static dielectric constant tensor:
#      x y z
#    x 2.277400 -0.217640 0.206060 
#    y -0.217640 1.776500 0.260710 
#    z 0.206060 0.260710 1.654180 
# 
# From -- ./inp_files/288228.got.cif
#   From: 2010.05.17/outbox.cif.g08.bks.cpg/sg2_145_cif.got.tgz:288228.got - 2010.06.03 11:33:40.
