data_PCOD9103762
_publ_section_title
;
Structure prediction by ZEFSAII (Michael W. Deem and Ramdas Pophale) SiO2 
 PCOD9103762
Probable space group: P -1
;
_chemical_formula_sum "Si O2"
_cell_formula_units_Z 11
_cell_length_a 7.079439
_cell_length_b 7.146844
_cell_length_c 12.740304
_cell_angle_alpha 41.638730
_cell_angle_beta 73.563514
_cell_angle_gamma 73.121610
_cell_volume 407.633755
_symmetry_space_group_name_H-M "P -1"
_symmetry_group_IT_number 2
_symmetry_cell_setting 'triclinic'
loop_
_space_group_symop_operation_xyz
x,y,z
-x,-y,-z
loop_
_atom_site_type_symbol
_atom_site_label
_atom_site_fract_x
_atom_site_fract_y
_atom_site_fract_z
Si Si1 0.348473 0.856522 0.228877
Si Si2 0.000000 0.500000 0.500000
Si Si3 0.187667 0.669492 0.126431
Si Si4 0.266690 0.087714 0.478670
Si Si5 0.236009 0.491539 0.977046
Si Si6 0.245742 0.476178 0.741726
O O1 0.287880 0.860545 0.112515
O O2 0.565296 0.686271 0.277181
O O3 0.182134 0.689861 0.375256
O O4 0.326257 0.179915 0.129239
O O5 0.855820 0.779843 0.457011
O O6 0.247336 0.346951 0.291494
O O7 0.255843 0.697673 0.984883
O O8 0.947754 0.689318 0.167213
O O9 0.500000 0.000000 0.500000
O O10 0.192427 0.795459 0.573961
O O11 0.301811 0.529523 0.832012
O O12 0.000000 0.500000 0.000000
#
# Coordination Sequence:
#
# PCOD9103762 Si02
#       6
#     2   1   2   2   2   2
#     4  11  23  44  64 101 138 172 231 274 338 399
#     4  10  20  38  68  90 134 176 212 280 328 382
#     4  10  23  43  69  96 134 181 216 282 339 392
#     4  11  21  44  66  99 136 176 226 280 331 400
#     4  10  23  43  67  98 136 176 223 280 333 408
#     4  11  22  42  69  97 138 174 225 282 329 409
#
# _framework density 26.985009999999999
#
# number of rings (size 3 to 8) (size 9 to 14) (size 15 to 20)
#    0.000    1.455    3.636    3.273    0.000    5.091 
#    6.545    4.545    0.000    0.000    0.000    0.000 
#    0.000    0.000    0.000    0.000    0.000    0.000 
#
# Total GULP energy -61428.941206 kJ/mol
# GULP energy per Si atom -5584.449201 kJ/mol
# Density = 2.692359 g / cm^3
# Si number density = 26.985010 Si / 1000 Ang^3
#
#
#
# Elastic Constant Matrix: (Units=GPa)
#
#
# Indices 1 2 3 4 5 6 
#
# 1 139.0130 68.8176 23.8874 11.1041 -19.4134 -37.8760
# 2 68.8176 194.8015 25.5582 -3.3569 8.3946 -41.3395
# 3 23.8874 25.5582 59.1081 -6.9370 -2.7221 -22.6601
# 4 11.1041 -3.3569 -6.9370 39.3118 -6.7038 5.2312
# 5 -19.4134 8.3946 -2.7221 -6.7038 36.4798 2.2501
# 6 -37.8760 -41.3395 -22.6601 5.2312 2.2501 63.8964
#
#
#
# Elastic Compliance Matrix: (Units=1/GPa)
#
#
# Indices 1 2 3 4 5 6 
#
# 1 0.011238 -0.003186 -0.001735 -0.003316 0.005725 0.004055
# 2 -0.003186 0.007054 -0.000941 0.000423 -0.003461 0.002429
# 3 -0.001735 -0.000941 0.020530 0.003520 0.001144 0.005315
# 4 -0.003316 0.000423 0.003520 0.028050 0.003733 -0.002872
# 5 0.005725 -0.003461 0.001144 0.003733 0.032019 0.000127
# 6 0.004055 0.002429 0.005315 -0.002872 0.000127 0.021741
#
#
# Mechanical properties :
#
#
# Convention : Reuss Voigt Hill
#
# Bulk Modulus (GPa) = 36.90372 69.93878 53.42125
# Shear Modulus (GPa) = 35.36355 46.24825 40.80590
#
# Velocity S-wave (km/s) = 3.62399 4.14436 3.89288
# Velocity P-wave (km/s) = 5.58717 6.99105 6.32816
#
# Compressibility (1/GPa) = 0.02709754
#
# Stress axis : x y z
#
# Youngs Moduli (GPa) = 88.98433 141.75874 48.70996
#
# Poissons Ratio (x) = 0.45160 0.08452
# Poissons Ratio (y) = 0.28348 0.04586
# Poissons Ratio (z) = 0.15439 0.13345
#
# Static dielectric constant tensor:
#      x y z
#    x 2.113870 0.014540 0.061880 
#    y 0.014540 2.087200 0.041400 
#    z 0.061880 0.041400 2.142690 
# 
# From -- ./inp_files/160926.got.cif
#   From: 2010.05.17/outbox.cif.g08.bks.cpg/sg2_81_cif.got.tgz:160926.got - 2010.06.03 11:33:40.
