data_PCOD9103899
_publ_section_title
;
Structure prediction by ZEFSAII (Michael W. Deem and Ramdas Pophale) SiO2 
 PCOD9103899
Probable space group: P -1
;
_chemical_formula_sum "Si O2"
_cell_formula_units_Z 16
_cell_length_a 25.075456
_cell_length_b 5.214421
_cell_length_c 10.831825
_cell_angle_alpha 63.475607
_cell_angle_beta 31.336665
_cell_angle_gamma 71.027310
_cell_volume 654.198564
_symmetry_space_group_name_H-M "P -1"
_symmetry_group_IT_number 2
_symmetry_cell_setting 'triclinic'
loop_
_space_group_symop_operation_xyz
x,y,z
-x,-y,-z
loop_
_atom_site_type_symbol
_atom_site_label
_atom_site_fract_x
_atom_site_fract_y
_atom_site_fract_z
Si Si1 0.505768 0.162542 0.583832
Si Si2 0.740065 0.395916 0.521835
Si Si3 0.383595 0.783608 0.404379
Si Si4 0.064871 0.306124 0.828957
Si Si5 0.874477 0.666505 0.725898
Si Si6 0.417139 0.382463 0.057816
Si Si7 0.034754 0.686130 0.580340
Si Si8 0.703350 0.862374 0.867343
O O1 0.500000 0.500000 0.500000
O O2 0.600239 0.147461 0.497416
O O3 0.500000 0.000000 0.500000
O O4 0.401569 0.044867 0.888762
O O5 0.722881 0.352127 0.419525
O O6 0.822212 0.666024 0.337742
O O7 0.625423 0.422370 0.796002
O O8 0.767542 0.119612 0.606073
O O9 0.406792 0.077861 0.216520
O O10 0.473396 0.583049 0.234928
O O11 0.072126 0.468085 0.650192
O O12 0.000000 0.500000 0.000000
O O13 0.000000 0.000000 0.000000
O O14 0.905164 0.399128 0.643087
O O15 0.762672 0.727776 0.889635
O O16 0.914202 0.622972 0.794993
O O17 0.939082 0.983087 0.501732
O O18 0.334282 0.367899 0.114062
#
# Coordination Sequence:
#
# PCOD9103899 Si02
#       8
#     2   2   2   2   2   2   2   2
#     4  11  27  45  63  96 143 183 210 270 337 410
#     4  11  22  39  74  93 132 175 233 286 329 403
#     4   9  21  39  65  99 131 172 224 272 335 399
#     4  12  27  44  65  97 141 180 223 284 351 403
#     4  10  20  38  69  96 121 164 224 279 318 389
#     4   9  19  36  67 103 126 163 224 287 324 388
#     4  10  21  40  65  93 129 164 216 281 335 382
#     4  10  22  39  68  98 125 172 231 270 334 399
#
# _framework density 24.457407
#
# number of rings (size 3 to 8) (size 9 to 14) (size 15 to 20)
#    0.000    1.750    1.250    2.625    8.750    0.000 
#    2.250    0.000    0.000    0.000    0.000    0.000 
#    0.000    0.000    0.000    0.000    0.000    0.000 
#
# Total GULP energy -89289.211226 kJ/mol
# GULP energy per Si atom -5580.575702 kJ/mol
# Density = 2.440174 g / cm^3
# Si number density = 24.457407 Si / 1000 Ang^3
#
#
#
# Elastic Constant Matrix: (Units=GPa)
#
#
# Indices 1 2 3 4 5 6 
#
# 1 201.9269 26.1486 26.9697 -10.8101 -27.0957 20.3525
# 2 26.1486 100.5721 19.0726 -10.7698 -8.5211 19.8126
# 3 26.9697 19.0726 54.3540 -10.0065 -8.0312 12.4034
# 4 -10.8101 -10.7698 -10.0065 32.3205 7.3275 -1.7639
# 5 -27.0957 -8.5211 -8.0312 7.3275 23.8965 8.2534
# 6 20.3525 19.8126 12.4034 -1.7639 8.2534 40.1513
#
#
#
# Elastic Compliance Matrix: (Units=1/GPa)
#
#
# Indices 1 2 3 4 5 6 
#
# 1 0.006819 0.000188 -0.000941 -0.000361 0.009391 -0.005205
# 2 0.000188 0.012224 -0.001642 0.001961 0.005737 -0.006713
# 3 -0.000941 -0.001642 0.022895 0.004208 0.007198 -0.007080
# 4 -0.000361 0.001961 0.004208 0.035011 -0.009518 0.001410
# 5 0.009391 0.005737 0.007198 -0.009518 0.068259 -0.024264
# 6 -0.005205 -0.006713 -0.007080 0.001410 -0.024264 0.038094
#
#
# Mechanical properties :
#
#
# Convention : Reuss Voigt Hill
#
# Bulk Modulus (GPa) = 26.91894 55.69277 41.30586
# Shear Modulus (GPa) = 24.94092 38.25114 31.59603
#
# Velocity S-wave (km/s) = 3.19685 3.95902 3.59817
# Velocity P-wave (km/s) = 4.96556 6.61205 5.84705
#
# Compressibility (1/GPa) = 0.03714857
#
# Stress axis : x y z
#
# Youngs Moduli (GPa) = 146.64821 81.80464 43.67834
#
# Poissons Ratio (x) = -0.01536 0.04108
# Poissons Ratio (y) = -0.02754 0.07172
# Poissons Ratio (z) = 0.13792 0.13432
#
# Static dielectric constant tensor:
#      x y z
#    x 2.030780 -0.034460 -0.043110 
#    y -0.034460 1.954200 -0.003110 
#    z -0.043110 -0.003110 1.991180 
# 
# From -- ./inp_files/475879.got.cif
#   From: 2010.05.17/outbox.cif.g08.bks.cpg/sg2_238_cif.got.tgz:475879.got - 2010.06.03 11:33:40.
