data_PCOD9103248
_publ_section_title
;
Structure prediction by ZEFSAII (Michael W. Deem and Ramdas Pophale) SiO2 
 PCOD9103248
Probable space group: P -1
;
_chemical_formula_sum "Si O2"
_cell_formula_units_Z 16
_cell_length_a 9.432365
_cell_length_b 14.060262
_cell_length_c 12.803651
_cell_angle_alpha 104.003117
_cell_angle_beta 53.272433
_cell_angle_gamma 60.021954
_cell_volume 739.292268
_symmetry_space_group_name_H-M "P -1"
_symmetry_group_IT_number 2
_symmetry_cell_setting 'triclinic'
loop_
_space_group_symop_operation_xyz
x,y,z
-x,-y,-z
loop_
_atom_site_type_symbol
_atom_site_label
_atom_site_fract_x
_atom_site_fract_y
_atom_site_fract_z
Si Si1 0.099383 0.773736 0.523130
Si Si2 0.125993 0.108344 0.779461
Si Si3 0.160849 0.816788 0.878058
Si Si4 0.305384 0.006372 0.448840
Si Si5 0.282803 0.013602 0.056475
Si Si6 0.860704 0.670684 0.594913
Si Si7 0.671720 0.641093 0.240974
Si Si8 0.600642 0.722369 0.521647
O O1 0.460171 0.641563 0.317362
O O2 0.057069 0.677288 0.538067
O O3 0.885588 0.893947 0.547534
O O4 0.949103 0.901868 0.722389
O O5 0.376749 0.073989 0.700078
O O6 0.089044 0.135714 0.678927
O O7 0.309094 0.921534 0.663410
O O8 0.839429 0.229409 0.019395
O O9 0.476848 0.691309 0.640931
O O10 0.930289 0.861074 0.915929
O O11 0.000000 0.000000 0.000000
O O12 0.437486 0.835813 0.358777
O O13 0.538495 0.820867 0.845592
O O14 0.500000 0.000000 0.000000
O O15 0.785855 0.709028 0.514206
O O16 0.000000 0.500000 0.500000
O O17 0.754882 0.614004 0.319817
O O18 0.000000 0.500000 0.000000
#
# Coordination Sequence:
#
# PCOD9103248 Si02
#       8
#     2   2   2   2   2   2   2   2
#     4  11  22  43  67  97 133 175 228 274 321 402
#     4   9  17  33  63  95 119 158 220 267 310 377
#     4  10  16  32  60  94 114 157 211 264 309 378
#     4  10  20  37  65  94 125 172 224 260 314 397
#     4  10  19  34  64  94 124 162 210 262 329 382
#     4  11  23  40  64 100 136 169 211 279 345 393
#     4  11  25  43  63  93 136 178 218 276 339 389
#     4  10  19  39  63  87 125 166 212 271 325 397
#
# _framework density 21.642320000000002
#
# number of rings (size 3 to 8) (size 9 to 14) (size 15 to 20)
#    0.000    1.750    5.000    1.125    0.000    1.000 
#    2.250    2.500    2.750    0.000    0.000    0.000 
#    0.000    0.000    0.000    0.000    0.000    0.000 
#
# Total GULP energy -89208.018290 kJ/mol
# GULP energy per Si atom -5575.501143 kJ/mol
# Density = 2.159306 g / cm^3
# Si number density = 21.642320 Si / 1000 Ang^3
#
#
#
# Elastic Constant Matrix: (Units=GPa)
#
#
# Indices 1 2 3 4 5 6 
#
# 1 111.6670 19.1134 42.8136 -3.6049 2.1660 6.9998
# 2 19.1134 65.9215 34.4451 -12.3918 13.5977 2.5423
# 3 42.8136 34.4451 131.3025 -30.2301 6.3861 3.4215
# 4 -3.6049 -12.3918 -30.2301 33.2945 -2.4301 0.9391
# 5 2.1660 13.5977 6.3861 -2.4301 30.7268 -15.1500
# 6 6.9998 2.5423 3.4215 0.9391 -15.1500 29.9870
#
#
#
# Elastic Compliance Matrix: (Units=1/GPa)
#
#
# Indices 1 2 3 4 5 6 
#
# 1 0.010657 -0.001491 -0.003609 -0.002662 -0.000629 -0.002184
# 2 -0.001491 0.020701 -0.003307 0.003898 -0.011490 -0.006957
# 3 -0.003609 -0.003307 0.011784 0.009071 -0.000350 -0.000683
# 4 -0.002662 0.003898 0.009071 0.039389 -0.001708 -0.002841
# 5 -0.000629 -0.011490 -0.000350 -0.001708 0.050887 0.026923
# 6 -0.002184 -0.006957 -0.000683 -0.002841 0.026923 0.048216
#
#
# Mechanical properties :
#
#
# Convention : Reuss Voigt Hill
#
# Bulk Modulus (GPa) = 37.98208 55.73722 46.85965
# Shear Modulus (GPa) = 24.12844 32.96959 28.54902
#
# Velocity S-wave (km/s) = 3.34259 3.90729 3.63592
# Velocity P-wave (km/s) = 5.69958 6.79453 6.27100
#
# Compressibility (1/GPa) = 0.02632821
#
# Stress axis : x y z
#
# Youngs Moduli (GPa) = 93.83193 48.30715 84.86231
#
# Poissons Ratio (x) = 0.07200 0.30631
# Poissons Ratio (y) = 0.13986 0.28063
# Poissons Ratio (z) = 0.33869 0.15974
#
# Static dielectric constant tensor:
#      x y z
#    x 1.859610 -0.002140 -0.000240 
#    y -0.002140 1.835260 -0.030980 
#    z -0.000240 -0.030980 1.867630 
# 
# From -- ./inp_files/399263.got.cif
#   From: 2010.05.17/outbox.cif.g08.bks.cpg/sg2_200_cif.got.tgz:399263.got - 2010.06.03 11:33:40.
