data_PCOD9103459
_publ_section_title
;
Structure prediction by ZEFSAII (Michael W. Deem and Ramdas Pophale) SiO2 
 PCOD9103459
Probable space group: P -1
;
_chemical_formula_sum "Si O2"
_cell_formula_units_Z 16
_cell_length_a 5.133002
_cell_length_b 8.036738
_cell_length_c 16.990358
_cell_angle_alpha 110.609951
_cell_angle_beta 92.117464
_cell_angle_gamma 65.915879
_cell_volume 594.240840
_symmetry_space_group_name_H-M "P -1"
_symmetry_group_IT_number 2
_symmetry_cell_setting 'triclinic'
loop_
_space_group_symop_operation_xyz
x,y,z
-x,-y,-z
loop_
_atom_site_type_symbol
_atom_site_label
_atom_site_fract_x
_atom_site_fract_y
_atom_site_fract_z
Si Si1 0.668009 0.133750 0.081593
Si Si2 0.390306 0.906859 0.553991
Si Si3 0.918512 0.514657 0.873452
Si Si4 0.178061 0.438609 0.570668
Si Si5 0.816374 0.033210 0.663673
Si Si6 0.174685 0.582407 0.306005
Si Si7 0.894825 0.275179 0.968060
Si Si8 0.774082 0.245228 0.262599
O O1 0.334094 0.270711 0.107878
O O2 0.806756 0.222457 0.165113
O O3 0.788800 0.905299 0.066391
O O4 0.741896 0.165393 0.998184
O O5 0.509599 0.688438 0.482223
O O6 0.072356 0.955986 0.588322
O O7 0.580286 0.946524 0.632662
O O8 0.500000 0.000000 0.500000
O O9 0.006079 0.422785 0.773767
O O10 0.803856 0.379965 0.901073
O O11 0.126381 0.552876 0.942970
O O12 0.146501 0.614716 0.656444
O O13 0.000000 0.500000 0.500000
O O14 0.036870 0.333483 0.609169
O O15 0.006463 0.962582 0.733484
O O16 0.685409 0.267984 0.690288
O O17 0.425683 0.365137 0.287926
#
# Coordination Sequence:
#
# PCOD9103459 Si02
#       8
#     2   2   2   2   2   2   2   2
#     4  10  21  39  63  94 129 167 213 265 334 395
#     4  12  25  43  70  95 131 179 236 285 340 402
#     4  10  21  39  63  95 127 165 217 263 332 398
#     4  12  24  41  64  91 129 176 226 280 337 400
#     4  12  26  46  68  99 135 181 232 284 343 406
#     4  11  25  42  66  94 135 175 223 283 342 402
#     4  10  20  38  66  92 128 167 209 269 325 409
#     4  11  25  42  65  96 135 173 227 281 341 405
#
# _framework density 26.925111000000001
#
# number of rings (size 3 to 8) (size 9 to 14) (size 15 to 20)
#    0.000    1.000    2.500    4.125    1.750    1.000 
#    0.000    0.000    5.500    0.000    0.000    0.000 
#    0.000    0.000    0.000    0.000    0.000    0.000 
#
# Total GULP energy -89319.109686 kJ/mol
# GULP energy per Si atom -5582.444355 kJ/mol
# Density = 2.686383 g / cm^3
# Si number density = 26.925111 Si / 1000 Ang^3
#
#
#
# Elastic Constant Matrix: (Units=GPa)
#
#
# Indices 1 2 3 4 5 6 
#
# 1 82.0105 11.3866 34.9150 -0.3358 -1.1222 -7.5249
# 2 11.3866 72.3527 26.0417 1.3724 -1.2926 -4.0662
# 3 34.9150 26.0417 144.8058 -17.3462 10.2258 4.8209
# 4 -0.3358 1.3724 -17.3462 45.2231 0.9849 2.9641
# 5 -1.1222 -1.2926 10.2258 0.9849 35.6409 8.9902
# 6 -7.5249 -4.0662 4.8209 2.9641 8.9902 24.4857
#
#
#
# Elastic Compliance Matrix: (Units=1/GPa)
#
#
# Indices 1 2 3 4 5 6 
#
# 1 0.014336 -0.000585 -0.003739 -0.001653 0.000249 0.005153
# 2 -0.000585 0.015184 -0.002951 -0.001801 0.000701 0.002883
# 3 -0.003739 -0.002951 0.009045 0.003780 -0.002145 -0.003090
# 4 -0.001653 -0.001801 0.003780 0.023894 -0.000817 -0.004144
# 5 0.000249 0.000701 -0.002145 -0.000817 0.031463 -0.010838
# 6 0.005153 0.002883 -0.003090 -0.004144 -0.010838 0.047992
#
#
# Mechanical properties :
#
#
# Convention : Reuss Voigt Hill
#
# Bulk Modulus (GPa) = 41.63881 49.31729 45.47805
# Shear Modulus (GPa) = 30.40090 36.19163 33.29626
#
# Velocity S-wave (km/s) = 3.36384 3.67025 3.52038
# Velocity P-wave (km/s) = 5.53041 6.02638 5.78372
#
# Compressibility (1/GPa) = 0.02401605
#
# Stress axis : x y z
#
# Youngs Moduli (GPa) = 69.75484 65.85827 110.55692
#
# Poissons Ratio (x) = 0.03853 0.41332
# Poissons Ratio (y) = 0.04081 0.32624
# Poissons Ratio (z) = 0.26078 0.19434
#
# Static dielectric constant tensor:
#      x y z
#    x 2.172540 0.071970 0.068680 
#    y 0.071970 2.313630 0.057820 
#    z 0.068680 0.057820 2.150610 
# 
# From -- ./inp_files/50887.got.cif
#   From: 2010.05.17/outbox.cif.g08.bks.cpg/sg2_26_cif.got.tgz:50887.got - 2010.06.03 11:33:40.
