data_PCOD9103902
_publ_section_title
;
Structure prediction by ZEFSAII (Michael W. Deem and Ramdas Pophale) SiO2 
 PCOD9103902
Probable space group: P -1
;
_chemical_formula_sum "Si O2"
_cell_formula_units_Z 16
_cell_length_a 8.121407
_cell_length_b 11.658443
_cell_length_c 14.527602
_cell_angle_alpha 55.531792
_cell_angle_beta 50.430250
_cell_angle_gamma 37.205577
_cell_volume 636.064426
_symmetry_space_group_name_H-M "P -1"
_symmetry_group_IT_number 2
_symmetry_cell_setting 'triclinic'
loop_
_space_group_symop_operation_xyz
x,y,z
-x,-y,-z
loop_
_atom_site_type_symbol
_atom_site_label
_atom_site_fract_x
_atom_site_fract_y
_atom_site_fract_z
Si Si1 0.628315 0.630824 0.066061
Si Si2 0.230282 0.009548 0.331565
Si Si3 0.862502 0.491015 0.835752
Si Si4 0.001821 0.862645 0.123644
Si Si5 0.175648 0.607330 0.595375
Si Si6 0.124297 0.199977 0.110693
Si Si7 0.805765 0.960238 0.472599
Si Si8 0.674909 0.159799 0.243994
O O1 0.725916 0.578470 0.946118
O O2 0.678518 0.766663 0.021441
O O3 0.293660 0.736361 0.139677
O O4 0.842712 0.425815 0.131589
O O5 0.940739 0.229246 0.362916
O O6 0.105594 0.918055 0.387202
O O7 0.325277 0.053341 0.189302
O O8 0.632005 0.067571 0.581321
O O9 0.978610 0.283608 0.877202
O O10 0.942672 0.745012 0.533118
O O11 0.114198 0.485052 0.716599
O O12 0.731370 0.010852 0.219099
O O13 0.000000 0.000000 0.000000
O O14 0.500000 0.500000 0.500000
O O15 0.402303 0.366405 0.207077
O O16 0.953581 0.142565 0.156195
O O17 0.646605 0.092646 0.381169
#
# Coordination Sequence:
#
# PCOD9103902 Si02
#       8
#     2   2   2   2   2   2   2   2
#     4  11  21  40  69  97 129 178 225 267 338 392
#     4   8  16  38  61  92 124 165 211 268 332 379
#     4  12  24  46  68  94 139 185 216 276 347 396
#     4  12  25  43  66 101 139 179 225 272 330 414
#     4  10  21  41  65  95 130 168 225 280 330 393
#     4  10  20  38  69  96 128 179 214 277 334 393
#     4   8  18  39  65  91 123 172 216 272 331 383
#     4  11  23  43  66  96 140 174 225 273 337 397
#
# _framework density 25.154686999999999
#
# number of rings (size 3 to 8) (size 9 to 14) (size 15 to 20)
#    0.750    1.000    3.750    1.125    0.000    2.000 
#    9.000    0.625    0.000    0.000    0.000    0.000 
#    0.000    0.000    0.000    0.000    0.000    0.000 
#
# Total GULP energy -89263.894050 kJ/mol
# GULP energy per Si atom -5578.993378 kJ/mol
# Density = 2.509743 g / cm^3
# Si number density = 25.154687 Si / 1000 Ang^3
#
#
#
# Elastic Constant Matrix: (Units=GPa)
#
#
# Indices 1 2 3 4 5 6 
#
# 1 84.1563 28.6355 36.3717 -5.5235 2.7084 -3.7756
# 2 28.6355 86.9812 37.2914 -13.2058 -2.9588 12.9887
# 3 36.3717 37.2914 138.4368 -30.9395 21.0124 12.2831
# 4 -5.5235 -13.2058 -30.9395 30.1181 -0.4299 -1.9498
# 5 2.7084 -2.9588 21.0124 -0.4299 56.9974 -9.2180
# 6 -3.7756 12.9887 12.2831 -1.9498 -9.2180 32.0852
#
#
#
# Elastic Compliance Matrix: (Units=1/GPa)
#
#
# Indices 1 2 3 4 5 6 
#
# 1 0.015195 -0.004436 -0.004187 -0.003088 0.001444 0.005414
# 2 -0.004436 0.015101 -0.001693 0.003721 0.000750 -0.005546
# 3 -0.004187 -0.001693 0.012506 0.010908 -0.005299 -0.005455
# 4 -0.003088 0.003721 0.010908 0.045126 -0.004064 -0.004471
# 5 0.001444 0.000750 -0.005299 -0.004064 0.020665 0.007585
# 6 0.005414 -0.005546 -0.005455 -0.004471 0.007585 0.038045
#
#
# Mechanical properties :
#
#
# Convention : Reuss Voigt Hill
#
# Bulk Modulus (GPa) = 45.10331 57.13018 51.11674
# Shear Modulus (GPa) = 28.62733 37.65853 33.14293
#
# Velocity S-wave (km/s) = 3.37716 3.87341 3.63377
# Velocity P-wave (km/s) = 5.75988 6.53951 6.16204
#
# Compressibility (1/GPa) = 0.02217132
#
# Stress axis : x y z
#
# Youngs Moduli (GPa) = 65.80994 66.21973 79.96362
#
# Poissons Ratio (x) = 0.29372 0.33482
# Poissons Ratio (y) = 0.29190 0.13536
# Poissons Ratio (z) = 0.27555 0.11209
#
# Static dielectric constant tensor:
#      x y z
#    x 2.096190 -0.007770 0.018110 
#    y -0.007770 1.966100 0.023170 
#    z 0.018110 0.023170 2.091800 
# 
# From -- ./inp_files/498805.got.cif
#   From: 2010.05.17/outbox.cif.g08.bks.cpg/sg2_250_cif.got.tgz:498805.got - 2010.06.03 11:33:40.
