data_PCOD9103308
_publ_section_title
;
Structure prediction by ZEFSAII (Michael W. Deem and Ramdas Pophale) SiO2 
 PCOD9103308
Probable space group: P -1
;
_chemical_formula_sum "Si O2"
_cell_formula_units_Z 12
_cell_length_a 10.273656
_cell_length_b 7.447239
_cell_length_c 16.531682
_cell_angle_alpha 135.373280
_cell_angle_beta 135.116945
_cell_angle_gamma 79.545653
_cell_volume 475.827287
_symmetry_space_group_name_H-M "P -1"
_symmetry_group_IT_number 2
_symmetry_cell_setting 'triclinic'
loop_
_space_group_symop_operation_xyz
x,y,z
-x,-y,-z
loop_
_atom_site_type_symbol
_atom_site_label
_atom_site_fract_x
_atom_site_fract_y
_atom_site_fract_z
Si Si1 0.360379 0.148113 0.706475
Si Si2 0.447896 0.742307 0.526725
Si Si3 0.946516 0.112141 0.091366
Si Si4 0.069028 0.809885 0.183098
Si Si5 0.462484 0.724028 0.836671
Si Si6 0.987840 0.000551 0.371970
O O1 0.502130 0.509607 0.842567
O O2 0.107788 0.940262 0.477125
O O3 0.488570 0.997661 0.693958
O O4 0.265502 0.112747 0.743639
O O5 0.500000 0.500000 0.500000
O O6 0.165251 0.508028 0.307851
O O7 0.638030 0.949745 0.604832
O O8 0.007250 0.993515 0.157622
O O9 0.000000 0.000000 0.000000
O O10 0.667745 0.932849 0.925205
O O11 0.967269 0.799037 0.221352
O O12 0.000000 0.500000 0.000000
O O13 0.192824 0.411315 0.582755
O O14 0.500000 0.000000 0.000000
#
# Coordination Sequence:
#
# PCOD9103308 Si02
#       6
#     2   2   2   2   2   2
#     4   9  20  40  68  90 130 165 217 263 329 376
#     4  10  22  41  61  92 130 169 214 265 323 382
#     4  11  24  38  60  89 129 170 210 261 319 382
#     4  11  24  41  62  98 127 172 220 266 322 384
#     4  10  20  38  65  97 121 169 218 259 324 386
#     4   9  21  40  67  94 130 167 215 271 322 384
#
# _framework density 25.219235999999999
#
# number of rings (size 3 to 8) (size 9 to 14) (size 15 to 20)
#    1.000    1.000    0.000    3.000    2.333    0.667 
#    0.000   14.167    0.000    0.000    0.000    0.000 
#    0.000    0.000    0.000    0.000    0.000    0.000 
#
# Total GULP energy -66927.919888 kJ/mol
# GULP energy per Si atom -5577.326657 kJ/mol
# Density = 2.516184 g / cm^3
# Si number density = 25.219236 Si / 1000 Ang^3
#
#
#
# Elastic Constant Matrix: (Units=GPa)
#
#
# Indices 1 2 3 4 5 6 
#
# 1 230.3472 21.4807 46.1862 18.6061 -8.9053 10.4224
# 2 21.4807 43.6678 -7.8610 -13.3681 -14.8986 -10.1666
# 3 46.1862 -7.8610 95.7944 16.6659 -1.0254 -2.7189
# 4 18.6061 -13.3681 16.6659 23.5880 -0.9770 -12.4748
# 5 -8.9053 -14.8986 -1.0254 -0.9770 58.5955 10.0372
# 6 10.4224 -10.1666 -2.7189 -12.4748 10.0372 42.0718
#
#
#
# Elastic Compliance Matrix: (Units=1/GPa)
#
#
# Indices 1 2 3 4 5 6 
#
# 1 0.007439 -0.011060 -0.002054 -0.015546 -0.000408 -0.009161
# 2 -0.011060 0.055791 0.001077 0.056343 0.008143 0.031055
# 3 -0.002054 0.001077 0.012729 -0.007038 0.000158 -0.000533
# 4 -0.015546 0.056343 -0.007038 0.118748 0.005082 0.051009
# 5 -0.000408 0.008143 0.000158 0.005082 0.019338 -0.001028
# 6 -0.009161 0.031055 -0.000533 0.051009 -0.001028 0.048878
#
#
# Mechanical properties :
#
#
# Convention : Reuss Voigt Hill
#
# Bulk Modulus (GPa) = 19.27330 54.38014 36.82672
# Shear Modulus (GPa) = 16.43155 45.51796 30.97476
#
# Velocity S-wave (km/s) = 2.55531 4.25301 3.50840
# Velocity P-wave (km/s) = 4.04538 6.76219 5.57191
#
# Compressibility (1/GPa) = 0.05188525
#
# Stress axis : x y z
#
# Youngs Moduli (GPa) = 134.42792 17.92394 78.56252
#
# Poissons Ratio (x) = 0.19824 0.16136
# Poissons Ratio (y) = 1.48677 -0.08461
# Poissons Ratio (z) = 0.27610 -0.01930
#
# Static dielectric constant tensor:
#      x y z
#    x 1.976800 -0.026890 0.029410 
#    y -0.026890 2.001880 -0.006580 
#    z 0.029410 -0.006580 2.040840 
# 
# From -- ./inp_files/554820.got.cif
#   From: 2010.05.17/outbox.cif.g08.bks.cpg/sg2_278_cif.got.tgz:554820.got - 2010.06.03 11:33:40.
