data_PCOD9103683
_publ_section_title
;
Structure prediction by ZEFSAII (Michael W. Deem and Ramdas Pophale) SiO2 
 PCOD9103683
Probable space group: P -1
;
_chemical_formula_sum "Si O2"
_cell_formula_units_Z 16
_cell_length_a 11.077316
_cell_length_b 12.882049
_cell_length_c 13.996496
_cell_angle_alpha 62.541005
_cell_angle_beta 137.413880
_cell_angle_gamma 146.174815
_cell_volume 689.676404
_symmetry_space_group_name_H-M "P -1"
_symmetry_group_IT_number 2
_symmetry_cell_setting 'triclinic'
loop_
_space_group_symop_operation_xyz
x,y,z
-x,-y,-z
loop_
_atom_site_type_symbol
_atom_site_label
_atom_site_fract_x
_atom_site_fract_y
_atom_site_fract_z
Si Si1 0.828080 0.758091 0.370576
Si Si2 0.200463 0.509519 0.484697
Si Si3 0.550033 0.483208 0.928920
Si Si4 0.541927 0.164621 0.642009
Si Si5 0.471052 0.178202 0.009293
Si Si6 0.357845 0.718995 0.134654
Si Si7 0.791728 0.834156 0.827326
Si Si8 0.513453 0.125144 0.263599
O O1 0.799035 0.629619 0.476844
O O2 0.742764 0.669349 0.250547
O O3 0.571014 0.716531 0.262626
O O4 0.176364 0.991794 0.482794
O O5 0.253713 0.628775 0.379616
O O6 0.498010 0.686880 0.649269
O O7 0.863263 0.343570 0.407190
O O8 0.642072 0.396499 0.021698
O O9 0.784463 0.701223 0.925907
O O10 0.500000 0.500000 0.000000
O O11 0.600363 0.199253 0.774181
O O12 0.590918 0.057002 0.682414
O O13 0.530369 0.157190 0.949287
O O14 0.550498 0.145656 0.161680
O O15 0.110096 0.017001 0.879559
O O16 0.000000 0.500000 0.000000
O O17 0.721723 0.899062 0.834488
#
# Coordination Sequence:
#
# PCOD9103683 Si02
#       8
#     2   2   2   2   2   2   2   2
#     4   9  22  42  66  99 129 167 228 260 327 398
#     4  10  22  41  64  93 135 173 214 268 321 388
#     4  10  20  38  67  96 129 170 211 267 323 384
#     4  11  24  44  67  95 134 179 219 271 323 386
#     4  11  24  43  64  98 131 169 224 273 328 391
#     4  11  24  45  72  98 129 171 224 278 333 383
#     4  11  23  41  66  98 132 176 217 262 331 398
#     4  11  24  39  62 100 135 167 221 262 327 395
#
# _framework density 23.199286000000001
#
# number of rings (size 3 to 8) (size 9 to 14) (size 15 to 20)
#    0.000    1.500    1.250    3.375    0.000    6.500 
#    0.000    7.500    0.000    0.000    0.000    0.000 
#    0.000    0.000    0.000    0.000    0.000    0.000 
#
# Total GULP energy -89452.895284 kJ/mol
# GULP energy per Si atom -5590.805955 kJ/mol
# Density = 2.314648 g / cm^3
# Si number density = 23.199286 Si / 1000 Ang^3
#
#
#
# Elastic Constant Matrix: (Units=GPa)
#
#
# Indices 1 2 3 4 5 6 
#
# 1 55.3088 31.9696 13.6736 12.8541 -3.9863 1.8627
# 2 31.9696 127.8725 18.5717 -10.5258 9.6098 -3.6075
# 3 13.6736 18.5717 102.0753 17.4677 9.0959 -5.9698
# 4 12.8541 -10.5258 17.4677 42.7167 2.6189 1.6308
# 5 -3.9863 9.6098 9.0959 2.6189 45.5887 -3.7716
# 6 1.8627 -3.6075 -5.9698 1.6308 -3.7716 27.1003
#
#
#
# Elastic Compliance Matrix: (Units=1/GPa)
#
#
# Indices 1 2 3 4 5 6 
#
# 1 0.024975 -0.007225 -0.000957 -0.009100 0.004276 -0.001746
# 2 -0.007225 0.010551 -0.001609 0.005571 -0.002787 0.000824
# 3 -0.000957 -0.001609 0.011304 -0.004729 -0.001529 0.002414
# 4 -0.009100 0.005571 -0.004729 0.029703 -0.002887 -0.001864
# 5 0.004276 -0.002787 -0.001529 -0.002887 0.023570 0.002452
# 6 -0.001746 0.000824 0.002414 -0.001864 0.002452 0.038115
#
#
# Mechanical properties :
#
#
# Convention : Reuss Voigt Hill
#
# Bulk Modulus (GPa) = 36.69801 45.96514 41.33157
# Shear Modulus (GPa) = 29.96115 37.81725 33.88920
#
# Velocity S-wave (km/s) = 3.59760 4.04183 3.82617
# Velocity P-wave (km/s) = 5.75412 6.45276 6.11343
#
# Compressibility (1/GPa) = 0.02724944
#
# Stress axis : x y z
#
# Youngs Moduli (GPa) = 40.04066 94.77374 88.46179
#
# Poissons Ratio (x) = 0.68470 0.08466
# Poissons Ratio (y) = 0.28928 0.14232
# Poissons Ratio (z) = 0.03832 0.15248
#
# Static dielectric constant tensor:
#      x y z
#    x 1.859400 -0.012230 -0.029170 
#    y -0.012230 1.883320 -0.014280 
#    z -0.029170 -0.014280 1.903640 
# 
# From -- ./inp_files/522372.got.cif
#   From: 2010.05.17/outbox.cif.g08.bks.cpg/sg2_262_cif.got.tgz:522372.got - 2010.06.03 11:33:40.
