data_PCOD9103259
_publ_section_title
;
Structure prediction by ZEFSAII (Michael W. Deem and Ramdas Pophale) SiO2 
 PCOD9103259
Probable space group: P -1
;
_chemical_formula_sum "Si O2"
_cell_formula_units_Z 16
_cell_length_a 8.962969
_cell_length_b 14.715065
_cell_length_c 11.469036
_cell_angle_alpha 119.768168
_cell_angle_beta 127.264415
_cell_angle_gamma 37.778498
_cell_volume 736.992334
_symmetry_space_group_name_H-M "P -1"
_symmetry_group_IT_number 2
_symmetry_cell_setting 'triclinic'
loop_
_space_group_symop_operation_xyz
x,y,z
-x,-y,-z
loop_
_atom_site_type_symbol
_atom_site_label
_atom_site_fract_x
_atom_site_fract_y
_atom_site_fract_z
Si Si1 0.711596 0.617302 0.498452
Si Si2 0.558652 0.855089 0.422497
Si Si3 0.235119 0.654205 0.243717
Si Si4 0.716906 0.527344 0.061744
Si Si5 0.031114 0.595414 0.312513
Si Si6 0.219326 0.058098 0.921468
Si Si7 0.117550 0.724283 0.888222
Si Si8 0.993371 0.954018 0.837201
O O1 0.600110 0.775825 0.512648
O O2 0.500711 0.617855 0.347539
O O3 0.000000 0.500000 0.500000
O O4 0.762032 0.557543 0.614823
O O5 0.818482 0.731750 0.387299
O O6 0.500000 0.000000 0.500000
O O7 0.295060 0.915817 0.272229
O O8 0.252574 0.558719 0.090991
O O9 0.176046 0.621073 0.316322
O O10 0.985921 0.825579 0.201023
O O11 0.403310 0.658457 0.018767
O O12 0.854900 0.583312 0.147268
O O13 0.843885 0.414060 0.159445
O O14 0.102558 0.152949 0.046020
O O15 0.500000 0.000000 0.000000
O O16 0.205252 0.938470 0.855348
O O17 0.054484 0.806295 0.789067
O O18 0.000000 0.000000 0.000000
#
# Coordination Sequence:
#
# PCOD9103259 Si02
#       8
#     2   2   2   2   2   2   2   2
#     4  10  24  44  69  95 130 180 228 271 325 395
#     4  11  25  44  67  95 130 178 228 269 322 400
#     4  11  23  43  68 100 135 169 217 280 338 391
#     4  10  22  39  69 104 129 167 224 282 327 396
#     4  11  24  42  70  95 136 174 219 274 338 391
#     4  10  21  36  61  97 137 169 204 272 340 395
#     4   9  21  34  62  93 134 162 221 259 332 382
#     4  10  20  38  65  94 127 172 219 267 329 392
#
# _framework density 21.709859000000002
#
# number of rings (size 3 to 8) (size 9 to 14) (size 15 to 20)
#    0.000    1.750    1.250    2.250   15.750    1.000 
#    0.000    0.625    0.000    0.000    0.000    0.000 
#    0.000    0.000    0.000    0.000    0.000    0.000 
#
# Total GULP energy -89359.111019 kJ/mol
# GULP energy per Si atom -5584.944439 kJ/mol
# Density = 2.166045 g / cm^3
# Si number density = 21.709859 Si / 1000 Ang^3
#
#
#
# Elastic Constant Matrix: (Units=GPa)
#
#
# Indices 1 2 3 4 5 6 
#
# 1 158.6672 53.3487 36.0311 -22.4685 2.9250 22.2078
# 2 53.3487 87.8470 23.0218 -17.3844 -0.1055 18.7164
# 3 36.0311 23.0218 68.7036 -15.4150 8.9450 4.4225
# 4 -22.4685 -17.3844 -15.4150 36.0881 4.8097 0.7118
# 5 2.9250 -0.1055 8.9450 4.8097 31.9161 -7.9484
# 6 22.2078 18.7164 4.4225 0.7118 -7.9484 33.5299
#
#
#
# Elastic Compliance Matrix: (Units=1/GPa)
#
#
# Indices 1 2 3 4 5 6 
#
# 1 0.009068 -0.003293 -0.002390 0.003359 -0.001759 -0.004341
# 2 -0.003293 0.016520 -0.001875 0.005487 -0.001770 -0.007329
# 3 -0.002390 -0.001875 0.018840 0.006543 -0.006432 -0.001519
# 4 0.003359 0.005487 0.006543 0.036752 -0.009977 -0.009296
# 5 -0.001759 -0.001770 -0.006432 -0.009977 0.037827 0.012180
# 6 -0.004341 -0.007329 -0.001519 -0.009296 0.012180 0.040075
#
#
# Mechanical properties :
#
#
# Convention : Reuss Voigt Hill
#
# Bulk Modulus (GPa) = 34.11633 60.00233 47.05933
# Shear Modulus (GPa) = 27.17817 33.82789 30.50303
#
# Velocity S-wave (km/s) = 3.54203 3.95166 3.75244
# Velocity P-wave (km/s) = 5.69884 6.96557 6.36380
#
# Compressibility (1/GPa) = 0.02931148
#
# Stress axis : x y z
#
# Youngs Moduli (GPa) = 110.27587 60.53241 53.07732
#
# Poissons Ratio (x) = 0.19935 0.12686
# Poissons Ratio (y) = 0.36317 0.09953
# Poissons Ratio (z) = 0.26358 0.11351
#
# Static dielectric constant tensor:
#      x y z
#    x 1.793320 0.052120 -0.017060 
#    y 0.052120 1.832260 0.001630 
#    z -0.017060 0.001630 1.832320 
# 
# From -- ./inp_files/399332.got.cif
#   From: 2010.05.17/outbox.cif.g08.bks.cpg/sg2_200_cif.got.tgz:399332.got - 2010.06.03 11:33:40.
