data_PCOD9103216
_publ_section_title
;
Structure prediction by ZEFSAII (Michael W. Deem and Ramdas Pophale) SiO2 
 PCOD9103216
Probable space group: P -1
;
_chemical_formula_sum "Si O2"
_cell_formula_units_Z 14
_cell_length_a 12.860824
_cell_length_b 13.683491
_cell_length_c 8.468692
_cell_angle_alpha 53.892246
_cell_angle_beta 126.123188
_cell_angle_gamma 148.661880
_cell_volume 612.896443
_symmetry_space_group_name_H-M "P -1"
_symmetry_group_IT_number 2
_symmetry_cell_setting 'triclinic'
loop_
_space_group_symop_operation_xyz
x,y,z
-x,-y,-z
loop_
_atom_site_type_symbol
_atom_site_label
_atom_site_fract_x
_atom_site_fract_y
_atom_site_fract_z
Si Si1 0.191943 0.933387 0.807880
Si Si2 0.112876 0.463144 0.206027
Si Si3 0.488001 0.356737 0.693996
Si Si4 0.681464 0.990981 0.797302
Si Si5 0.538828 0.398118 0.064235
Si Si6 0.403005 0.982983 0.633591
Si Si7 0.182364 0.565043 0.516051
O O1 0.270810 0.129393 0.692041
O O2 0.319402 0.957054 0.756579
O O3 0.205032 0.907411 0.031368
O O4 0.971763 0.723905 0.762154
O O5 0.354463 0.628434 0.244080
O O6 0.084285 0.443252 0.385133
O O7 0.000000 0.500000 0.000000
O O8 0.500000 0.500000 0.500000
O O9 0.560551 0.422905 0.874587
O O10 0.656388 0.832981 0.880671
O O11 0.726033 0.078912 0.581085
O O12 0.459862 0.883588 0.756761
O O13 0.720683 0.466729 0.256236
O O14 0.500000 0.500000 0.000000
O O15 0.623238 0.209943 0.580461
O O16 0.000000 0.500000 0.500000
#
# Coordination Sequence:
#
# PCOD9103216 Si02
#       7
#     2   2   2   2   2   2   2
#     4  11  24  41  68  97 138 177 227 282 341 408
#     4  12  26  41  70 106 135 176 228 282 347 406
#     4  11  25  47  70  94 138 185 226 280 343 408
#     4   9  21  35  61  94 125 171 223 267 338 399
#     4  10  22  41  67  92 130 181 222 271 343 405
#     4  10  20  38  65  92 133 179 217 275 351 397
#     4  11  23  40  63  99 139 171 225 283 337 404
#
# _framework density 22.842357
#
# number of rings (size 3 to 8) (size 9 to 14) (size 15 to 20)
#    0.000    1.429    1.429    3.000   12.000    0.571 
#    0.000    0.000    0.000    3.429    0.000    0.000 
#    0.000    0.000    0.000    0.000    0.000    0.000 
#
# Total GULP energy -78011.040023 kJ/mol
# GULP energy per Si atom -5572.217144 kJ/mol
# Density = 2.279037 g / cm^3
# Si number density = 22.842357 Si / 1000 Ang^3
#
#
#
# Elastic Constant Matrix: (Units=GPa)
#
#
# Indices 1 2 3 4 5 6 
#
# 1 90.1137 29.3185 22.8468 7.8065 -15.1168 -26.1149
# 2 29.3185 108.2116 53.0059 5.5450 -11.0562 -21.8079
# 3 22.8468 53.0059 136.0925 11.8203 -9.6201 -21.1060
# 4 7.8065 5.5450 11.8203 34.4118 -17.9711 -9.1517
# 5 -15.1168 -11.0562 -9.6201 -17.9711 40.4140 6.0459
# 6 -26.1149 -21.8079 -21.1060 -9.1517 6.0459 45.3861
#
#
#
# Elastic Compliance Matrix: (Units=1/GPa)
#
#
# Indices 1 2 3 4 5 6 
#
# 1 0.014436 -0.001957 -0.000402 0.001247 0.004297 0.006858
# 2 -0.001957 0.012501 -0.004070 0.001694 0.002014 0.003061
# 3 -0.000402 -0.004070 0.009450 -0.002142 -0.000237 0.001807
# 4 0.001247 0.001694 -0.002142 0.039908 0.017225 0.006287
# 5 0.004297 0.002014 -0.000237 0.017225 0.034168 0.002252
# 6 0.006858 0.003061 0.001807 0.006287 0.002252 0.029258
#
#
# Mechanical properties :
#
#
# Convention : Reuss Voigt Hill
#
# Bulk Modulus (GPa) = 42.50205 60.52889 51.51547
# Shear Modulus (GPa) = 31.16741 39.32550 35.24645
#
# Velocity S-wave (km/s) = 3.69786 4.15372 3.93240
# Velocity P-wave (km/s) = 6.07284 7.03993 6.57419
#
# Compressibility (1/GPa) = 0.02352828
#
# Stress axis : x y z
#
# Youngs Moduli (GPa) = 69.27098 79.99270 105.81566
#
# Poissons Ratio (x) = 0.15654 0.04256
# Poissons Ratio (y) = 0.13556 0.43072
# Poissons Ratio (z) = 0.02786 0.32561
#
# Static dielectric constant tensor:
#      x y z
#    x 1.586700 -0.013340 -0.050340 
#    y -0.013340 1.920520 -0.054220 
#    z -0.050340 -0.054220 1.882710 
# 
# From -- ./inp_files/262204.got.cif
#   From: 2010.05.17/outbox.cif.g08.bks.cpg/sg2_132_cif.got.tgz:262204.got - 2010.06.03 11:33:40.
