data_PCOD9103515
_publ_section_title
;
Structure prediction by ZEFSAII (Michael W. Deem and Ramdas Pophale) SiO2 
 PCOD9103515
Probable space group: P -1
;
_chemical_formula_sum "Si O2"
_cell_formula_units_Z 16
_cell_length_a 8.666261
_cell_length_b 12.581693
_cell_length_c 8.470184
_cell_angle_alpha 130.563620
_cell_angle_beta 63.693981
_cell_angle_gamma 109.379342
_cell_volume 627.660447
_symmetry_space_group_name_H-M "P -1"
_symmetry_group_IT_number 2
_symmetry_cell_setting 'triclinic'
loop_
_space_group_symop_operation_xyz
x,y,z
-x,-y,-z
loop_
_atom_site_type_symbol
_atom_site_label
_atom_site_fract_x
_atom_site_fract_y
_atom_site_fract_z
Si Si1 0.151571 0.484547 0.034137
Si Si2 0.735280 0.117147 0.136441
Si Si3 0.541243 0.317600 0.925124
Si Si4 0.648562 0.850807 0.753308
Si Si5 0.341887 0.427908 0.403258
Si Si6 0.262496 0.649190 0.423191
Si Si7 0.947851 0.827143 0.179829
Si Si8 0.236948 0.942889 0.385869
O O1 0.156924 0.321490 0.912818
O O2 0.129622 0.575818 0.290485
O O3 0.000000 0.500000 0.000000
O O4 0.067606 0.854603 0.308986
O O5 0.749956 0.191301 0.369292
O O6 0.909070 0.164635 0.012387
O O7 0.683964 0.433684 0.039129
O O8 0.560269 0.170003 0.183828
O O9 0.293946 0.049352 0.030102
O O10 0.387758 0.345081 0.139023
O O11 0.440905 0.645744 0.235438
O O12 0.617577 0.165298 0.755856
O O13 0.728851 0.701442 0.581726
O O14 0.702323 0.945639 0.669943
O O15 0.500000 0.500000 0.500000
O O16 0.249663 0.558209 0.499499
O O17 0.824712 0.955474 0.351879
#
# Coordination Sequence:
#
# PCOD9103515 Si02
#       8
#     2   2   2   2   2   2   2   2
#     4  10  22  40  68  93 131 180 227 273 336 394
#     4  10  20  42  63 100 135 175 222 279 329 408
#     4  10  23  43  64  96 137 177 225 279 340 399
#     4  10  22  38  69  96 138 177 223 269 347 399
#     4  12  23  41  70 101 136 175 223 285 342 406
#     4  10  24  41  67 100 139 172 226 284 339 398
#     4  10  20  38  66  95 132 174 232 272 329 399
#     4  10  21  41  66  98 132 182 226 276 331 410
#
# _framework density 25.491489000000001
#
# number of rings (size 3 to 8) (size 9 to 14) (size 15 to 20)
#    0.750    1.000    2.500    2.625    1.750    0.500 
#    2.250    1.875    0.000    0.000    0.000    0.000 
#    0.000    0.000    0.000    0.000    0.000    0.000 
#
# Total GULP energy -89356.528364 kJ/mol
# GULP energy per Si atom -5584.783023 kJ/mol
# Density = 2.543347 g / cm^3
# Si number density = 25.491489 Si / 1000 Ang^3
#
#
#
# Elastic Constant Matrix: (Units=GPa)
#
#
# Indices 1 2 3 4 5 6 
#
# 1 52.7103 34.2794 26.1674 7.5463 8.5316 -2.6840
# 2 34.2794 153.2586 31.2579 23.6510 3.3100 2.3136
# 3 26.1674 31.2579 133.3426 23.6135 9.1926 8.2672
# 4 7.5463 23.6510 23.6135 40.5361 8.8836 -2.7031
# 5 8.5316 3.3100 9.1926 8.8836 44.1900 -3.0112
# 6 -2.6840 2.3136 8.2672 -2.7031 -3.0112 33.2371
#
#
#
# Elastic Compliance Matrix: (Units=1/GPa)
#
#
# Indices 1 2 3 4 5 6 
#
# 1 0.024638 -0.004926 -0.003897 0.001570 -0.003682 0.003096
# 2 -0.004926 0.008306 -0.000261 -0.004100 0.001130 -0.001142
# 3 -0.003897 -0.000261 0.009376 -0.004690 -0.000443 -0.003050
# 4 0.001570 -0.004100 -0.004690 0.030833 -0.004971 0.003636
# 5 -0.003682 0.001130 -0.000443 -0.004971 0.024453 0.001545
# 6 0.003096 -0.001142 -0.003050 0.003636 0.001545 0.031611
#
#
# Mechanical properties :
#
#
# Convention : Reuss Voigt Hill
#
# Bulk Modulus (GPa) = 41.40395 58.08009 49.74202
# Shear Modulus (GPa) = 32.16796 40.09976 36.13386
#
# Velocity S-wave (km/s) = 3.55619 3.97049 3.76904
# Velocity P-wave (km/s) = 5.75669 6.62218 6.20455
#
# Compressibility (1/GPa) = 0.02415229
#
# Stress axis : x y z
#
# Youngs Moduli (GPa) = 40.58744 120.40111 106.65959
#
# Poissons Ratio (x) = 0.59306 0.41561
# Poissons Ratio (y) = 0.19992 0.02787
# Poissons Ratio (z) = 0.15815 0.03146
#
# Static dielectric constant tensor:
#      x y z
#    x 2.034700 -0.024820 -0.030010 
#    y -0.024820 2.085300 -0.057940 
#    z -0.030010 -0.057940 2.073910 
# 
# From -- ./inp_files/331345.got.cif
#   From: 2010.05.17/outbox.cif.g08.bks.cpg/sg2_166_cif.got.tgz:331345.got - 2010.06.03 11:33:40.
