data_PCOD9103517
_publ_section_title
;
Structure prediction by ZEFSAII (Michael W. Deem and Ramdas Pophale) SiO2 
 PCOD9103517
Probable space group: P -1
;
_chemical_formula_sum "Si O2"
_cell_formula_units_Z 16
_cell_length_a 9.531566
_cell_length_b 5.446003
_cell_length_c 18.525189
_cell_angle_alpha 82.398954
_cell_angle_beta 47.698456
_cell_angle_gamma 79.434611
_cell_volume 699.118752
_symmetry_space_group_name_H-M "P -1"
_symmetry_group_IT_number 2
_symmetry_cell_setting 'triclinic'
loop_
_space_group_symop_operation_xyz
x,y,z
-x,-y,-z
loop_
_atom_site_type_symbol
_atom_site_label
_atom_site_fract_x
_atom_site_fract_y
_atom_site_fract_z
Si Si1 0.792113 0.808659 0.082081
Si Si2 0.978957 0.609243 0.888074
Si Si3 0.273782 0.143154 0.643111
Si Si4 0.251405 0.672281 0.573663
Si Si5 0.654839 0.157191 0.236318
Si Si6 0.399141 0.578834 0.246322
Si Si7 0.896719 0.482774 0.767434
Si Si8 0.124518 0.732863 0.457267
O O1 0.597543 0.683012 0.158398
O O2 0.954257 0.641862 0.079745
O O3 0.738956 0.064610 0.133201
O O4 0.864648 0.801601 0.975650
O O5 0.865699 0.565010 0.857241
O O6 0.181284 0.696847 0.791515
O O7 0.340876 0.399565 0.582199
O O8 0.044372 0.224973 0.727954
O O9 0.309437 0.913572 0.584540
O O10 0.359506 0.064364 0.694439
O O11 0.250741 0.683757 0.487514
O O12 0.026745 0.663877 0.673922
O O13 0.459893 0.329272 0.281868
O O14 0.291204 0.533492 0.212199
O O15 0.253135 0.747336 0.341331
O O16 0.000000 0.500000 0.500000
O O17 0.000000 0.000000 0.500000
#
# Coordination Sequence:
#
# PCOD9103517 Si02
#       8
#     2   2   2   2   2   2   2   2
#     4  10  22  40  63  99 134 175 225 282 340 401
#     4  10  20  40  69  91 130 187 231 261 339 422
#     4  10  20  39  69  92 130 176 226 271 334 400
#     4  10  20  38  66  96 121 172 233 270 316 409
#     4  11  21  41  65  95 137 179 223 282 341 399
#     4  11  26  40  64 102 137 169 224 296 339 391
#     4  10  20  39  65  94 129 176 227 273 329 404
#     4  12  24  44  69  98 138 184 224 272 349 418
#
# _framework density 22.885957000000001
#
# number of rings (size 3 to 8) (size 9 to 14) (size 15 to 20)
#    0.750    0.750    3.750    1.875    3.500    1.500 
#    0.000    1.875    0.000    0.000    0.000    0.000 
#    0.000    0.000    0.000    0.000    0.000    0.000 
#
# Total GULP energy -89479.427332 kJ/mol
# GULP energy per Si atom -5592.464208 kJ/mol
# Density = 2.283387 g / cm^3
# Si number density = 22.885957 Si / 1000 Ang^3
#
#
#
# Elastic Constant Matrix: (Units=GPa)
#
#
# Indices 1 2 3 4 5 6 
#
# 1 157.9589 44.6882 61.7133 0.4066 21.0258 -2.4793
# 2 44.6882 111.7220 23.9355 13.9620 1.2967 0.6779
# 3 61.7133 23.9355 81.4112 5.6029 19.3766 14.0462
# 4 0.4066 13.9620 5.6029 35.9791 5.9050 2.9077
# 5 21.0258 1.2967 19.3766 5.9050 39.1818 2.1098
# 6 -2.4793 0.6779 14.0462 2.9077 2.1098 32.1259
#
#
#
# Elastic Compliance Matrix: (Units=1/GPa)
#
#
# Indices 1 2 3 4 5 6 
#
# 1 0.010362 -0.002855 -0.007284 0.002197 -0.002411 0.004004
# 2 -0.002855 0.010916 -0.001407 -0.004430 0.002513 0.000401
# 3 -0.007284 -0.001407 0.021315 -0.000959 -0.005936 -0.009375
# 4 0.002197 -0.004430 -0.000959 0.030613 -0.005077 -0.001755
# 5 -0.002411 0.002513 -0.005936 -0.005077 0.030389 0.000820
# 6 0.004004 0.000401 -0.009375 -0.001755 0.000820 0.035632
#
#
# Mechanical properties :
#
#
# Convention : Reuss Voigt Hill
#
# Bulk Modulus (GPa) = 51.28059 67.97402 59.62730
# Shear Modulus (GPa) = 29.61706 36.17435 32.89570
#
# Velocity S-wave (km/s) = 3.60128 3.98003 3.79539
# Velocity P-wave (km/s) = 6.30460 7.13348 6.73181
#
# Compressibility (1/GPa) = 0.01950056
#
# Stress axis : x y z
#
# Youngs Moduli (GPa) = 96.50237 91.60540 46.91501
#
# Poissons Ratio (x) = 0.26156 0.34173
# Poissons Ratio (y) = 0.27554 0.06603
# Poissons Ratio (z) = 0.70292 0.12893
#
# Static dielectric constant tensor:
#      x y z
#    x 1.820530 0.016290 -0.035320 
#    y 0.016290 1.901470 -0.007490 
#    z -0.035320 -0.007490 1.876040 
# 
# From -- ./inp_files/39281.got.cif
#   From: 2010.05.17/outbox.cif.g08.bks.cpg/sg2_20_cif.got.tgz:39281.got - 2010.06.03 11:33:40.
