data_PCOD9103547
_publ_section_title
;
Structure prediction by ZEFSAII (Michael W. Deem and Ramdas Pophale) SiO2 
 PCOD9103547
Probable space group: P -1
;
_chemical_formula_sum "Si O2"
_cell_formula_units_Z 12
_cell_length_a 8.779377
_cell_length_b 11.177396
_cell_length_c 6.469408
_cell_angle_alpha 54.508400
_cell_angle_beta 89.878726
_cell_angle_gamma 68.573420
_cell_volume 462.334777
_symmetry_space_group_name_H-M "P -1"
_symmetry_group_IT_number 2
_symmetry_cell_setting 'triclinic'
loop_
_space_group_symop_operation_xyz
x,y,z
-x,-y,-z
loop_
_atom_site_type_symbol
_atom_site_label
_atom_site_fract_x
_atom_site_fract_y
_atom_site_fract_z
Si Si1 0.573868 0.139469 0.526737
Si Si2 0.459903 0.398179 0.924826
Si Si3 0.015884 0.635848 0.138706
Si Si4 0.270545 0.681400 0.367747
Si Si5 0.779176 0.746604 0.376466
Si Si6 0.898942 0.892341 0.564492
O O1 0.690511 0.204474 0.590198
O O2 0.420199 0.167012 0.654205
O O3 0.717617 0.973064 0.600898
O O4 0.481102 0.244559 0.215905
O O5 0.298713 0.526719 0.669365
O O6 0.597657 0.351911 0.787939
O O7 0.500000 0.500000 0.000000
O O8 0.103830 0.718943 0.202755
O O9 0.128594 0.439531 0.341298
O O10 0.832734 0.704816 0.180763
O O11 0.006172 0.712749 0.839992
O O12 0.853143 0.863041 0.363187
O O13 0.000000 0.000000 0.500000
#
# Coordination Sequence:
#
# PCOD9103547 Si02
#       6
#     2   2   2   2   2   2
#     4  11  24  41  68 102 135 176 222 279 342 399
#     4   9  18  34  61  96 132 170 221 272 322 391
#     4  11  25  46  71 100 137 179 227 279 335 403
#     4  10  20  38  66  98 131 175 226 274 330 397
#     4  11  26  46  68  99 136 182 230 276 332 399
#     4  12  27  46  70 101 139 180 223 279 344 404
#
# _framework density 25.955219
#
# number of rings (size 3 to 8) (size 9 to 14) (size 15 to 20)
#    0.000    1.333    0.000    6.000    0.000   12.667 
#    0.000    0.000    0.000    0.000    0.000    0.000 
#    0.000    0.000    0.000    0.000    0.000    0.000 
#
# Total GULP energy -67035.518126 kJ/mol
# GULP energy per Si atom -5586.293177 kJ/mol
# Density = 2.589614 g / cm^3
# Si number density = 25.955219 Si / 1000 Ang^3
#
#
#
# Elastic Constant Matrix: (Units=GPa)
#
#
# Indices 1 2 3 4 5 6 
#
# 1 91.5280 46.9384 -5.9031 17.5897 -7.0531 7.7542
# 2 46.9384 117.7738 -6.9817 27.2607 -9.3827 0.3378
# 3 -5.9031 -6.9817 71.6972 8.9040 -1.1775 2.7415
# 4 17.5897 27.2607 8.9040 29.9536 7.0117 0.5199
# 5 -7.0531 -9.3827 -1.1775 7.0117 21.8223 8.1067
# 6 7.7542 0.3378 2.7415 0.5199 8.1067 61.4521
#
#
#
# Elastic Compliance Matrix: (Units=1/GPa)
#
#
# Indices 1 2 3 4 5 6 
#
# 1 0.015187 -0.003499 0.002129 -0.007992 0.007152 -0.002868
# 2 -0.003499 0.014096 0.003021 -0.013983 0.009944 -0.000964
# 3 0.002129 0.003021 0.015875 -0.010284 0.006819 -0.001806
# 4 -0.007992 -0.013983 -0.010284 0.060939 -0.030613 0.005067
# 5 0.007152 0.009944 0.006819 -0.030613 0.066234 -0.009740
# 6 -0.002868 -0.000964 -0.001806 0.005067 -0.009740 0.017963
#
#
# Mechanical properties :
#
#
# Convention : Reuss Voigt Hill
#
# Bulk Modulus (GPa) = 20.63455 38.78957 29.71206
# Shear Modulus (GPa) = 24.61295 39.10864 31.86080
#
# Velocity S-wave (km/s) = 3.08277 3.88593 3.50741
# Velocity P-wave (km/s) = 4.54297 5.92547 5.27967
#
# Compressibility (1/GPa) = 0.04846241
#
# Stress axis : x y z
#
# Youngs Moduli (GPa) = 65.84500 70.94179 62.99093
#
# Poissons Ratio (x) = 0.24821 -0.13413
# Poissons Ratio (y) = 0.23038 -0.19032
# Poissons Ratio (z) = -0.14021 -0.21434
#
# Static dielectric constant tensor:
#      x y z
#    x 2.086270 -0.012630 -0.025230 
#    y -0.012630 2.030400 -0.027730 
#    z -0.025230 -0.027730 2.057630 
# 
# From -- ./inp_files/20997.got.cif
#   From: 2010.05.17/outbox.cif.g08.bks.cpg/sg2_11_cif.got.tgz:20997.got - 2010.06.03 11:33:40.
