data_PCOD9103542
_publ_section_title
;
Structure prediction by ZEFSAII (Michael W. Deem and Ramdas Pophale) SiO2 
 PCOD9103542
Probable space group: P -1
;
_chemical_formula_sum "Si O2"
_cell_formula_units_Z 16
_cell_length_a 20.348689
_cell_length_b 21.655916
_cell_length_c 9.012960
_cell_angle_alpha 145.147362
_cell_angle_beta 31.183037
_cell_angle_gamma 159.045396
_cell_volume 730.386686
_symmetry_space_group_name_H-M "P -1"
_symmetry_group_IT_number 2
_symmetry_cell_setting 'triclinic'
loop_
_space_group_symop_operation_xyz
x,y,z
-x,-y,-z
loop_
_atom_site_type_symbol
_atom_site_label
_atom_site_fract_x
_atom_site_fract_y
_atom_site_fract_z
Si Si1 0.879393 0.873309 0.188630
Si Si2 0.680228 0.764976 0.076742
Si Si3 0.676740 0.182417 0.818293
Si Si4 0.041258 0.229569 0.898756
Si Si5 0.643791 0.886770 0.873975
Si Si6 0.586881 0.202908 0.357495
Si Si7 0.919024 0.521633 0.567984
Si Si8 0.618783 0.666991 0.694470
O O1 0.733376 0.737893 0.070000
O O2 0.934520 0.819746 0.094270
O O3 0.755747 0.886266 0.534789
O O4 0.096722 0.055020 0.062806
O O5 0.556596 0.791930 0.397652
O O6 0.568806 0.632091 0.894627
O O7 0.895523 0.320976 0.589816
O O8 0.553204 0.987183 0.682270
O O9 0.543437 0.177338 0.967111
O O10 0.689705 0.231180 0.060713
O O11 0.152385 0.226480 0.559742
O O12 0.807835 0.081658 0.005476
O O13 0.144631 0.412577 0.091512
O O14 0.599751 0.772809 0.867756
O O15 0.748178 0.350484 0.459999
O O16 0.000000 0.500000 0.500000
O O17 0.500000 0.500000 0.500000
#
# Coordination Sequence:
#
# PCOD9103542 Si02
#       8
#     2   2   2   2   2   2   2   2
#     4  10  20  38  66  98 128 172 224 275 335 409
#     4  11  20  39  68 100 130 170 224 278 337 404
#     4  11  26  46  73  98 136 188 228 281 350 393
#     4  11  22  43  63  94 134 174 216 279 338 400
#     4  11  21  43  65  94 134 176 224 275 340 410
#     4  11  25  48  70  99 139 181 230 285 337 413
#     4  12  28  46  70 103 136 178 239 283 337 406
#     4  11  23  38  62  95 136 169 212 277 339 399
#
# _framework density 21.906203999999999
#
# number of rings (size 3 to 8) (size 9 to 14) (size 15 to 20)
#    0.000    1.000    3.750    3.375    3.500    1.000 
#    2.250    1.875    0.000    0.000    0.000    0.000 
#    0.000    0.000    0.000    0.000    0.000    0.000 
#
# Total GULP energy -89451.829489 kJ/mol
# GULP energy per Si atom -5590.739343 kJ/mol
# Density = 2.185634 g / cm^3
# Si number density = 21.906204 Si / 1000 Ang^3
#
#
#
# Elastic Constant Matrix: (Units=GPa)
#
#
# Indices 1 2 3 4 5 6 
#
# 1 73.6252 22.3961 32.1353 11.0735 11.5593 16.1315
# 2 22.3961 82.8748 18.0588 11.3907 11.9088 6.0077
# 3 32.1353 18.0588 59.9105 9.3591 7.5072 -1.8311
# 4 11.0735 11.3907 9.3591 40.2400 6.8153 11.0066
# 5 11.5593 11.9088 7.5072 6.8153 32.6799 1.3170
# 6 16.1315 6.0077 -1.8311 11.0066 1.3170 36.2670
#
#
#
# Elastic Compliance Matrix: (Units=1/GPa)
#
#
# Indices 1 2 3 4 5 6 
#
# 1 0.021725 -0.002286 -0.010844 0.000579 -0.004084 -0.009860
# 2 -0.002286 0.013987 -0.002274 -0.002057 -0.003310 -0.000670
# 3 -0.010844 -0.002274 0.024097 -0.004010 -0.000343 0.007646
# 4 0.000579 -0.002057 -0.004010 0.029362 -0.004300 -0.008874
# 5 -0.004084 -0.003310 -0.000343 -0.004300 0.034129 0.002413
# 6 -0.009860 -0.000670 0.007646 -0.008874 0.002413 0.035062
#
#
# Mechanical properties :
#
#
# Convention : Reuss Voigt Hill
#
# Bulk Modulus (GPa) = 34.48286 40.17678 37.32982
# Shear Modulus (GPa) = 25.14626 31.42539 28.28582
#
# Velocity S-wave (km/s) = 3.39175 3.79164 3.59726
# Velocity P-wave (km/s) = 5.57799 6.12772 5.85930
#
# Compressibility (1/GPa) = 0.02899992
#
# Stress axis : x y z
#
# Youngs Moduli (GPa) = 46.02940 71.49655 41.49915
#
# Poissons Ratio (x) = 0.16345 0.45003
# Poissons Ratio (y) = 0.10523 0.09438
# Poissons Ratio (z) = 0.49915 0.16259
#
# Static dielectric constant tensor:
#      x y z
#    x 1.776980 0.024470 0.009800 
#    y 0.024470 1.864490 -0.035050 
#    z 0.009800 -0.035050 1.825730 
# 
# From -- ./inp_files/320733.got.cif
#   From: 2010.05.17/outbox.cif.g08.bks.cpg/sg2_161_cif.got.tgz:320733.got - 2010.06.03 11:33:40.
