data_PCOD9103513
_publ_section_title
;
Structure prediction by ZEFSAII (Michael W. Deem and Ramdas Pophale) SiO2 
 PCOD9103513
Probable space group: P -1
;
_chemical_formula_sum "Si O2"
_cell_formula_units_Z 10
_cell_length_a 5.305437
_cell_length_b 14.173107
_cell_length_c 11.082404
_cell_angle_alpha 28.943561
_cell_angle_beta 89.245883
_cell_angle_gamma 86.506848
_cell_volume 401.148506
_symmetry_space_group_name_H-M "P -1"
_symmetry_group_IT_number 2
_symmetry_cell_setting 'triclinic'
loop_
_space_group_symop_operation_xyz
x,y,z
-x,-y,-z
loop_
_atom_site_type_symbol
_atom_site_label
_atom_site_fract_x
_atom_site_fract_y
_atom_site_fract_z
Si Si1 0.817259 0.027248 0.357009
Si Si2 0.045633 0.317995 0.854832
Si Si3 0.203638 0.706029 0.505643
Si Si4 0.722208 0.701619 0.369111
Si Si5 0.461804 0.728926 0.721830
O O1 0.593704 0.173253 0.257149
O O2 0.700506 0.825679 0.558283
O O3 0.000000 0.000000 0.500000
O O4 0.938396 0.145925 0.119770
O O5 0.178813 0.471000 0.766155
O O6 0.236025 0.242560 0.831787
O O7 0.811763 0.465305 0.636790
O O8 0.447465 0.743159 0.381918
O O9 0.254313 0.766160 0.574718
O O10 0.944168 0.786963 0.350268
O O11 0.500000 0.500000 0.000000
#
# Coordination Sequence:
#
# PCOD9103513 Si02
#       5
#     2   2   2   2   2
#     4  11  25  43  65 103 133 177 225 285 334 400
#     4   9  20  37  65  94 137 170 223 275 332 400
#     4  10  20  38  66  95 127 175 223 268 333 397
#     4   9  20  37  68  98 127 180 219 271 338 395
#     4  11  25  43  68  96 138 179 228 276 341 401
#
# _framework density 24.928422000000001
#
# number of rings (size 3 to 8) (size 9 to 14) (size 15 to 20)
#    1.200    0.800    0.000    3.000    2.800    3.200 
#    0.000    2.000    0.000    0.000    0.000    0.000 
#    0.000    0.000    0.000    0.000    0.000    0.000 
#
# Total GULP energy -55918.648375 kJ/mol
# GULP energy per Si atom -5591.864837 kJ/mol
# Density = 2.487168 g / cm^3
# Si number density = 24.928422 Si / 1000 Ang^3
#
#
#
# Elastic Constant Matrix: (Units=GPa)
#
#
# Indices 1 2 3 4 5 6 
#
# 1 97.4473 18.8234 45.1001 -2.1320 -40.3778 4.4785
# 2 18.8234 109.1395 56.4343 9.6479 -30.4249 2.3961
# 3 45.1001 56.4343 179.8117 20.3122 -48.5683 -8.3176
# 4 -2.1320 9.6479 20.3122 33.4605 -1.2076 -9.9768
# 5 -40.3778 -30.4249 -48.5683 -1.2076 37.3151 -2.3016
# 6 4.4785 2.3961 -8.3176 -9.9768 -2.3016 46.1896
#
#
#
# Elastic Compliance Matrix: (Units=1/GPa)
#
#
# Indices 1 2 3 4 5 6 
#
# 1 0.019563 0.003076 0.000641 0.000684 0.024498 -0.000573
# 2 0.003076 0.012921 -0.001362 -0.002626 0.011933 -0.001186
# 3 0.000641 -0.001362 0.009686 -0.004603 0.012126 0.001363
# 4 0.000684 -0.002626 -0.004603 0.035225 -0.005847 0.006558
# 5 0.024498 0.011933 0.012126 -0.005847 0.078745 0.001850
# 6 -0.000573 -0.001186 0.001363 0.006558 0.001850 0.023521
#
#
# Mechanical properties :
#
#
# Convention : Reuss Voigt Hill
#
# Bulk Modulus (GPa) = 21.33063 69.67935 45.50499
# Shear Modulus (GPa) = 26.23595 41.12907 33.68251
#
# Velocity S-wave (km/s) = 3.24767 4.06629 3.67981
# Velocity P-wave (km/s) = 4.75799 7.07522 6.02898
#
# Compressibility (1/GPa) = 0.04688095
#
# Stress axis : x y z
#
# Youngs Moduli (GPa) = 51.11597 77.39348 103.23970
#
# Poissons Ratio (x) = -0.23805 -0.06620
# Poissons Ratio (y) = -0.15723 0.14060
# Poissons Ratio (z) = -0.03278 0.10540
#
# Static dielectric constant tensor:
#      x y z
#    x 2.123150 -0.105160 0.054320 
#    y -0.105160 2.047350 -0.042840 
#    z 0.054320 -0.042840 1.906670 
# 
# From -- ./inp_files/41885.got.cif
#   From: 2010.05.17/outbox.cif.g08.bks.cpg/sg2_21_cif.got.tgz:41885.got - 2010.06.03 11:33:40.
