data_PCOD9103983
_publ_section_title
;
Structure prediction by ZEFSAII (Michael W. Deem and Ramdas Pophale) SiO2 
 PCOD9103983
Probable space group: P -1
;
_chemical_formula_sum "Si O2"
_cell_formula_units_Z 12
_cell_length_a 7.666170
_cell_length_b 10.201852
_cell_length_c 11.490342
_cell_angle_alpha 58.596279
_cell_angle_beta 127.766165
_cell_angle_gamma 81.300720
_cell_volume 434.707600
_symmetry_space_group_name_H-M "P -1"
_symmetry_group_IT_number 2
_symmetry_cell_setting 'triclinic'
loop_
_space_group_symop_operation_xyz
x,y,z
-x,-y,-z
loop_
_atom_site_type_symbol
_atom_site_label
_atom_site_fract_x
_atom_site_fract_y
_atom_site_fract_z
Si Si1 0.235180 0.187638 0.426850
Si Si2 0.562208 0.232326 0.364514
Si Si3 0.333999 0.377153 0.949046
Si Si4 0.871166 0.859749 0.977659
Si Si5 0.592194 0.131000 0.946829
Si Si6 0.538875 0.522552 0.370113
O O1 0.280032 0.289413 0.294356
O O2 0.935411 0.369366 0.294783
O O3 0.226876 0.018710 0.454405
O O4 0.555973 0.045284 0.694481
O O5 0.683392 0.314151 0.453238
O O6 0.467942 0.336895 0.150802
O O7 0.584481 0.224715 0.022765
O O8 0.157830 0.300422 0.917240
O O9 0.866133 0.966314 0.042365
O O10 0.178885 0.710041 0.097425
O O11 0.355969 0.356174 0.672522
O O12 0.500000 0.000000 0.000000
O O13 0.500000 0.500000 0.500000
#
# Coordination Sequence:
#
# PCOD9103983 Si02
#       6
#     2   2   2   2   2   2
#     4  10  20  38  71 100 132 176 221 276 334 400
#     4  10  22  37  67 101 131 177 226 272 330 404
#     4  10  21  42  67  99 136 175 217 278 340 402
#     4  10  22  42  69  98 129 178 232 270 329 402
#     4  10  24  45  67  98 139 180 220 279 342 401
#     4  12  25  45  69  99 135 178 232 283 326 399
#
# _framework density 27.604761
#
# number of rings (size 3 to 8) (size 9 to 14) (size 15 to 20)
#    0.000    1.667    1.667    2.000    4.667    2.667 
#    9.000    0.833    0.000    0.000    0.000    0.000 
#    0.000    0.000    0.000    0.000    0.000    0.000 
#
# Total GULP energy -67118.842875 kJ/mol
# GULP energy per Si atom -5593.236906 kJ/mol
# Density = 2.754193 g / cm^3
# Si number density = 27.604761 Si / 1000 Ang^3
#
#
#
# Elastic Constant Matrix: (Units=GPa)
#
#
# Indices 1 2 3 4 5 6 
#
# 1 111.7260 31.5712 48.6563 -3.8724 -6.0545 -16.9841
# 2 31.5712 220.6285 75.7685 -17.7449 -9.1930 -23.3942
# 3 48.6563 75.7685 124.7724 0.2620 -11.3440 -3.8548
# 4 -3.8724 -17.7449 0.2620 30.5062 -5.1897 -6.4504
# 5 -6.0545 -9.1930 -11.3440 -5.1897 41.6466 -9.9918
# 6 -16.9841 -23.3942 -3.8548 -6.4504 -9.9918 45.7064
#
#
#
# Elastic Compliance Matrix: (Units=1/GPa)
#
#
# Indices 1 2 3 4 5 6 
#
# 1 0.011885 0.000938 -0.004822 0.003676 0.002407 0.005535
# 2 0.000938 0.006904 -0.004205 0.005598 0.002373 0.004837
# 3 -0.004822 -0.004205 0.012397 -0.003787 0.000477 -0.003329
# 4 0.003676 0.005598 -0.003787 0.040414 0.008528 0.011479
# 5 0.002407 0.002373 0.000477 0.008528 0.028370 0.009555
# 6 0.005535 0.004837 -0.003329 0.011479 0.009555 0.029839
#
#
# Mechanical properties :
#
#
# Convention : Reuss Voigt Hill
#
# Bulk Modulus (GPa) = 66.63176 85.45767 76.04472
# Shear Modulus (GPa) = 33.11491 43.64722 38.38106
#
# Velocity S-wave (km/s) = 3.46729 3.98068 3.73282
# Velocity P-wave (km/s) = 6.34190 7.22167 6.79604
#
# Compressibility (1/GPa) = 0.01500786
#
# Stress axis : x y z
#
# Youngs Moduli (GPa) = 84.14279 144.83726 80.66444
#
# Poissons Ratio (x) = -0.13588 0.38897
# Poissons Ratio (y) = -0.07894 0.33920
# Poissons Ratio (z) = 0.40574 0.60905
#
# Static dielectric constant tensor:
#      x y z
#    x 2.231080 0.069390 -0.075800 
#    y 0.069390 2.144300 0.023700 
#    z -0.075800 0.023700 2.193170 
# 
# From -- ./inp_files/384425.got.cif
#   From: 2010.05.17/outbox.cif.g08.bks.cpg/sg2_193_cif.got.tgz:384425.got - 2010.06.03 11:33:40.
