data_PCOD9103687
_publ_section_title
;
Structure prediction by ZEFSAII (Michael W. Deem and Ramdas Pophale) SiO2 
 PCOD9103687
Probable space group: P -1
;
_chemical_formula_sum "Si O2"
_cell_formula_units_Z 14
_cell_length_a 23.675861
_cell_length_b 17.712415
_cell_length_c 8.971852
_cell_angle_alpha 153.638724
_cell_angle_beta 35.538581
_cell_angle_gamma 159.690079
_cell_volume 571.179304
_symmetry_space_group_name_H-M "P -1"
_symmetry_group_IT_number 2
_symmetry_cell_setting 'triclinic'
loop_
_space_group_symop_operation_xyz
x,y,z
-x,-y,-z
loop_
_atom_site_type_symbol
_atom_site_label
_atom_site_fract_x
_atom_site_fract_y
_atom_site_fract_z
Si Si1 0.122556 0.610900 0.296117
Si Si2 0.032434 0.725510 0.248404
Si Si3 0.683660 0.701014 0.480674
Si Si4 0.666278 0.333945 0.685835
Si Si5 0.526940 0.809657 0.417585
Si Si6 0.961378 0.165795 0.259265
Si Si7 0.685273 0.664840 0.751919
O O1 0.138221 0.801325 0.497591
O O2 0.000000 0.500000 0.500000
O O3 0.311877 0.846294 0.348789
O O4 0.066790 0.397083 0.911682
O O5 0.029898 0.856948 0.623011
O O6 0.214560 0.000647 0.279914
O O7 0.000000 0.500000 0.000000
O O8 0.500000 0.500000 0.500000
O O9 0.735530 0.733830 0.595222
O O10 0.694804 0.544296 0.089377
O O11 0.621857 0.328132 0.604015
O O12 0.849738 0.516489 0.624408
O O13 0.500000 0.000000 0.500000
O O14 0.447667 0.663930 0.491909
O O15 0.586177 0.705864 0.051509
O O16 0.848998 0.891032 0.905848
#
# Coordination Sequence:
#
# PCOD9103687 Si02
#       7
#     2   2   2   2   2   2   2
#     4  10  20  38  67  96 133 181 237 279 338 412
#     4  10  23  40  69 102 135 181 234 284 343 422
#     4  12  26  42  72 103 138 182 243 289 346 424
#     4  12  27  44  68 104 149 183 229 295 361 411
#     4  10  21  40  66  98 135 187 229 285 348 411
#     4  10  23  41  64  95 141 180 223 282 359 405
#     4  10  22  42  70  97 135 179 245 287 339 422
#
# _framework density 24.510691000000001
#
# number of rings (size 3 to 8) (size 9 to 14) (size 15 to 20)
#    0.000    1.429    1.429    3.429   10.000    2.857 
#    0.000    4.286    0.000    0.000    0.000    0.000 
#    0.000    0.000    0.000    0.000    0.000    0.000 
#
# Total GULP energy -78015.952404 kJ/mol
# GULP energy per Si atom -5572.568029 kJ/mol
# Density = 2.445490 g / cm^3
# Si number density = 24.510691 Si / 1000 Ang^3
#
#
#
# Elastic Constant Matrix: (Units=GPa)
#
#
# Indices 1 2 3 4 5 6 
#
# 1 107.3998 41.7520 24.2231 13.5477 28.0450 -4.8097
# 2 41.7520 129.9594 24.8799 48.8572 18.3692 -14.7066
# 3 24.2231 24.8799 57.7307 13.8832 27.6746 -10.3633
# 4 13.5477 48.8572 13.8832 31.9776 1.1701 -1.2115
# 5 28.0450 18.3692 27.6746 1.1701 38.9171 1.3715
# 6 -4.8097 -14.7066 -10.3633 -1.2115 1.3715 54.3646
#
#
#
# Elastic Compliance Matrix: (Units=1/GPa)
#
#
# Indices 1 2 3 4 5 6 
#
# 1 0.012469 -0.002210 0.000036 -0.001606 -0.007944 0.000677
# 2 -0.002210 0.024651 0.008412 -0.039539 -0.015103 0.007576
# 3 0.000036 0.008412 0.035646 -0.026939 -0.028859 0.009202
# 4 -0.001606 -0.039539 -0.026939 0.102172 0.036420 -0.014615
# 5 -0.007944 -0.015103 -0.028859 0.036420 0.058362 -0.010951
# 6 0.000677 0.007576 0.009202 -0.014615 -0.010951 0.022208
#
#
# Mechanical properties :
#
#
# Convention : Reuss Voigt Hill
#
# Bulk Modulus (GPa) = 11.73110 52.97775 32.35442
# Shear Modulus (GPa) = 18.41992 38.66752 28.54372
#
# Velocity S-wave (km/s) = 2.74433 3.97618 3.41624
# Velocity P-wave (km/s) = 3.85206 6.53767 5.36560
#
# Compressibility (1/GPa) = 0.08524352
#
# Stress axis : x y z
#
# Youngs Moduli (GPa) = 80.19787 40.56680 28.05379
#
# Poissons Ratio (x) = 0.08964 -0.00102
# Poissons Ratio (y) = 0.17721 -0.23599
# Poissons Ratio (z) = -0.00292 -0.34125
#
# Static dielectric constant tensor:
#      x y z
#    x 1.944160 -0.063390 0.054670 
#    y -0.063390 1.919200 0.028010 
#    z 0.054670 0.028010 2.044200 
# 
# From -- ./inp_files/216322.got.cif
#   From: 2010.05.17/outbox.cif.g08.bks.cpg/sg2_109_cif.got.tgz:216322.got - 2010.06.03 11:33:40.
