data_PCOD9103372
_publ_section_title
;
Structure prediction by ZEFSAII (Michael W. Deem and Ramdas Pophale) SiO2 
 PCOD9103372
Probable space group: P -1
;
_chemical_formula_sum "Si O2"
_cell_formula_units_Z 15
_cell_length_a 9.538597
_cell_length_b 5.072288
_cell_length_c 14.737418
_cell_angle_alpha 93.631664
_cell_angle_beta 71.470860
_cell_angle_gamma 110.447007
_cell_volume 632.563074
_symmetry_space_group_name_H-M "P -1"
_symmetry_group_IT_number 2
_symmetry_cell_setting 'triclinic'
loop_
_space_group_symop_operation_xyz
x,y,z
-x,-y,-z
loop_
_atom_site_type_symbol
_atom_site_label
_atom_site_fract_x
_atom_site_fract_y
_atom_site_fract_z
Si Si1 0.856941 0.472166 0.935760
Si Si2 0.911673 0.751677 0.213438
Si Si3 0.736230 0.719855 0.530351
Si Si4 0.500000 0.000000 0.500000
Si Si5 0.782692 0.949327 0.074950
Si Si6 0.243285 0.669587 0.623376
Si Si7 0.537355 0.262528 0.930421
Si Si8 0.973404 0.875006 0.639825
O O1 0.723343 0.376829 0.882839
O O2 0.009035 0.444470 0.857594
O O3 0.843280 0.749965 0.991237
O O4 0.180705 0.760550 0.980829
O O5 0.856127 0.928807 0.155676
O O6 0.771606 0.540257 0.297028
O O7 0.032840 0.968843 0.261949
O O8 0.677592 0.408133 0.487637
O O9 0.811866 0.739603 0.615050
O O10 0.605487 0.857093 0.543844
O O11 0.894716 0.888637 0.443028
O O12 0.630942 0.021760 0.389510
O O13 0.593165 0.823176 0.121649
O O14 0.068847 0.665017 0.636492
O O15 0.500000 0.500000 0.000000
O O16 0.500000 0.000000 0.000000
#
# Coordination Sequence:
#
# PCOD9103372 Si02
#       8
#     2   2   2   1   2   2   2   2
#     4  10  21  37  61  86 121 170 207 252 310 366
#     4  11  23  35  56  92 123 151 206 253 302 354
#     4   9  18  38  62  86 112 157 193 240 313 369
#     4  10  20  38  66  84 120 152 206 238 314 374
#     4  10  21  37  62  85 123 169 206 252 308 365
#     4  10  21  37  60  89 119 158 198 252 299 375
#     4   8  16  34  56  82 109 159 211 244 298 365
#     4   9  20  36  58  86 119 152 194 251 299 371
#
# _framework density 23.713052999999999
#
# number of rings (size 3 to 8) (size 9 to 14) (size 15 to 20)
#    0.000    2.400    0.000    1.600    3.733    1.067 
#    0.000    5.333    2.933    0.000    0.000    0.000 
#    0.000    0.000    0.000    0.000    0.000    0.000 
#
# Total GULP energy -83512.211777 kJ/mol
# GULP energy per Si atom -5567.480785 kJ/mol
# Density = 2.365908 g / cm^3
# Si number density = 23.713053 Si / 1000 Ang^3
#
#
#
# Elastic Constant Matrix: (Units=GPa)
#
#
# Indices 1 2 3 4 5 6 
#
# 1 160.0901 32.4064 49.7497 11.9357 17.1960 -6.2973
# 2 32.4064 84.1715 23.2591 -2.0232 -0.1363 -24.5111
# 3 49.7497 23.2591 78.8856 3.1809 23.3094 10.0271
# 4 11.9357 -2.0232 3.1809 29.7902 1.5270 -1.2041
# 5 17.1960 -0.1363 23.3094 1.5270 24.5625 2.9844
# 6 -6.2973 -24.5111 10.0271 -1.2041 2.9844 37.4221
#
#
#
# Elastic Compliance Matrix: (Units=1/GPa)
#
#
# Indices 1 2 3 4 5 6 
#
# 1 0.008403 -0.001641 -0.004383 -0.002857 -0.001744 0.001561
# 2 -0.001641 0.019136 -0.008799 0.003072 0.007701 0.014100
# 3 -0.004383 -0.008799 0.025346 -0.001022 -0.019540 -0.011767
# 4 -0.002857 0.003072 -0.001022 0.035125 0.000451 0.002899
# 5 -0.001744 0.007701 -0.019540 0.000451 0.059856 0.005227
# 6 0.001561 0.014100 -0.011767 0.002899 0.005227 0.039050
#
#
# Mechanical properties :
#
#
# Convention : Reuss Voigt Hill
#
# Bulk Modulus (GPa) = 43.03229 59.33085 51.18157
# Shear Modulus (GPa) = 22.29096 32.87043 27.58069
#
# Velocity S-wave (km/s) = 3.06932 3.72718 3.41413
# Velocity P-wave (km/s) = 5.54503 6.60281 6.09691
#
# Compressibility (1/GPa) = 0.02323837
#
# Stress axis : x y z
#
# Youngs Moduli (GPa) = 119.01206 52.25758 39.45441
#
# Poissons Ratio (x) = 0.08574 0.17293
# Poissons Ratio (y) = 0.19527 0.34716
# Poissons Ratio (z) = 0.52165 0.45981
#
# Static dielectric constant tensor:
#      x y z
#    x 1.883720 -0.132240 0.016260 
#    y -0.132240 1.237650 0.049990 
#    z 0.016260 0.049990 1.912650 
# 
# From -- ./inp_files/488558.got.cif
#   From: 2010.05.17/outbox.cif.g08.bks.cpg/sg2_245_cif.got.tgz:488558.got - 2010.06.03 11:33:40.
