data_PCOD9103819
_publ_section_title
;
Structure prediction by ZEFSAII (Michael W. Deem and Ramdas Pophale) SiO2 
 PCOD9103819
Probable space group: P -1
;
_chemical_formula_sum "Si O2"
_cell_formula_units_Z 16
_cell_length_a 30.358276
_cell_length_b 7.353487
_cell_length_c 9.719561
_cell_angle_alpha 132.743325
_cell_angle_beta 36.298148
_cell_angle_gamma 147.530754
_cell_volume 689.566895
_symmetry_space_group_name_H-M "P -1"
_symmetry_group_IT_number 2
_symmetry_cell_setting 'triclinic'
loop_
_space_group_symop_operation_xyz
x,y,z
-x,-y,-z
loop_
_atom_site_type_symbol
_atom_site_label
_atom_site_fract_x
_atom_site_fract_y
_atom_site_fract_z
Si Si1 0.112768 0.653585 0.271469
Si Si2 0.561441 0.128975 0.095006
Si Si3 0.912305 0.180278 0.848164
Si Si4 0.656575 0.841639 0.705351
Si Si5 0.335115 0.267292 0.059410
Si Si6 0.877050 0.548726 0.564361
Si Si7 0.298681 0.268735 0.732036
Si Si8 0.600955 0.897220 0.429915
O O1 0.108819 0.634251 0.104564
O O2 0.124434 0.483455 0.279991
O O3 0.000000 0.500000 0.500000
O O4 0.214485 0.047548 0.240258
O O5 0.577862 0.881391 0.895056
O O6 0.598973 0.372725 0.994908
O O7 0.642154 0.399894 0.150221
O O8 0.449413 0.955510 0.336849
O O9 0.030981 0.414886 0.705468
O O10 0.895551 0.878652 0.655520
O O11 0.822310 0.972597 0.078892
O O12 0.769945 0.215961 0.606192
O O13 0.655389 0.632055 0.483973
O O14 0.642629 0.731963 0.839857
O O15 0.354785 0.066397 0.812511
O O16 0.323311 0.053643 0.625740
O O17 0.500000 0.500000 0.500000
#
# Coordination Sequence:
#
# PCOD9103819 Si02
#       8
#     2   2   2   2   2   2   2   2
#     4   9  15  26  50  77 100 134 175 210 252 311
#     4  10  20  40  57  72 109 144 173 222 264 306
#     4  10  16  33  53  71 106 140 173 213 257 308
#     4  11  21  33  54  83 108 135 176 219 266 311
#     4   9  17  34  53  77 108 136 176 217 260 313
#     4   9  19  29  51  80  99 138 177 208 262 312
#     4  10  19  34  56  79 105 140 176 217 261 318
#     4   8  17  35  57  75 101 144 178 212 266 311
#
# _framework density 23.202971999999999
#
# number of rings (size 3 to 8) (size 9 to 14) (size 15 to 20)
#    0.000    2.750    3.750    0.000    0.000    1.500 
#    0.000    9.375    0.000    0.000    0.000   13.125 
#    0.000    0.000    0.000    0.000    0.000    0.000 
#
# Total GULP energy -89208.179083 kJ/mol
# GULP energy per Si atom -5575.511193 kJ/mol
# Density = 2.315016 g / cm^3
# Si number density = 23.202972 Si / 1000 Ang^3
#
#
#
# Elastic Constant Matrix: (Units=GPa)
#
#
# Indices 1 2 3 4 5 6 
#
# 1 81.2342 9.5906 62.4384 -10.8986 0.8175 -0.8977
# 2 9.5906 56.6007 26.9889 -19.5772 -9.0240 7.1544
# 3 62.4384 26.9889 136.9140 -13.7621 3.7293 2.0582
# 4 -10.8986 -19.5772 -13.7621 28.7496 10.2913 -0.7266
# 5 0.8175 -9.0240 3.7293 10.2913 46.9852 -9.6409
# 6 -0.8977 7.1544 2.0582 -0.7266 -9.6409 17.7006
#
#
#
# Elastic Compliance Matrix: (Units=1/GPa)
#
#
# Indices 1 2 3 4 5 6 
#
# 1 0.019548 0.002467 -0.008936 0.004830 0.000043 0.001255
# 2 0.002467 0.026254 -0.004497 0.016488 -0.000181 -0.009385
# 3 -0.008936 -0.004497 0.012349 0.000130 -0.001948 -0.001127
# 4 0.004830 0.016488 0.000130 0.051303 -0.010192 -0.009880
# 5 0.000043 -0.000181 -0.001948 -0.010192 0.026582 0.014362
# 6 0.001255 -0.009385 -0.001127 -0.009880 0.014362 0.067900
#
#
# Mechanical properties :
#
#
# Convention : Reuss Voigt Hill
#
# Bulk Modulus (GPa) = 27.60914 52.53161 40.07037
# Shear Modulus (GPa) = 21.01364 30.40246 25.70805
#
# Velocity S-wave (km/s) = 3.01266 3.62371 3.33222
# Velocity P-wave (km/s) = 4.90166 6.34015 5.66674
#
# Compressibility (1/GPa) = 0.03621989
#
# Stress axis : x y z
#
# Youngs Moduli (GPa) = 51.15498 38.08880 80.98129
#
# Poissons Ratio (x) = -0.09397 0.72363
# Poissons Ratio (y) = -0.12621 0.36419
# Poissons Ratio (z) = 0.45711 0.17129
#
# Static dielectric constant tensor:
#      x y z
#    x 1.925170 -0.015350 -0.020860 
#    y -0.015350 1.916570 0.018140 
#    z -0.020860 0.018140 1.917260 
# 
# From -- ./inp_files/325642.got.cif
#   From: 2010.05.17/outbox.cif.g08.bks.cpg/sg2_163_cif.got.tgz:325642.got - 2010.06.03 11:33:40.
