data_PCOD9103383
_publ_section_title
;
Structure prediction by ZEFSAII (Michael W. Deem and Ramdas Pophale) SiO2 
 PCOD9103383
Probable space group: P -1
;
_chemical_formula_sum "Si O2"
_cell_formula_units_Z 14
_cell_length_a 10.808296
_cell_length_b 7.810851
_cell_length_c 12.804732
_cell_angle_alpha 68.222553
_cell_angle_beta 137.210127
_cell_angle_gamma 98.010275
_cell_volume 666.621097
_symmetry_space_group_name_H-M "P -1"
_symmetry_group_IT_number 2
_symmetry_cell_setting 'triclinic'
loop_
_space_group_symop_operation_xyz
x,y,z
-x,-y,-z
loop_
_atom_site_type_symbol
_atom_site_label
_atom_site_fract_x
_atom_site_fract_y
_atom_site_fract_z
Si Si1 0.948683 0.350424 0.922893
Si Si2 0.673821 0.828350 0.145736
Si Si3 0.421377 0.556122 0.824614
Si Si4 0.055909 0.703247 0.479357
Si Si5 0.420658 0.762283 0.294581
Si Si6 0.320906 0.176691 0.096006
Si Si7 0.267589 0.603401 0.422914
O O1 0.773062 0.266760 0.871503
O O2 0.873703 0.440840 0.743787
O O3 0.133939 0.198220 0.043117
O O4 0.000000 0.500000 0.000000
O O5 0.606804 0.644474 0.189206
O O6 0.859028 0.848557 0.318393
O O7 0.726754 0.795112 0.063155
O O8 0.500000 0.000000 0.000000
O O9 0.218093 0.696137 0.666112
O O10 0.566552 0.664145 0.837379
O O11 0.500000 0.500000 0.000000
O O12 0.161683 0.700243 0.435332
O O13 0.000000 0.500000 0.500000
O O14 0.377505 0.738468 0.396704
O O15 0.588637 0.587996 0.416468
O O16 0.445288 0.968471 0.235127
#
# Coordination Sequence:
#
# PCOD9103383 Si02
#       7
#     2   2   2   2   2   2   2
#     4  10  21  37  60  89 120 159 204 256 308 360
#     4  10  21  39  63  93 119 165 212 250 313 375
#     4   9  22  39  58  92 124 162 202 253 309 364
#     4  10  20  38  66  87 124 167 200 257 315 370
#     4   9  21  38  61  85 121 167 203 249 311 369
#     4  11  21  38  60  88 130 158 205 261 303 372
#     4   9  20  40  60  88 123 158 213 246 312 374
#
# _framework density 21.001435000000001
#
# number of rings (size 3 to 8) (size 9 to 14) (size 15 to 20)
#    0.857    1.429    1.429    0.429    6.000    0.000 
#    0.000    8.571    0.000    0.000    0.000    0.000 
#    0.000    0.000    0.000    0.000    0.000    0.000 
#
# Total GULP energy -77988.951986 kJ/mol
# GULP energy per Si atom -5570.639428 kJ/mol
# Density = 2.095363 g / cm^3
# Si number density = 21.001435 Si / 1000 Ang^3
#
#
#
# Elastic Constant Matrix: (Units=GPa)
#
#
# Indices 1 2 3 4 5 6 
#
# 1 46.1901 12.0114 28.5477 0.2873 -0.3476 1.7555
# 2 12.0114 56.3725 30.8376 -10.0662 4.9888 12.4139
# 3 28.5477 30.8376 147.9831 -0.5638 24.4378 4.5007
# 4 0.2873 -10.0662 -0.5638 28.0028 -1.0673 -7.9043
# 5 -0.3476 4.9888 24.4378 -1.0673 46.3926 -2.1543
# 6 1.7555 12.4139 4.5007 -7.9043 -2.1543 18.3361
#
#
#
# Elastic Compliance Matrix: (Units=1/GPa)
#
#
# Indices 1 2 3 4 5 6 
#
# 1 0.025484 -0.003553 -0.004717 -0.001250 0.003073 0.000946
# 2 -0.003553 0.024497 -0.003804 0.004965 -0.001161 -0.013307
# 3 -0.004717 -0.003804 0.009214 -0.001412 -0.004530 -0.000376
# 4 -0.001250 0.004965 -0.001412 0.041894 0.001879 0.015385
# 5 0.003073 -0.001161 -0.004530 0.001879 0.024377 0.005278
# 6 0.000946 -0.013307 -0.000376 0.015385 0.005278 0.070800
#
#
# Mechanical properties :
#
#
# Convention : Reuss Voigt Hill
#
# Bulk Modulus (GPa) = 28.53287 43.70432 36.11859
# Shear Modulus (GPa) = 21.54276 30.48956 26.01616
#
# Velocity S-wave (km/s) = 3.20625 3.81436 3.52345
# Velocity P-wave (km/s) = 5.22708 6.34464 5.81278
#
# Compressibility (1/GPa) = 0.03504730
#
# Stress axis : x y z
#
# Youngs Moduli (GPa) = 39.24080 40.82164 108.52758
#
# Poissons Ratio (x) = 0.14504 0.51189
# Poissons Ratio (y) = 0.13942 0.41285
# Poissons Ratio (z) = 0.18509 0.15529
#
# Static dielectric constant tensor:
#      x y z
#    x 1.789140 -0.006600 0.003550 
#    y -0.006600 1.765720 0.033240 
#    z 0.003550 0.033240 1.811860 
# 
# From -- ./inp_files/514137.got.cif
#   From: 2010.05.17/outbox.cif.g08.bks.cpg/sg2_258_cif.got.tgz:514137.got - 2010.06.03 11:33:40.
