data_PCOD9103488
_publ_section_title
;
Structure prediction by ZEFSAII (Michael W. Deem and Ramdas Pophale) SiO2 
 PCOD9103488
Probable space group: P -1
;
_chemical_formula_sum "Si O2"
_cell_formula_units_Z 11
_cell_length_a 8.275524
_cell_length_b 7.139709
_cell_length_c 13.654997
_cell_angle_alpha 128.946811
_cell_angle_beta 46.527081
_cell_angle_gamma 122.547369
_cell_volume 447.330230
_symmetry_space_group_name_H-M "P -1"
_symmetry_group_IT_number 2
_symmetry_cell_setting 'triclinic'
loop_
_space_group_symop_operation_xyz
x,y,z
-x,-y,-z
loop_
_atom_site_type_symbol
_atom_site_label
_atom_site_fract_x
_atom_site_fract_y
_atom_site_fract_z
Si Si1 0.424252 0.410016 0.110162
Si Si2 0.009331 0.966386 0.868874
Si Si3 0.264022 0.419280 0.799551
Si Si4 0.889608 0.287983 0.553037
Si Si5 0.239136 0.514851 0.625380
Si Si6 0.500000 0.000000 0.500000
O O1 0.614415 0.396159 0.107551
O O2 0.287690 0.615307 0.270847
O O3 0.237054 0.166280 0.104548
O O4 0.500000 0.500000 0.000000
O O5 0.188574 0.786324 0.705712
O O6 0.087456 0.221971 0.867356
O O7 0.000000 0.000000 0.000000
O O8 0.173469 0.506628 0.764861
O O9 0.457247 0.270306 0.634577
O O10 0.750353 0.057700 0.477564
O O11 0.000000 0.500000 0.500000
O O12 0.098956 0.300748 0.546051
O O13 0.500000 0.500000 0.500000
#
# Coordination Sequence:
#
# PCOD9103488 Si02
#       6
#     2   2   2   2   2   1
#     4  10  20  40  65  95 131 178 225 277 337 403
#     4  11  23  43  67  92 133 184 224 269 342 407
#     4  11  22  40  67  96 136 174 223 280 338 400
#     4  10  21  40  65  94 134 172 224 278 337 399
#     4  11  24  42  69 105 137 174 228 289 338 404
#     4  10  20  38  66  94 124 178 218 266 336 400
#
# _framework density 24.590335
#
# number of rings (size 3 to 8) (size 9 to 14) (size 15 to 20)
#    0.000    1.455    1.818    5.455    0.000    1.455 
#    0.000   10.000    0.000    0.000    0.000    0.000 
#    0.000    0.000    0.000    0.000    0.000    0.000 
#
# Total GULP energy -61281.604301 kJ/mol
# GULP energy per Si atom -5571.054936 kJ/mol
# Density = 2.453437 g / cm^3
# Si number density = 24.590335 Si / 1000 Ang^3
#
#
#
# Elastic Constant Matrix: (Units=GPa)
#
#
# Indices 1 2 3 4 5 6 
#
# 1 186.6387 92.2625 42.5865 -0.3851 45.3413 41.8283
# 2 92.2625 118.0191 27.3092 -1.9621 26.6308 39.7611
# 3 42.5865 27.3092 121.2975 -13.3798 18.5431 7.0993
# 4 -0.3851 -1.9621 -13.3798 38.0376 -3.0948 15.3977
# 5 45.3413 26.6308 18.5431 -3.0948 58.8890 8.2944
# 6 41.8283 39.7611 7.0993 15.3977 8.2944 59.9975
#
#
#
# Elastic Compliance Matrix: (Units=1/GPa)
#
#
# Indices 1 2 3 4 5 6 
#
# 1 0.010179 -0.005800 -0.001458 -0.000076 -0.004414 -0.002451
# 2 -0.005800 0.015885 -0.000549 0.003323 -0.001373 -0.007082
# 3 -0.001458 -0.000549 0.009484 0.003346 -0.001382 -0.000409
# 4 -0.000076 0.003323 0.003346 0.032102 0.000722 -0.010883
# 5 -0.004414 -0.001373 -0.001382 0.000722 0.021331 0.001017
# 6 -0.002451 -0.007082 -0.000409 -0.010883 0.001017 0.025770
#
#
# Mechanical properties :
#
#
# Convention : Reuss Voigt Hill
#
# Bulk Modulus (GPa) = 50.16547 83.36353 66.76450
# Shear Modulus (GPa) = 36.49360 48.97129 42.73245
#
# Velocity S-wave (km/s) = 3.85653 4.46745 4.17318
# Velocity P-wave (km/s) = 6.34628 7.78366 7.10143
#
# Compressibility (1/GPa) = 0.01993403
#
# Stress axis : x y z
#
# Youngs Moduli (GPa) = 98.23975 62.95111 105.43947
#
# Poissons Ratio (x) = 0.36510 0.15375
# Poissons Ratio (y) = 0.56977 0.05792
# Poissons Ratio (z) = 0.14325 0.03458
#
# Static dielectric constant tensor:
#      x y z
#    x 2.099500 -0.021290 -0.046760 
#    y -0.021290 1.949790 -0.054950 
#    z -0.046760 -0.054950 1.999100 
# 
# From -- ./inp_files/490041.got.cif
#   From: 2010.05.17/outbox.cif.g08.bks.cpg/sg2_246_cif.got.tgz:490041.got - 2010.06.03 11:33:40.
