data_PCOD9103476
_publ_section_title
;
Structure prediction by ZEFSAII (Michael W. Deem and Ramdas Pophale) SiO2 
 PCOD9103476
Probable space group: P -1
;
_chemical_formula_sum "Si O2"
_cell_formula_units_Z 14
_cell_length_a 7.936469
_cell_length_b 9.955002
_cell_length_c 12.094668
_cell_angle_alpha 41.412698
_cell_angle_beta 52.726870
_cell_angle_gamma 63.978498
_cell_volume 502.771852
_symmetry_space_group_name_H-M "P -1"
_symmetry_group_IT_number 2
_symmetry_cell_setting 'triclinic'
loop_
_space_group_symop_operation_xyz
x,y,z
-x,-y,-z
loop_
_atom_site_type_symbol
_atom_site_label
_atom_site_fract_x
_atom_site_fract_y
_atom_site_fract_z
Si Si1 0.244278 0.111900 0.968592
Si Si2 0.525767 0.930056 0.679870
Si Si3 0.384882 0.411892 0.294034
Si Si4 0.774182 0.689732 0.919658
Si Si5 0.873480 0.210567 0.423983
Si Si6 0.353497 0.620780 0.399751
Si Si7 0.157383 0.759224 0.059291
O O1 0.486978 0.191593 0.813483
O O2 0.088702 0.240229 0.872644
O O3 0.179521 0.162510 0.087175
O O4 0.205313 0.888563 0.072119
O O5 0.609087 0.818765 0.606272
O O6 0.628713 0.806450 0.817872
O O7 0.637562 0.149655 0.512949
O O8 0.281043 0.886129 0.834018
O O9 0.299354 0.477284 0.406281
O O10 0.255187 0.541898 0.175360
O O11 0.624953 0.503382 0.132665
O O12 0.992106 0.643624 0.800353
O O13 0.841701 0.294236 0.507248
O O14 0.000000 0.000000 0.500000
O O15 0.500000 0.500000 0.500000
#
# Coordination Sequence:
#
# PCOD9103476 Si02
#       7
#     2   2   2   2   2   2   2
#     4  10  22  39  63  98 123 172 209 276 307 388
#     4  10  20  40  64  98 125 166 217 269 319 378
#     4  10  23  41  70  93 127 170 218 268 316 385
#     4   9  20  38  65  91 123 168 221 254 320 379
#     4  10  22  41  66  94 130 171 216 260 321 391
#     4  11  25  45  65  96 132 173 213 267 326 386
#     4  10  20  38  66  93 130 160 224 258 326 371
#
# _framework density 27.845631000000001
#
# number of rings (size 3 to 8) (size 9 to 14) (size 15 to 20)
#    0.000    2.000    1.429    1.714    4.000    6.286 
#    5.143   10.000    0.000    0.000    0.000    0.000 
#    0.000    0.000    0.000    0.000    0.000    0.000 
#
# Total GULP energy -78536.520496 kJ/mol
# GULP energy per Si atom -5609.751464 kJ/mol
# Density = 2.778225 g / cm^3
# Si number density = 27.845631 Si / 1000 Ang^3
#
#
#
# Elastic Constant Matrix: (Units=GPa)
#
#
# Indices 1 2 3 4 5 6 
#
# 1 98.9247 26.5675 11.9728 10.3769 -5.7082 6.6129
# 2 26.5675 193.6625 50.7166 35.6749 -5.3924 23.7252
# 3 11.9728 50.7166 116.5599 29.9300 -18.9445 6.0453
# 4 10.3769 35.6749 29.9300 54.6693 -3.7790 14.3128
# 5 -5.7082 -5.3924 -18.9445 -3.7790 42.0783 3.3714
# 6 6.6129 23.7252 6.0453 14.3128 3.3714 53.6116
#
#
#
# Elastic Compliance Matrix: (Units=1/GPa)
#
#
# Indices 1 2 3 4 5 6 
#
# 1 0.010642 -0.001142 -0.000121 -0.000965 0.001205 -0.000612
# 2 -0.001142 0.006526 -0.002046 -0.002462 -0.000313 -0.001840
# 3 -0.000121 -0.002046 0.011374 -0.004731 0.004367 0.000626
# 4 -0.000965 -0.002462 -0.004731 0.023880 -0.000061 -0.004629
# 5 0.001205 -0.000313 0.004367 -0.000061 0.026019 -0.002122
# 6 -0.000612 -0.001840 0.000626 -0.004629 -0.002122 0.020841
#
#
# Mechanical properties :
#
#
# Convention : Reuss Voigt Hill
#
# Bulk Modulus (GPa) = 45.60982 65.29565 55.45273
# Shear Modulus (GPa) = 44.16701 51.39787 47.78244
#
# Velocity S-wave (km/s) = 3.98696 4.30096 4.14693
# Velocity P-wave (km/s) = 6.13266 6.94005 6.54881
#
# Compressibility (1/GPa) = 0.02192510
#
# Stress axis : x y z
#
# Youngs Moduli (GPa) = 93.97012 153.22927 87.92030
#
# Poissons Ratio (x) = 0.17498 0.01062
# Poissons Ratio (y) = 0.10731 0.17985
# Poissons Ratio (z) = 0.01135 0.31345
#
# Static dielectric constant tensor:
#      x y z
#    x 2.176230 -0.014860 0.013220 
#    y -0.014860 2.134290 -0.024990 
#    z 0.013220 -0.024990 2.259400 
# 
# From -- ./inp_files/159396.got.cif
#   From: 2010.05.17/outbox.cif.g08.bks.cpg/sg2_80_cif.got.tgz:159396.got - 2010.06.03 11:33:40.
