data_PCOD9103278
_publ_section_title
;
Structure prediction by ZEFSAII (Michael W. Deem and Ramdas Pophale) SiO2 
 PCOD9103278
Probable space group: P -1
;
_chemical_formula_sum "Si O2"
_cell_formula_units_Z 12
_cell_length_a 16.445110
_cell_length_b 9.320115
_cell_length_c 12.298493
_cell_angle_alpha 131.267286
_cell_angle_beta 156.939577
_cell_angle_gamma 39.059429
_cell_volume 453.613697
_symmetry_space_group_name_H-M "P -1"
_symmetry_group_IT_number 2
_symmetry_cell_setting 'triclinic'
loop_
_space_group_symop_operation_xyz
x,y,z
-x,-y,-z
loop_
_atom_site_type_symbol
_atom_site_label
_atom_site_fract_x
_atom_site_fract_y
_atom_site_fract_z
Si Si1 0.500000 0.500000 0.500000
Si Si2 0.106618 0.719333 0.575080
Si Si3 0.001077 0.907121 0.201148
Si Si4 0.000000 0.000000 0.000000
Si Si5 0.612806 0.673324 0.107798
Si Si6 0.301906 0.168710 0.051719
Si Si7 0.802936 0.428356 0.992688
O O1 0.267712 0.664720 0.388854
O O2 0.693534 0.285491 0.733689
O O3 0.187918 0.510066 0.651940
O O4 0.931355 0.737373 0.272669
O O5 0.358357 0.685075 0.821517
O O6 0.974891 0.950067 0.601513
O O7 0.791579 0.868971 0.970107
O O8 0.922628 0.052890 0.067187
O O9 0.919264 0.796886 0.791340
O O10 0.703246 0.577970 0.050866
O O11 0.533361 0.931189 0.165399
O O12 0.327672 0.384591 0.178846
#
# Coordination Sequence:
#
# PCOD9103278 Si02
#       7
#     1   2   2   1   2   2   2
#     4  10  22  36  64  78 116 178 202 244 294 378
#     4  10  20  38  66  95 126 161 198 260 319 368
#     4  10  20  41  61  90 123 163 209 245 312 369
#     4  10  22  38  60  78 120 178 198 240 296 374
#     4  10  20  38  65  95 126 160 200 254 320 373
#     4  11  23  38  65  99 124 154 205 273 307 360
#     4  11  22  41  59  92 125 161 213 251 310 369
#
# _framework density 26.454228000000001
#
# number of rings (size 3 to 8) (size 9 to 14) (size 15 to 20)
#    0.000    1.667    1.667    4.500    0.000    3.333 
#    6.000    0.000    0.000    9.000    0.000    0.000 
#    0.000    0.000    0.000    0.000    0.000    0.000 
#
# Total GULP energy -66865.759028 kJ/mol
# GULP energy per Si atom -5572.146586 kJ/mol
# Density = 2.639402 g / cm^3
# Si number density = 26.454228 Si / 1000 Ang^3
#
#
#
# Elastic Constant Matrix: (Units=GPa)
#
#
# Indices 1 2 3 4 5 6 
#
# 1 129.9366 27.1658 55.2195 4.0171 0.4700 2.6296
# 2 27.1658 195.6541 42.3652 -0.1920 12.9722 -5.3560
# 3 55.2195 42.3652 117.7620 11.7324 -18.9867 -13.8507
# 4 4.0171 -0.1920 11.7324 37.4210 6.7154 -1.9455
# 5 0.4700 12.9722 -18.9867 6.7154 42.4603 -12.7643
# 6 2.6296 -5.3560 -13.8507 -1.9455 -12.7643 53.0652
#
#
#
# Elastic Compliance Matrix: (Units=1/GPa)
#
#
# Indices 1 2 3 4 5 6 
#
# 1 0.010230 0.000034 -0.005901 0.001290 -0.003844 -0.002921
# 2 0.000034 0.005992 -0.003062 0.001609 -0.003769 -0.001044
# 3 -0.005901 -0.003062 0.015419 -0.005811 0.010732 0.006376
# 4 0.001290 0.001609 -0.005811 0.029823 -0.008536 -0.002378
# 5 -0.003844 -0.003769 0.010732 -0.008536 0.034047 0.010488
# 6 -0.002921 -0.001044 0.006376 -0.002378 0.010488 0.022984
#
#
# Mechanical properties :
#
#
# Convention : Reuss Voigt Hill
#
# Bulk Modulus (GPa) = 72.55477 76.98375 74.76926
# Shear Modulus (GPa) = 35.47384 47.82944 41.65164
#
# Velocity S-wave (km/s) = 3.66587 4.25668 3.97228
# Velocity P-wave (km/s) = 6.73827 7.30226 7.02593
#
# Compressibility (1/GPa) = 0.01378269
#
# Stress axis : x y z
#
# Youngs Moduli (GPa) = 97.75267 166.87970 64.85313
#
# Poissons Ratio (x) = -0.00559 0.38269
# Poissons Ratio (y) = -0.00328 0.19859
# Poissons Ratio (z) = 0.57682 0.51101
#
# Static dielectric constant tensor:
#      x y z
#    x 2.129270 0.330610 -0.010360 
#    y 0.330610 2.485280 0.026120 
#    z -0.010360 0.026120 2.264030 
# 
# From -- ./inp_files/145386.got.cif
#   From: 2010.05.17/outbox.cif.g08.bks.cpg/sg2_73_cif.got.tgz:145386.got - 2010.06.03 11:33:40.
