data_PCOD9103450
_publ_section_title
;
Structure prediction by ZEFSAII (Michael W. Deem and Ramdas Pophale) SiO2 
 PCOD9103450
Probable space group: P -1
;
_chemical_formula_sum "Si O2"
_cell_formula_units_Z 16
_cell_length_a 13.218448
_cell_length_b 9.109373
_cell_length_c 9.086009
_cell_angle_alpha 73.942901
_cell_angle_beta 61.817350
_cell_angle_gamma 55.368431
_cell_volume 793.445227
_symmetry_space_group_name_H-M "P -1"
_symmetry_group_IT_number 2
_symmetry_cell_setting 'triclinic'
loop_
_space_group_symop_operation_xyz
x,y,z
-x,-y,-z
loop_
_atom_site_type_symbol
_atom_site_label
_atom_site_fract_x
_atom_site_fract_y
_atom_site_fract_z
Si Si1 0.599182 0.058610 0.988889
Si Si2 0.547301 0.168115 0.499665
Si Si3 0.352818 0.724164 0.325519
Si Si4 0.410177 0.379367 0.242200
Si Si5 0.697421 0.870034 0.264764
Si Si6 0.929650 0.209659 0.473493
Si Si7 0.033508 0.503668 0.807387
Si Si8 0.105768 0.538644 0.337527
O O1 0.504238 0.240544 0.093732
O O2 0.705105 0.929193 0.076165
O O3 0.671502 0.103557 0.797271
O O4 0.500000 0.000000 0.000000
O O5 0.568519 0.274729 0.584653
O O6 0.464012 0.290841 0.387491
O O7 0.449997 0.105440 0.647906
O O8 0.678460 0.004061 0.375375
O O9 0.410764 0.561715 0.213760
O O10 0.222888 0.727625 0.474466
O O11 0.261273 0.416782 0.304844
O O12 0.817807 0.670958 0.270943
O O13 0.972136 0.319312 0.304352
O O14 0.932579 0.273740 0.619623
O O15 0.000000 0.000000 0.500000
O O16 0.924571 0.475060 0.805096
O O17 0.000000 0.500000 0.000000
O O18 0.000000 0.500000 0.500000
#
# Coordination Sequence:
#
# PCOD9103450 Si02
#       8
#     2   2   2   2   2   2   2   2
#     4  11  23  38  61  93 127 172 205 269 315 387
#     4  10  20  38  66  92 124 164 207 277 309 385
#     4  11  22  39  64  92 127 166 208 265 329 379
#     4  10  22  39  60  94 129 160 216 259 335 376
#     4  10  22  39  59  96 126 157 223 260 319 373
#     4  10  24  43  65  94 127 168 217 256 325 388
#     4  11  25  43  67  96 125 175 217 270 314 382
#     4   9  20  40  64  90 125 173 211 260 313 385
#
# _framework density 20.165223000000001
#
# number of rings (size 3 to 8) (size 9 to 14) (size 15 to 20)
#    0.000    1.750    1.250    3.000    5.250    1.000 
#    0.000    5.625    0.000    0.000    0.000    0.000 
#    0.000    0.000    0.000    0.000    0.000    0.000 
#
# Total GULP energy -89102.796003 kJ/mol
# GULP energy per Si atom -5568.924750 kJ/mol
# Density = 2.011933 g / cm^3
# Si number density = 20.165223 Si / 1000 Ang^3
#
#
#
# Elastic Constant Matrix: (Units=GPa)
#
#
# Indices 1 2 3 4 5 6 
#
# 1 118.4717 33.7668 38.7298 2.5399 17.4640 18.2293
# 2 33.7668 102.5377 24.2362 -7.9454 0.9428 -4.4053
# 3 38.7298 24.2362 95.1665 -14.9519 17.9085 1.4704
# 4 2.5399 -7.9454 -14.9519 27.6977 3.8516 1.6275
# 5 17.4640 0.9428 17.9085 3.8516 23.6826 -3.2143
# 6 18.2293 -4.4053 1.4704 1.6275 -3.2143 24.5252
#
#
#
# Elastic Compliance Matrix: (Units=1/GPa)
#
#
# Indices 1 2 3 4 5 6 
#
# 1 0.013937 -0.004491 -0.002968 -0.002191 -0.009132 -0.012039
# 2 -0.004491 0.012055 -0.001977 0.001764 0.004874 0.006144
# 3 -0.002968 -0.001977 0.016010 0.010044 -0.011649 -0.001302
# 4 -0.002191 0.001764 0.010044 0.044341 -0.013722 -0.003398
# 5 -0.009132 0.004874 -0.011649 -0.013722 0.062170 0.017420
# 6 -0.012039 0.006144 -0.001302 -0.003398 0.017420 0.053413
#
#
# Mechanical properties :
#
#
# Convention : Reuss Voigt Hill
#
# Bulk Modulus (GPa) = 43.23687 56.62686 49.93186
# Shear Modulus (GPa) = 21.88116 29.81061 25.84589
#
# Velocity S-wave (km/s) = 3.29765 3.84906 3.58398
# Velocity P-wave (km/s) = 5.99893 6.92070 6.47624
#
# Compressibility (1/GPa) = 0.02312841
#
# Stress axis : x y z
#
# Youngs Moduli (GPa) = 71.75302 82.95559 62.46250
#
# Poissons Ratio (x) = 0.37256 0.18538
# Poissons Ratio (y) = 0.32225 0.12351
# Poissons Ratio (z) = 0.21295 0.16403
#
# Static dielectric constant tensor:
#      x y z
#    x 1.742450 0.016150 -0.004080 
#    y 0.016150 1.819930 0.015970 
#    z -0.004080 0.015970 1.871950 
# 
# From -- ./inp_files/242889.got.cif
#   From: 2010.05.17/outbox.cif.g08.bks.cpg/sg2_122_cif.got.tgz:242889.got - 2010.06.03 11:33:40.
