data_PCOD9103399
_publ_section_title
;
Structure prediction by ZEFSAII (Michael W. Deem and Ramdas Pophale) SiO2 
 PCOD9103399
Probable space group: P -1
;
_chemical_formula_sum "Si O2"
_cell_formula_units_Z 16
_cell_length_a 12.093717
_cell_length_b 13.868310
_cell_length_c 9.041029
_cell_angle_alpha 73.896411
_cell_angle_beta 111.739026
_cell_angle_gamma 49.068256
_cell_volume 714.514323
_symmetry_space_group_name_H-M "P -1"
_symmetry_group_IT_number 2
_symmetry_cell_setting 'triclinic'
loop_
_space_group_symop_operation_xyz
x,y,z
-x,-y,-z
loop_
_atom_site_type_symbol
_atom_site_label
_atom_site_fract_x
_atom_site_fract_y
_atom_site_fract_z
Si Si1 0.435424 0.654514 0.342739
Si Si2 0.189839 0.476257 0.530030
Si Si3 0.530786 0.158172 0.629111
Si Si4 0.354282 0.409347 0.931339
Si Si5 0.842555 0.113433 0.175194
Si Si6 0.974608 0.848818 0.542979
Si Si7 0.508183 0.861892 0.709275
Si Si8 0.306565 0.120399 0.973984
O O1 0.500000 0.500000 0.500000
O O2 0.659774 0.532382 0.421138
O O3 0.402080 0.772658 0.387380
O O4 0.229466 0.806967 0.059993
O O5 0.283822 0.335694 0.509660
O O6 0.273513 0.389054 0.772051
O O7 0.931104 0.684835 0.299592
O O8 0.525469 0.104674 0.495809
O O9 0.682441 0.999120 0.899306
O O10 0.172479 0.626988 0.746820
O O11 0.601895 0.273858 0.073186
O O12 0.374401 0.330144 0.122499
O O13 0.982868 0.099984 0.329018
O O14 0.963242 0.921376 0.354580
O O15 0.734862 0.969405 0.402993
O O16 0.648230 0.843882 0.874480
O O17 0.500000 0.000000 0.000000
#
# Coordination Sequence:
#
# PCOD9103399 Si02
#       8
#     2   2   2   2   2   2   2   2
#     4   9  21  43  67  91 135 168 209 261 324 392
#     4   9  23  42  65  96 124 166 223 254 322 382
#     4  10  25  45  63  94 137 162 219 265 318 392
#     4  10  20  38  66  88 130 166 215 271 319 380
#     4   9  20  38  60  94 126 166 220 267 315 384
#     4  10  21  37  62  95 127 166 218 265 324 374
#     4  11  25  40  62  96 131 168 214 265 323 381
#     4  12  25  43  72  92 129 173 221 272 316 374
#
# _framework density 22.392834000000001
#
# number of rings (size 3 to 8) (size 9 to 14) (size 15 to 20)
#    0.750    1.250    0.000    2.250    5.250    5.500 
#    4.500    1.250    0.000    0.000    0.000    0.000 
#    0.000    0.000    0.000    0.000    0.000    0.000 
#
# Total GULP energy -89314.411616 kJ/mol
# GULP energy per Si atom -5582.150726 kJ/mol
# Density = 2.234187 g / cm^3
# Si number density = 22.392834 Si / 1000 Ang^3
#
#
#
# Elastic Constant Matrix: (Units=GPa)
#
#
# Indices 1 2 3 4 5 6 
#
# 1 48.7016 0.1380 21.4209 0.5975 -15.0083 15.8606
# 2 0.1380 38.1337 -3.4781 8.0022 -6.5610 12.7343
# 3 21.4209 -3.4781 97.1524 7.7983 -2.4345 7.6422
# 4 0.5975 8.0022 7.7983 47.3036 -0.4764 -4.5765
# 5 -15.0083 -6.5610 -2.4345 -0.4764 41.5601 -1.6551
# 6 15.8606 12.7343 7.6422 -4.5765 -1.6551 18.9870
#
#
#
# Elastic Compliance Matrix: (Units=1/GPa)
#
#
# Indices 1 2 3 4 5 6 
#
# 1 0.043168 0.020136 -0.003947 -0.007819 0.016519 -0.048421
# 2 0.020136 0.049499 0.003004 -0.014170 0.012968 -0.053513
# 3 -0.003947 0.003004 0.011815 -0.002816 -0.000458 -0.004192
# 4 -0.007819 -0.014170 -0.002816 0.026300 -0.004002 0.023159
# 5 0.016519 0.012968 -0.000458 -0.004002 0.031183 -0.020558
# 6 -0.048421 -0.053513 -0.004192 0.023159 -0.020558 0.134484
#
#
# Mechanical properties :
#
#
# Convention : Reuss Voigt Hill
#
# Bulk Modulus (GPa) = 6.99936 24.46103 15.73019
# Shear Modulus (GPa) = 16.35670 32.63060 24.49365
#
# Velocity S-wave (km/s) = 2.70560 3.82146 3.31088
# Velocity P-wave (km/s) = 3.59067 5.51531 4.65358
#
# Compressibility (1/GPa) = 0.14287013
#
# Stress axis : x y z
#
# Youngs Moduli (GPa) = 23.16541 20.20227 84.63676
#
# Poissons Ratio (x) = -0.40680 0.33403
# Poissons Ratio (y) = -0.46647 -0.25426
# Poissons Ratio (z) = 0.09142 -0.06069
#
# Static dielectric constant tensor:
#      x y z
#    x 1.867240 0.025450 -0.038370 
#    y 0.025450 1.857140 0.006690 
#    z -0.038370 0.006690 1.797980 
# 
# From -- ./inp_files/272621.got.cif
#   From: 2010.05.17/outbox.cif.g08.bks.cpg/sg2_137_cif.got.tgz:272621.got - 2010.06.03 11:33:40.
