data_PCOD9103260
_publ_section_title
;
Structure prediction by ZEFSAII (Michael W. Deem and Ramdas Pophale) SiO2 
 PCOD9103260
Probable space group: P -1
;
_chemical_formula_sum "Si O2"
_cell_formula_units_Z 16
_cell_length_a 13.364861
_cell_length_b 14.014735
_cell_length_c 7.765842
_cell_angle_alpha 148.717698
_cell_angle_beta 117.597248
_cell_angle_gamma 60.496593
_cell_volume 654.460258
_symmetry_space_group_name_H-M "P -1"
_symmetry_group_IT_number 2
_symmetry_cell_setting 'triclinic'
loop_
_space_group_symop_operation_xyz
x,y,z
-x,-y,-z
loop_
_atom_site_type_symbol
_atom_site_label
_atom_site_fract_x
_atom_site_fract_y
_atom_site_fract_z
Si Si1 0.643789 0.626351 0.369643
Si Si2 0.270641 0.743344 0.979570
Si Si3 0.541229 0.251090 0.308160
Si Si4 0.897153 0.671694 0.226265
Si Si5 0.615433 0.955679 0.631491
Si Si6 0.894818 0.673784 0.642724
Si Si7 0.675288 0.522166 0.717705
Si Si8 0.026870 0.960558 0.164237
O O1 0.649922 0.403280 0.053943
O O2 0.535937 0.736479 0.564626
O O3 0.636892 0.735307 0.351853
O O4 0.770873 0.648452 0.572289
O O5 0.282921 0.623680 0.629943
O O6 0.140376 0.797206 0.021242
O O7 0.301650 0.942064 0.258001
O O8 0.632888 0.384248 0.607428
O O9 0.442041 0.340683 0.227977
O O10 0.603687 0.060669 0.969979
O O11 0.888120 0.685987 0.448176
O O12 0.938232 0.850493 0.453754
O O13 0.777739 0.627547 0.996563
O O14 0.000000 0.500000 0.000000
O O15 0.500000 0.000000 0.500000
O O16 0.000000 0.500000 0.500000
O O17 0.925197 0.872906 0.027847
O O18 0.000000 0.000000 0.000000
#
# Coordination Sequence:
#
# PCOD9103260 Si02
#       8
#     2   2   2   2   2   2   2   2
#     4  11  23  43  69  94 132 187 224 275 349 403
#     4  10  21  42  67  94 131 183 220 276 343 406
#     4   9  21  40  67  94 137 184 222 279 341 407
#     4  11  24  39  70 101 132 177 228 284 345 407
#     4  11  24  40  66 103 135 172 234 281 338 410
#     4  11  23  43  67  95 135 175 228 279 348 411
#     4   9  19  40  67  96 134 178 230 274 340 410
#     4  10  20  38  65  94 128 172 220 271 340 403
#
# _framework density 24.447626
#
# number of rings (size 3 to 8) (size 9 to 14) (size 15 to 20)
#    0.000    1.750    1.250    4.125    5.250    1.500 
#    2.250    0.625   11.000    0.000    0.000    0.000 
#    0.000    0.000    0.000    0.000    0.000    0.000 
#
# Total GULP energy -89377.254500 kJ/mol
# GULP energy per Si atom -5586.078406 kJ/mol
# Density = 2.439198 g / cm^3
# Si number density = 24.447626 Si / 1000 Ang^3
#
#
#
# Elastic Constant Matrix: (Units=GPa)
#
#
# Indices 1 2 3 4 5 6 
#
# 1 107.9976 0.9643 40.8803 4.9405 27.2073 11.7812
# 2 0.9643 97.0828 28.4893 17.3783 23.7084 13.5226
# 3 40.8803 28.4893 125.5273 17.2190 31.5950 4.1448
# 4 4.9405 17.3783 17.2190 37.3313 0.2670 7.1245
# 5 27.2073 23.7084 31.5950 0.2670 47.4240 4.7387
# 6 11.7812 13.5226 4.1448 7.1245 4.7387 33.2795
#
#
#
# Elastic Compliance Matrix: (Units=1/GPa)
#
#
# Indices 1 2 3 4 5 6 
#
# 1 0.012396 0.002987 -0.002883 -0.000861 -0.006263 -0.004167
# 2 0.002987 0.014054 -0.001439 -0.005383 -0.007312 -0.004395
# 3 -0.002883 -0.001439 0.011071 -0.004381 -0.005168 0.001900
# 4 -0.000861 -0.005383 -0.004381 0.032296 0.006400 -0.004787
# 5 -0.006263 -0.007312 -0.005168 0.006400 0.031747 -0.000059
# 6 -0.004167 -0.004395 0.001900 -0.004787 -0.000059 0.034106
#
#
# Mechanical properties :
#
#
# Convention : Reuss Voigt Hill
#
# Bulk Modulus (GPa) = 28.69289 52.36394 40.52841
# Shear Modulus (GPa) = 33.34314 40.95856 37.15085
#
# Velocity S-wave (km/s) = 3.69705 4.09756 3.90245
# Velocity P-wave (km/s) = 5.47597 6.62208 6.07611
#
# Compressibility (1/GPa) = 0.03485184
#
# Stress axis : x y z
#
# Youngs Moduli (GPa) = 80.67318 71.15208 90.32959
#
# Poissons Ratio (x) = -0.21252 0.26039
# Poissons Ratio (y) = -0.24095 0.12994
# Poissons Ratio (z) = 0.23255 0.10236
#
# Static dielectric constant tensor:
#      x y z
#    x 1.938650 0.028720 0.035340 
#    y 0.028720 1.967990 0.021820 
#    z 0.035340 0.021820 1.984360 
# 
# From -- ./inp_files/316203.got.cif
#   From: 2010.05.17/outbox.cif.g08.bks.cpg/sg2_159_cif.got.tgz:316203.got - 2010.06.03 11:33:40.
