data_PCOD9103663
_publ_section_title
;
Structure prediction by ZEFSAII (Michael W. Deem and Ramdas Pophale) SiO2 
 PCOD9103663
Probable space group: P -1
;
_chemical_formula_sum "Si O2"
_cell_formula_units_Z 16
_cell_length_a 8.895506
_cell_length_b 14.315586
_cell_length_c 20.453011
_cell_angle_alpha 27.905347
_cell_angle_beta 53.585654
_cell_angle_gamma 37.022699
_cell_volume 673.590383
_symmetry_space_group_name_H-M "P -1"
_symmetry_group_IT_number 2
_symmetry_cell_setting 'triclinic'
loop_
_space_group_symop_operation_xyz
x,y,z
-x,-y,-z
loop_
_atom_site_type_symbol
_atom_site_label
_atom_site_fract_x
_atom_site_fract_y
_atom_site_fract_z
Si Si1 0.713216 0.338607 0.643742
Si Si2 0.519514 0.560670 0.127470
Si Si3 0.466280 0.105513 0.591599
Si Si4 0.699796 0.952046 0.206103
Si Si5 0.774786 0.590499 0.664686
Si Si6 0.050934 0.768735 0.673997
Si Si7 0.772109 0.492934 0.408496
Si Si8 0.597276 0.148242 0.892974
O O1 0.637280 0.595051 0.544768
O O2 0.884304 0.281714 0.572413
O O3 0.436259 0.477991 0.594439
O O4 0.797216 0.093748 0.822208
O O5 0.388065 0.443783 0.230386
O O6 0.820266 0.304497 0.240950
O O7 0.351324 0.825398 0.061833
O O8 0.478279 0.725644 0.972179
O O9 0.307585 0.073722 0.698346
O O10 0.413307 0.150897 0.499939
O O11 0.780222 0.849672 0.689927
O O12 0.606002 0.811962 0.284840
O O13 0.006221 0.711479 0.247603
O O14 0.977933 0.597622 0.637728
O O15 0.310286 0.476667 0.752964
O O16 0.000000 0.000000 0.500000
O O17 0.500000 0.000000 0.000000
#
# Coordination Sequence:
#
# PCOD9103663 Si02
#       8
#     2   2   2   2   2   2   2   2
#     4  10  16  33  50  77 110 139 178 227 264 322
#     4  10  19  33  53  81 112 138 185 233 270 312
#     4  11  18  34  57  78 108 148 186 218 274 331
#     4   9  20  30  50  81 115 136 182 226 279 309
#     4  10  18  32  53  82 112 143 182 228 271 328
#     4  10  19  34  55  82 108 147 183 231 261 333
#     4   8  20  28  50  79 113 136 178 225 270 316
#     4  10  20  31  57  78 108 141 185 223 276 315
#
# _framework density 23.753308000000001
#
# number of rings (size 3 to 8) (size 9 to 14) (size 15 to 20)
#    1.500    0.750    3.750    1.500    0.000    0.500 
#    0.000    0.000    0.000    3.000    0.000    1.750 
#    0.000    0.000    0.000    0.000    0.000    0.000 
#
# Total GULP energy -89104.318488 kJ/mol
# GULP energy per Si atom -5569.019906 kJ/mol
# Density = 2.369924 g / cm^3
# Si number density = 23.753308 Si / 1000 Ang^3
#
#
#
# Elastic Constant Matrix: (Units=GPa)
#
#
# Indices 1 2 3 4 5 6 
#
# 1 78.0725 -7.1597 26.2509 9.2639 7.2438 -10.6222
# 2 -7.1597 32.8490 10.5393 3.3907 3.8408 -9.2965
# 3 26.2509 10.5393 145.6408 20.7435 1.9067 -3.2198
# 4 9.2639 3.3907 20.7435 30.3952 -8.2646 4.2563
# 5 7.2438 3.8408 1.9067 -8.2646 34.0438 -2.6407
# 6 -10.6222 -9.2965 -3.2198 4.2563 -2.6407 29.2484
#
#
#
# Elastic Compliance Matrix: (Units=1/GPa)
#
#
# Indices 1 2 3 4 5 6 
#
# 1 0.017000 0.008453 -0.002363 -0.007290 -0.005497 0.009165
# 2 0.008453 0.039464 -0.002592 -0.009399 -0.007142 0.016051
# 3 -0.002363 -0.002592 0.008166 -0.004767 -0.000832 -0.000165
# 4 -0.007290 -0.009399 -0.004767 0.044510 0.012793 -0.011482
# 5 -0.005497 -0.007142 -0.000832 0.012793 0.034259 -0.003127
# 6 0.009165 0.016051 -0.000165 -0.011482 -0.003127 0.043991
#
#
# Mechanical properties :
#
#
# Convention : Reuss Voigt Hill
#
# Bulk Modulus (GPa) = 13.96160 35.09145 24.52652
# Shear Modulus (GPa) = 24.47738 33.86628 29.17183
#
# Velocity S-wave (km/s) = 3.21360 3.78001 3.50825
# Velocity P-wave (km/s) = 4.43397 5.81864 5.17285
#
# Compressibility (1/GPa) = 0.07162502
#
# Stress axis : x y z
#
# Youngs Moduli (GPa) = 58.82248 25.33938 122.46070
#
# Poissons Ratio (x) = -0.21418 0.28937
# Poissons Ratio (y) = -0.49720 0.31745
# Poissons Ratio (z) = 0.13900 0.06569
#
# Static dielectric constant tensor:
#      x y z
#    x 1.937350 0.043320 0.029710 
#    y 0.043320 1.978850 0.035910 
#    z 0.029710 0.035910 1.927040 
# 
# From -- ./inp_files/618774.got.cif
#   From: 2010.05.17/outbox.cif.g08.bks.cpg/sg2_310_cif.got.tgz:618774.got - 2010.06.03 11:33:40.
