data_PCOD9103168
_publ_section_title
;
Structure prediction by ZEFSAII (Michael W. Deem and Ramdas Pophale) SiO2 
 PCOD9103168
Probable space group: P -1
;
_chemical_formula_sum "Si O2"
_cell_formula_units_Z 14
_cell_length_a 9.436794
_cell_length_b 12.793246
_cell_length_c 8.387557
_cell_angle_alpha 112.834374
_cell_angle_beta 131.522827
_cell_angle_gamma 63.528615
_cell_volume 672.140363
_symmetry_space_group_name_H-M "P -1"
_symmetry_group_IT_number 2
_symmetry_cell_setting 'triclinic'
loop_
_space_group_symop_operation_xyz
x,y,z
-x,-y,-z
loop_
_atom_site_type_symbol
_atom_site_label
_atom_site_fract_x
_atom_site_fract_y
_atom_site_fract_z
Si Si1 0.623636 0.151053 0.683617
Si Si2 0.177432 0.787282 0.415563
Si Si3 0.257252 0.135729 0.822352
Si Si4 0.815531 0.455291 0.886253
Si Si5 0.490485 0.691937 0.834716
Si Si6 0.400099 0.041207 0.211720
Si Si7 0.344182 0.624333 0.988648
O O1 0.799022 0.142520 0.684392
O O2 0.676806 0.056998 0.809891
O O3 0.575028 0.283501 0.792829
O O4 0.447072 0.124829 0.433805
O O5 0.190305 0.653594 0.293928
O O6 0.368801 0.775847 0.658525
O O7 0.969891 0.838511 0.375131
O O8 0.394953 0.032437 0.760004
O O9 0.350952 0.245794 0.938690
O O10 0.274153 0.103870 0.005009
O O11 0.618843 0.564377 0.794991
O O12 0.823047 0.405216 0.044080
O O13 0.000000 0.500000 0.000000
O O14 0.325870 0.679728 0.832249
O O15 0.500000 0.500000 0.000000
#
# Coordination Sequence:
#
# PCOD9103168 Si02
#       7
#     2   2   2   2   2   2   2
#     4  10  20  39  62  89 124 158 206 250 309 353
#     4  11  23  38  63  93 119 164 204 248 308 367
#     4  11  22  40  63  87 122 164 206 248 304 356
#     4  10  20  38  65  91 122 157 202 254 307 362
#     4  11  20  41  61  89 126 157 200 251 308 362
#     4  10  22  40  62  89 123 165 203 258 294 356
#     4   9  20  37  65  88 122 162 196 251 309 362
#
# _framework density 20.828983000000001
#
# number of rings (size 3 to 8) (size 9 to 14) (size 15 to 20)
#    0.000    1.714    4.286    0.429    0.000    1.143 
#    0.000    7.857    0.000    0.000    0.000    0.000 
#    0.000    0.000    0.000    0.000    0.000    0.000 
#
# Total GULP energy -78066.467369 kJ/mol
# GULP energy per Si atom -5576.176241 kJ/mol
# Density = 2.078157 g / cm^3
# Si number density = 20.828983 Si / 1000 Ang^3
#
#
#
# Elastic Constant Matrix: (Units=GPa)
#
#
# Indices 1 2 3 4 5 6 
#
# 1 113.2690 23.7051 16.3051 -9.3414 4.9969 27.6854
# 2 23.7051 60.3366 2.9039 12.2350 3.2500 21.5573
# 3 16.3051 2.9039 19.7545 3.3921 6.5985 5.2413
# 4 -9.3414 12.2350 3.3921 36.4194 2.2171 -1.9207
# 5 4.9969 3.2500 6.5985 2.2171 26.8921 -3.7476
# 6 27.6854 21.5573 5.2413 -1.9207 -3.7476 39.0306
#
#
#
# Elastic Compliance Matrix: (Units=1/GPa)
#
#
# Indices 1 2 3 4 5 6 
#
# 1 0.012709 -0.003482 -0.009007 0.005024 -0.000943 -0.005726
# 2 -0.003482 0.024542 0.005991 -0.010084 -0.004747 -0.012842
# 3 -0.009007 0.005991 0.066140 -0.009947 -0.015544 -0.007784
# 4 0.005024 -0.010084 -0.009947 0.033285 0.000685 0.005046
# 5 -0.000943 -0.004747 -0.015544 0.000685 0.043022 0.009543
# 6 -0.005726 -0.012842 -0.007784 0.005046 0.009543 0.038985
#
#
# Mechanical properties :
#
#
# Convention : Reuss Voigt Hill
#
# Bulk Modulus (GPa) = 11.06251 31.02092 21.04171
# Shear Modulus (GPa) = 19.09776 30.49815 24.79796
#
# Velocity S-wave (km/s) = 3.03129 3.83066 3.45418
# Velocity P-wave (km/s) = 4.19217 5.87288 5.10221
#
# Compressibility (1/GPa) = 0.09039541
#
# Stress axis : x y z
#
# Youngs Moduli (GPa) = 78.68338 40.74633 15.11944
#
# Poissons Ratio (x) = 0.14188 0.13618
# Poissons Ratio (y) = 0.27398 -0.09058
# Poissons Ratio (z) = 0.70868 -0.24410
#
# Static dielectric constant tensor:
#      x y z
#    x 1.763430 0.041650 -0.031570 
#    y 0.041650 1.754570 0.017670 
#    z -0.031570 0.017670 1.781200 
# 
# From -- ./inp_files/49426.got.cif
#   From: 2010.05.17/outbox.cif.g08.bks.cpg/sg2_25_cif.got.tgz:49426.got - 2010.06.03 11:33:40.
