data_PCOD9103284
_publ_section_title
;
Structure prediction by ZEFSAII (Michael W. Deem and Ramdas Pophale) SiO2 
 PCOD9103284
Probable space group: P -1
;
_chemical_formula_sum "Si O2"
_cell_formula_units_Z 14
_cell_length_a 9.413045
_cell_length_b 22.234708
_cell_length_c 11.501369
_cell_angle_alpha 152.469994
_cell_angle_beta 62.963152
_cell_angle_gamma 137.068090
_cell_volume 595.550978
_symmetry_space_group_name_H-M "P -1"
_symmetry_group_IT_number 2
_symmetry_cell_setting 'triclinic'
loop_
_space_group_symop_operation_xyz
x,y,z
-x,-y,-z
loop_
_atom_site_type_symbol
_atom_site_label
_atom_site_fract_x
_atom_site_fract_y
_atom_site_fract_z
Si Si1 0.961371 0.340801 0.903055
Si Si2 0.826297 0.416973 0.311369
Si Si3 0.027745 0.863463 0.269942
Si Si4 0.654444 0.567332 0.702258
Si Si5 0.755623 0.031068 0.150858
Si Si6 0.632342 0.214500 0.592408
Si Si7 0.120780 0.124036 0.029807
O O1 0.915098 0.399072 0.134424
O O2 0.225821 0.559059 0.109745
O O3 0.971685 0.203128 0.717450
O O4 0.726141 0.224789 0.702135
O O5 0.803683 0.557300 0.549746
O O6 0.000000 0.500000 0.500000
O O7 0.538374 0.185984 0.066563
O O8 0.314974 0.015380 0.367011
O O9 0.000000 0.000000 0.500000
O O10 0.779702 0.640745 0.908460
O O11 0.347893 0.336232 0.395142
O O12 0.748396 0.765405 0.953399
O O13 0.767814 0.193215 0.423630
O O14 0.912272 0.047148 0.216182
O O15 0.849273 0.023104 0.984318
#
# Coordination Sequence:
#
# PCOD9103284 Si02
#       7
#     2   2   2   2   2   2   2
#     4  11  25  45  70  99 133 177 226 278 327 402
#     4  11  20  38  67  92 133 168 219 278 330 387
#     4  12  27  44  68  99 136 175 221 279 336 397
#     4  10  21  40  62  95 133 176 212 280 337 381
#     4  10  20  38  65  95 128 174 224 265 325 399
#     4  11  25  45  70  98 129 185 224 271 334 398
#     4   9  21  37  63  98 131 174 221 271 330 402
#
# _framework density 23.507643000000002
#
# number of rings (size 3 to 8) (size 9 to 14) (size 15 to 20)
#    0.000    1.429    2.857    1.286    2.000    6.286 
#    2.571    2.857    0.000    0.000    0.000    0.000 
#    0.000    0.000    0.000    0.000    0.000    0.000 
#
# Total GULP energy -78093.121727 kJ/mol
# GULP energy per Si atom -5578.080123 kJ/mol
# Density = 2.345414 g / cm^3
# Si number density = 23.507643 Si / 1000 Ang^3
#
#
#
# Elastic Constant Matrix: (Units=GPa)
#
#
# Indices 1 2 3 4 5 6 
#
# 1 110.8675 40.9269 31.4906 4.4455 -15.5960 -2.2669
# 2 40.9269 68.7201 13.3569 16.5595 12.4123 -4.4268
# 3 31.4906 13.3569 47.3916 1.5392 -6.9879 -5.1269
# 4 4.4455 16.5595 1.5392 35.9447 -13.7312 -13.0312
# 5 -15.5960 12.4123 -6.9879 -13.7312 50.0721 -1.8972
# 6 -2.2669 -4.4268 -5.1269 -13.0312 -1.8972 15.6260
#
#
#
# Elastic Compliance Matrix: (Units=1/GPa)
#
#
# Indices 1 2 3 4 5 6 
#
# 1 0.016585 -0.013040 -0.005259 0.011151 0.011011 0.007623
# 2 -0.013040 0.033032 -0.005249 -0.029572 -0.021910 -0.021578
# 3 -0.005259 -0.005249 0.028637 0.010790 0.007264 0.017026
# 4 0.011151 -0.029572 0.010790 0.077019 0.035907 0.065369
# 5 0.011011 -0.021910 0.007264 0.035907 0.040931 0.032688
# 6 0.007623 -0.021578 0.017026 0.065369 0.032688 0.123057
#
#
# Mechanical properties :
#
#
# Convention : Reuss Voigt Hill
#
# Bulk Modulus (GPa) = 32.09558 44.28089 38.18824
# Shear Modulus (GPa) = 13.27163 29.74222 21.50692
#
# Velocity S-wave (km/s) = 2.37864 3.56084 3.02800
# Velocity P-wave (km/s) = 4.60725 5.98196 5.33904
#
# Compressibility (1/GPa) = 0.03115694
#
# Stress axis : x y z
#
# Youngs Moduli (GPa) = 60.29547 30.27401 34.91966
#
# Poissons Ratio (x) = 0.39478 0.18364
# Poissons Ratio (y) = 0.78626 0.18330
# Poissons Ratio (z) = 0.31709 0.15892
#
# Static dielectric constant tensor:
#      x y z
#    x 1.959810 -0.006210 -0.092360 
#    y -0.006210 1.874950 -0.029880 
#    z -0.092360 -0.029880 1.827460 
# 
# From -- ./inp_files/405078.got.cif
#   From: 2010.05.17/outbox.cif.g08.bks.cpg/sg2_203_cif.got.tgz:405078.got - 2010.06.03 11:33:40.
