data_PCOD9103341
_publ_section_title
;
Structure prediction by ZEFSAII (Michael W. Deem and Ramdas Pophale) SiO2 
 PCOD9103341
Probable space group: P -1
;
_chemical_formula_sum "Si O2"
_cell_formula_units_Z 10
_cell_length_a 12.808800
_cell_length_b 8.209300
_cell_length_c 7.727440
_cell_angle_alpha 144.498380
_cell_angle_beta 79.521115
_cell_angle_gamma 113.949962
_cell_volume 413.992083
_symmetry_space_group_name_H-M "P -1"
_symmetry_group_IT_number 2
_symmetry_cell_setting 'triclinic'
loop_
_space_group_symop_operation_xyz
x,y,z
-x,-y,-z
loop_
_atom_site_type_symbol
_atom_site_label
_atom_site_fract_x
_atom_site_fract_y
_atom_site_fract_z
Si Si1 0.237332 0.877826 0.469502
Si Si2 0.425733 0.685111 0.645260
Si Si3 0.979226 0.492715 0.206830
Si Si4 0.615422 0.479178 0.871482
Si Si5 0.176784 0.165510 0.394680
O O1 0.317459 0.712420 0.234149
O O2 0.111067 0.608891 0.341956
O O3 0.214718 0.057246 0.468196
O O4 0.293660 0.150212 0.832012
O O5 0.500000 0.500000 0.500000
O O6 0.421350 0.701201 0.454881
O O7 0.291403 0.469520 0.558567
O O8 0.500000 0.000000 0.000000
O O9 0.928609 0.738657 0.468323
O O10 0.000000 0.500000 0.000000
O O11 0.878966 0.143551 0.976283
O O12 0.500000 0.500000 0.000000
#
# Coordination Sequence:
#
# PCOD9103341 Si02
#       5
#     2   2   2   2   2
#     4  11  22  42  68 100 133 172 221 276 325 389
#     4  12  27  47  66  94 134 179 222 273 334 397
#     4  10  20  38  66 100 131 170 218 266 322 394
#     4  12  26  44  67  99 134 175 223 278 333 388
#     4  11  22  41  68  97 131 176 220 265 323 396
#
# _framework density 24.155049999999999
#
# number of rings (size 3 to 8) (size 9 to 14) (size 15 to 20)
#    0.000    0.800    0.000   10.200    0.000    4.800 
#    0.000    6.000    0.000    0.000    0.000    0.000 
#    0.000    0.000    0.000    0.000    0.000    0.000 
#
# Total GULP energy -55913.747346 kJ/mol
# GULP energy per Si atom -5591.374735 kJ/mol
# Density = 2.410007 g / cm^3
# Si number density = 24.155050 Si / 1000 Ang^3
#
#
#
# Elastic Constant Matrix: (Units=GPa)
#
#
# Indices 1 2 3 4 5 6 
#
# 1 141.7862 32.9540 63.3439 13.8872 -10.9135 17.2005
# 2 32.9540 49.6756 34.3654 3.4955 7.9573 18.7023
# 3 63.3439 34.3654 209.7471 23.1489 12.8773 4.8078
# 4 13.8872 3.4955 23.1489 29.9258 1.9525 6.7761
# 5 -10.9135 7.9573 12.8773 1.9525 64.9839 15.5235
# 6 17.2005 18.7023 4.8078 6.7761 15.5235 26.0993
#
#
#
# Elastic Compliance Matrix: (Units=1/GPa)
#
#
# Indices 1 2 3 4 5 6 
#
# 1 0.010077 -0.003327 -0.002466 -0.001317 0.004027 -0.005856
# 2 -0.003327 0.034010 -0.004862 0.006667 0.001792 -0.024080
# 3 -0.002466 -0.004862 0.006862 -0.004939 -0.002628 0.006691
# 4 -0.001317 0.006667 -0.004939 0.040274 0.002268 -0.014805
# 5 0.004027 0.001792 -0.002628 0.002268 0.020123 -0.016011
# 6 -0.005856 -0.024080 0.006691 -0.014805 -0.016011 0.071565
#
#
# Mechanical properties :
#
#
# Convention : Reuss Voigt Hill
#
# Bulk Modulus (GPa) = 33.73668 73.61505 53.67587
# Shear Modulus (GPa) = 23.35364 42.23818 32.79591
#
# Velocity S-wave (km/s) = 3.11275 4.18620 3.68873
# Velocity P-wave (km/s) = 5.18806 7.34220 6.35704
#
# Compressibility (1/GPa) = 0.02964132
#
# Stress axis : x y z
#
# Youngs Moduli (GPa) = 99.23479 29.40279 145.72933
#
# Poissons Ratio (x) = 0.09781 0.35935
# Poissons Ratio (y) = 0.33011 0.70848
# Poissons Ratio (z) = 0.24470 0.14294
#
# Static dielectric constant tensor:
#      x y z
#    x 2.097520 -0.176390 0.067870 
#    y -0.176390 2.222310 0.020230 
#    z 0.067870 0.020230 1.890560 
# 
# From -- ./inp_files/190550.got.cif
#   From: 2010.05.17/outbox.cif.g08.bks.cpg/sg2_96_cif.got.tgz:190550.got - 2010.06.03 11:33:40.
