data_PCOD9103940
_publ_section_title
;
Structure prediction by ZEFSAII (Michael W. Deem and Ramdas Pophale) SiO2 
 PCOD9103940
Probable space group: P -1
;
_chemical_formula_sum "Si O2"
_cell_formula_units_Z 13
_cell_length_a 15.409601
_cell_length_b 11.451311
_cell_length_c 13.928755
_cell_angle_alpha 28.175608
_cell_angle_beta 150.132041
_cell_angle_gamma 152.503042
_cell_volume 493.158640
_symmetry_space_group_name_H-M "P -1"
_symmetry_group_IT_number 2
_symmetry_cell_setting 'triclinic'
loop_
_space_group_symop_operation_xyz
x,y,z
-x,-y,-z
loop_
_atom_site_type_symbol
_atom_site_label
_atom_site_fract_x
_atom_site_fract_y
_atom_site_fract_z
Si Si1 0.855357 0.007794 0.727832
Si Si2 0.579891 0.600131 0.896753
Si Si3 0.479968 0.994998 0.729414
Si Si4 0.018746 0.193525 0.286080
Si Si5 0.500000 0.500000 0.500000
Si Si6 0.043293 0.626482 0.140767
Si Si7 0.146411 0.342124 0.611100
O O1 0.774860 0.910467 0.830237
O O2 0.672058 0.001626 0.498476
O O3 0.055157 0.284769 0.672964
O O4 0.904620 0.762963 0.922197
O O5 0.384634 0.571890 0.677122
O O6 0.500000 0.500000 0.000000
O O7 0.597553 0.329532 0.076733
O O8 0.480433 0.193830 0.670025
O O9 0.712270 0.145799 0.802961
O O10 0.252252 0.347796 0.368034
O O11 0.972758 0.422769 0.125886
O O12 0.000000 0.000000 0.500000
O O13 0.882743 0.952524 0.250670
O O14 0.033794 0.444819 0.357303
#
# Coordination Sequence:
#
# PCOD9103940 Si02
#       7
#     2   2   2   2   1   2   2
#     4  12  24  44  75  96 141 186 229 297 353 403
#     4  12  29  49  71 100 138 189 245 297 346 409
#     4  11  23  46  71 106 144 180 235 282 351 428
#     4   9  20  35  66 101 144 180 219 277 343 424
#     4  10  20  38  70 104 140 182 218 282 352 416
#     4  10  22  43  70 107 144 180 227 285 351 430
#     4  11  22  45  68 102 140 181 237 283 347 419
#
# _framework density 26.360686000000001
#
# number of rings (size 3 to 8) (size 9 to 14) (size 15 to 20)
#    0.000    1.231    4.615    0.923    2.154    3.077 
#    0.000    3.077    0.000    0.000    0.000    0.000 
#    0.000    0.000    0.000    0.000    0.000    0.000 
#
# Total GULP energy -72480.312626 kJ/mol
# GULP energy per Si atom -5575.408664 kJ/mol
# Density = 2.630069 g / cm^3
# Si number density = 26.360686 Si / 1000 Ang^3
#
#
#
# Elastic Constant Matrix: (Units=GPa)
#
#
# Indices 1 2 3 4 5 6 
#
# 1 112.2587 29.8770 48.1407 -5.7601 2.3145 14.9606
# 2 29.8770 92.3146 21.2704 8.4158 8.3842 17.0267
# 3 48.1407 21.2704 135.4740 6.5341 4.2448 9.0580
# 4 -5.7601 8.4158 6.5341 37.7065 -2.0138 11.2748
# 5 2.3145 8.3842 4.2448 -2.0138 48.7205 -12.1138
# 6 14.9606 17.0267 9.0580 11.2748 -12.1138 46.4210
#
#
#
# Elastic Compliance Matrix: (Units=1/GPa)
#
#
# Indices 1 2 3 4 5 6 
#
# 1 0.011883 -0.002723 -0.003764 0.004002 -0.000391 -0.003170
# 2 -0.002723 0.013100 -0.000610 -0.002175 -0.003184 -0.004111
# 3 -0.003764 -0.000610 0.008928 -0.002028 -0.000568 0.000039
# 4 0.004002 -0.002175 -0.002028 0.030197 -0.000255 -0.007497
# 5 -0.000391 -0.003184 -0.000568 -0.000255 0.022987 0.007465
# 6 -0.003170 -0.004111 0.000039 -0.007497 0.007465 0.027833
#
#
# Mechanical properties :
#
#
# Convention : Reuss Voigt Hill
#
# Bulk Modulus (GPa) = 50.71681 59.84706 55.28194
# Shear Modulus (GPa) = 36.84789 42.62020 39.73404
#
# Velocity S-wave (km/s) = 3.74282 4.02532 3.88664
# Velocity P-wave (km/s) = 6.16114 6.66008 6.41546
#
# Compressibility (1/GPa) = 0.01971733
#
# Stress axis : x y z
#
# Youngs Moduli (GPa) = 84.15564 76.33588 112.01112
#
# Poissons Ratio (x) = 0.20787 0.42159
# Poissons Ratio (y) = 0.22917 0.06828
# Poissons Ratio (z) = 0.31674 0.04653
#
# Static dielectric constant tensor:
#      x y z
#    x 2.194730 -0.113840 -0.039790 
#    y -0.113840 2.147250 -0.060010 
#    z -0.039790 -0.060010 2.033310 
# 
# From -- ./inp_files/325585.got.cif
#   From: 2010.05.17/outbox.cif.g08.bks.cpg/sg2_163_cif.got.tgz:325585.got - 2010.06.03 11:33:40.
