data_PCOD9103464
_publ_section_title
;
Structure prediction by ZEFSAII (Michael W. Deem and Ramdas Pophale) SiO2 
 PCOD9103464
Probable space group: P -1
;
_chemical_formula_sum "Si O2"
_cell_formula_units_Z 15
_cell_length_a 8.725663
_cell_length_b 13.590792
_cell_length_c 12.358432
_cell_angle_alpha 123.799812
_cell_angle_beta 111.534963
_cell_angle_gamma 113.649586
_cell_volume 704.479177
_symmetry_space_group_name_H-M "P -1"
_symmetry_group_IT_number 2
_symmetry_cell_setting 'triclinic'
loop_
_space_group_symop_operation_xyz
x,y,z
-x,-y,-z
loop_
_atom_site_type_symbol
_atom_site_label
_atom_site_fract_x
_atom_site_fract_y
_atom_site_fract_z
Si Si1 0.623170 0.053087 0.386105
Si Si2 0.297738 0.229472 0.482941
Si Si3 0.392130 0.505771 0.080339
Si Si4 0.844140 0.113844 0.707983
Si Si5 0.000000 0.500000 0.000000
Si Si6 0.264291 0.987377 0.838291
Si Si7 0.204727 0.585377 0.349942
Si Si8 0.809764 0.313543 0.262845
O O1 0.810588 0.126037 0.580561
O O2 0.653849 0.986890 0.250633
O O3 0.699249 0.229067 0.476274
O O4 0.332085 0.892839 0.271127
O O5 0.381623 0.351964 0.684333
O O6 0.546009 0.363401 0.548411
O O7 0.017269 0.108000 0.289287
O O8 0.271790 0.079610 0.423374
O O9 0.500000 0.500000 0.000000
O O10 0.145505 0.290386 0.929188
O O11 0.242850 0.546276 0.043705
O O12 0.876928 0.447319 0.815594
O O13 0.219296 0.833019 0.784644
O O14 0.509056 0.186479 0.085246
O O15 0.962224 0.399845 0.241542
O O16 0.000000 0.500000 0.500000
#
# Coordination Sequence:
#
# PCOD9103464 Si02
#       8
#     2   2   2   2   1   2   2   2
#     4  10  20  38  66  92 132 175 223 267 327 406
#     4  10  25  41  61 102 137 171 225 280 341 400
#     4  11  23  38  63  97 143 182 227 268 337 416
#     4  10  22  40  60 101 139 178 213 273 341 398
#     4  10  22  38  64 106 132 178 222 270 334 410
#     4  11  25  43  66  97 126 169 232 283 336 401
#     4  10  21  42  69  94 138 175 222 272 332 410
#     4  11  25  45  71  94 123 178 230 278 341 405
#
# _framework density 21.292325999999999
#
# number of rings (size 3 to 8) (size 9 to 14) (size 15 to 20)
#    0.000    1.600    2.667    0.800    5.600    4.800 
#    0.000    0.667    0.000    0.000    0.000    0.000 
#    0.000    0.000    0.000    0.000    0.000    0.000 
#
# Total GULP energy -83545.774265 kJ/mol
# GULP energy per Si atom -5569.718284 kJ/mol
# Density = 2.124386 g / cm^3
# Si number density = 21.292326 Si / 1000 Ang^3
#
#
#
# Elastic Constant Matrix: (Units=GPa)
#
#
# Indices 1 2 3 4 5 6 
#
# 1 68.8343 8.7965 37.8426 -5.7430 25.0687 7.5264
# 2 8.7965 47.6097 17.0737 3.1604 13.9177 7.0016
# 3 37.8426 17.0737 148.7043 10.3527 26.9256 3.5749
# 4 -5.7430 3.1604 10.3527 23.4504 -1.5232 5.5010
# 5 25.0687 13.9177 26.9256 -1.5232 40.5404 7.0817
# 6 7.5264 7.0016 3.5749 5.5010 7.0817 12.4033
#
#
#
# Elastic Compliance Matrix: (Units=1/GPa)
#
#
# Indices 1 2 3 4 5 6 
#
# 1 0.022154 0.001215 -0.004599 0.009587 -0.008578 -0.012158
# 2 0.001215 0.024808 -0.001756 -0.000197 -0.006263 -0.010572
# 3 -0.004599 -0.001756 0.009129 -0.006677 -0.003983 0.006386
# 4 0.009587 -0.000197 -0.006677 0.055923 0.006296 -0.032179
# 5 -0.008578 -0.006263 -0.003983 0.006296 0.037504 -0.014317
# 6 -0.012158 -0.010572 0.006386 -0.032179 -0.014317 0.114575
#
#
# Mechanical properties :
#
#
# Convention : Reuss Voigt Hill
#
# Bulk Modulus (GPa) = 21.82853 43.61932 32.72393
# Shear Modulus (GPa) = 17.26267 28.70786 22.98526
#
# Velocity S-wave (km/s) = 2.85045 3.67587 3.28915
# Velocity P-wave (km/s) = 4.59429 6.20857 5.46141
#
# Compressibility (1/GPa) = 0.04581161
#
# Stress axis : x y z
#
# Youngs Moduli (GPa) = 45.13835 40.30985 109.53744
#
# Poissons Ratio (x) = -0.04899 0.50380
# Poissons Ratio (y) = -0.05486 0.19232
# Poissons Ratio (z) = 0.20761 0.07077
#
# Static dielectric constant tensor:
#      x y z
#    x 1.826290 -0.027140 -0.030180 
#    y -0.027140 1.831360 0.071790 
#    z -0.030180 0.071790 1.817210 
# 
# From -- ./inp_files/337286.got.cif
#   From: 2010.05.17/outbox.cif.g08.bks.cpg/sg2_169_cif.got.tgz:337286.got - 2010.06.03 11:33:40.
