data_PCOD9103199
_publ_section_title
;
Structure prediction by ZEFSAII (Michael W. Deem and Ramdas Pophale) SiO2 
 PCOD9103199
Probable space group: P -1
;
_chemical_formula_sum "Si O2"
_cell_formula_units_Z 16
_cell_length_a 26.234185
_cell_length_b 17.230641
_cell_length_c 19.298502
_cell_angle_alpha 25.748853
_cell_angle_beta 163.225375
_cell_angle_gamma 162.068108
_cell_volume 770.004354
_symmetry_space_group_name_H-M "P -1"
_symmetry_group_IT_number 2
_symmetry_cell_setting 'triclinic'
loop_
_space_group_symop_operation_xyz
x,y,z
-x,-y,-z
loop_
_atom_site_type_symbol
_atom_site_label
_atom_site_fract_x
_atom_site_fract_y
_atom_site_fract_z
Si Si1 0.424774 0.272424 0.416977
Si Si2 0.099990 0.171402 0.563855
Si Si3 0.001486 0.254096 0.170400
Si Si4 0.899336 0.546567 0.268521
Si Si5 0.470934 0.973650 0.164275
Si Si6 0.644079 0.713941 0.839018
Si Si7 0.905489 0.435966 0.088686
Si Si8 0.006996 0.748060 0.101562
O O1 0.718128 0.518044 0.618083
O O2 0.402667 0.228335 0.342258
O O3 0.240005 0.302618 0.170890
O O4 0.369994 0.053444 0.563238
O O5 0.998030 0.298995 0.325757
O O6 0.392572 0.420720 0.758854
O O7 0.020655 0.975912 0.677681
O O8 0.000000 0.000000 0.500000
O O9 0.981552 0.359634 0.990635
O O10 0.777052 0.154319 0.010177
O O11 0.632574 0.264468 0.127343
O O12 0.000000 0.500000 0.500000
O O13 0.854162 0.714693 0.100523
O O14 0.043809 0.668234 0.286022
O O15 0.380277 0.803521 0.115006
O O16 0.757128 0.948442 0.846234
O O17 0.957195 0.577739 0.111826
#
# Coordination Sequence:
#
# PCOD9103199 Si02
#       8
#     2   2   2   2   2   2   2   2
#     4  10  20  38  65  92 126 164 210 262 311 378
#     4  12  21  41  70  98 120 162 223 272 310 362
#     4  11  22  40  69  99 121 164 220 268 311 363
#     4  11  22  40  65  93 124 164 219 263 307 383
#     4  11  20  38  67  99 120 161 222 268 309 360
#     4  11  20  40  65  87 126 163 214 263 308 376
#     4  11  25  42  62  97 136 165 208 260 325 386
#     4  11  26  42  57  94 135 175 199 251 335 384
#
# _framework density 20.779102000000002
#
# number of rings (size 3 to 8) (size 9 to 14) (size 15 to 20)
#    0.000    1.000    3.750    5.250    1.750    3.000 
#    4.500    0.625    0.000    0.000    0.000    0.000 
#    0.000    0.000    0.000    0.000    0.000    0.000 
#
# Total GULP energy -89216.002194 kJ/mol
# GULP energy per Si atom -5576.000137 kJ/mol
# Density = 2.073181 g / cm^3
# Si number density = 20.779102 Si / 1000 Ang^3
#
#
#
# Elastic Constant Matrix: (Units=GPa)
#
#
# Indices 1 2 3 4 5 6 
#
# 1 50.7762 52.5454 25.9441 -10.0028 -12.4175 -15.0056
# 2 52.5454 175.1941 33.4175 -5.3226 -5.5369 -10.7406
# 3 25.9441 33.4175 87.1628 -14.1516 -19.5354 -5.8562
# 4 -10.0028 -5.3226 -14.1516 46.6603 8.3372 -1.1219
# 5 -12.4175 -5.5369 -19.5354 8.3372 19.7481 -2.3579
# 6 -15.0056 -10.7406 -5.8562 -1.1219 -2.3579 31.3762
#
#
#
# Elastic Compliance Matrix: (Units=1/GPa)
#
#
# Indices 1 2 3 4 5 6 
#
# 1 0.043815 -0.010793 -0.001766 0.003902 0.023379 0.018827
# 2 -0.010793 0.008909 -0.001928 -0.000847 -0.006193 -0.002967
# 3 -0.001766 -0.001928 0.016381 0.001922 0.014063 0.002679
# 4 0.003902 -0.000847 0.001922 0.023822 -0.005658 0.002361
# 5 0.023379 -0.006193 0.014063 -0.005658 0.082009 0.017646
# 6 0.018827 -0.002967 0.002679 0.002361 0.017646 0.041770
#
#
# Mechanical properties :
#
#
# Convention : Reuss Voigt Hill
#
# Bulk Modulus (GPa) = 24.91740 59.66080 42.28910
# Shear Modulus (GPa) = 19.30081 32.97201 26.13641
#
# Velocity S-wave (km/s) = 3.05102 3.98777 3.55043
# Velocity P-wave (km/s) = 4.94259 7.06947 6.09945
#
# Compressibility (1/GPa) = 0.04013259
#
# Stress axis : x y z
#
# Youngs Moduli (GPa) = 22.82325 112.24044 61.04545
#
# Poissons Ratio (x) = 1.21140 0.10778
# Poissons Ratio (y) = 0.24633 0.11770
# Poissons Ratio (z) = 0.04030 0.21641
#
# Static dielectric constant tensor:
#      x y z
#    x 1.746580 0.027430 -0.002050 
#    y 0.027430 1.807890 0.034890 
#    z -0.002050 0.034890 1.824100 
# 
# From -- ./inp_files/281810.got.cif
#   From: 2010.05.17/outbox.cif.g08.bks.cpg/sg2_141_cif.got.tgz:281810.got - 2010.06.03 11:33:40.
