data_PCOD9103985
_publ_section_title
;
Structure prediction by ZEFSAII (Michael W. Deem and Ramdas Pophale) SiO2 
 PCOD9103985
Probable space group: P -1
;
_chemical_formula_sum "Si O2"
_cell_formula_units_Z 14
_cell_length_a 10.364637
_cell_length_b 16.814071
_cell_length_c 12.322561
_cell_angle_alpha 27.996802
_cell_angle_beta 127.957614
_cell_angle_gamma 138.855675
_cell_volume 654.573443
_symmetry_space_group_name_H-M "P -1"
_symmetry_group_IT_number 2
_symmetry_cell_setting 'triclinic'
loop_
_space_group_symop_operation_xyz
x,y,z
-x,-y,-z
loop_
_atom_site_type_symbol
_atom_site_label
_atom_site_fract_x
_atom_site_fract_y
_atom_site_fract_z
Si Si1 0.063460 0.435299 0.717557
Si Si2 0.663025 0.967165 0.577744
Si Si3 0.454807 0.441549 0.876332
Si Si4 0.681293 0.977594 0.117883
Si Si5 0.069879 0.795893 0.381948
Si Si6 0.767148 0.892431 0.501962
Si Si7 0.690738 0.790459 0.132726
O O1 0.269913 0.461311 0.771985
O O2 0.083951 0.602050 0.611828
O O3 0.000000 0.500000 0.500000
O O4 0.889666 0.198045 0.937757
O O5 0.696972 0.984862 0.445707
O O6 0.500000 0.000000 0.500000
O O7 0.866990 0.116919 0.568964
O O8 0.587703 0.739915 0.849503
O O9 0.655587 0.651870 0.756974
O O10 0.455378 0.375189 0.832138
O O11 0.702811 0.907525 0.330725
O O12 0.630708 0.818445 0.186352
O O13 0.500000 0.000000 0.000000
O O14 0.859841 0.748988 0.293100
O O15 0.218603 0.989681 0.146535
O O16 0.000000 0.000000 0.500000
#
# Coordination Sequence:
#
# PCOD9103985 Si02
#       7
#     2   2   2   2   2   2   2
#     4  12  20  41  72 107 135 181 236 278 345 420
#     4  11  25  45  72  98 136 189 242 277 330 430
#     4  11  24  43  77  98 131 186 240 281 335 425
#     4  12  27  42  66 104 148 179 224 294 356 405
#     4  10  20  38  71 101 128 171 236 286 321 401
#     4  12  27  48  66 101 148 183 224 293 365 409
#     4  10  20  40  66 101 133 169 228 287 340 398
#
# _framework density 21.387975000000001
#
# number of rings (size 3 to 8) (size 9 to 14) (size 15 to 20)
#    0.000    0.857    2.857    5.571    4.000    1.714 
#    2.571    1.429    0.000    0.000    0.000    0.000 
#    0.000    0.000    0.000    0.000    0.000    0.000 
#
# Total GULP energy -78315.814744 kJ/mol
# GULP energy per Si atom -5593.986767 kJ/mol
# Density = 2.133930 g / cm^3
# Si number density = 21.387975 Si / 1000 Ang^3
#
#
#
# Elastic Constant Matrix: (Units=GPa)
#
#
# Indices 1 2 3 4 5 6 
#
# 1 117.9419 50.1553 22.7812 -2.7344 15.3508 -20.5720
# 2 50.1553 104.2463 14.0496 -10.9010 -5.6521 -23.0505
# 3 22.7812 14.0496 61.7281 -4.7375 15.8404 -8.8238
# 4 -2.7344 -10.9010 -4.7375 40.6851 -2.4149 -6.6548
# 5 15.3508 -5.6521 15.8404 -2.4149 27.4442 7.9296
# 6 -20.5720 -23.0505 -8.8238 -6.6548 7.9296 53.0606
#
#
#
# Elastic Compliance Matrix: (Units=1/GPa)
#
#
# Indices 1 2 3 4 5 6 
#
# 1 0.012923 -0.005912 -0.000597 -0.000739 -0.009214 0.003627
# 2 -0.005912 0.014180 -0.002081 0.004061 0.006920 0.002997
# 3 -0.000597 -0.002081 0.021155 0.001822 -0.013481 0.004625
# 4 -0.000739 0.004061 0.001822 0.026708 0.001114 0.004964
# 5 -0.009214 0.006920 -0.013481 0.001114 0.053998 -0.010738
# 6 0.003627 0.002997 0.004625 0.004964 -0.010738 0.024551
#
#
# Mechanical properties :
#
#
# Convention : Reuss Voigt Hill
#
# Bulk Modulus (GPa) = 32.17882 50.87653 41.52768
# Shear Modulus (GPa) = 27.61602 37.36665 32.49134
#
# Velocity S-wave (km/s) = 3.59722 4.18435 3.90184
# Velocity P-wave (km/s) = 5.68606 6.86907 6.30537
#
# Compressibility (1/GPa) = 0.03107634
#
# Stress axis : x y z
#
# Youngs Moduli (GPa) = 77.38138 70.52190 47.27102
#
# Poissons Ratio (x) = 0.41691 0.02824
# Poissons Ratio (y) = 0.45747 0.09838
# Poissons Ratio (z) = 0.04623 0.14678
#
# Static dielectric constant tensor:
#      x y z
#    x 1.831090 -0.046520 -0.022910 
#    y -0.046520 1.802900 -0.022070 
#    z -0.022910 -0.022070 1.775410 
# 
# From -- ./inp_files/279280.got.cif
#   From: 2010.05.17/outbox.cif.g08.bks.cpg/sg2_140_cif.got.tgz:279280.got - 2010.06.03 11:33:40.
