data_PCOD9103179
_publ_section_title
;
Structure prediction by ZEFSAII (Michael W. Deem and Ramdas Pophale) SiO2 
 PCOD9103179
Probable space group: P -1
;
_chemical_formula_sum "Si O2"
_cell_formula_units_Z 16
_cell_length_a 10.223687
_cell_length_b 10.833554
_cell_length_c 13.904207
_cell_angle_alpha 57.453509
_cell_angle_beta 34.513392
_cell_angle_gamma 79.293151
_cell_volume 619.473260
_symmetry_space_group_name_H-M "P -1"
_symmetry_group_IT_number 2
_symmetry_cell_setting 'triclinic'
loop_
_space_group_symop_operation_xyz
x,y,z
-x,-y,-z
loop_
_atom_site_type_symbol
_atom_site_label
_atom_site_fract_x
_atom_site_fract_y
_atom_site_fract_z
Si Si1 0.697372 0.501755 0.162443
Si Si2 0.424809 0.961422 0.318317
Si Si3 0.021928 0.178816 0.883291
Si Si4 0.453022 0.653738 0.376645
Si Si5 0.189837 0.154768 0.595334
Si Si6 0.273997 0.222107 0.289685
Si Si7 0.787706 0.160104 0.295540
Si Si8 0.857791 0.535121 0.830349
O O1 0.511993 0.572490 0.283490
O O2 0.508324 0.292961 0.382158
O O3 0.758649 0.524818 0.003299
O O4 0.000090 0.649489 0.957252
O O5 0.272471 0.051298 0.332328
O O6 0.484700 0.840878 0.267005
O O7 0.270095 0.841614 0.555282
O O8 0.714860 0.125193 0.117664
O O9 0.312629 0.313950 0.701321
O O10 0.036064 0.194692 0.752560
O O11 0.000000 0.000000 0.000000
O O12 0.133828 0.534082 0.653063
O O13 0.206201 0.201649 0.453895
O O14 0.063042 0.948702 0.760838
O O15 0.106372 0.295149 0.312221
O O16 0.590175 0.373413 0.012115
O O17 0.500000 0.000000 0.500000
#
# Coordination Sequence:
#
# PCOD9103179 Si02
#       8
#     2   2   2   2   2   2   2   2
#     4  11  24  42  64  99 133 173 228 266 334 403
#     4  10  20  38  65  91 125 178 213 268 335 385
#     4  10  21  40  62  96 138 167 216 268 330 402
#     4  11  22  40  63  96 132 172 212 272 332 393
#     4  10  23  41  64  96 128 176 224 271 329 399
#     4   9  22  44  67  92 126 176 226 278 329 394
#     4  11  20  39  63  92 134 174 215 276 328 390
#     4  10  22  46  65  91 137 172 219 283 334 380
#
# _framework density 25.828392999999998
#
# number of rings (size 3 to 8) (size 9 to 14) (size 15 to 20)
#    0.000    1.750    1.250    3.750    1.750    1.500 
#    6.750    2.500    0.000    0.000    0.000    0.000 
#    0.000    0.000    0.000    0.000    0.000    0.000 
#
# Total GULP energy -89265.757099 kJ/mol
# GULP energy per Si atom -5579.109819 kJ/mol
# Density = 2.576961 g / cm^3
# Si number density = 25.828393 Si / 1000 Ang^3
#
#
#
# Elastic Constant Matrix: (Units=GPa)
#
#
# Indices 1 2 3 4 5 6 
#
# 1 53.2631 9.7043 2.0879 -0.2893 -8.3802 -23.7946
# 2 9.7043 107.8609 44.9125 -20.1305 -3.5004 -11.2024
# 3 2.0879 44.9125 139.5393 -9.6791 -10.7374 7.0016
# 4 -0.2893 -20.1305 -9.6791 69.1530 -3.0476 2.1633
# 5 -8.3802 -3.5004 -10.7374 -3.0476 37.1527 5.7745
# 6 -23.7946 -11.2024 7.0016 2.1633 5.7745 38.8782
#
#
#
# Elastic Compliance Matrix: (Units=1/GPa)
#
#
# Indices 1 2 3 4 5 6 
#
# 1 0.026419 -0.000367 -0.000856 -0.000469 0.003188 0.015770
# 2 -0.000367 0.011787 -0.003820 0.002758 -0.000436 0.003771
# 3 -0.000856 -0.003820 0.008813 0.000345 0.002584 -0.003615
# 4 -0.000469 0.002758 0.000345 0.015402 0.001618 -0.000652
# 5 0.003188 -0.000436 0.002584 0.001618 0.028944 -0.003029
# 6 0.015770 0.003771 -0.003615 -0.000652 -0.003029 0.037597
#
#
# Mechanical properties :
#
#
# Convention : Reuss Voigt Hill
#
# Bulk Modulus (GPa) = 27.07501 46.00808 36.54154
# Shear Modulus (GPa) = 33.03425 45.30068 39.16746
#
# Velocity S-wave (km/s) = 3.58018 4.19251 3.89839
# Velocity P-wave (km/s) = 5.25315 6.42557 5.86871
#
# Compressibility (1/GPa) = 0.03693443
#
# Stress axis : x y z
#
# Youngs Moduli (GPa) = 37.85110 84.83967 113.47104
#
# Poissons Ratio (x) = 0.03112 0.09711
# Poissons Ratio (y) = 0.01388 0.43343
# Poissons Ratio (z) = 0.03239 0.32407
#
# Static dielectric constant tensor:
#      x y z
#    x 2.156140 0.002100 -0.171310 
#    y 0.002100 2.185590 -0.044560 
#    z -0.171310 -0.044560 2.133290 
# 
# From -- ./inp_files/519568.got.cif
#   From: 2010.05.17/outbox.cif.g08.bks.cpg/sg2_260_cif.got.tgz:519568.got - 2010.06.03 11:33:40.
