data_PCOD9103129
_publ_section_title
;
Structure prediction by ZEFSAII (Michael W. Deem and Ramdas Pophale) SiO2 
 PCOD9103129
Probable space group: P -1
;
_chemical_formula_sum "Si O2"
_cell_formula_units_Z 14
_cell_length_a 7.653787
_cell_length_b 16.164498
_cell_length_c 7.984388
_cell_angle_alpha 55.413006
_cell_angle_beta 84.163451
_cell_angle_gamma 125.978107
_cell_volume 498.310450
_symmetry_space_group_name_H-M "P -1"
_symmetry_group_IT_number 2
_symmetry_cell_setting 'triclinic'
loop_
_space_group_symop_operation_xyz
x,y,z
-x,-y,-z
loop_
_atom_site_type_symbol
_atom_site_label
_atom_site_fract_x
_atom_site_fract_y
_atom_site_fract_z
Si Si1 0.384427 0.438182 0.294395
Si Si2 0.287144 0.036755 0.885847
Si Si3 0.314603 0.094027 0.347310
Si Si4 0.888558 0.387444 0.799581
Si Si5 0.158032 0.285914 0.861834
Si Si6 0.799243 0.129695 0.601689
Si Si7 0.615166 0.334013 0.344859
O O1 0.305768 0.367943 0.572309
O O2 0.629076 0.626837 0.102271
O O3 0.518248 0.402452 0.230961
O O4 0.087098 0.323651 0.364771
O O5 0.549739 0.083682 0.754336
O O6 0.418042 0.205404 0.665818
O O7 0.172216 0.949234 0.176868
O O8 0.046874 0.900324 0.931227
O O9 0.508549 0.210321 0.355007
O O10 0.262697 0.952956 0.471105
O O11 0.548762 0.235062 0.023601
O O12 0.000000 0.000000 0.500000
O O13 0.000000 0.500000 0.500000
O O14 0.984998 0.313683 0.866161
O O15 0.064887 0.514254 0.792231
#
# Coordination Sequence:
#
# PCOD9103129 Si02
#       7
#     2   2   2   2   2   2   2
#     4   9  19  37  60  92 131 169 216 273 329 378
#     4  10  21  39  68  97 123 178 229 274 319 397
#     4  12  24  45  64  99 142 177 213 282 340 394
#     4  11  24  45  71  98 128 180 231 273 325 404
#     4   9  19  38  64  92 131 168 219 277 326 376
#     4  10  20  38  65  88 134 172 221 268 331 379
#     4  11  24  40  67  99 135 174 223 268 343 403
#
# _framework density 28.094939
#
# number of rings (size 3 to 8) (size 9 to 14) (size 15 to 20)
#    0.000    1.714    2.857    1.286    4.000    2.857 
#   12.857    0.000    0.000    2.571    0.000    0.000 
#    0.000    0.000    0.000    0.000    0.000    0.000 
#
# Total GULP energy -78408.816406 kJ/mol
# GULP energy per Si atom -5600.629743 kJ/mol
# Density = 2.803099 g / cm^3
# Si number density = 28.094939 Si / 1000 Ang^3
#
#
#
# Elastic Constant Matrix: (Units=GPa)
#
#
# Indices 1 2 3 4 5 6 
#
# 1 100.5843 40.9492 27.0013 -10.6090 -28.2480 -14.5871
# 2 40.9492 199.9805 44.6249 -33.9869 -23.5279 16.3596
# 3 27.0013 44.6249 146.6511 -26.7047 -25.1038 16.1294
# 4 -10.6090 -33.9869 -26.7047 60.9387 12.4781 -7.2979
# 5 -28.2480 -23.5279 -25.1038 12.4781 30.4372 -9.8784
# 6 -14.5871 16.3596 16.1294 -7.2979 -9.8784 39.5102
#
#
#
# Elastic Compliance Matrix: (Units=1/GPa)
#
#
# Indices 1 2 3 4 5 6 
#
# 1 0.018187 -0.002514 -0.000957 -0.000959 0.018638 0.012629
# 2 -0.002514 0.006322 -0.000698 0.002433 0.000074 -0.002793
# 3 -0.000957 -0.000698 0.008516 0.002092 0.004043 -0.002144
# 4 -0.000959 0.002433 0.002092 0.019611 -0.005298 0.000083
# 5 0.018638 0.000074 0.004043 -0.005298 0.062128 0.019755
# 6 0.012629 -0.002793 -0.002144 0.000083 0.019755 0.036958
#
#
# Mechanical properties :
#
#
# Convention : Reuss Voigt Hill
#
# Bulk Modulus (GPa) = 40.50610 74.70741 57.60676
# Shear Modulus (GPa) = 29.71102 48.48659 39.09881
#
# Velocity S-wave (km/s) = 3.25548 4.15880 3.73455
# Velocity P-wave (km/s) = 5.34601 7.05050 6.25657
#
# Compressibility (1/GPa) = 0.02468764
#
# Stress axis : x y z
#
# Youngs Moduli (GPa) = 54.98483 158.18787 117.42319
#
# Poissons Ratio (x) = 0.39766 0.11234
# Poissons Ratio (y) = 0.13822 0.08195
# Poissons Ratio (z) = 0.05260 0.11040
#
# Static dielectric constant tensor:
#      x y z
#    x 2.156010 0.014950 0.023050 
#    y 0.014950 2.189130 0.077010 
#    z 0.023050 0.077010 2.269900 
# 
# From -- ./inp_files/217037.got.cif
#   From: 2010.05.17/outbox.cif.g08.bks.cpg/sg2_109_cif.got.tgz:217037.got - 2010.06.03 11:33:40.
