data_PCOD9103849
_publ_section_title
;
Structure prediction by ZEFSAII (Michael W. Deem and Ramdas Pophale) SiO2 
 PCOD9103849
Probable space group: P -1
;
_chemical_formula_sum "Si O2"
_cell_formula_units_Z 13
_cell_length_a 14.258365
_cell_length_b 7.918222
_cell_length_c 12.005822
_cell_angle_alpha 144.531527
_cell_angle_beta 35.368330
_cell_angle_gamma 137.090156
_cell_volume 445.748549
_symmetry_space_group_name_H-M "P -1"
_symmetry_group_IT_number 2
_symmetry_cell_setting 'triclinic'
loop_
_space_group_symop_operation_xyz
x,y,z
-x,-y,-z
loop_
_atom_site_type_symbol
_atom_site_label
_atom_site_fract_x
_atom_site_fract_y
_atom_site_fract_z
Si Si1 0.000000 0.000000 0.500000
Si Si2 0.623999 0.416873 0.508238
Si Si3 0.068593 0.494604 0.054642
Si Si4 0.712045 0.941625 0.567164
Si Si5 0.732179 0.865407 0.222034
Si Si6 0.646225 0.944499 0.949455
Si Si7 0.303049 0.462748 0.148120
O O1 0.959820 0.635754 0.322568
O O2 0.875241 0.028062 0.531619
O O3 0.674360 0.579110 0.427854
O O4 0.430819 0.244450 0.602151
O O5 0.629515 0.685546 0.734934
O O6 0.709067 0.159222 0.337503
O O7 0.233847 0.756451 0.044576
O O8 0.114063 0.186050 0.879992
O O9 0.000000 0.500000 0.000000
O O10 0.746631 0.230284 0.604859
O O11 0.533254 0.002159 0.816729
O O12 0.730279 0.630266 0.996446
O O13 0.755735 0.824911 0.873720
O O14 0.500000 0.500000 0.000000
#
# Coordination Sequence:
#
# PCOD9103849 Si02
#       7
#     1   2   2   2   2   2   2
#     4  12  24  44  76 102 140 182 232 286 356 410
#     4  11  20  38  73  98 128 187 225 290 353 410
#     4  12  27  50  71 102 144 189 235 292 349 420
#     4  11  21  42  72  97 137 188 232 285 356 418
#     4  11  22  42  66 105 142 168 243 293 336 423
#     4  11  21  45  72  97 137 186 235 284 356 413
#     4  10  20  38  68  99 133 177 228 289 340 414
#
# _framework density 29.164424
#
# number of rings (size 3 to 8) (size 9 to 14) (size 15 to 20)
#    0.000    0.923    7.692    0.462    0.000    2.462 
#    5.538    6.923    0.000    0.000    0.000    0.000 
#    0.000    0.000    0.000    0.000    0.000    0.000 
#
# Total GULP energy -72424.436786 kJ/mol
# GULP energy per Si atom -5571.110522 kJ/mol
# Density = 2.909804 g / cm^3
# Si number density = 29.164424 Si / 1000 Ang^3
#
#
#
# Elastic Constant Matrix: (Units=GPa)
#
#
# Indices 1 2 3 4 5 6 
#
# 1 115.6868 17.1149 19.8003 28.5552 -36.3564 -20.2772
# 2 17.1149 99.2456 56.7405 33.7845 -19.4271 -19.1349
# 3 19.8003 56.7405 151.3868 51.7545 -29.2329 -24.1688
# 4 28.5552 33.7845 51.7545 50.8175 -15.7821 -20.7591
# 5 -36.3564 -19.4271 -29.2329 -15.7821 69.1162 22.8773
# 6 -20.2772 -19.1349 -24.1688 -20.7591 22.8773 51.1951
#
#
#
# Elastic Compliance Matrix: (Units=1/GPa)
#
#
# Indices 1 2 3 4 5 6 
#
# 1 0.011710 0.000435 0.001725 -0.006776 0.005299 0.000499
# 2 0.000435 0.014119 -0.002952 -0.005762 0.001248 0.001161
# 3 0.001725 -0.002952 0.011318 -0.009798 0.002714 -0.000263
# 4 -0.006776 -0.005762 -0.009798 0.039622 -0.002894 0.007897
# 5 0.005299 0.001248 0.002714 -0.002894 0.020196 -0.006352
# 6 0.000499 0.001161 -0.000263 0.007897 -0.006352 0.026081
#
#
# Mechanical properties :
#
#
# Convention : Reuss Voigt Hill
#
# Bulk Modulus (GPa) = 28.12056 61.51451 44.81754
# Shear Modulus (GPa) = 36.63398 52.40333 44.51866
#
# Velocity S-wave (km/s) = 3.54802 4.24349 3.91125
# Velocity P-wave (km/s) = 5.14272 6.71921 5.98312
#
# Compressibility (1/GPa) = 0.03556117
#
# Stress axis : x y z
#
# Youngs Moduli (GPa) = 85.39864 70.82866 88.35220
#
# Poissons Ratio (x) = -0.03078 -0.15241
# Poissons Ratio (y) = -0.03711 0.26085
# Poissons Ratio (z) = -0.14731 0.20911
#
# Static dielectric constant tensor:
#      x y z
#    x 2.552910 -0.243270 0.127080 
#    y -0.243270 2.739200 -0.362730 
#    z 0.127080 -0.362730 2.645550 
# 
# From -- ./inp_files/342090.got.cif
#   From: 2010.05.17/outbox.cif.g08.bks.cpg/sg2_172_cif.got.tgz:342090.got - 2010.06.03 11:33:40.
