data_PCOD9103375
_publ_section_title
;
Structure prediction by ZEFSAII (Michael W. Deem and Ramdas Pophale) SiO2 
 PCOD9103375
Probable space group: P -1
;
_chemical_formula_sum "Si O2"
_cell_formula_units_Z 14
_cell_length_a 7.603110
_cell_length_b 16.658816
_cell_length_c 11.024125
_cell_angle_alpha 42.674767
_cell_angle_beta 100.631215
_cell_angle_gamma 131.064900
_cell_volume 579.246159
_symmetry_space_group_name_H-M "P -1"
_symmetry_group_IT_number 2
_symmetry_cell_setting 'triclinic'
loop_
_space_group_symop_operation_xyz
x,y,z
-x,-y,-z
loop_
_atom_site_type_symbol
_atom_site_label
_atom_site_fract_x
_atom_site_fract_y
_atom_site_fract_z
Si Si1 0.036115 0.222099 0.286003
Si Si2 0.607690 0.414124 0.538451
Si Si3 0.807013 0.470161 0.887197
Si Si4 0.831651 0.307474 0.543447
Si Si5 0.725831 0.036527 0.223295
Si Si6 0.593017 0.804752 0.679010
Si Si7 0.709821 0.710383 0.131190
O O1 0.112456 0.360252 0.236706
O O2 0.297740 0.273392 0.220567
O O3 0.884900 0.193551 0.175186
O O4 0.808640 0.008263 0.545697
O O5 0.670957 0.324243 0.582147
O O6 0.583735 0.510750 0.336379
O O7 0.348843 0.276689 0.753762
O O8 0.896912 0.594287 0.452859
O O9 0.495196 0.319441 0.948140
O O10 0.024669 0.560568 0.704662
O O11 0.714901 0.344987 0.131884
O O12 0.583055 0.082714 0.732384
O O13 0.632077 0.872221 0.472281
O O14 0.965754 0.129467 0.052599
#
# Coordination Sequence:
#
# PCOD9103375 Si02
#       7
#     2   2   2   2   2   2   2
#     4   9  19  34  57  92 125 145 201 241 268 373
#     4   9  22  42  60  83 113 152 218 247 290 354
#     4  11  20  37  64  88 126 162 187 235 308 348
#     4  10  23  40  57  86 122 158 189 256 306 342
#     4  10  21  36  59  90 123 149 197 242 303 347
#     4   9  19  36  56  94 122 151 200 238 272 372
#     4  10  20  38  66  86 106 163 204 248 292 343
#
# _framework density 24.169343999999999
#
# number of rings (size 3 to 8) (size 9 to 14) (size 15 to 20)
#    0.857    1.429    1.429    0.429    2.000    2.286 
#    2.571    0.000    6.286    0.000    0.000    0.000 
#    0.000    0.000    0.000    0.000    0.000    0.000 
#
# Total GULP energy -78109.474926 kJ/mol
# GULP energy per Si atom -5579.248209 kJ/mol
# Density = 2.411433 g / cm^3
# Si number density = 24.169344 Si / 1000 Ang^3
#
#
#
# Elastic Constant Matrix: (Units=GPa)
#
#
# Indices 1 2 3 4 5 6 
#
# 1 43.7463 8.8616 33.8057 0.9079 -16.5381 -18.6743
# 2 8.8616 64.2610 23.5738 4.5987 -11.4362 6.1597
# 3 33.8057 23.5738 122.7212 8.6438 -39.8041 -12.0550
# 4 0.9079 4.5987 8.6438 22.9973 3.1563 -7.7857
# 5 -16.5381 -11.4362 -39.8041 3.1563 38.7422 1.3654
# 6 -18.6743 6.1597 -12.0550 -7.7857 1.3654 22.7601
#
#
#
# Elastic Compliance Matrix: (Units=1/GPa)
#
#
# Indices 1 2 3 4 5 6 
#
# 1 0.053931 -0.009170 -0.005864 0.016867 0.011198 0.048723
# 2 -0.009170 0.020053 -0.001949 -0.008888 0.001330 -0.017104
# 3 -0.005864 -0.001949 0.014716 -0.006445 0.012546 0.000553
# 4 0.016867 -0.008888 -0.006445 0.059529 -0.008082 0.033680
# 5 0.011198 0.001330 0.012546 -0.008082 0.044178 0.010058
# 6 0.048723 -0.017104 0.000553 0.033680 0.010058 0.099753
#
#
# Mechanical properties :
#
#
# Convention : Reuss Voigt Hill
#
# Bulk Modulus (GPa) = 18.27049 40.35675 29.31362
# Shear Modulus (GPa) = 14.51924 27.86574 21.19249
#
# Velocity S-wave (km/s) = 2.45364 3.39918 2.96435
# Velocity P-wave (km/s) = 3.95005 5.66918 4.88582
#
# Compressibility (1/GPa) = 0.05473307
#
# Stress axis : x y z
#
# Youngs Moduli (GPa) = 18.54224 49.86740 67.95383
#
# Poissons Ratio (x) = 0.45730 0.39851
# Poissons Ratio (y) = 0.17004 0.13242
# Poissons Ratio (z) = 0.10874 0.09718
#
# Static dielectric constant tensor:
#      x y z
#    x 1.952290 0.100870 -0.009170 
#    y 0.100870 2.013250 0.010000 
#    z -0.009170 0.010000 1.925300 
# 
# From -- ./inp_files/273096.got.cif
#   From: 2010.05.17/outbox.cif.g08.bks.cpg/sg2_137_cif.got.tgz:273096.got - 2010.06.03 11:33:40.
