data_PCOD9103610
_publ_section_title
;
Structure prediction by ZEFSAII (Michael W. Deem and Ramdas Pophale) SiO2 
 PCOD9103610
Probable space group: P -1
;
_chemical_formula_sum "Si O2"
_cell_formula_units_Z 14
_cell_length_a 5.411547
_cell_length_b 18.980413
_cell_length_c 7.913097
_cell_angle_alpha 123.558063
_cell_angle_beta 63.624432
_cell_angle_gamma 128.136387
_cell_volume 526.129936
_symmetry_space_group_name_H-M "P -1"
_symmetry_group_IT_number 2
_symmetry_cell_setting 'triclinic'
loop_
_space_group_symop_operation_xyz
x,y,z
-x,-y,-z
loop_
_atom_site_type_symbol
_atom_site_label
_atom_site_fract_x
_atom_site_fract_y
_atom_site_fract_z
Si Si1 0.122887 0.637647 0.562872
Si Si2 0.556072 0.916883 0.452643
Si Si3 0.643079 0.863690 0.669901
Si Si4 0.676023 0.858522 0.015431
Si Si5 0.028888 0.793378 0.249766
Si Si6 0.473177 0.633901 0.779440
Si Si7 0.429639 0.586152 0.097256
O O1 0.350021 0.755349 0.644624
O O2 0.236254 0.606538 0.656986
O O3 0.759275 0.611453 0.635778
O O4 0.216974 0.597344 0.318864
O O5 0.311590 0.839686 0.090949
O O6 0.246263 0.808943 0.370738
O O7 0.500000 0.000000 0.500000
O O8 0.559851 0.930660 0.670534
O O9 0.791971 0.913579 0.231863
O O10 0.845537 0.848476 0.439055
O O11 0.815164 0.898166 0.841741
O O12 0.635337 0.751507 0.904435
O O13 0.773550 0.685337 0.137797
O O14 0.313555 0.586933 0.943818
O O15 0.500000 0.500000 0.000000
#
# Coordination Sequence:
#
# PCOD9103610 Si02
#       7
#     2   2   2   2   2   2   2
#     4  10  25  41  71 101 134 183 231 277 339 404
#     4  10  23  40  63  98 132 165 222 282 333 405
#     4  10  20  38  67  89 128 178 218 269 339 401
#     4   9  21  40  68  93 126 179 220 266 344 397
#     4   9  22  44  62  93 132 171 223 277 328 400
#     4  11  23  44  69  99 138 180 229 283 335 405
#     4  11  24  43  70 101 136 182 226 278 343 401
#
# _framework density 26.609394999999999
#
# number of rings (size 3 to 8) (size 9 to 14) (size 15 to 20)
#    0.857    1.143    0.000    3.429    6.000    3.429 
#    0.000    5.714    0.000    0.000    0.000    0.000 
#    0.000    0.000    0.000    0.000    0.000    0.000 
#
# Total GULP energy -78238.470007 kJ/mol
# GULP energy per Si atom -5588.462143 kJ/mol
# Density = 2.654883 g / cm^3
# Si number density = 26.609395 Si / 1000 Ang^3
#
#
#
# Elastic Constant Matrix: (Units=GPa)
#
#
# Indices 1 2 3 4 5 6 
#
# 1 92.7914 22.8128 61.1083 -16.0677 -0.2557 -5.9817
# 2 22.8128 92.1179 71.0067 -20.0483 24.5372 -10.8669
# 3 61.1083 71.0067 216.7488 -40.6397 15.4520 -32.1041
# 4 -16.0677 -20.0483 -40.6397 55.2622 -10.4117 19.0836
# 5 -0.2557 24.5372 15.4520 -10.4117 55.3305 -1.9699
# 6 -5.9817 -10.8669 -32.1041 19.0836 -1.9699 43.7032
#
#
#
# Elastic Compliance Matrix: (Units=1/GPa)
#
#
# Indices 1 2 3 4 5 6 
#
# 1 0.013562 -0.000862 -0.003559 0.001943 0.001742 -0.001743
# 2 -0.000862 0.016315 -0.004465 0.001372 -0.005741 -0.000199
# 3 -0.003559 -0.004465 0.007947 0.002084 0.000255 0.003342
# 4 0.001943 0.001372 0.002084 0.024119 0.003063 -0.008256
# 5 0.001742 -0.005741 0.000255 0.003063 0.021083 -0.001389
# 6 -0.001743 -0.000199 0.003342 -0.008256 -0.001389 0.028591
#
#
# Mechanical properties :
#
#
# Convention : Reuss Voigt Hill
#
# Bulk Modulus (GPa) = 49.86917 79.05706 64.46311
# Shear Modulus (GPa) = 36.74517 47.30787 42.02652
#
# Velocity S-wave (km/s) = 3.72009 4.22105 3.97846
# Velocity P-wave (km/s) = 6.10196 7.31649 6.73665
#
# Compressibility (1/GPa) = 0.02005247
#
# Stress axis : x y z
#
# Youngs Moduli (GPa) = 73.73802 61.29332 125.82985
#
# Poissons Ratio (x) = 0.05283 0.44784
# Poissons Ratio (y) = 0.06355 0.56180
# Poissons Ratio (z) = 0.26244 0.27366
#
# Static dielectric constant tensor:
#      x y z
#    x 2.704260 -0.079460 0.305520 
#    y -0.079460 2.103060 -0.016440 
#    z 0.305520 -0.016440 2.247240 
# 
# From -- ./inp_files/54532.got.cif
#   From: 2010.05.17/outbox.cif.g08.bks.cpg/sg2_28_cif.got.tgz:54532.got - 2010.06.03 11:33:40.
