data_PCOD9103155
_publ_section_title
;
Structure prediction by ZEFSAII (Michael W. Deem and Ramdas Pophale) SiO2 
 PCOD9103155
Probable space group: P -1
;
_chemical_formula_sum "Si O2"
_cell_formula_units_Z 11
_cell_length_a 8.901127
_cell_length_b 8.780734
_cell_length_c 7.877047
_cell_angle_alpha 131.869631
_cell_angle_beta 108.191091
_cell_angle_gamma 94.711956
_cell_volume 397.127651
_symmetry_space_group_name_H-M "P -1"
_symmetry_group_IT_number 2
_symmetry_cell_setting 'triclinic'
loop_
_space_group_symop_operation_xyz
x,y,z
-x,-y,-z
loop_
_atom_site_type_symbol
_atom_site_label
_atom_site_fract_x
_atom_site_fract_y
_atom_site_fract_z
Si Si1 0.692969 0.010228 0.111115
Si Si2 0.154563 0.895157 0.420066
Si Si3 0.000000 0.500000 0.500000
Si Si4 0.156524 0.446096 0.770601
Si Si5 0.413561 0.730798 0.299851
Si Si6 0.259315 0.215824 0.371281
O O1 0.721476 0.951071 0.270761
O O2 0.835084 0.262199 0.335675
O O3 0.500000 0.000000 0.000000
O O4 0.744338 0.869753 0.882389
O O5 0.227500 0.703009 0.281125
O O6 0.957920 0.765131 0.315807
O O7 0.183000 0.028361 0.353006
O O8 0.055107 0.592408 0.792949
O O9 0.162315 0.372812 0.514215
O O10 0.349907 0.579738 0.998818
O O11 0.537117 0.671938 0.422737
O O12 0.500000 0.000000 0.500000
#
# Coordination Sequence:
#
# PCOD9103155 Si02
#       6
#     2   2   1   2   2   2
#     4  11  23  44  69  97 136 178 227 268 340 404
#     4  10  22  40  68  96 127 180 217 270 339 397
#     4  10  24  40  66  94 134 178 220 274 330 396
#     4  11  23  41  66 100 132 172 228 272 336 398
#     4  10  20  38  65  90 127 175 212 266 328 392
#     4  11  23  42  68  98 136 170 217 287 328 393
#
# _framework density 27.698905
#
# number of rings (size 3 to 8) (size 9 to 14) (size 15 to 20)
#    0.000    1.455    1.818    3.818    2.545    4.364 
#    0.000    6.364    0.000    0.000    0.000    0.000 
#    0.000    0.000    0.000    0.000    0.000    0.000 
#
# Total GULP energy -61307.775198 kJ/mol
# GULP energy per Si atom -5573.434109 kJ/mol
# Density = 2.763586 g / cm^3
# Si number density = 27.698905 Si / 1000 Ang^3
#
#
#
# Elastic Constant Matrix: (Units=GPa)
#
#
# Indices 1 2 3 4 5 6 
#
# 1 138.9694 18.7304 44.8768 6.2047 0.3033 -14.9743
# 2 18.7304 95.1310 40.2074 -8.9477 6.2034 -2.6844
# 3 44.8768 40.2074 159.6756 -17.7022 13.0648 -2.7685
# 4 6.2047 -8.9477 -17.7022 28.7689 6.0859 6.5380
# 5 0.3033 6.2034 13.0648 6.0859 64.6473 -10.5317
# 6 -14.9743 -2.6844 -2.7685 6.5380 -10.5317 43.6613
#
#
#
# Elastic Compliance Matrix: (Units=1/GPa)
#
#
# Indices 1 2 3 4 5 6 
#
# 1 0.008954 -0.001033 -0.002929 -0.005362 0.001816 0.004063
# 2 -0.001033 0.012028 -0.002349 0.002830 -0.001011 -0.000432
# 3 -0.002929 -0.002349 0.008517 0.006128 -0.002402 -0.002106
# 4 -0.005362 0.002830 0.006128 0.044290 -0.007227 -0.009652
# 5 0.001816 -0.001011 -0.002402 -0.007227 0.017660 0.005750
# 6 0.004063 -0.000432 -0.002106 -0.009652 0.005750 0.026969
#
#
# Mechanical properties :
#
#
# Convention : Reuss Voigt Hill
#
# Bulk Modulus (GPa) = 59.25510 66.82280 63.03895
# Shear Modulus (GPa) = 36.58551 46.74624 41.66588
#
# Velocity S-wave (km/s) = 3.63826 4.11257 3.88266
# Velocity P-wave (km/s) = 6.25206 6.83579 6.55043
#
# Compressibility (1/GPa) = 0.01687618
#
# Stress axis : x y z
#
# Youngs Moduli (GPa) = 111.68028 83.13814 117.41326
#
# Poissons Ratio (x) = 0.08589 0.34390
# Poissons Ratio (y) = 0.11538 0.27585
# Poissons Ratio (z) = 0.32711 0.19532
#
# Static dielectric constant tensor:
#      x y z
#    x 2.374210 -0.130110 -0.091310 
#    y -0.130110 2.299090 -0.050860 
#    z -0.091310 -0.050860 2.412570 
# 
# From -- ./inp_files/162405.got.cif
#   From: 2010.05.17/outbox.cif.g08.bks.cpg/sg2_82_cif.got.tgz:162405.got - 2010.06.03 11:33:40.
