data_PCOD9103757
_publ_section_title
;
Structure prediction by ZEFSAII (Michael W. Deem and Ramdas Pophale) SiO2 
 PCOD9103757
Probable space group: P -1
;
_chemical_formula_sum "Si O2"
_cell_formula_units_Z 15
_cell_length_a 7.161982
_cell_length_b 13.387123
_cell_length_c 11.740126
_cell_angle_alpha 148.434808
_cell_angle_beta 79.215095
_cell_angle_gamma 99.442382
_cell_volume 578.797281
_symmetry_space_group_name_H-M "P -1"
_symmetry_group_IT_number 2
_symmetry_cell_setting 'triclinic'
loop_
_space_group_symop_operation_xyz
x,y,z
-x,-y,-z
loop_
_atom_site_type_symbol
_atom_site_label
_atom_site_fract_x
_atom_site_fract_y
_atom_site_fract_z
Si Si1 0.042131 0.950861 0.292512
Si Si2 0.227541 0.287352 0.382135
Si Si3 0.427282 0.294040 0.131871
Si Si4 0.471421 0.082016 0.338053
Si Si5 0.133442 0.687396 0.828235
Si Si6 0.922706 0.687660 0.251675
Si Si7 0.498007 0.579525 0.205591
Si Si8 0.000000 0.000000 0.000000
O O1 0.928431 0.842713 0.300341
O O2 0.276981 0.973337 0.298918
O O3 0.991255 0.176328 0.526298
O O4 0.016835 0.799660 0.046621
O O5 0.307870 0.346749 0.306750
O O6 0.401562 0.224311 0.383696
O O7 0.104910 0.461289 0.610090
O O8 0.120864 0.089352 0.179683
O O9 0.643979 0.294713 0.150689
O O10 0.407507 0.429774 0.157676
O O11 0.389865 0.074815 0.884633
O O12 0.566932 0.206283 0.548073
O O13 0.081627 0.786896 0.813295
O O14 0.719642 0.611225 0.240014
O O15 0.000000 0.500000 0.000000
O O16 0.500000 0.500000 0.000000
#
# Coordination Sequence:
#
# PCOD9103757 Si02
#       8
#     2   2   2   2   2   2   2   1
#     4   9  20  37  62  95 123 170 218 263 325 399
#     4  12  24  42  71 102 136 182 221 274 344 416
#     4  11  23  43  72  97 135 182 225 271 343 412
#     4  10  21  41  71  95 137 177 219 274 340 407
#     4  11  23  42  68  97 138 173 227 268 342 407
#     4  10  20  38  68  90 124 174 226 269 329 392
#     4  11  25  43  65 100 132 174 229 283 330 393
#     4  12  26  40  60 102 138 168 222 280 326 402
#
# _framework density 25.91581
#
# number of rings (size 3 to 8) (size 9 to 14) (size 15 to 20)
#    0.000    1.333    4.000    2.800    1.867    1.600 
#    0.000    4.000    0.000    0.000    0.000    0.000 
#    0.000    0.000    0.000    0.000    0.000    0.000 
#
# Total GULP energy -83537.953369 kJ/mol
# GULP energy per Si atom -5569.196891 kJ/mol
# Density = 2.585682 g / cm^3
# Si number density = 25.915810 Si / 1000 Ang^3
#
#
#
# Elastic Constant Matrix: (Units=GPa)
#
#
# Indices 1 2 3 4 5 6 
#
# 1 61.4641 6.7684 24.2119 -0.7640 5.3329 -3.8784
# 2 6.7684 140.1371 47.8042 -0.4423 -1.0631 16.1589
# 3 24.2119 47.8042 219.9482 4.7398 13.6735 4.5510
# 4 -0.7640 -0.4423 4.7398 48.4867 1.2947 -4.0610
# 5 5.3329 -1.0631 13.6735 1.2947 24.3300 -3.7820
# 6 -3.8784 16.1589 4.5510 -4.0610 -3.7820 13.8703
#
#
#
# Elastic Compliance Matrix: (Units=1/GPa)
#
#
# Indices 1 2 3 4 5 6 
#
# 1 0.017665 -0.001010 -0.001758 0.001035 -0.001980 0.006456
# 2 -0.001010 0.008921 -0.001595 -0.000644 -0.000068 -0.010359
# 3 -0.001758 -0.001595 0.005303 -0.000596 -0.002839 -0.001322
# 4 0.001035 -0.000644 -0.000596 0.021319 0.000112 0.007508
# 5 -0.001980 -0.000068 -0.002839 0.000112 0.045110 0.012790
# 6 0.006456 -0.010359 -0.001322 0.007508 0.012790 0.092089
#
#
# Mechanical properties :
#
#
# Convention : Reuss Voigt Hill
#
# Bulk Modulus (GPa) = 43.17098 64.34648 53.75873
# Shear Modulus (GPa) = 24.17169 40.18842 32.18005
#
# Velocity S-wave (km/s) = 3.05733 3.94220 3.52762
# Velocity P-wave (km/s) = 5.39975 6.75309 6.11398
#
# Compressibility (1/GPa) = 0.02316371
#
# Stress axis : x y z
#
# Youngs Moduli (GPa) = 56.60811 112.09881 188.55825
#
# Poissons Ratio (x) = 0.11318 0.33147
# Poissons Ratio (y) = 0.05716 0.30079
# Poissons Ratio (z) = 0.09951 0.17882
#
# Static dielectric constant tensor:
#      x y z
#    x 2.329830 -0.251610 0.035080 
#    y -0.251610 2.340060 -0.098460 
#    z 0.035080 -0.098460 2.158320 
# 
# From -- ./inp_files/396755.got.cif
#   From: 2010.05.17/outbox.cif.g08.bks.cpg/sg2_199_cif.got.tgz:396755.got - 2010.06.03 11:33:40.
