data_PCOD9103182
_publ_section_title
;
Structure prediction by ZEFSAII (Michael W. Deem and Ramdas Pophale) SiO2 
 PCOD9103182
Probable space group: P -1
;
_chemical_formula_sum "Si O2"
_cell_formula_units_Z 15
_cell_length_a 6.779173
_cell_length_b 7.504847
_cell_length_c 12.634438
_cell_angle_alpha 76.608664
_cell_angle_beta 96.774410
_cell_angle_gamma 105.432965
_cell_volume 601.684851
_symmetry_space_group_name_H-M "P -1"
_symmetry_group_IT_number 2
_symmetry_cell_setting 'triclinic'
loop_
_space_group_symop_operation_xyz
x,y,z
-x,-y,-z
loop_
_atom_site_type_symbol
_atom_site_label
_atom_site_fract_x
_atom_site_fract_y
_atom_site_fract_z
Si Si1 0.245331 0.891381 0.108698
Si Si2 0.462191 0.476908 0.246903
Si Si3 0.754043 0.940284 0.476349
Si Si4 0.846493 0.100999 0.239386
Si Si5 0.651013 0.815810 0.080636
Si Si6 0.980064 0.489596 0.873627
Si Si7 0.500000 0.500000 0.500000
Si Si8 0.308919 0.047332 0.303510
O O1 0.410313 0.824119 0.055810
O O2 0.033970 0.732355 0.118782
O O3 0.329497 0.909765 0.229967
O O4 0.247879 0.098822 0.035694
O O5 0.619471 0.608445 0.157339
O O6 0.236523 0.496311 0.194878
O O7 0.511260 0.531997 0.365176
O O8 0.446764 0.256109 0.266512
O O9 0.658049 0.714778 0.499418
O O10 0.677010 0.023840 0.566827
O O11 0.727685 0.030910 0.349903
O O12 0.000000 0.000000 0.500000
O O13 0.870129 0.321321 0.187754
O O14 0.075149 0.069449 0.272290
O O15 0.751284 0.970372 0.153515
O O16 0.000000 0.500000 0.000000
#
# Coordination Sequence:
#
# PCOD9103182 Si02
#       8
#     2   2   2   2   2   2   1   2
#     4  10  21  36  54  78 116 146 185 233 291 341
#     4   9  19  33  56  83 108 148 188 230 288 342
#     4   9  18  33  58  82 114 146 192 239 287 345
#     4  10  18  35  58  80 103 146 196 225 277 339
#     4  10  19  34  56  78 107 151 183 225 281 355
#     4  10  19  35  55  79 110 154 189 224 286 354
#     4  10  16  32  60  84 112 148 196 238 282 348
#     4   9  20  36  54  83 111 142 185 245 283 330
#
# _framework density 24.929995000000002
#
# number of rings (size 3 to 8) (size 9 to 14) (size 15 to 20)
#    0.000    2.400    2.667    0.800    0.000    1.067 
#    0.000    2.667    0.000    0.000    0.000    0.000 
#    0.000    0.000    0.000    0.000    0.000    0.000 
#
# Total GULP energy -83531.920381 kJ/mol
# GULP energy per Si atom -5568.794692 kJ/mol
# Density = 2.487325 g / cm^3
# Si number density = 24.929995 Si / 1000 Ang^3
#
#
#
# Elastic Constant Matrix: (Units=GPa)
#
#
# Indices 1 2 3 4 5 6 
#
# 1 65.4541 8.3562 10.3246 -5.5605 5.6607 11.0170
# 2 8.3562 147.9010 54.4898 -11.8570 -7.5951 27.1551
# 3 10.3246 54.4898 170.5775 -3.0073 -3.3031 19.6229
# 4 -5.5605 -11.8570 -3.0073 58.9529 13.7018 3.1033
# 5 5.6607 -7.5951 -3.3031 13.7018 40.1176 -8.3442
# 6 11.0170 27.1551 19.6229 3.1033 -8.3442 35.0990
#
#
#
# Elastic Compliance Matrix: (Units=1/GPa)
#
#
# Indices 1 2 3 4 5 6 
#
# 1 0.017152 0.000470 -0.000427 0.003197 -0.004905 -0.006958
# 2 0.000470 0.008770 -0.002103 0.002156 -0.000581 -0.006086
# 3 -0.000427 -0.002103 0.006798 0.000048 -0.000231 -0.002099
# 4 0.003197 0.002156 0.000048 0.019939 -0.008181 -0.006406
# 5 -0.004905 -0.000581 -0.000231 -0.008181 0.030377 0.010064
# 6 -0.006958 -0.006086 -0.002099 -0.006406 0.010064 0.039515
#
#
# Mechanical properties :
#
#
# Convention : Reuss Voigt Hill
#
# Bulk Modulus (GPa) = 34.96443 58.91931 46.94187
# Shear Modulus (GPa) = 36.70952 47.55136 42.13044
#
# Velocity S-wave (km/s) = 3.84148 4.37211 4.11536
# Velocity P-wave (km/s) = 5.80788 7.01230 6.43832
#
# Compressibility (1/GPa) = 0.02860049
#
# Stress axis : x y z
#
# Youngs Moduli (GPa) = 58.30192 114.02622 147.10501
#
# Poissons Ratio (x) = -0.05358 0.06274
# Poissons Ratio (y) = -0.02740 0.30938
# Poissons Ratio (z) = 0.02487 0.23981
#
# Static dielectric constant tensor:
#      x y z
#    x 2.197480 -0.042130 0.028300 
#    y -0.042130 1.966590 -0.024700 
#    z 0.028300 -0.024700 1.965390 
# 
# From -- ./inp_files/170856.got.cif
#   From: 2010.05.17/outbox.cif.g08.bks.cpg/sg2_86_cif.got.tgz:170856.got - 2010.06.03 11:33:40.
