data_PCOD9103040
_publ_section_title
;
Structure prediction by ZEFSAII (Michael W. Deem and Ramdas Pophale) SiO2 
 PCOD9103040
Probable space group: P -1
;
_chemical_formula_sum "Si O2"
_cell_formula_units_Z 13
_cell_length_a 16.145669
_cell_length_b 8.995337
_cell_length_c 6.891344
_cell_angle_alpha 70.866966
_cell_angle_beta 85.040860
_cell_angle_gamma 140.349514
_cell_volume 499.074664
_symmetry_space_group_name_H-M "P -1"
_symmetry_group_IT_number 2
_symmetry_cell_setting 'triclinic'
loop_
_space_group_symop_operation_xyz
x,y,z
-x,-y,-z
loop_
_atom_site_type_symbol
_atom_site_label
_atom_site_fract_x
_atom_site_fract_y
_atom_site_fract_z
Si Si1 0.000000 0.000000 0.000000
Si Si2 0.132884 0.587160 0.858151
Si Si3 0.159960 0.134976 0.284433
Si Si4 0.157749 0.054717 0.753699
Si Si5 0.603757 0.903321 0.691307
Si Si6 0.617925 0.219179 0.057572
Si Si7 0.629213 0.731461 0.095599
O O1 0.974143 0.021788 0.763403
O O2 0.189188 0.260056 0.785533
O O3 0.225130 0.790664 0.562310
O O4 0.269636 0.741114 0.905216
O O5 0.019271 0.251620 0.982677
O O6 0.279575 0.124478 0.781855
O O7 0.262856 0.452963 0.171987
O O8 0.255501 0.161944 0.130479
O O9 0.130006 0.010226 0.552752
O O10 0.000000 0.500000 0.000000
O O11 0.598229 0.843919 0.945395
O O12 0.491901 0.874688 0.717778
O O13 0.520665 0.622734 0.719765
O O14 0.500000 0.000000 0.000000
#
# Coordination Sequence:
#
# PCOD9103040 Si02
#       7
#     1   2   2   2   2   2   2
#     4  10  20  38  64  96 140 178 232 284 354 406
#     4  12  27  45  68 107 144 186 237 294 364 423
#     4  10  21  43  67 104 136 183 238 291 348 428
#     4  11  23  40  70 104 140 181 237 298 357 414
#     4  10  23  49  70  99 146 186 241 291 360 428
#     4  11  26  45  70 105 143 190 239 289 364 430
#     4   9  22  44  73 100 132 191 238 296 350 424
#
# _framework density 26.048203999999998
#
# number of rings (size 3 to 8) (size 9 to 14) (size 15 to 20)
#    0.000    1.538    1.538    1.846    4.308    1.846 
#    2.769    3.077    0.000    0.000    0.000    0.000 
#    0.000    0.000    0.000    0.000    0.000    0.000 
#
# Total GULP energy -72455.279136 kJ/mol
# GULP energy per Si atom -5573.483010 kJ/mol
# Density = 2.598892 g / cm^3
# Si number density = 26.048204 Si / 1000 Ang^3
#
#
#
# Elastic Constant Matrix: (Units=GPa)
#
#
# Indices 1 2 3 4 5 6 
#
# 1 193.5156 47.3839 63.8295 14.8025 10.4338 13.6737
# 2 47.3839 115.7100 64.2894 24.0398 18.9000 27.2346
# 3 63.8295 64.2894 175.3771 14.7100 8.3859 16.7170
# 4 14.8025 24.0398 14.7100 37.5202 11.8941 14.8273
# 5 10.4338 18.9000 8.3859 11.8941 53.5610 11.3517
# 6 13.6737 27.2346 16.7170 14.8273 11.3517 44.1526
#
#
#
# Elastic Compliance Matrix: (Units=1/GPa)
#
#
# Indices 1 2 3 4 5 6 
#
# 1 0.006124 -0.001369 -0.001640 -0.000772 -0.000259 -0.000105
# 2 -0.001369 0.013466 -0.003548 -0.004242 -0.002013 -0.004597
# 3 -0.001640 -0.003548 0.007612 -0.000103 0.000460 -0.000269
# 4 -0.000772 -0.004242 -0.000103 0.034016 -0.004318 -0.007418
# 5 -0.000259 -0.002013 0.000460 -0.004318 0.020907 -0.002777
# 6 -0.000105 -0.004597 -0.000269 -0.007418 -0.002777 0.028824
#
#
# Mechanical properties :
#
#
# Convention : Reuss Voigt Hill
#
# Bulk Modulus (GPa) = 70.98010 92.84537 81.91274
# Shear Modulus (GPa) = 38.83231 47.65341 43.24286
#
# Velocity S-wave (km/s) = 3.86526 4.28183 4.07886
# Velocity P-wave (km/s) = 6.87233 7.75670 7.32787
#
# Compressibility (1/GPa) = 0.01408846
#
# Stress axis : x y z
#
# Youngs Moduli (GPa) = 163.28755 74.25873 131.37614
#
# Poissons Ratio (x) = 0.10168 0.21543
# Poissons Ratio (y) = 0.22359 0.46611
# Poissons Ratio (z) = 0.26776 0.26346
#
# Static dielectric constant tensor:
#      x y z
#    x 2.924360 -0.839000 0.029550 
#    y -0.839000 2.941100 0.000170 
#    z 0.029550 0.000170 2.116390 
# 
# From -- ./inp_files/26085.got.cif
#   From: 2010.05.17/outbox.cif.g08.bks.cpg/sg2_14_cif.got.tgz:26085.got - 2010.06.03 11:33:40.
