data_PCOD9103264
_publ_section_title
;
Structure prediction by ZEFSAII (Michael W. Deem and Ramdas Pophale) SiO2 
 PCOD9103264
Probable space group: P -1
;
_chemical_formula_sum "Si O2"
_cell_formula_units_Z 16
_cell_length_a 9.004301
_cell_length_b 11.745062
_cell_length_c 15.138778
_cell_angle_alpha 54.857418
_cell_angle_beta 47.137256
_cell_angle_gamma 39.713881
_cell_volume 745.130302
_symmetry_space_group_name_H-M "P -1"
_symmetry_group_IT_number 2
_symmetry_cell_setting 'triclinic'
loop_
_space_group_symop_operation_xyz
x,y,z
-x,-y,-z
loop_
_atom_site_type_symbol
_atom_site_label
_atom_site_fract_x
_atom_site_fract_y
_atom_site_fract_z
Si Si1 0.878580 0.912655 0.050498
Si Si2 0.554277 0.616411 0.190670
Si Si3 0.353700 0.160388 0.057987
Si Si4 0.939347 0.887393 0.341536
Si Si5 0.851876 0.234788 0.180681
Si Si6 0.741047 0.485585 0.370944
Si Si7 0.136562 0.085899 0.432624
Si Si8 0.252678 0.225333 0.682313
O O1 0.897124 0.785805 0.172580
O O2 0.572327 0.075152 0.082563
O O3 0.032639 0.805730 0.946825
O O4 0.000000 0.000000 0.000000
O O5 0.245833 0.777775 0.246795
O O6 0.611905 0.439456 0.206398
O O7 0.663254 0.575123 0.265115
O O8 0.683306 0.675539 0.048270
O O9 0.083151 0.198058 0.165080
O O10 0.500000 0.000000 0.000000
O O11 0.900804 0.875034 0.465204
O O12 0.835254 0.809071 0.357173
O O13 0.803737 0.094057 0.282525
O O14 0.500000 0.500000 0.500000
O O15 0.787032 0.593785 0.370203
O O16 0.989298 0.277436 0.361016
O O17 0.440609 0.937860 0.356486
O O18 0.000000 0.000000 0.500000
#
# Coordination Sequence:
#
# PCOD9103264 Si02
#       8
#     2   2   2   2   2   2   2   2
#     4  11  22  46  68 100 142 179 228 280 346 408
#     4  12  23  43  69 101 140 177 235 284 345 404
#     4  10  20  38  65  94 133 179 223 283 332 400
#     4  12  25  46  68 101 143 181 226 285 347 413
#     4  11  24  40  71 101 133 184 228 283 346 407
#     4  12  25  44  69 103 137 179 233 291 333 408
#     4  12  26  46  74 101 135 185 236 283 344 409
#     4  12  27  46  71 100 143 185 225 288 350 411
#
# _framework density 21.472753999999998
#
# number of rings (size 3 to 8) (size 9 to 14) (size 15 to 20)
#    0.000    0.500    6.250    3.000    3.500    1.500 
#    0.000    1.250    0.000    0.000    0.000    0.000 
#    0.000    0.000    0.000    0.000    0.000    0.000 
#
# Total GULP energy -89528.502121 kJ/mol
# GULP energy per Si atom -5595.531383 kJ/mol
# Density = 2.142388 g / cm^3
# Si number density = 21.472754 Si / 1000 Ang^3
#
#
#
# Elastic Constant Matrix: (Units=GPa)
#
#
# Indices 1 2 3 4 5 6 
#
# 1 134.1012 23.5701 35.3839 -15.1931 2.4427 32.4079
# 2 23.5701 103.3573 0.8356 -16.1246 -2.1234 25.6363
# 3 35.3839 0.8356 60.7874 -5.2520 10.9181 25.1187
# 4 -15.1931 -16.1246 -5.2520 33.2166 5.4205 -7.6711
# 5 2.4427 -2.1234 10.9181 5.4205 35.4439 -1.2177
# 6 32.4079 25.6363 25.1187 -7.6711 -1.2177 33.3026
#
#
#
# Elastic Compliance Matrix: (Units=1/GPa)
#
#
# Indices 1 2 3 4 5 6 
#
# 1 0.010243 -0.000092 -0.002592 0.002624 -0.000567 -0.007358
# 2 -0.000092 0.014034 0.006882 0.004833 -0.002523 -0.014884
# 3 -0.002592 0.006882 0.030436 0.002729 -0.010077 -0.025472
# 4 0.002624 0.004833 0.002729 0.034962 -0.006096 -0.000502
# 5 -0.000567 -0.002523 -0.010077 -0.006096 0.032477 0.009878
# 6 -0.007358 -0.014884 -0.025472 -0.000502 0.009878 0.068103
#
#
# Mechanical properties :
#
#
# Convention : Reuss Voigt Hill
#
# Bulk Modulus (GPa) = 15.84564 46.42502 31.13533
# Shear Modulus (GPa) = 24.64298 36.28970 30.46634
#
# Velocity S-wave (km/s) = 3.39136 4.11546 3.77083
# Velocity P-wave (km/s) = 4.76765 6.65207 5.78708
#
# Compressibility (1/GPa) = 0.06310884
#
# Stress axis : x y z
#
# Youngs Moduli (GPa) = 97.62748 71.25354 32.85563
#
# Poissons Ratio (x) = 0.00656 0.08516
# Poissons Ratio (y) = 0.00899 -0.22610
# Poissons Ratio (z) = 0.25305 -0.49034
#
# Static dielectric constant tensor:
#      x y z
#    x 1.778210 -0.030720 0.026210 
#    y -0.030720 1.734930 -0.003420 
#    z 0.026210 -0.003420 1.832450 
# 
# From -- ./inp_files/499996.got.cif
#   From: 2010.05.17/outbox.cif.g08.bks.cpg/sg2_250_cif.got.tgz:499996.got - 2010.06.03 11:33:40.
