data_PCOD9103559
_publ_section_title
;
Structure prediction by ZEFSAII (Michael W. Deem and Ramdas Pophale) SiO2 
 PCOD9103559
Probable space group: P -1
;
_chemical_formula_sum "Si O2"
_cell_formula_units_Z 14
_cell_length_a 8.987708
_cell_length_b 9.284551
_cell_length_c 10.077945
_cell_angle_alpha 116.972723
_cell_angle_beta 64.258520
_cell_angle_gamma 133.460734
_cell_volume 534.202481
_symmetry_space_group_name_H-M "P -1"
_symmetry_group_IT_number 2
_symmetry_cell_setting 'triclinic'
loop_
_space_group_symop_operation_xyz
x,y,z
-x,-y,-z
loop_
_atom_site_type_symbol
_atom_site_label
_atom_site_fract_x
_atom_site_fract_y
_atom_site_fract_z
Si Si1 0.737269 0.745040 0.869568
Si Si2 0.395188 0.404096 0.706770
Si Si3 0.665822 0.350528 0.387007
Si Si4 0.744307 0.102544 0.965862
Si Si5 0.051721 0.957515 0.606113
Si Si6 0.704521 0.114590 0.697218
Si Si7 0.942098 0.563396 0.825330
O O1 0.502138 0.548039 0.851680
O O2 0.852056 0.799433 0.703919
O O3 0.860884 0.693277 0.886923
O O4 0.748577 0.939664 0.978925
O O5 0.558507 0.379326 0.562195
O O6 0.342591 0.518357 0.672212
O O7 0.200448 0.172602 0.713769
O O8 0.897306 0.419239 0.335583
O O9 0.518481 0.107210 0.313340
O O10 0.809873 0.112371 0.791932
O O11 0.900501 0.324527 0.063238
O O12 0.500000 0.000000 0.000000
O O13 0.182626 0.878634 0.477024
O O14 0.000000 0.000000 0.500000
O O15 0.742323 0.326152 0.795427
#
# Coordination Sequence:
#
# PCOD9103559 Si02
#       7
#     2   2   2   2   2   2   2
#     4  12  25  44  65 104 136 166 216 283 334 383
#     4  10  20  38  66  99 130 173 215 268 325 389
#     4  10  20  39  67  95 132 170 221 265 319 395
#     4  12  24  48  71  88 130 183 229 267 311 398
#     4  11  21  39  72 102 129 168 223 270 325 396
#     4  11  22  42  70  97 128 172 226 263 323 397
#     4  12  26  41  66  99 137 174 215 275 337 378
#
# _framework density 26.207287999999998
#
# number of rings (size 3 to 8) (size 9 to 14) (size 15 to 20)
#    0.000    0.857    4.286    4.286    0.000    3.429 
#    2.571    3.571    0.000    0.000    0.000    0.000 
#    0.000    0.000    0.000    0.000    0.000    0.000 
#
# Total GULP energy -78341.848640 kJ/mol
# GULP energy per Si atom -5595.846331 kJ/mol
# Density = 2.614764 g / cm^3
# Si number density = 26.207288 Si / 1000 Ang^3
#
#
#
# Elastic Constant Matrix: (Units=GPa)
#
#
# Indices 1 2 3 4 5 6 
#
# 1 64.2740 48.8465 10.9055 9.7120 -21.4784 -13.1886
# 2 48.8465 145.0317 53.1326 57.2854 -1.6986 8.0166
# 3 10.9055 53.1326 75.7271 16.9980 -11.0676 5.2615
# 4 9.7120 57.2854 16.9980 55.5802 6.9490 0.3215
# 5 -21.4784 -1.6986 -11.0676 6.9490 35.3427 11.7593
# 6 -13.1886 8.0166 5.2615 0.3215 11.7593 22.7704
#
#
#
# Elastic Compliance Matrix: (Units=1/GPa)
#
#
# Indices 1 2 3 4 5 6 
#
# 1 0.036926 -0.019766 0.007452 0.009552 0.015858 0.018300
# 2 -0.019766 0.025774 -0.010699 -0.019079 -0.005381 -0.015002
# 3 0.007452 -0.010699 0.020989 0.001940 0.011036 -0.002493
# 4 0.009552 -0.019079 0.001940 0.036119 -0.006476 0.014636
# 5 0.015858 -0.005381 0.011036 -0.006476 0.047736 -0.016032
# 6 0.018300 -0.015002 -0.002493 0.014636 -0.016032 0.068446
#
#
# Mechanical properties :
#
#
# Convention : Reuss Voigt Hill
#
# Bulk Modulus (GPa) = 26.54956 56.75579 41.65267
# Shear Modulus (GPa) = 16.97392 34.21521 25.59456
#
# Velocity S-wave (km/s) = 2.54772 3.61717 3.12848
# Velocity P-wave (km/s) = 4.33671 6.25690 5.38311
#
# Compressibility (1/GPa) = 0.03766541
#
# Stress axis : x y z
#
# Youngs Moduli (GPa) = 27.08113 38.79900 47.64332
#
# Poissons Ratio (x) = 0.76689 -0.35506
# Poissons Ratio (y) = 0.53527 0.50973
# Poissons Ratio (z) = -0.20182 0.41510
#
# Static dielectric constant tensor:
#      x y z
#    x 2.076940 -0.033090 -0.042340 
#    y -0.033090 2.053410 -0.014380 
#    z -0.042340 -0.014380 2.124970 
# 
# From -- ./inp_files/383191.got.cif
#   From: 2010.05.17/outbox.cif.g08.bks.cpg/sg2_192_cif.got.tgz:383191.got - 2010.06.03 11:33:40.
