data_PCOD9103679
_publ_section_title
;
Structure prediction by ZEFSAII (Michael W. Deem and Ramdas Pophale) SiO2 
 PCOD9103679
Probable space group: P -1
;
_chemical_formula_sum "Si O2"
_cell_formula_units_Z 16
_cell_length_a 9.285821
_cell_length_b 16.007911
_cell_length_c 9.319231
_cell_angle_alpha 76.829909
_cell_angle_beta 130.974720
_cell_angle_gamma 134.156850
_cell_volume 680.025471
_symmetry_space_group_name_H-M "P -1"
_symmetry_group_IT_number 2
_symmetry_cell_setting 'triclinic'
loop_
_space_group_symop_operation_xyz
x,y,z
-x,-y,-z
loop_
_atom_site_type_symbol
_atom_site_label
_atom_site_fract_x
_atom_site_fract_y
_atom_site_fract_z
Si Si1 0.527890 0.013869 0.840989
Si Si2 0.969362 0.023725 0.127507
Si Si3 0.744810 0.371866 0.478319
Si Si4 0.690992 0.878906 0.418928
Si Si5 0.508215 0.475036 0.347805
Si Si6 0.891545 0.527073 0.047085
Si Si7 0.523489 0.257800 0.944267
Si Si8 0.853098 0.267213 0.372696
O O1 0.281680 0.871936 0.666420
O O2 0.489396 0.095102 0.724601
O O3 0.827332 0.068424 0.994881
O O4 0.500000 0.000000 0.000000
O O5 0.745833 0.881434 0.109218
O O6 0.234965 0.119253 0.371252
O O7 0.000000 0.000000 0.000000
O O8 0.536792 0.382682 0.372293
O O9 0.684772 0.269653 0.377590
O O10 0.000000 0.500000 0.500000
O O11 0.876937 0.386293 0.710606
O O12 0.540804 0.763034 0.258831
O O13 0.000000 0.000000 0.500000
O O14 0.500000 0.500000 0.500000
O O15 0.236916 0.428517 0.114911
O O16 0.809075 0.615020 0.430933
O O17 0.623400 0.385821 0.998960
O O18 0.000000 0.500000 0.000000
O O19 0.781966 0.285663 0.163228
#
# Coordination Sequence:
#
# PCOD9103679 Si02
#       8
#     2   2   2   2   2   2   2   2
#     4  11  20  40  70  93 125 172 215 266 321 391
#     4  10  23  41  64  97 136 164 212 273 321 380
#     4  10  21  42  60  90 137 164 214 269 323 379
#     4  10  20  38  67  96 126 167 221 262 320 392
#     4  11  22  39  67  92 128 172 215 268 321 382
#     4  12  23  41  68  98 131 167 224 269 312 394
#     4  10  20  41  65  91 132 172 211 264 324 378
#     4  10  21  39  65  92 130 167 213 262 335 371
#
# _framework density 23.52853
#
# number of rings (size 3 to 8) (size 9 to 14) (size 15 to 20)
#    0.000    1.500    7.500    0.000    3.500    2.500 
#    4.500    2.500    0.000    0.000    0.000    0.000 
#    0.000    0.000    0.000    0.000    0.000    0.000 
#
# Total GULP energy -89392.722317 kJ/mol
# GULP energy per Si atom -5587.045145 kJ/mol
# Density = 2.347498 g / cm^3
# Si number density = 23.528530 Si / 1000 Ang^3
#
#
#
# Elastic Constant Matrix: (Units=GPa)
#
#
# Indices 1 2 3 4 5 6 
#
# 1 126.7729 8.1665 58.4694 -10.1975 5.4121 -17.0588
# 2 8.1665 66.5623 17.6958 11.8578 6.2429 -6.2908
# 3 58.4694 17.6958 175.2307 -4.1390 8.6750 -7.5922
# 4 -10.1975 11.8578 -4.1390 39.7013 -13.7858 -3.2384
# 5 5.4121 6.2429 8.6750 -13.7858 33.4295 -7.0332
# 6 -17.0588 -6.2908 -7.5922 -3.2384 -7.0332 31.0264
#
#
#
# Elastic Compliance Matrix: (Units=1/GPa)
#
#
# Indices 1 2 3 4 5 6 
#
# 1 0.010356 -0.000750 -0.003148 0.003703 0.001988 0.005609
# 2 -0.000750 0.017410 -0.001371 -0.007456 -0.005699 0.000712
# 3 -0.003148 -0.001371 0.006926 -0.000150 -0.001221 -0.000606
# 4 0.003703 -0.007456 -0.000150 0.034861 0.016881 0.007953
# 5 0.001988 -0.005699 -0.001221 0.016881 0.040144 0.010500
# 6 0.005609 0.000712 -0.000606 0.007953 0.010500 0.038521
#
#
# Mechanical properties :
#
#
# Convention : Reuss Voigt Hill
#
# Bulk Modulus (GPa) = 41.39919 59.69214 50.54566
# Shear Modulus (GPa) = 29.97471 39.78038 34.87755
#
# Velocity S-wave (km/s) = 3.57315 4.11631 3.85431
# Velocity P-wave (km/s) = 5.88699 6.92944 6.42938
#
# Compressibility (1/GPa) = 0.02415506
#
# Stress axis : x y z
#
# Youngs Moduli (GPa) = 96.56307 57.43763 144.38045
#
# Poissons Ratio (x) = 0.04307 0.45446
# Poissons Ratio (y) = 0.07241 0.19796
# Poissons Ratio (z) = 0.30395 0.07875
#
# Static dielectric constant tensor:
#      x y z
#    x 1.972150 0.076030 0.011720 
#    y 0.076030 1.983590 0.040250 
#    z 0.011720 0.040250 1.881210 
# 
# From -- ./inp_files/215240.got.cif
#   From: 2010.05.17/outbox.cif.g08.bks.cpg/sg2_108_cif.got.tgz:215240.got - 2010.06.03 11:33:40.
