data_PCOD9103649
_publ_section_title
;
Structure prediction by ZEFSAII (Michael W. Deem and Ramdas Pophale) SiO2 
 PCOD9103649
Probable space group: P -1
;
_chemical_formula_sum "Si O2"
_cell_formula_units_Z 14
_cell_length_a 5.179181
_cell_length_b 15.771741
_cell_length_c 8.101137
_cell_angle_alpha 60.106181
_cell_angle_beta 80.785094
_cell_angle_gamma 73.802912
_cell_volume 550.746542
_symmetry_space_group_name_H-M "P -1"
_symmetry_group_IT_number 2
_symmetry_cell_setting 'triclinic'
loop_
_space_group_symop_operation_xyz
x,y,z
-x,-y,-z
loop_
_atom_site_type_symbol
_atom_site_label
_atom_site_fract_x
_atom_site_fract_y
_atom_site_fract_z
Si Si1 0.623174 0.096480 0.874745
Si Si2 0.105341 0.803845 0.710915
Si Si3 0.125164 0.360647 0.948234
Si Si4 0.688942 0.563343 0.834718
Si Si5 0.353109 0.155678 0.528486
Si Si6 0.142868 0.969572 0.767561
Si Si7 0.699216 0.570847 0.457134
O O1 0.418933 0.168504 0.703006
O O2 0.704011 0.115277 0.035310
O O3 0.906821 0.052953 0.797262
O O4 0.500000 0.000000 0.000000
O O5 0.398373 0.816349 0.617561
O O6 0.002302 0.910760 0.708717
O O7 0.930215 0.792294 0.577706
O O8 0.061074 0.717262 0.924888
O O9 0.289198 0.352616 0.768889
O O10 0.956557 0.476561 0.859202
O O11 0.290390 0.358488 0.101439
O O12 0.616789 0.608301 0.616029
O O13 0.500000 0.500000 0.000000
O O14 0.345177 0.037717 0.627946
O O15 0.500000 0.500000 0.500000
O O16 0.000000 0.500000 0.500000
#
# Coordination Sequence:
#
# PCOD9103649 Si02
#       7
#     2   2   2   2   2   2   2
#     4   9  20  38  65  88 123 167 222 261 320 385
#     4  12  26  38  65  93 131 164 220 271 320 380
#     4  10  24  42  62 100 131 169 219 272 326 393
#     4  10  20  41  72  91 129 172 215 264 333 396
#     4  11  23  41  62  91 124 172 213 262 321 384
#     4  10  21  41  64  92 126 177 216 266 320 385
#     4  10  20  38  67  93 122 162 211 259 319 395
#
# _framework density 25.42004
#
# number of rings (size 3 to 8) (size 9 to 14) (size 15 to 20)
#    0.000    1.714    2.857    0.857    6.000    0.000 
#    2.571    0.000    3.143    0.000    0.000    0.000 
#    0.000    0.000    0.000    0.000    0.000    0.000 
#
# Total GULP energy -78102.402121 kJ/mol
# GULP energy per Si atom -5578.743009 kJ/mol
# Density = 2.536218 g / cm^3
# Si number density = 25.420040 Si / 1000 Ang^3
#
#
#
# Elastic Constant Matrix: (Units=GPa)
#
#
# Indices 1 2 3 4 5 6 
#
# 1 127.0841 26.4026 56.3341 2.0929 -14.3711 29.8486
# 2 26.4026 79.1972 65.0262 11.1910 -2.8649 24.4473
# 3 56.3341 65.0262 219.7647 9.5590 -18.3288 22.8235
# 4 2.0929 11.1910 9.5590 43.3005 6.5313 -0.0462
# 5 -14.3711 -2.8649 -18.3288 6.5313 57.2921 -4.5304
# 6 29.8486 24.4473 22.8235 -0.0462 -4.5304 28.2461
#
#
#
# Elastic Compliance Matrix: (Units=1/GPa)
#
#
# Indices 1 2 3 4 5 6 
#
# 1 0.011301 0.001585 -0.002024 -0.000739 0.001445 -0.011448
# 2 0.001585 0.022062 -0.005067 -0.004537 -0.000934 -0.016833
# 3 -0.002024 -0.005067 0.006551 -0.000261 0.001480 0.001468
# 4 -0.000739 -0.004537 -0.000261 0.024813 -0.002970 0.004483
# 5 0.001445 -0.000934 0.001480 -0.002970 0.018667 0.001074
# 6 -0.011448 -0.016833 0.001468 0.004483 0.001074 0.061063
#
#
# Mechanical properties :
#
#
# Convention : Reuss Voigt Hill
#
# Bulk Modulus (GPa) = 34.59932 80.17465 57.38698
# Shear Modulus (GPa) = 30.28415 44.31995 37.30205
#
# Velocity S-wave (km/s) = 3.45534 4.18006 3.83486
# Velocity P-wave (km/s) = 5.43689 7.40983 6.49867
#
# Compressibility (1/GPa) = 0.02890230
#
# Stress axis : x y z
#
# Youngs Moduli (GPa) = 88.48525 45.32738 152.65569
#
# Poissons Ratio (x) = -0.07185 0.30903
# Poissons Ratio (y) = -0.14026 0.77344
# Poissons Ratio (z) = 0.17912 0.22965
#
# Static dielectric constant tensor:
#      x y z
#    x 2.092270 -0.038930 0.042560 
#    y -0.038930 2.039370 0.028950 
#    z 0.042560 0.028950 2.158090 
# 
# From -- ./inp_files/138521.got.cif
#   From: 2010.05.17/outbox.cif.g08.bks.cpg/sg2_70_cif.got.tgz:138521.got - 2010.06.03 11:33:40.
