data_PCOD9103873
_publ_section_title
;
Structure prediction by ZEFSAII (Michael W. Deem and Ramdas Pophale) SiO2 
 PCOD9103873
Probable space group: P -1
;
_chemical_formula_sum "Si O2"
_cell_formula_units_Z 16
_cell_length_a 10.491990
_cell_length_b 10.699600
_cell_length_c 14.772649
_cell_angle_alpha 43.796959
_cell_angle_beta 62.187673
_cell_angle_gamma 42.412965
_cell_volume 766.282786
_symmetry_space_group_name_H-M "P -1"
_symmetry_group_IT_number 2
_symmetry_cell_setting 'triclinic'
loop_
_space_group_symop_operation_xyz
x,y,z
-x,-y,-z
loop_
_atom_site_type_symbol
_atom_site_label
_atom_site_fract_x
_atom_site_fract_y
_atom_site_fract_z
Si Si1 0.651321 0.637331 0.892856
Si Si2 0.239598 0.465642 0.698015
Si Si3 0.417614 0.312022 0.522212
Si Si4 0.170102 0.224902 0.564003
Si Si5 0.298396 0.764850 0.830418
Si Si6 0.526812 0.425904 0.761637
Si Si7 0.402391 0.978939 0.959766
Si Si8 0.812992 0.834380 0.626311
O O1 0.467215 0.710938 0.863140
O O2 0.562725 0.813213 0.916840
O O3 0.762885 0.686139 0.768661
O O4 0.766202 0.367323 0.031246
O O5 0.315435 0.424738 0.592305
O O6 0.384929 0.441718 0.730808
O O7 0.025666 0.713021 0.648190
O O8 0.247600 0.243648 0.832903
O O9 0.354191 0.174511 0.571020
O O10 0.367256 0.510220 0.364815
O O11 0.645798 0.110774 0.563777
O O12 0.188127 0.187055 0.470490
O O13 0.000000 0.500000 0.500000
O O14 0.152070 0.044759 0.711040
O O15 0.398063 0.627046 0.775222
O O16 0.652638 0.172534 0.904469
O O17 0.500000 0.000000 0.000000
#
# Coordination Sequence:
#
# PCOD9103873 Si02
#       8
#     2   2   2   2   2   2   2   2
#     4  10  20  38  69  89 121 168 205 256 318 364
#     4  11  23  41  62  96 126 162 216 257 301 382
#     4  12  22  42  66  88 128 167 206 258 319 371
#     4  12  23  41  64  92 129 161 207 264 313 368
#     4  10  20  40  64  93 121 163 214 254 309 376
#     4  10  22  39  65  90 127 168 205 259 315 364
#     4   9  19  40  64  88 125 163 205 258 307 365
#     4  12  23  39  65  94 125 168 206 257 317 369
#
# _framework density 20.880019999999998
#
# number of rings (size 3 to 8) (size 9 to 14) (size 15 to 20)
#    0.000    1.250    5.000    1.500    0.000    0.500 
#    2.250    6.250    0.000    0.000    0.000    0.000 
#    0.000    0.000    0.000    0.000    0.000    0.000 
#
# Total GULP energy -89377.448804 kJ/mol
# GULP energy per Si atom -5586.090550 kJ/mol
# Density = 2.083250 g / cm^3
# Si number density = 20.880020 Si / 1000 Ang^3
#
#
#
# Elastic Constant Matrix: (Units=GPa)
#
#
# Indices 1 2 3 4 5 6 
#
# 1 21.9673 2.3862 -7.8046 5.5323 2.1347 9.8295
# 2 2.3862 37.7986 40.9924 -5.3850 -1.3866 -3.0436
# 3 -7.8046 40.9924 147.1364 -8.2049 -15.3264 1.6615
# 4 5.5323 -5.3850 -8.2049 32.2461 8.8557 2.9361
# 5 2.1347 -1.3866 -15.3264 8.8557 20.4713 -1.1159
# 6 9.8295 -3.0436 1.6615 2.9361 -1.1159 28.1061
#
#
#
# Elastic Compliance Matrix: (Units=1/GPa)
#
#
# Indices 1 2 3 4 5 6 
#
# 1 0.062255 -0.014996 0.007294 -0.009475 0.000808 -0.022806
# 2 -0.014996 0.043632 -0.013503 0.007875 -0.008473 0.009609
# 3 0.007294 -0.013503 0.011680 -0.002310 0.007843 -0.004151
# 4 -0.009475 0.007875 -0.002310 0.037966 -0.016650 -0.000324
# 5 0.000808 -0.008473 0.007843 -0.016650 0.061402 0.002513
# 6 -0.022806 0.009609 -0.004151 -0.000324 0.002513 0.044975
#
#
# Mechanical properties :
#
#
# Convention : Reuss Voigt Hill
#
# Bulk Modulus (GPa) = 13.30592 30.89447 22.10019
# Shear Modulus (GPa) = 15.18033 27.58658 21.38345
#
# Velocity S-wave (km/s) = 2.69927 3.63877 3.20364
# Velocity P-wave (km/s) = 4.01262 5.69934 4.92867
#
# Compressibility (1/GPa) = 0.07515454
#
# Stress axis : x y z
#
# Youngs Moduli (GPa) = 16.06303 22.91909 85.61425
#
# Poissons Ratio (x) = 0.34371 -0.62444
# Poissons Ratio (y) = 0.24089 1.15607
# Poissons Ratio (z) = -0.11716 0.30948
#
# Static dielectric constant tensor:
#      x y z
#    x 1.748390 -0.004850 -0.006810 
#    y -0.004850 1.720090 -0.042970 
#    z -0.006810 -0.042970 1.801610 
# 
# From -- ./inp_files/424462.got.cif
#   From: 2010.05.17/outbox.cif.g08.bks.cpg/sg2_213_cif.got.tgz:424462.got - 2010.06.03 11:33:40.
