data_PCOD9103834
_publ_section_title
;
Structure prediction by ZEFSAII (Michael W. Deem and Ramdas Pophale) SiO2 
 PCOD9103834
Probable space group: P -1
;
_chemical_formula_sum "Si O2"
_cell_formula_units_Z 12
_cell_length_a 5.264836
_cell_length_b 14.410238
_cell_length_c 15.166987
_cell_angle_alpha 27.848167
_cell_angle_beta 109.743245
_cell_angle_gamma 101.123520
_cell_volume 491.066174
_symmetry_space_group_name_H-M "P -1"
_symmetry_group_IT_number 2
_symmetry_cell_setting 'triclinic'
loop_
_space_group_symop_operation_xyz
x,y,z
-x,-y,-z
loop_
_atom_site_type_symbol
_atom_site_label
_atom_site_fract_x
_atom_site_fract_y
_atom_site_fract_z
Si Si1 0.188867 0.695538 0.075909
Si Si2 0.613344 0.259690 0.742116
Si Si3 0.372069 0.715786 0.566524
Si Si4 0.461176 0.156655 0.152929
Si Si5 0.701566 0.141293 0.372916
Si Si6 0.976631 0.719217 0.360212
O O1 0.273680 0.737900 0.149073
O O2 0.360136 0.467310 0.264056
O O3 0.317425 0.830009 0.908117
O O4 0.857330 0.733151 0.999137
O O5 0.500000 0.500000 0.500000
O O6 0.344715 0.172123 0.771702
O O7 0.844653 0.167625 0.775072
O O8 0.282646 0.728212 0.647659
O O9 0.121765 0.686386 0.499188
O O10 0.448490 0.924809 0.368921
O O11 0.565161 0.246590 0.178974
O O12 0.500000 0.000000 0.500000
O O13 0.000000 0.000000 0.500000
O O14 0.000000 0.500000 0.500000
#
# Coordination Sequence:
#
# PCOD9103834 Si02
#       6
#     2   2   2   2   2   2
#     4  12  25  44  74 101 145 184 231 296 343 412
#     4  10  20  39  65  95 137 178 224 288 333 404
#     4  11  25  46  78  96 142 201 216 288 377 387
#     4  11  27  45  66 112 140 172 252 286 331 437
#     4  10  23  46  71 102 143 180 231 292 340 419
#     4  10  20  38  68  97 130 178 236 272 335 425
#
# _framework density 24.436623999999998
#
# number of rings (size 3 to 8) (size 9 to 14) (size 15 to 20)
#    0.000    1.333    3.333    3.000    2.333    9.333 
#    0.000    5.000    0.000    0.000    0.000    0.000 
#    0.000    0.000    0.000    0.000    0.000    0.000 
#
# Total GULP energy -67233.452054 kJ/mol
# GULP energy per Si atom -5602.787671 kJ/mol
# Density = 2.438100 g / cm^3
# Si number density = 24.436624 Si / 1000 Ang^3
#
#
#
# Elastic Constant Matrix: (Units=GPa)
#
#
# Indices 1 2 3 4 5 6 
#
# 1 173.6076 34.6065 5.0726 26.1489 7.7743 1.3954
# 2 34.6065 182.0027 49.8889 44.1850 1.7840 0.5473
# 3 5.0726 49.8889 91.4967 13.1003 6.3539 3.2468
# 4 26.1489 44.1850 13.1003 64.0312 -6.3262 2.6371
# 5 7.7743 1.7840 6.3539 -6.3262 27.7172 11.1176
# 6 1.3954 0.5473 3.2468 2.6371 11.1176 30.8744
#
#
#
# Elastic Compliance Matrix: (Units=1/GPa)
#
#
# Indices 1 2 3 4 5 6 
#
# 1 0.006390 -0.000731 0.000571 -0.002537 -0.002814 0.000894
# 2 -0.000731 0.007662 -0.003480 -0.004403 -0.000879 0.000956
# 3 0.000571 -0.003480 0.013130 -0.000814 -0.003063 -0.000173
# 4 -0.002537 -0.004403 -0.000814 0.020787 0.007628 -0.004244
# 5 -0.002814 -0.000879 -0.003063 0.007628 0.046101 -0.016787
# 6 0.000894 0.000956 -0.000173 -0.004244 -0.016787 0.038757
#
#
# Mechanical properties :
#
#
# Convention : Reuss Voigt Hill
#
# Bulk Modulus (GPa) = 50.24216 69.58255 59.91235
# Shear Modulus (GPa) = 34.07377 48.36052 41.21715
#
# Velocity S-wave (km/s) = 3.73818 4.45344 4.11140
# Velocity P-wave (km/s) = 6.26393 7.41490 6.86358
#
# Compressibility (1/GPa) = 0.01990360
#
# Stress axis : x y z
#
# Youngs Moduli (GPa) = 156.49366 130.51743 76.15959
#
# Poissons Ratio (x) = 0.09538 -0.04350
# Poissons Ratio (y) = 0.11436 0.26501
# Poissons Ratio (z) = -0.08937 0.45415
#
# Static dielectric constant tensor:
#      x y z
#    x 1.829710 -0.094270 0.051080 
#    y -0.094270 1.957520 -0.066270 
#    z 0.051080 -0.066270 2.050000 
# 
# From -- ./inp_files/483231.got.cif
#   From: 2010.05.17/outbox.cif.g08.bks.cpg/sg2_242_cif.got.tgz:483231.got - 2010.06.03 11:33:40.
