data_PCOD9103016
_publ_section_title
;
Structure prediction by ZEFSAII (Michael W. Deem and Ramdas Pophale) SiO2 
 PCOD9103016
Probable space group: P -1
;
_chemical_formula_sum "Si O2"
_cell_formula_units_Z 16
_cell_length_a 9.704844
_cell_length_b 18.395888
_cell_length_c 10.248761
_cell_angle_alpha 143.389659
_cell_angle_beta 78.801364
_cell_angle_gamma 126.950984
_cell_volume 694.339800
_symmetry_space_group_name_H-M "P -1"
_symmetry_group_IT_number 2
_symmetry_cell_setting 'triclinic'
loop_
_space_group_symop_operation_xyz
x,y,z
-x,-y,-z
loop_
_atom_site_type_symbol
_atom_site_label
_atom_site_fract_x
_atom_site_fract_y
_atom_site_fract_z
Si Si1 0.745152 0.856258 0.864531
Si Si2 0.652240 0.081622 0.211048
Si Si3 0.081374 0.415306 0.716398
Si Si4 0.386893 0.902295 0.242401
Si Si5 0.500700 0.702553 0.938460
Si Si6 0.253035 0.198728 0.723017
Si Si7 0.463540 0.606155 0.304260
Si Si8 0.015991 0.378319 0.959337
O O1 0.649303 0.744743 0.859594
O O2 0.584897 0.711663 0.568908
O O3 0.715808 0.981968 0.065094
O O4 0.000000 0.000000 0.000000
O O5 0.889058 0.294519 0.475257
O O6 0.524731 0.049877 0.313594
O O7 0.500000 0.000000 0.000000
O O8 0.109999 0.577127 0.978788
O O9 0.287038 0.490406 0.719851
O O10 0.028296 0.322070 0.733546
O O11 0.500000 0.000000 0.500000
O O12 0.404923 0.770560 0.011681
O O13 0.141426 0.784228 0.137986
O O14 0.632267 0.808858 0.200337
O O15 0.354431 0.254263 0.640124
O O16 0.343003 0.394356 0.023210
O O17 0.000000 0.000000 0.500000
O O18 0.256581 0.550173 0.217979
#
# Coordination Sequence:
#
# PCOD9103016 Si02
#       8
#     2   2   2   2   2   2   2   2
#     4  11  26  46  66  94 136 180 222 270 336 407
#     4  11  24  41  66  98 135 171 222 275 329 399
#     4  10  20  38  66  93 129 171 209 274 335 390
#     4  10  21  37  65  95 125 169 216 270 327 394
#     4  10  23  42  64  91 131 172 218 263 333 406
#     4  11  25  43  67  96 127 173 225 278 332 390
#     4  11  25  44  67  96 136 169 222 285 329 391
#     4  10  20  38  64  96 126 167 215 275 335 384
#
# _framework density 23.043475000000001
#
# number of rings (size 3 to 8) (size 9 to 14) (size 15 to 20)
#    0.000    1.500    2.500    1.500    3.500    2.500 
#    4.500    3.750    0.000    0.000    0.000    0.000 
#    0.000    0.000    0.000    0.000    0.000    0.000 
#
# Total GULP energy -89229.349520 kJ/mol
# GULP energy per Si atom -5576.834345 kJ/mol
# Density = 2.299103 g / cm^3
# Si number density = 23.043475 Si / 1000 Ang^3
#
#
#
# Elastic Constant Matrix: (Units=GPa)
#
#
# Indices 1 2 3 4 5 6 
#
# 1 63.5783 34.0462 8.0028 9.4303 8.3633 14.6076
# 2 34.0462 174.0277 60.9714 11.2446 17.9214 44.4722
# 3 8.0028 60.9714 111.4596 4.6821 26.3438 20.4279
# 4 9.4303 11.2446 4.6821 42.1798 6.5132 10.2788
# 5 8.3633 17.9214 26.3438 6.5132 39.3972 7.2885
# 6 14.6076 44.4722 20.4279 10.2788 7.2885 28.6918
#
#
#
# Elastic Compliance Matrix: (Units=1/GPa)
#
#
# Indices 1 2 3 4 5 6 
#
# 1 0.018748 -0.002436 0.001729 -0.001952 -0.002665 -0.005624
# 2 -0.002436 0.010752 -0.003303 0.001336 0.000127 -0.013585
# 3 0.001729 -0.003303 0.012918 0.001005 -0.007015 -0.003536
# 4 -0.001952 0.001336 0.001005 0.026759 -0.003341 -0.010529
# 5 -0.002665 0.000127 -0.007015 -0.003341 0.031241 -0.000585
# 6 -0.005624 -0.013585 -0.003536 -0.010529 -0.000585 0.065211
#
#
# Mechanical properties :
#
#
# Convention : Reuss Voigt Hill
#
# Bulk Modulus (GPa) = 29.07134 61.67851 45.37492
# Shear Modulus (GPa) = 27.01017 38.45678 32.73348
#
# Velocity S-wave (km/s) = 3.42737 4.08962 3.77305
# Velocity P-wave (km/s) = 5.32031 7.00887 6.22214
#
# Compressibility (1/GPa) = 0.03439814
#
# Stress axis : x y z
#
# Youngs Moduli (GPa) = 53.34026 93.00457 77.40873
#
# Poissons Ratio (x) = 0.22653 -0.13383
# Poissons Ratio (y) = 0.12992 0.25570
# Poissons Ratio (z) = -0.09222 0.30722
#
# Static dielectric constant tensor:
#      x y z
#    x 1.987630 -0.023520 -0.013390 
#    y -0.023520 2.610790 0.560810 
#    z -0.013390 0.560810 2.217440 
# 
# From -- ./inp_files/283237.got.cif
#   From: 2010.05.17/outbox.cif.g08.bks.cpg/sg2_142_cif.got.tgz:283237.got - 2010.06.03 11:33:40.
