data_PCOD9103469
_publ_section_title
;
Structure prediction by ZEFSAII (Michael W. Deem and Ramdas Pophale) SiO2 
 PCOD9103469
Probable space group: P -1
;
_chemical_formula_sum "Si O2"
_cell_formula_units_Z 14
_cell_length_a 28.090465
_cell_length_b 8.351318
_cell_length_c 5.155078
_cell_angle_alpha 66.159014
_cell_angle_beta 77.584766
_cell_angle_gamma 29.671155
_cell_volume 522.204696
_symmetry_space_group_name_H-M "P -1"
_symmetry_group_IT_number 2
_symmetry_cell_setting 'triclinic'
loop_
_space_group_symop_operation_xyz
x,y,z
-x,-y,-z
loop_
_atom_site_type_symbol
_atom_site_label
_atom_site_fract_x
_atom_site_fract_y
_atom_site_fract_z
Si Si1 0.172920 0.221704 0.720330
Si Si2 0.631581 0.923883 0.162233
Si Si3 0.939375 0.990883 0.411905
Si Si4 0.906136 0.888936 0.998434
Si Si5 0.427042 0.618462 0.683806
Si Si6 0.429365 0.248133 0.670734
Si Si7 0.773694 0.752645 0.886044
O O1 0.172154 0.015274 0.894411
O O2 0.245078 0.059191 0.973412
O O3 0.205308 0.208943 0.424536
O O4 0.054445 0.649500 0.588686
O O5 0.653977 0.645561 0.321524
O O6 0.697362 0.827073 0.940129
O O7 0.642571 0.016468 0.336269
O O8 0.510132 0.297047 0.011190
O O9 0.880330 0.334052 0.123630
O O10 0.941535 0.853529 0.253828
O O11 0.877983 0.117049 0.657064
O O12 0.000000 0.500000 0.000000
O O13 0.500000 0.500000 0.500000
O O14 0.394612 0.556642 0.578557
O O15 0.500000 0.000000 0.500000
O O16 0.500000 0.000000 0.000000
#
# Coordination Sequence:
#
# PCOD9103469 Si02
#       7
#     2   2   2   2   2   2   2
#     4  11  22  40  64  91 130 175 220 264 325 391
#     4  10  24  41  62  99 132 168 219 275 333 398
#     4  11  21  40  65  92 126 176 220 264 327 388
#     4  10  20  39  66  89 120 168 228 270 313 389
#     4  10  20  41  72  91 126 172 221 264 334 406
#     4  10  20  38  66  93 121 162 209 261 324 396
#     4  12  25  39  61  96 135 167 214 278 323 387
#
# _framework density 26.809407
#
# number of rings (size 3 to 8) (size 9 to 14) (size 15 to 20)
#    0.000    1.429    1.429    6.000    2.000    0.000 
#    2.571    1.429    0.000    0.000    0.000    0.000 
#    0.000    0.000    0.000    0.000    0.000    0.000 
#
# Total GULP energy -78156.172781 kJ/mol
# GULP energy per Si atom -5582.583770 kJ/mol
# Density = 2.674839 g / cm^3
# Si number density = 26.809407 Si / 1000 Ang^3
#
#
#
# Elastic Constant Matrix: (Units=GPa)
#
#
# Indices 1 2 3 4 5 6 
#
# 1 247.5332 55.8413 88.4819 38.6668 -2.8446 15.6765
# 2 55.8413 70.1145 30.6989 15.6029 -5.5589 -1.4094
# 3 88.4819 30.6989 215.4773 40.3008 -12.9090 -1.2446
# 4 38.6668 15.6029 40.3008 27.5058 -7.0095 7.7036
# 5 -2.8446 -5.5589 -12.9090 -7.0095 62.5056 6.1953
# 6 15.6765 -1.4094 -1.2446 7.7036 6.1953 40.9548
#
#
#
# Elastic Compliance Matrix: (Units=1/GPa)
#
#
# Indices 1 2 3 4 5 6 
#
# 1 0.006019 -0.003337 -0.001188 -0.004568 -0.000632 -0.001500
# 2 -0.003337 0.018471 0.000007 -0.006543 0.000454 0.003075
# 3 -0.001188 0.000007 0.006823 -0.008951 0.000121 0.002328
# 4 -0.004568 -0.006543 -0.008951 0.064350 0.005740 -0.011721
# 5 -0.000632 0.000454 0.000121 0.005740 0.017015 -0.003392
# 6 -0.001500 0.003075 0.002328 -0.011721 -0.003392 0.027886
#
#
# Mechanical properties :
#
#
# Convention : Reuss Voigt Hill
#
# Bulk Modulus (GPa) = 44.89014 98.12988 71.51001
# Shear Modulus (GPa) = 31.84239 50.06676 40.95458
#
# Velocity S-wave (km/s) = 3.45009 4.32615 3.91272
# Velocity P-wave (km/s) = 5.71413 7.85088 6.86614
#
# Compressibility (1/GPa) = 0.02227661
#
# Stress axis : x y z
#
# Youngs Moduli (GPa) = 166.14999 54.13999 146.57229
#
# Poissons Ratio (x) = 0.18066 0.17416
# Poissons Ratio (y) = 0.55443 -0.00110
# Poissons Ratio (z) = 0.19742 -0.00041
#
# Static dielectric constant tensor:
#      x y z
#    x 2.222970 0.044730 -0.038450 
#    y 0.044730 2.245470 -0.152420 
#    z -0.038450 -0.152420 2.199600 
# 
# From -- ./inp_files/128229.got.cif
#   From: 2010.05.17/outbox.cif.g08.bks.cpg/sg2_65_cif.got.tgz:128229.got - 2010.06.03 11:33:40.
