data_PCOD9103054
_publ_section_title
;
Structure prediction by ZEFSAII (Michael W. Deem and Ramdas Pophale) SiO2 
 PCOD9103054
Probable space group: P -1
;
_chemical_formula_sum "Si O2"
_cell_formula_units_Z 16
_cell_length_a 6.816603
_cell_length_b 9.600672
_cell_length_c 14.309254
_cell_angle_alpha 80.648102
_cell_angle_beta 43.176267
_cell_angle_gamma 87.652635
_cell_volume 628.063880
_symmetry_space_group_name_H-M "P -1"
_symmetry_group_IT_number 2
_symmetry_cell_setting 'triclinic'
loop_
_space_group_symop_operation_xyz
x,y,z
-x,-y,-z
loop_
_atom_site_type_symbol
_atom_site_label
_atom_site_fract_x
_atom_site_fract_y
_atom_site_fract_z
Si Si1 0.764534 0.441771 0.186839
Si Si2 0.198714 0.225067 0.095098
Si Si3 0.807593 0.608671 0.505690
Si Si4 0.957862 0.011878 0.358347
Si Si5 0.785885 0.051026 0.992760
Si Si6 0.216862 0.230768 0.683689
Si Si7 0.326392 0.650435 0.964715
Si Si8 0.234750 0.844851 0.408580
O O1 0.528389 0.424976 0.350911
O O2 0.599609 0.432998 0.145630
O O3 0.955581 0.310544 0.126119
O O4 0.998380 0.579136 0.105635
O O5 0.448122 0.345337 0.029295
O O6 0.318078 0.099280 0.006995
O O7 0.043021 0.141970 0.245894
O O8 0.843392 0.640354 0.378348
O O9 0.498250 0.242252 0.651184
O O10 0.000000 0.500000 0.500000
O O11 0.938278 0.747637 0.502022
O O12 0.749412 0.892153 0.391202
O O13 0.244839 0.941040 0.301258
O O14 0.812520 0.062490 0.495591
O O15 0.957723 0.149801 0.842395
O O16 0.644134 0.178382 0.078806
O O17 0.000000 0.000000 0.000000
#
# Coordination Sequence:
#
# PCOD9103054 Si02
#       8
#     2   2   2   2   2   2   2   2
#     4  11  25  47  72 101 148 186 242 300 355 431
#     4  11  22  43  74 104 138 189 239 292 362 428
#     4  11  26  47  69 101 139 191 240 289 355 423
#     4   9  20  35  63 103 131 170 224 287 356 417
#     4  11  24  45  72 107 148 186 237 300 360 427
#     4  10  23  42  68 101 136 180 231 291 352 421
#     4  11  25  46  69 110 140 193 237 296 361 429
#     4  10  20  38  64  97 136 176 223 291 343 421
#
# _framework density 25.475114000000001
#
# number of rings (size 3 to 8) (size 9 to 14) (size 15 to 20)
#    0.000    1.500    1.250    2.625    3.500    5.500 
#   11.250    0.000    0.000    0.000    0.000    0.000 
#    0.000    0.000    0.000    0.000    0.000    0.000 
#
# Total GULP energy -89309.048804 kJ/mol
# GULP energy per Si atom -5581.815550 kJ/mol
# Density = 2.541713 g / cm^3
# Si number density = 25.475114 Si / 1000 Ang^3
#
#
#
# Elastic Constant Matrix: (Units=GPa)
#
#
# Indices 1 2 3 4 5 6 
#
# 1 137.6490 27.9301 31.5534 -13.8414 14.8304 3.7798
# 2 27.9301 123.6147 21.2757 -12.1344 2.3556 20.9314
# 3 31.5534 21.2757 68.2769 -25.4836 15.2292 4.9158
# 4 -13.8414 -12.1344 -25.4836 33.6239 -0.0330 5.9413
# 5 14.8304 2.3556 15.2292 -0.0330 38.6608 -5.8259
# 6 3.7798 20.9314 4.9158 5.9413 -5.8259 57.5906
#
#
#
# Elastic Compliance Matrix: (Units=1/GPa)
#
#
# Indices 1 2 3 4 5 6 
#
# 1 0.008472 -0.001284 -0.002616 0.001074 -0.002170 -0.000196
# 2 -0.001284 0.009430 -0.001023 0.002728 -0.000213 -0.003559
# 3 -0.002616 -0.001023 0.025705 0.018835 -0.009733 -0.004578
# 4 0.001074 0.002728 0.018835 0.046925 -0.009230 -0.008444
# 5 -0.002170 -0.000213 -0.009733 -0.009230 0.031317 0.005171
# 6 -0.000196 -0.003559 -0.004578 -0.008444 0.005171 0.020455
#
#
# Mechanical properties :
#
#
# Convention : Reuss Voigt Hill
#
# Bulk Modulus (GPa) = 29.62086 54.56212 42.09149
# Shear Modulus (GPa) = 30.59874 42.56050 36.57962
#
# Velocity S-wave (km/s) = 3.46948 4.09182 3.79343
# Velocity P-wave (km/s) = 5.26330 6.61727 5.97874
#
# Compressibility (1/GPa) = 0.03375999
#
# Stress axis : x y z
#
# Youngs Moduli (GPa) = 118.03197 106.04105 38.90320
#
# Poissons Ratio (x) = 0.13615 0.10178
# Poissons Ratio (y) = 0.15155 0.03982
# Poissons Ratio (z) = 0.30881 0.10853
#
# Static dielectric constant tensor:
#      x y z
#    x 2.130960 -0.069570 -0.019130 
#    y -0.069570 2.072660 0.021930 
#    z -0.019130 0.021930 2.076350 
# 
# From -- ./inp_files/227945.got.cif
#   From: 2010.05.17/outbox.cif.g08.bks.cpg/sg2_114_cif.got.tgz:227945.got - 2010.06.03 11:33:40.
