data_PCOD9103524
_publ_section_title
;
Structure prediction by ZEFSAII (Michael W. Deem and Ramdas Pophale) SiO2 
 PCOD9103524
Probable space group: P -1
;
_chemical_formula_sum "Si O2"
_cell_formula_units_Z 16
_cell_length_a 12.869225
_cell_length_b 6.570970
_cell_length_c 14.004862
_cell_angle_alpha 99.879996
_cell_angle_beta 41.969898
_cell_angle_gamma 82.887400
_cell_volume 721.205344
_symmetry_space_group_name_H-M "P -1"
_symmetry_group_IT_number 2
_symmetry_cell_setting 'triclinic'
loop_
_space_group_symop_operation_xyz
x,y,z
-x,-y,-z
loop_
_atom_site_type_symbol
_atom_site_label
_atom_site_fract_x
_atom_site_fract_y
_atom_site_fract_z
Si Si1 0.347742 0.930795 0.067475
Si Si2 0.186198 0.204681 0.041663
Si Si3 0.146339 0.135893 0.552441
Si Si4 0.362974 0.322554 0.543040
Si Si5 0.826293 0.189037 0.330085
Si Si6 0.756008 0.440708 0.830480
Si Si7 0.178587 0.300266 0.346252
Si Si8 0.701234 0.909783 0.255264
O O1 0.308965 0.970535 0.985897
O O2 0.187694 0.120425 0.244732
O O3 0.357019 0.695658 0.078315
O O4 0.500000 0.000000 0.000000
O O5 0.237720 0.387834 0.077361
O O6 0.997458 0.226503 0.195958
O O7 0.216187 0.199529 0.908437
O O8 0.212370 0.280981 0.588395
O O9 0.229079 0.154233 0.395810
O O10 0.947334 0.257794 0.683193
O O11 0.184256 0.904549 0.564174
O O12 0.328685 0.578922 0.566692
O O13 0.532151 0.130286 0.373214
O O14 0.347734 0.260174 0.658645
O O15 0.817071 0.002506 0.247416
O O16 0.719705 0.564791 0.762697
O O17 0.000000 0.500000 0.500000
#
# Coordination Sequence:
#
# PCOD9103524 Si02
#       8
#     2   2   2   2   2   2   2   2
#     4  11  25  43  66  95 136 167 219 275 328 393
#     4  11  23  41  66  95 132 175 220 270 327 395
#     4  10  20  38  66  96 128 169 223 271 319 387
#     4  10  22  41  64  93 130 170 221 277 329 390
#     4  11  21  40  68  96 129 175 221 275 323 384
#     4  10  21  43  65  94 132 171 219 271 323 388
#     4   9  22  39  67  96 126 172 219 266 324 389
#     4  10  24  41  64  96 134 167 223 274 331 391
#
# _framework density 22.185084
#
# number of rings (size 3 to 8) (size 9 to 14) (size 15 to 20)
#    0.000    1.750    2.500    0.750    1.750    6.500 
#    0.000    0.000    5.500    0.000    0.000    0.000 
#    0.000    0.000    0.000    0.000    0.000    0.000 
#
# Total GULP energy -89283.756580 kJ/mol
# GULP energy per Si atom -5580.234786 kJ/mol
# Density = 2.213459 g / cm^3
# Si number density = 22.185084 Si / 1000 Ang^3
#
#
#
# Elastic Constant Matrix: (Units=GPa)
#
#
# Indices 1 2 3 4 5 6 
#
# 1 69.5107 36.6172 42.5956 -17.6933 4.3899 -9.4689
# 2 36.6172 151.5430 56.8850 -25.8696 14.3987 -7.3414
# 3 42.5956 56.8850 86.7589 -25.2943 14.6332 -3.5428
# 4 -17.6933 -25.8696 -25.2943 27.5236 -5.8621 -5.1536
# 5 4.3899 14.3987 14.6332 -5.8621 38.3328 -10.5160
# 6 -9.4689 -7.3414 -3.5428 -5.1536 -10.5160 39.1179
#
#
#
# Elastic Compliance Matrix: (Units=1/GPa)
#
#
# Indices 1 2 3 4 5 6 
#
# 1 0.022923 -0.000976 -0.008720 0.007946 0.004133 0.006734
# 2 -0.000976 0.009284 -0.004135 0.004437 -0.000700 0.001528
# 3 -0.008720 -0.004135 0.022079 0.009649 -0.004638 -0.000863
# 4 0.007946 0.004437 0.009649 0.058228 0.006202 0.012968
# 5 0.004133 -0.000700 -0.004638 0.006202 0.031248 0.009666
# 6 0.006734 0.001528 -0.000863 0.012968 0.009666 0.031709
#
#
# Mechanical properties :
#
#
# Convention : Reuss Voigt Hill
#
# Bulk Modulus (GPa) = 37.55830 64.44537 51.00184
# Shear Modulus (GPa) = 23.58430 32.44252 28.01341
#
# Velocity S-wave (km/s) = 3.26401 3.82823 3.55732
# Velocity P-wave (km/s) = 5.58313 6.97513 6.31759
#
# Compressibility (1/GPa) = 0.02662527
#
# Stress axis : x y z
#
# Youngs Moduli (GPa) = 43.62518 107.70722 45.29282
#
# Poissons Ratio (x) = 0.10507 0.39495
# Poissons Ratio (y) = 0.04256 0.18727
# Poissons Ratio (z) = 0.38041 0.44533
#
# Static dielectric constant tensor:
#      x y z
#    x 1.849900 -0.042890 -0.032490 
#    y -0.042890 1.854510 -0.004790 
#    z -0.032490 -0.004790 1.837110 
# 
# From -- ./inp_files/525848.got.cif
#   From: 2010.05.17/outbox.cif.g08.bks.cpg/sg2_263_cif.got.tgz:525848.got - 2010.06.03 11:33:40.
