data_PCOD9103006
_publ_section_title
;
Structure prediction by ZEFSAII (Michael W. Deem and Ramdas Pophale) SiO2 
 PCOD9103006
Probable space group: P -1
;
_chemical_formula_sum "Si O2"
_cell_formula_units_Z 10
_cell_length_a 7.136262
_cell_length_b 11.114407
_cell_length_c 9.479274
_cell_angle_alpha 40.534000
_cell_angle_beta 56.422470
_cell_angle_gamma 82.170621
_cell_volume 346.547281
_symmetry_space_group_name_H-M "P -1"
_symmetry_group_IT_number 2
_symmetry_cell_setting 'triclinic'
loop_
_space_group_symop_operation_xyz
x,y,z
-x,-y,-z
loop_
_atom_site_type_symbol
_atom_site_label
_atom_site_fract_x
_atom_site_fract_y
_atom_site_fract_z
Si Si1 0.678164 0.518967 0.242487
Si Si2 0.289503 0.188114 0.485573
Si Si3 0.059747 0.817521 0.586285
Si Si4 0.635091 0.158800 0.134343
Si Si5 0.624901 0.255304 0.753165
O O1 0.409804 0.331334 0.446807
O O2 0.770351 0.415001 0.417328
O O3 0.607082 0.691020 0.177116
O O4 0.883356 0.623258 0.937870
O O5 0.062363 0.217783 0.487957
O O6 0.201916 0.938924 0.778860
O O7 0.519887 0.254262 0.211210
O O8 0.366321 0.936897 0.391842
O O9 0.000000 0.000000 0.500000
O O10 0.748162 0.289887 0.826947
O O11 0.500000 0.000000 0.000000
#
# Coordination Sequence:
#
# PCOD9103006 Si02
#       5
#     2   2   2   2   2
#     4  11  22  38  68  90 122 172 204 253 319 363
#     4  10  20  38  66  94 120 161 212 256 303 367
#     4  10  20  38  64  96 122 156 211 263 299 362
#     4  10  21  40  67  90 125 164 203 259 313 355
#     4  11  22  40  62  90 130 168 200 253 322 373
#
# _framework density 28.856090999999999
#
# number of rings (size 3 to 8) (size 9 to 14) (size 15 to 20)
#    0.000    1.600    6.000    0.600    0.000    0.800 
#    0.000    1.000    0.000   12.000    0.000    0.000 
#    0.000    0.000    0.000    0.000    0.000    0.000 
#
# Total GULP energy -56032.254317 kJ/mol
# GULP energy per Si atom -5603.225432 kJ/mol
# Density = 2.879041 g / cm^3
# Si number density = 28.856091 Si / 1000 Ang^3
#
#
#
# Elastic Constant Matrix: (Units=GPa)
#
#
# Indices 1 2 3 4 5 6 
#
# 1 162.5444 39.0883 58.0516 -7.8399 48.2500 3.4295
# 2 39.0883 124.7470 31.9353 -6.5406 29.6235 9.7416
# 3 58.0516 31.9353 192.0434 30.2639 44.5629 10.4711
# 4 -7.8399 -6.5406 30.2639 61.9614 1.3142 25.4211
# 5 48.2500 29.6235 44.5629 1.3142 60.1248 -2.4775
# 6 3.4295 9.7416 10.4711 25.4211 -2.4775 42.0994
#
#
#
# Elastic Compliance Matrix: (Units=1/GPa)
#
#
# Indices 1 2 3 4 5 6 
#
# 1 0.008732 -0.000673 -0.001528 0.002805 -0.005696 -0.002205
# 2 -0.000673 0.009860 -0.000778 0.003124 -0.003980 -0.004154
# 3 -0.001528 -0.000778 0.007238 -0.004031 -0.003637 0.000724
# 4 0.002805 0.003124 -0.004031 0.025073 -0.001978 -0.015205
# 5 -0.005696 -0.003980 -0.003637 -0.001978 0.026110 0.005020
# 6 -0.002205 -0.004154 0.000724 -0.015205 0.005020 0.034191
#
#
# Mechanical properties :
#
#
# Convention : Reuss Voigt Hill
#
# Bulk Modulus (GPa) = 50.32417 81.94282 66.13350
# Shear Modulus (GPa) = 40.39207 56.18777 48.28992
#
# Velocity S-wave (km/s) = 3.74542 4.41746 4.09525
# Velocity P-wave (km/s) = 6.01513 7.38088 6.73272
#
# Compressibility (1/GPa) = 0.01987117
#
# Stress axis : x y z
#
# Youngs Moduli (GPa) = 114.51754 101.42163 138.15649
#
# Poissons Ratio (x) = 0.06828 0.21109
# Poissons Ratio (y) = 0.07710 0.10754
# Poissons Ratio (z) = 0.17497 0.07895
#
# Static dielectric constant tensor:
#      x y z
#    x 2.261140 -0.023510 0.028040 
#    y -0.023510 2.389530 0.071340 
#    z 0.028040 0.071340 2.285880 
# 
# From -- ./inp_files/166887.got.cif
#   From: 2010.05.17/outbox.cif.g08.bks.cpg/sg2_84_cif.got.tgz:166887.got - 2010.06.03 11:33:40.
