data_PCOD9103116
_publ_section_title
;
Structure prediction by ZEFSAII (Michael W. Deem and Ramdas Pophale) SiO2 
 PCOD9103116
Probable space group: P -1
;
_chemical_formula_sum "Si O2"
_cell_formula_units_Z 16
_cell_length_a 20.984135
_cell_length_b 12.038645
_cell_length_c 8.147898
_cell_angle_alpha 68.782512
_cell_angle_beta 138.340698
_cell_angle_gamma 140.632101
_cell_volume 745.688382
_symmetry_space_group_name_H-M "P -1"
_symmetry_group_IT_number 2
_symmetry_cell_setting 'triclinic'
loop_
_space_group_symop_operation_xyz
x,y,z
-x,-y,-z
loop_
_atom_site_type_symbol
_atom_site_label
_atom_site_fract_x
_atom_site_fract_y
_atom_site_fract_z
Si Si1 0.557524 0.423712 0.648778
Si Si2 0.267866 0.816722 0.778875
Si Si3 0.314512 0.687586 0.415441
Si Si4 0.900273 0.835037 0.040746
Si Si5 0.688242 0.064103 0.833859
Si Si6 0.806763 0.985976 0.915440
Si Si7 0.999975 0.294366 0.817930
Si Si8 0.394471 0.711073 0.914158
O O1 0.500000 0.500000 0.500000
O O2 0.388317 0.193105 0.394602
O O3 0.722535 0.606367 0.764341
O O4 0.606308 0.411882 0.920472
O O5 0.307059 0.722710 0.850177
O O6 0.100803 0.696140 0.446597
O O7 0.266378 0.830135 0.962911
O O8 0.419915 0.053360 0.883184
O O9 0.301924 0.818951 0.342623
O O10 0.311113 0.623634 0.621886
O O11 0.493829 0.841287 0.602802
O O12 0.170823 0.503448 0.117048
O O13 0.990611 0.799238 0.254841
O O14 0.862473 0.902347 0.065244
O O15 0.000000 0.000000 0.000000
O O16 0.813237 0.081346 0.031326
O O17 0.899252 0.135860 0.859940
#
# Coordination Sequence:
#
# PCOD9103116 Si02
#       8
#     2   2   2   2   2   2   2   2
#     4  10  20  38  70  90 119 169 221 251 312 380
#     4  10  22  37  64  96 130 162 215 258 317 374
#     4  10  23  38  62  93 134 164 207 262 325 367
#     4   9  21  38  63  91 120 164 212 261 311 368
#     4  10  22  39  60  93 126 172 209 261 311 380
#     4  10  20  38  65  87 121 169 212 251 314 377
#     4  11  21  40  63  92 126 167 204 268 317 370
#     4  10  21  40  63  97 125 170 211 258 308 389
#
# _framework density 21.456686000000001
#
# number of rings (size 3 to 8) (size 9 to 14) (size 15 to 20)
#    0.000    2.000    1.250    1.500    7.000    2.500 
#    2.250    0.625   13.750    7.500    0.000    0.000 
#    0.000    0.000    0.000    0.000    0.000    0.000 
#
# Total GULP energy -89126.540210 kJ/mol
# GULP energy per Si atom -5570.408763 kJ/mol
# Density = 2.140785 g / cm^3
# Si number density = 21.456686 Si / 1000 Ang^3
#
#
#
# Elastic Constant Matrix: (Units=GPa)
#
#
# Indices 1 2 3 4 5 6 
#
# 1 131.2998 33.3368 40.0963 -15.5265 24.6050 -21.6777
# 2 33.3368 99.1401 39.3587 -8.4298 5.2414 0.6731
# 3 40.0963 39.3587 94.5547 -14.6433 -1.0207 -3.1479
# 4 -15.5265 -8.4298 -14.6433 30.7268 2.4563 8.5307
# 5 24.6050 5.2414 -1.0207 2.4563 19.4485 -6.3046
# 6 -21.6777 0.6731 -3.1479 8.5307 -6.3046 20.3607
#
#
#
# Elastic Compliance Matrix: (Units=1/GPa)
#
#
# Indices 1 2 3 4 5 6 
#
# 1 0.014131 -0.001892 -0.004573 0.003389 -0.015371 0.008222
# 2 -0.001892 0.012861 -0.004426 0.002104 -0.003190 -0.004993
# 3 -0.004573 -0.004426 0.014920 0.003554 0.006721 -0.001823
# 4 0.003389 0.002104 0.003554 0.043108 -0.016276 -0.019013
# 5 -0.015371 -0.003190 0.006721 -0.016276 0.079377 0.016177
# 6 0.008222 -0.004993 -0.001823 -0.019013 0.016177 0.070726
#
#
# Mechanical properties :
#
#
# Convention : Reuss Voigt Hill
#
# Bulk Modulus (GPa) = 49.67251 61.17536 55.42393
# Shear Modulus (GPa) = 18.96710 28.25405 23.61058
#
# Velocity S-wave (km/s) = 2.97639 3.63270 3.32080
# Velocity P-wave (km/s) = 5.91712 6.79473 6.37105
#
# Compressibility (1/GPa) = 0.02013186
#
# Stress axis : x y z
#
# Youngs Moduli (GPa) = 70.76434 77.75155 67.02577
#
# Poissons Ratio (x) = 0.14707 0.30648
# Poissons Ratio (y) = 0.13385 0.29667
# Poissons Ratio (z) = 0.32357 0.34415
#
# Static dielectric constant tensor:
#      x y z
#    x 1.955560 -0.167570 0.008610 
#    y -0.167570 1.971770 0.048880 
#    z 0.008610 0.048880 1.812370 
# 
# From -- ./inp_files/176639.got.cif
#   From: 2010.05.17/outbox.cif.g08.bks.cpg/sg2_89_cif.got.tgz:176639.got - 2010.06.03 11:33:40.
