data_PCOD9103499
_publ_section_title
;
Structure prediction by ZEFSAII (Michael W. Deem and Ramdas Pophale) SiO2 
 PCOD9103499
Probable space group: P -1
;
_chemical_formula_sum "Si O2"
_cell_formula_units_Z 14
_cell_length_a 14.544473
_cell_length_b 9.659451
_cell_length_c 7.184443
_cell_angle_alpha 94.664371
_cell_angle_beta 115.574346
_cell_angle_gamma 134.561055
_cell_volume 520.024262
_symmetry_space_group_name_H-M "P -1"
_symmetry_group_IT_number 2
_symmetry_cell_setting 'triclinic'
loop_
_space_group_symop_operation_xyz
x,y,z
-x,-y,-z
loop_
_atom_site_type_symbol
_atom_site_label
_atom_site_fract_x
_atom_site_fract_y
_atom_site_fract_z
Si Si1 0.228899 0.998442 0.358425
Si Si2 0.303443 0.632742 0.561269
Si Si3 0.838904 0.784788 0.698902
Si Si4 0.167167 0.538019 0.021814
Si Si5 0.351767 0.174964 0.060448
Si Si6 0.797190 0.240645 0.252871
Si Si7 0.383963 0.526567 0.174359
O O1 0.192586 0.110328 0.426029
O O2 0.260818 0.062486 0.172233
O O3 0.426439 0.184653 0.623117
O O4 0.048002 0.708051 0.183073
O O5 0.145208 0.340511 0.411859
O O6 0.262461 0.641401 0.317025
O O7 0.472685 0.726506 0.769953
O O8 0.306372 0.771204 0.705117
O O9 0.674490 0.573993 0.674485
O O10 0.000000 0.000000 0.000000
O O11 0.237316 0.474356 0.977854
O O12 0.768157 0.261151 0.019411
O O13 0.383575 0.372963 0.068314
O O14 0.235621 0.958824 0.788649
O O15 0.000000 0.500000 0.500000
#
# Coordination Sequence:
#
# PCOD9103499 Si02
#       7
#     2   2   2   2   2   2   2
#     4  11  18  37  72 107 138 175 236 287 348 411
#     4  11  22  46  73 100 145 185 231 292 350 417
#     4  10  16  32  69 106 134 176 224 285 350 401
#     4  11  25  46  76 106 137 185 237 289 350 417
#     4  11  22  42  73 106 141 188 233 287 354 420
#     4  12  30  48  65 104 146 190 236 283 354 424
#     4  10  20  39  73 110 134 179 240 288 350 412
#
# _framework density 26.921821999999999
#
# number of rings (size 3 to 8) (size 9 to 14) (size 15 to 20)
#    0.000    1.143    7.143    2.143    2.000    2.857 
#    5.143    3.571    0.000    1.714    0.000    0.000 
#    0.000    0.000    0.000    0.000    0.000    0.000 
#
# Total GULP energy -78299.895567 kJ/mol
# GULP energy per Si atom -5592.849683 kJ/mol
# Density = 2.686055 g / cm^3
# Si number density = 26.921822 Si / 1000 Ang^3
#
#
#
# Elastic Constant Matrix: (Units=GPa)
#
#
# Indices 1 2 3 4 5 6 
#
# 1 148.1340 20.8066 44.9436 15.0491 -6.8716 -3.7563
# 2 20.8066 86.6354 9.0224 3.3356 -4.7754 -0.6902
# 3 44.9436 9.0224 120.3439 30.1620 -4.4816 8.9050
# 4 15.0491 3.3356 30.1620 32.9339 0.6126 2.4820
# 5 -6.8716 -4.7754 -4.4816 0.6126 53.3499 9.2462
# 6 -3.7563 -0.6902 8.9050 2.4820 9.2462 30.5619
#
#
#
# Elastic Compliance Matrix: (Units=1/GPa)
#
#
# Indices 1 2 3 4 5 6 
#
# 1 0.007960 -0.001554 -0.002676 -0.001164 0.000380 0.001703
# 2 -0.001554 0.011997 -0.000195 -0.000335 0.000879 -0.000102
# 3 -0.002676 -0.000195 0.012019 -0.009529 0.001359 -0.003473
# 4 -0.001164 -0.000335 -0.009529 0.039696 -0.001406 -0.000173
# 5 0.000380 0.000879 0.001359 -0.001406 0.020093 -0.006294
# 6 0.001703 -0.000102 -0.003473 -0.000173 -0.006294 0.035858
#
#
# Mechanical properties :
#
#
# Convention : Reuss Voigt Hill
#
# Bulk Modulus (GPa) = 43.24091 56.07316 49.65704
# Shear Modulus (GPa) = 34.67883 42.05853 38.36868
#
# Velocity S-wave (km/s) = 3.59295 3.95681 3.77926
# Velocity P-wave (km/s) = 5.77139 6.46131 6.12607
#
# Compressibility (1/GPa) = 0.02312625
#
# Stress axis : x y z
#
# Youngs Moduli (GPa) = 125.62947 83.35700 83.19912
#
# Poissons Ratio (x) = 0.12951 0.22266
# Poissons Ratio (y) = 0.19518 0.01621
# Poissons Ratio (z) = 0.33622 0.01625
#
# Static dielectric constant tensor:
#      x y z
#    x 2.208240 0.021910 -0.041450 
#    y 0.021910 2.118820 0.000930 
#    z -0.041450 0.000930 2.206230 
# 
# From -- ./inp_files/453283.got.cif
#   From: 2010.05.17/outbox.cif.g08.bks.cpg/sg2_227_cif.got.tgz:453283.got - 2010.06.03 11:33:40.
