data_PCOD9103291
_publ_section_title
;
Structure prediction by ZEFSAII (Michael W. Deem and Ramdas Pophale) SiO2 
 PCOD9103291
Probable space group: P -1
;
_chemical_formula_sum "Si O2"
_cell_formula_units_Z 13
_cell_length_a 11.381717
_cell_length_b 15.056540
_cell_length_c 6.834217
_cell_angle_alpha 79.647163
_cell_angle_beta 76.308243
_cell_angle_gamma 143.329011
_cell_volume 523.913452
_symmetry_space_group_name_H-M "P -1"
_symmetry_group_IT_number 2
_symmetry_cell_setting 'triclinic'
loop_
_space_group_symop_operation_xyz
x,y,z
-x,-y,-z
loop_
_atom_site_type_symbol
_atom_site_label
_atom_site_fract_x
_atom_site_fract_y
_atom_site_fract_z
Si Si1 0.284484 0.120797 0.037084
Si Si2 0.102683 0.851843 0.735470
Si Si3 0.550899 0.949598 0.135116
Si Si4 0.000000 0.500000 0.500000
Si Si5 0.789320 0.549581 0.639276
Si Si6 0.758581 0.863920 0.412875
Si Si7 0.545654 0.509626 0.207502
O O1 0.554583 0.339004 0.919457
O O2 0.277060 0.143802 0.801748
O O3 0.283941 0.013108 0.072224
O O4 0.038946 0.004244 0.276179
O O5 0.986047 0.716635 0.659361
O O6 0.296081 0.929034 0.774487
O O7 0.854215 0.720471 0.015755
O O8 0.240751 0.035188 0.538640
O O9 0.285053 0.721520 0.372677
O O10 0.500000 0.000000 0.000000
O O11 0.077833 0.442430 0.538315
O O12 0.640861 0.537216 0.604431
O O13 0.553279 0.654760 0.641458
O O14 0.500000 0.500000 0.000000
#
# Coordination Sequence:
#
# PCOD9103291 Si02
#       7
#     2   2   2   1   2   2   2
#     4   9  20  39  60  98 134 175 219 270 330 393
#     4  10  22  42  63 101 132 173 221 275 339 396
#     4  10  23  42  66  91 131 175 229 270 326 402
#     4  10  24  44  60  88 126 176 222 272 326 388
#     4  10  21  41  63  93 137 171 224 271 328 404
#     4  10  20  38  65  95 139 172 214 272 333 400
#     4  10  22  38  64 103 137 169 215 275 341 395
#
# _framework density 24.813258999999999
#
# number of rings (size 3 to 8) (size 9 to 14) (size 15 to 20)
#    0.000    2.154    1.538    0.000    2.154    7.385 
#    0.000    3.077    0.000    0.000    0.000    0.000 
#    0.000    0.000    0.000    0.000    0.000    0.000 
#
# Total GULP energy -72480.597628 kJ/mol
# GULP energy per Si atom -5575.430587 kJ/mol
# Density = 2.475678 g / cm^3
# Si number density = 24.813259 Si / 1000 Ang^3
#
#
#
# Elastic Constant Matrix: (Units=GPa)
#
#
# Indices 1 2 3 4 5 6 
#
# 1 144.5247 35.4238 24.8678 -10.8999 33.0104 -3.5100
# 2 35.4238 150.8963 40.9063 -32.1172 24.8886 7.5319
# 3 24.8678 40.9063 70.4145 -16.7362 17.6058 5.9381
# 4 -10.8999 -32.1172 -16.7362 41.6764 -2.7997 -6.4144
# 5 33.0104 24.8886 17.6058 -2.7997 40.7419 -15.9223
# 6 -3.5100 7.5319 5.9381 -6.4144 -15.9223 52.0003
#
#
#
# Elastic Compliance Matrix: (Units=1/GPa)
#
#
# Indices 1 2 3 4 5 6 
#
# 1 0.008790 -0.000434 -0.000773 0.000994 -0.006947 -0.001260
# 2 -0.000434 0.009496 -0.002752 0.005511 -0.004591 -0.001816
# 3 -0.000773 -0.002752 0.019158 0.004367 -0.007020 -0.003452
# 4 0.000994 0.005511 0.004367 0.030250 -0.003411 0.001457
# 5 -0.006947 -0.004591 -0.007020 -0.003411 0.040897 0.013100
# 6 -0.001260 -0.001816 -0.003452 0.001457 0.013100 0.023994
#
#
# Mechanical properties :
#
#
# Convention : Reuss Voigt Hill
#
# Bulk Modulus (GPa) = 33.86878 63.13681 48.50280
# Shear Modulus (GPa) = 33.25709 44.52620 38.89165
#
# Velocity S-wave (km/s) = 3.66498 4.24069 3.96330
# Velocity P-wave (km/s) = 5.62036 7.03406 6.36657
#
# Compressibility (1/GPa) = 0.02952571
#
# Stress axis : x y z
#
# Youngs Moduli (GPa) = 113.77134 105.30754 52.19793
#
# Poissons Ratio (x) = 0.04567 0.04034
# Poissons Ratio (y) = 0.04934 0.14367
# Poissons Ratio (z) = 0.08793 0.28984
#
# Static dielectric constant tensor:
#      x y z
#    x 1.911430 0.033100 -0.045370 
#    y 0.033100 1.979750 0.068660 
#    z -0.045370 0.068660 2.036650 
# 
# From -- ./inp_files/267395.got.cif
#   From: 2010.05.17/outbox.cif.g08.bks.cpg/sg2_134_cif.got.tgz:267395.got - 2010.06.03 11:33:40.
