data_PCOD9103127
_publ_section_title
;
Structure prediction by ZEFSAII (Michael W. Deem and Ramdas Pophale) SiO2 
 PCOD9103127
Probable space group: P -1
;
_chemical_formula_sum "Si O2"
_cell_formula_units_Z 16
_cell_length_a 4.893311
_cell_length_b 19.775021
_cell_length_c 9.341148
_cell_angle_alpha 58.604302
_cell_angle_beta 51.105397
_cell_angle_gamma 63.449633
_cell_volume 590.647574
_symmetry_space_group_name_H-M "P -1"
_symmetry_group_IT_number 2
_symmetry_cell_setting 'triclinic'
loop_
_space_group_symop_operation_xyz
x,y,z
-x,-y,-z
loop_
_atom_site_type_symbol
_atom_site_label
_atom_site_fract_x
_atom_site_fract_y
_atom_site_fract_z
Si Si1 0.513715 0.120242 0.964389
Si Si2 0.666194 0.284938 0.428561
Si Si3 0.368854 0.956885 0.305829
Si Si4 0.203712 0.126473 0.474284
Si Si5 0.267714 0.426130 0.569901
Si Si6 0.010748 0.509512 0.816402
Si Si7 0.231901 0.792262 0.978444
Si Si8 0.400006 0.336965 0.165936
O O1 0.772294 0.173290 0.897775
O O2 0.136273 0.179124 0.011572
O O3 0.488655 0.042379 0.154674
O O4 0.571181 0.081035 0.832365
O O5 0.351407 0.338075 0.566300
O O6 0.521903 0.278507 0.323841
O O7 0.863328 0.199939 0.517333
O O8 0.000892 0.330929 0.256807
O O9 0.602273 0.905990 0.407888
O O10 0.954061 0.946853 0.465905
O O11 0.475091 0.163326 0.243743
O O12 0.095481 0.428949 0.781995
O O13 0.656932 0.451486 0.396250
O O14 0.000000 0.500000 0.500000
O O15 0.647835 0.574895 0.842341
O O16 0.000000 0.500000 0.000000
O O17 0.363867 0.697598 0.008741
#
# Coordination Sequence:
#
# PCOD9103127 Si02
#       8
#     2   2   2   2   2   2   2   2
#     4  11  24  42  61  86 128 165 197 250 319 377
#     4  10  20  38  65  88 124 165 204 251 318 369
#     4  11  24  42  61  88 126 163 199 255 313 368
#     4  11  22  39  64  93 119 157 211 259 300 368
#     4  10  20  40  65  89 126 174 208 260 322 371
#     4  10  22  40  62  94 129 166 217 262 311 379
#     4  11  22  39  65  91 118 162 208 252 312 365
#     4  10  20  39  63  88 127 165 196 259 317 364
#
# _framework density 27.088913000000002
#
# number of rings (size 3 to 8) (size 9 to 14) (size 15 to 20)
#    0.000    1.500    1.250    5.250    0.000    5.500 
#    4.500    0.000    0.000    0.000    0.000    0.000 
#    0.000    0.000    0.000    0.000    0.000    0.000 
#
# Total GULP energy -89454.155370 kJ/mol
# GULP energy per Si atom -5590.884711 kJ/mol
# Density = 2.702726 g / cm^3
# Si number density = 27.088913 Si / 1000 Ang^3
#
#
#
# Elastic Constant Matrix: (Units=GPa)
#
#
# Indices 1 2 3 4 5 6 
#
# 1 115.1554 19.0202 22.9318 -6.1722 27.3225 0.1889
# 2 19.0202 94.2923 25.3014 7.5466 13.7900 2.6543
# 3 22.9318 25.3014 98.3429 18.7057 28.4385 -2.5972
# 4 -6.1722 7.5466 18.7057 42.2565 0.1935 10.7805
# 5 27.3225 13.7900 28.4385 0.1935 51.0802 -2.7287
# 6 0.1889 2.6543 -2.5972 10.7805 -2.7287 52.0975
#
#
#
# Elastic Compliance Matrix: (Units=1/GPa)
#
#
# Indices 1 2 3 4 5 6 
#
# 1 0.010362 -0.001262 -0.001281 0.002530 -0.004541 -0.000799
# 2 -0.001262 0.011736 -0.002125 -0.001201 -0.001333 -0.000521
# 3 -0.001281 -0.002125 0.014188 -0.006525 -0.006518 0.001829
# 4 0.002530 -0.001201 -0.006525 0.028683 0.002169 -0.006095
# 5 -0.004541 -0.001333 -0.006518 0.002169 0.026023 0.000674
# 6 -0.000799 -0.000521 0.001829 -0.006095 0.000674 0.020612
#
#
# Mechanical properties :
#
#
# Convention : Reuss Voigt Hill
#
# Bulk Modulus (GPa) = 37.10576 49.14417 43.12497
# Shear Modulus (GPa) = 38.48469 45.12264 41.80367
#
# Velocity S-wave (km/s) = 3.77328 4.08576 3.93262
# Velocity P-wave (km/s) = 5.71936 6.35917 6.04773
#
# Compressibility (1/GPa) = 0.02694999
#
# Stress axis : x y z
#
# Youngs Moduli (GPa) = 96.50836 85.20880 70.48171
#
# Poissons Ratio (x) = 0.10757 0.09026
# Poissons Ratio (y) = 0.12184 0.14976
# Poissons Ratio (z) = 0.12359 0.18105
#
# Static dielectric constant tensor:
#      x y z
#    x 2.116610 0.116460 -0.079090 
#    y 0.116460 2.301040 -0.007710 
#    z -0.079090 -0.007710 2.251550 
# 
# From -- ./inp_files/142264.got.cif
#   From: 2010.05.17/outbox.cif.g08.bks.cpg/sg2_72_cif.got.tgz:142264.got - 2010.06.03 11:33:40.
