data_PCOD9103212
_publ_section_title
;
Structure prediction by ZEFSAII (Michael W. Deem and Ramdas Pophale) SiO2 
 PCOD9103212
Probable space group: P -1
;
_chemical_formula_sum "Si O2"
_cell_formula_units_Z 14
_cell_length_a 12.418086
_cell_length_b 5.015776
_cell_length_c 24.558096
_cell_angle_alpha 106.277927
_cell_angle_beta 157.834174
_cell_angle_gamma 79.141791
_cell_volume 543.166781
_symmetry_space_group_name_H-M "P -1"
_symmetry_group_IT_number 2
_symmetry_cell_setting 'triclinic'
loop_
_space_group_symop_operation_xyz
x,y,z
-x,-y,-z
loop_
_atom_site_type_symbol
_atom_site_label
_atom_site_fract_x
_atom_site_fract_y
_atom_site_fract_z
Si Si1 0.043129 0.029222 0.811431
Si Si2 0.901701 0.755215 0.333977
Si Si3 0.552274 0.179574 0.137175
Si Si4 0.731880 0.933585 0.559998
Si Si5 0.264063 0.447320 0.289496
Si Si6 0.715130 0.930930 0.824709
Si Si7 0.553959 0.539680 0.253865
O O1 0.921045 0.304831 0.789450
O O2 0.027439 0.031125 0.738891
O O3 0.837980 0.732956 0.714972
O O4 0.338496 0.037026 0.982545
O O5 0.785399 0.443295 0.237433
O O6 0.851060 0.691248 0.371006
O O7 0.689192 0.967312 0.227488
O O8 0.205211 0.899909 0.457679
O O9 0.394701 0.361434 0.117070
O O10 0.592793 0.618347 0.458805
O O11 0.500000 0.000000 0.500000
O O12 0.211608 0.219876 0.204187
O O13 0.464598 0.698324 0.723124
O O14 0.601939 0.220785 0.782091
O O15 0.000000 0.000000 0.000000
#
# Coordination Sequence:
#
# PCOD9103212 Si02
#       7
#     2   2   2   2   2   2   2
#     4  11  22  41  64  93 128 165 209 268 311 370
#     4  10  22  40  65  92 133 162 210 258 316 376
#     4  10  20  38  65  92 132 157 207 256 323 366
#     4  10  25  46  67  90 126 172 215 260 312 376
#     4  11  24  40  62  96 127 167 216 256 311 375
#     4  12  21  36  65  92 127 164 208 257 315 367
#     4  10  20  39  57  95 126 161 200 260 314 368
#
# _framework density 25.774771000000001
#
# number of rings (size 3 to 8) (size 9 to 14) (size 15 to 20)
#    0.857    0.571    1.429    4.286    0.000    5.714 
#    0.000    1.429    0.000    0.000    0.000    0.000 
#    0.000    0.000    0.000    0.000    0.000    0.000 
#
# Total GULP energy -78211.581593 kJ/mol
# GULP energy per Si atom -5586.541542 kJ/mol
# Density = 2.571611 g / cm^3
# Si number density = 25.774771 Si / 1000 Ang^3
#
#
#
# Elastic Constant Matrix: (Units=GPa)
#
#
# Indices 1 2 3 4 5 6 
#
# 1 69.1977 7.7029 1.9376 7.0518 11.3148 -0.5921
# 2 7.7029 152.0423 33.0623 12.2690 4.7112 3.1502
# 3 1.9376 33.0623 93.2164 4.9748 -4.1146 0.7282
# 4 7.0518 12.2690 4.9748 34.1260 1.2812 0.7589
# 5 11.3148 4.7112 -4.1146 1.2812 39.2917 17.0664
# 6 -0.5921 3.1502 0.7282 0.7589 17.0664 47.9042
#
#
#
# Elastic Compliance Matrix: (Units=1/GPa)
#
#
# Indices 1 2 3 4 5 6 
#
# 1 0.015692 -0.000376 -0.000291 -0.002912 -0.005355 0.002177
# 2 -0.000376 0.007350 -0.002524 -0.002160 -0.000930 -0.000084
# 3 -0.000291 -0.002524 0.011763 -0.000805 0.001947 -0.000697
# 4 -0.002912 -0.002160 -0.000805 0.030801 0.000201 -0.000441
# 5 -0.005355 -0.000930 0.001947 0.000201 0.032319 -0.011552
# 6 0.002177 -0.000084 -0.000697 -0.000441 -0.011552 0.025040
#
#
# Mechanical properties :
#
#
# Convention : Reuss Voigt Hill
#
# Bulk Modulus (GPa) = 35.18175 44.42913 39.80544
# Shear Modulus (GPa) = 36.01706 42.38130 39.19918
#
# Velocity S-wave (km/s) = 3.74221 4.05939 3.90402
# Velocity P-wave (km/s) = 5.68783 6.26469 5.98322
#
# Compressibility (1/GPa) = 0.02842382
#
# Stress axis : x y z
#
# Youngs Moduli (GPa) = 63.72528 136.05558 85.00915
#
# Poissons Ratio (x) = 0.05115 0.02472
# Poissons Ratio (y) = 0.02396 0.21458
# Poissons Ratio (z) = 0.01853 0.34344
#
# Static dielectric constant tensor:
#      x y z
#    x 2.083880 -0.045080 0.092570 
#    y -0.045080 2.048800 -0.112270 
#    z 0.092570 -0.112270 2.129810 
# 
# From -- ./inp_files/623314.got.cif
#   From: 2010.05.17/outbox.cif.g08.bks.cpg/sg2_312_cif.got.tgz:623314.got - 2010.06.03 11:33:40.
