data_PCOD9103079
_publ_section_title
;
Structure prediction by ZEFSAII (Michael W. Deem and Ramdas Pophale) SiO2 
 PCOD9103079
Probable space group: P -1
;
_chemical_formula_sum "Si O2"
_cell_formula_units_Z 14
_cell_length_a 9.880979
_cell_length_b 17.075273
_cell_length_c 5.114132
_cell_angle_alpha 49.331266
_cell_angle_beta 79.093181
_cell_angle_gamma 65.904519
_cell_volume 593.752569
_symmetry_space_group_name_H-M "P -1"
_symmetry_group_IT_number 2
_symmetry_cell_setting 'triclinic'
loop_
_space_group_symop_operation_xyz
x,y,z
-x,-y,-z
loop_
_atom_site_type_symbol
_atom_site_label
_atom_site_fract_x
_atom_site_fract_y
_atom_site_fract_z
Si Si1 0.319587 0.552177 0.457608
Si Si2 0.278255 0.690551 0.675049
Si Si3 0.641993 0.003469 0.094488
Si Si4 0.460032 0.241839 0.607598
Si Si5 0.907535 0.557962 0.155928
Si Si6 0.897832 0.048769 0.681894
Si Si7 0.293880 0.218881 0.201353
O O1 0.500000 0.500000 0.500000
O O2 0.254905 0.651199 0.480946
O O3 0.246786 0.462823 0.741764
O O4 0.266081 0.604529 0.079447
O O5 0.451974 0.677815 0.627852
O O6 0.181368 0.816441 0.539519
O O7 0.693312 0.907901 0.501336
O O8 0.500000 0.000000 0.000000
O O9 0.582566 0.130067 0.940719
O O10 0.770479 0.997437 0.859703
O O11 0.406252 0.224521 0.377420
O O12 0.327868 0.260485 0.818488
O O13 0.000000 0.500000 0.500000
O O14 0.866985 0.690116 0.867886
O O15 0.000000 0.500000 0.000000
O O16 0.000000 0.000000 0.500000
O O17 0.000000 0.000000 0.000000
#
# Coordination Sequence:
#
# PCOD9103079 Si02
#       7
#     2   2   2   2   2   2   2
#     4  12  25  44  70  97 127 174 226 272 324 385
#     4  11  23  41  67  97 133 170 216 273 327 385
#     4   9  22  41  67  97 126 163 213 263 321 391
#     4  10  20  38  65 100 127 157 207 269 325 383
#     4  12  27  45  64  94 132 172 219 269 320 382
#     4  11  25  43  66  98 136 173 213 264 330 399
#     4  11  22  40  64  91 128 169 209 264 323 377
#
# _framework density 23.578845999999999
#
# number of rings (size 3 to 8) (size 9 to 14) (size 15 to 20)
#    0.000    1.143    0.000    6.000    0.000   11.429 
#    0.000    0.000    0.000    0.000    0.000    0.000 
#    0.000    0.000    0.000    0.000    0.000    0.000 
#
# Total GULP energy -78255.853930 kJ/mol
# GULP energy per Si atom -5589.703852 kJ/mol
# Density = 2.352518 g / cm^3
# Si number density = 23.578846 Si / 1000 Ang^3
#
#
#
# Elastic Constant Matrix: (Units=GPa)
#
#
# Indices 1 2 3 4 5 6 
#
# 1 79.8859 20.3155 21.9677 7.6222 -6.3606 -12.6836
# 2 20.3155 106.4049 31.1542 24.1538 -1.4859 -14.8577
# 3 21.9677 31.1542 91.1160 7.6710 0.5587 -5.8301
# 4 7.6222 24.1538 7.6710 49.3844 -4.4353 3.6608
# 5 -6.3606 -1.4859 0.5587 -4.4353 35.6756 4.1878
# 6 -12.6836 -14.8577 -5.8301 3.6608 4.1878 34.6458
#
#
#
# Elastic Compliance Matrix: (Units=1/GPa)
#
#
# Indices 1 2 3 4 5 6 
#
# 1 0.014514 -0.000991 -0.002769 -0.001477 0.001896 0.004349
# 2 -0.000991 0.012612 -0.003227 -0.005990 -0.000962 0.005252
# 3 -0.002769 -0.003227 0.012744 -0.000036 -0.000814 -0.000151
# 4 -0.001477 -0.005990 -0.000036 0.024149 0.003201 -0.006054
# 5 0.001896 -0.000962 -0.000814 0.003201 0.029176 -0.003720
# 6 0.004349 0.005252 -0.000151 -0.006054 -0.003720 0.033772
#
#
# Mechanical properties :
#
#
# Convention : Reuss Voigt Hill
#
# Bulk Modulus (GPa) = 38.61724 47.14239 42.87982
# Shear Modulus (GPa) = 33.42852 37.53913 35.48383
#
# Velocity S-wave (km/s) = 3.76937 3.99440 3.88351
# Velocity P-wave (km/s) = 5.94623 6.42733 6.19145
#
# Compressibility (1/GPa) = 0.02589517
#
# Stress axis : x y z
#
# Youngs Moduli (GPa) = 68.89961 79.29152 78.46575
#
# Poissons Ratio (x) = 0.07859 0.21730
# Poissons Ratio (y) = 0.06829 0.25321
# Poissons Ratio (z) = 0.19080 0.25587
#
# Static dielectric constant tensor:
#      x y z
#    x 1.901490 -0.050380 -0.025890 
#    y -0.050380 1.847230 0.005410 
#    z -0.025890 0.005410 1.874780 
# 
# From -- ./inp_files/52137.got.cif
#   From: 2010.05.17/outbox.cif.g08.bks.cpg/sg2_27_cif.got.tgz:52137.got - 2010.06.03 11:33:40.
