data_PCOD9103662
_publ_section_title
;
Structure prediction by ZEFSAII (Michael W. Deem and Ramdas Pophale) SiO2 
 PCOD9103662
Probable space group: P -1
;
_chemical_formula_sum "Si O2"
_cell_formula_units_Z 16
_cell_length_a 9.041935
_cell_length_b 9.713091
_cell_length_c 15.288891
_cell_angle_alpha 143.806669
_cell_angle_beta 63.719607
_cell_angle_gamma 109.923692
_cell_volume 710.604735
_symmetry_space_group_name_H-M "P -1"
_symmetry_group_IT_number 2
_symmetry_cell_setting 'triclinic'
loop_
_space_group_symop_operation_xyz
x,y,z
-x,-y,-z
loop_
_atom_site_type_symbol
_atom_site_label
_atom_site_fract_x
_atom_site_fract_y
_atom_site_fract_z
Si Si1 0.833321 0.269390 0.701798
Si Si2 0.074960 0.518472 0.893368
Si Si3 0.439073 0.887630 0.598798
Si Si4 0.401674 0.918237 0.192425
Si Si5 0.250435 0.045293 0.575011
Si Si6 0.169897 0.914840 0.958774
Si Si7 0.593709 0.647093 0.867843
Si Si8 0.515469 0.368915 0.310882
O O1 0.753994 0.136139 0.736175
O O2 0.694604 0.432045 0.773118
O O3 0.958636 0.441158 0.803007
O O4 0.880744 0.088252 0.518453
O O5 0.212023 0.311876 0.745464
O O6 0.126804 0.777283 0.988077
O O7 0.000000 0.500000 0.000000
O O8 0.591314 0.948980 0.527192
O O9 0.474352 0.626355 0.489180
O O10 0.446810 0.062334 0.767630
O O11 0.283906 0.913824 0.589741
O O12 0.399613 0.167725 0.273898
O O13 0.446659 0.722312 0.010241
O O14 0.294598 0.728330 0.780414
O O15 0.284637 0.134722 0.056241
O O16 0.000000 0.000000 0.000000
O O17 0.524590 0.606200 0.769073
#
# Coordination Sequence:
#
# PCOD9103662 Si02
#       8
#     2   2   2   2   2   2   2   2
#     4  11  23  42  64  93 129 172 210 265 322 383
#     4  12  27  40  68  91 131 170 217 267 317 387
#     4  10  20  38  67  94 125 166 212 271 312 378
#     4  10  23  35  63  99 129 153 220 263 318 370
#     4  10  22  42  63  94 127 169 214 259 326 382
#     4  11  23  42  62  93 130 168 212 253 329 379
#     4  11  23  41  67  92 130 174 210 269 314 386
#     4  11  22  41  67  93 130 172 211 267 318 386
#
# _framework density 22.516034000000001
#
# number of rings (size 3 to 8) (size 9 to 14) (size 15 to 20)
#    0.000    1.250    3.750    2.625    5.250    0.000 
#    0.000    0.000    0.000    1.500    0.000    0.000 
#    0.000    0.000    0.000    0.000    0.000    0.000 
#
# Total GULP energy -89386.660151 kJ/mol
# GULP energy per Si atom -5586.666259 kJ/mol
# Density = 2.246479 g / cm^3
# Si number density = 22.516034 Si / 1000 Ang^3
#
#
#
# Elastic Constant Matrix: (Units=GPa)
#
#
# Indices 1 2 3 4 5 6 
#
# 1 73.2190 7.7102 10.4518 3.5818 -2.2195 -16.0503
# 2 7.7102 122.5796 23.8727 12.0568 -13.5370 -5.9798
# 3 10.4518 23.8727 63.9456 4.0670 11.6129 -4.8692
# 4 3.5818 12.0568 4.0670 38.0750 -10.1758 0.9457
# 5 -2.2195 -13.5370 11.6129 -10.1758 24.2820 1.2429
# 6 -16.0503 -5.9798 -4.8692 0.9457 1.2429 33.9514
#
#
#
# Elastic Compliance Matrix: (Units=1/GPa)
#
#
# Indices 1 2 3 4 5 6 
#
# 1 0.015622 0.000113 -0.002338 -0.000933 0.001858 0.007028
# 2 0.000113 0.010105 -0.005103 -0.000604 0.007789 0.000833
# 3 -0.002338 -0.005103 0.021086 -0.004498 -0.015115 0.001698
# 4 -0.000933 -0.000604 -0.004498 0.031065 0.014881 -0.002603
# 5 0.001858 0.007789 -0.015115 0.014881 0.059288 -0.002502
# 6 0.007028 0.000833 0.001698 -0.002603 -0.002502 0.033331
#
#
# Mechanical properties :
#
#
# Convention : Reuss Voigt Hill
#
# Bulk Modulus (GPa) = 31.09952 38.20151 34.65051
# Shear Modulus (GPa) = 25.52664 33.77564 29.65114
#
# Velocity S-wave (km/s) = 3.37071 3.87728 3.63283
# Velocity P-wave (km/s) = 5.38434 6.08667 5.74624
#
# Compressibility (1/GPa) = 0.03215484
#
# Stress axis : x y z
#
# Youngs Moduli (GPa) = 64.01177 98.96089 47.42425
#
# Poissons Ratio (x) = -0.01115 0.11090
# Poissons Ratio (y) = -0.00721 0.24203
# Poissons Ratio (z) = 0.14969 0.50505
#
# Static dielectric constant tensor:
#      x y z
#    x 1.917420 -0.009310 0.013410 
#    y -0.009310 1.825850 0.004950 
#    z 0.013410 0.004950 1.850760 
# 
# From -- ./inp_files/184161.got.cif
#   From: 2010.05.17/outbox.cif.g08.bks.cpg/sg2_93_cif.got.tgz:184161.got - 2010.06.03 11:33:40.
