data_PCOD9103508
_publ_section_title
;
Structure prediction by ZEFSAII (Michael W. Deem and Ramdas Pophale) SiO2 
 PCOD9103508
Probable space group: P -1
;
_chemical_formula_sum "Si O2"
_cell_formula_units_Z 14
_cell_length_a 15.071581
_cell_length_b 22.696025
_cell_length_c 12.709537
_cell_angle_alpha 27.657992
_cell_angle_beta 152.623228
_cell_angle_gamma 161.868813
_cell_volume 594.956437
_symmetry_space_group_name_H-M "P -1"
_symmetry_group_IT_number 2
_symmetry_cell_setting 'triclinic'
loop_
_space_group_symop_operation_xyz
x,y,z
-x,-y,-z
loop_
_atom_site_type_symbol
_atom_site_label
_atom_site_fract_x
_atom_site_fract_y
_atom_site_fract_z
Si Si1 0.037738 0.274961 0.438617
Si Si2 0.416224 0.650013 0.100850
Si Si3 0.454257 0.126281 0.763027
Si Si4 0.803451 0.565112 0.219272
Si Si5 0.022038 0.583696 0.645984
Si Si6 0.643279 0.860232 0.600723
Si Si7 0.806037 0.017985 0.066323
O O1 0.149857 0.435393 0.217040
O O2 0.310448 0.311230 0.677136
O O3 0.001661 0.323518 0.435105
O O4 0.743673 0.044270 0.463635
O O5 0.517543 0.819689 0.012986
O O6 0.325880 0.661410 0.874156
O O7 0.359571 0.126402 0.549270
O O8 0.766385 0.350333 0.762972
O O9 0.239735 0.051079 0.753453
O O10 0.500000 0.000000 0.000000
O O11 0.668157 0.367433 0.339012
O O12 0.931393 0.601297 0.412800
O O13 0.500000 0.500000 0.000000
O O14 0.078577 0.779337 0.117322
O O15 0.924454 0.907193 0.836596
#
# Coordination Sequence:
#
# PCOD9103508 Si02
#       7
#     2   2   2   2   2   2   2
#     4  10  20  38  66  95 126 156 203 259 309 365
#     4  10  21  36  63  99 123 157 207 254 312 366
#     4  11  22  36  61  93 118 160 206 252 310 358
#     4   9  21  43  63  86 125 167 206 249 310 362
#     4  11  22  40  66  90 126 165 202 258 307 366
#     4   9  20  38  62  89 120 159 206 250 306 367
#     4  10  20  39  62  86 125 160 202 258 297 366
#
# _framework density 23.531134000000002
#
# number of rings (size 3 to 8) (size 9 to 14) (size 15 to 20)
#    0.000    2.000    1.429    1.714    2.000    0.571 
#    7.714    9.286    3.143    0.000    0.000    0.000 
#    0.000    0.000    0.000    0.000    0.000    0.000 
#
# Total GULP energy -78149.000736 kJ/mol
# GULP energy per Si atom -5582.071481 kJ/mol
# Density = 2.347758 g / cm^3
# Si number density = 23.531134 Si / 1000 Ang^3
#
#
#
# Elastic Constant Matrix: (Units=GPa)
#
#
# Indices 1 2 3 4 5 6 
#
# 1 47.0634 24.1971 12.9418 11.0517 3.2325 -19.5995
# 2 24.1971 173.2781 42.6410 -20.4806 -1.5509 -30.1806
# 3 12.9418 42.6410 99.2734 16.4389 -11.1820 -6.4207
# 4 11.0517 -20.4806 16.4389 42.0740 -9.1873 2.7516
# 5 3.2325 -1.5509 -11.1820 -9.1873 37.9758 0.9703
# 6 -19.5995 -30.1806 -6.4207 2.7516 0.9703 36.0974
#
#
#
# Elastic Compliance Matrix: (Units=1/GPa)
#
#
# Indices 1 2 3 4 5 6 
#
# 1 0.033310 -0.003197 -0.000562 -0.012603 -0.006601 0.016452
# 2 -0.003197 0.008760 -0.004055 0.006606 0.000923 0.004339
# 3 -0.000562 -0.004055 0.013141 -0.006415 0.002223 -0.000929
# 4 -0.012603 0.006606 -0.006415 0.034904 0.008034 -0.005337
# 5 -0.006601 0.000923 0.002223 0.008034 0.029628 -0.003825
# 6 0.016452 0.004339 -0.000929 -0.005337 -0.003825 0.040608
#
#
# Mechanical properties :
#
#
# Convention : Reuss Voigt Hill
#
# Bulk Modulus (GPa) = 25.26297 53.24166 39.25231
# Shear Modulus (GPa) = 26.43081 39.21844 32.82462
#
# Velocity S-wave (km/s) = 3.35509 4.08691 3.73895
# Velocity P-wave (km/s) = 5.07623 6.70415 5.94616
#
# Compressibility (1/GPa) = 0.03958363
#
# Stress axis : x y z
#
# Youngs Moduli (GPa) = 30.02087 114.15195 76.09823
#
# Poissons Ratio (x) = 0.36489 0.04276
# Poissons Ratio (y) = 0.09596 0.30861
# Poissons Ratio (z) = 0.01687 0.46293
#
# Static dielectric constant tensor:
#      x y z
#    x 1.733450 -0.201180 0.180770 
#    y -0.201180 1.445080 0.266920 
#    z 0.180770 0.266920 1.835750 
# 
# From -- ./inp_files/155309.got.cif
#   From: 2010.05.17/outbox.cif.g08.bks.cpg/sg2_78_cif.got.tgz:155309.got - 2010.06.03 11:33:40.
