data_PCOD9103913
_publ_section_title
;
Structure prediction by ZEFSAII (Michael W. Deem and Ramdas Pophale) SiO2 
 PCOD9103913
Probable space group: P -1
;
_chemical_formula_sum "Si O2"
_cell_formula_units_Z 16
_cell_length_a 13.782848
_cell_length_b 10.094716
_cell_length_c 10.273090
_cell_angle_alpha 72.759588
_cell_angle_beta 135.968938
_cell_angle_gamma 134.552496
_cell_volume 642.483454
_symmetry_space_group_name_H-M "P -1"
_symmetry_group_IT_number 2
_symmetry_cell_setting 'triclinic'
loop_
_space_group_symop_operation_xyz
x,y,z
-x,-y,-z
loop_
_atom_site_type_symbol
_atom_site_label
_atom_site_fract_x
_atom_site_fract_y
_atom_site_fract_z
Si Si1 0.876251 0.966311 0.267546
Si Si2 0.438380 0.880235 0.270560
Si Si3 0.497927 0.216555 0.895365
Si Si4 0.048420 0.524834 0.690690
Si Si5 0.520627 0.821850 0.639275
Si Si6 0.660653 0.648292 0.927343
Si Si7 0.990645 0.669362 0.826212
Si Si8 0.998732 0.239731 0.917960
O O1 0.012194 0.168401 0.252999
O O2 0.697071 0.936665 0.156118
O O3 0.768012 0.771255 0.130562
O O4 0.000000 0.000000 0.500000
O O5 0.421883 0.780004 0.416684
O O6 0.545872 0.103331 0.350574
O O7 0.547493 0.872347 0.266601
O O8 0.216097 0.767906 0.040678
O O9 0.701325 0.285447 0.117566
O O10 0.551284 0.419637 0.889345
O O11 0.937866 0.554051 0.672970
O O12 0.000000 0.500000 0.500000
O O13 0.997639 0.340261 0.763128
O O14 0.510191 0.662135 0.735370
O O15 0.767181 0.027083 0.791615
O O16 0.845162 0.766937 0.967076
O O17 0.908215 0.607910 0.913530
#
# Coordination Sequence:
#
# PCOD9103913 Si02
#       8
#     2   2   2   2   2   2   2   2
#     4  12  27  43  68  95 136 184 233 278 340 404
#     4   9  20  40  62  96 127 172 217 280 338 397
#     4  10  25  44  66  94 144 172 224 285 337 401
#     4  10  23  42  69 103 136 181 223 275 350 404
#     4  10  20  38  69  98 132 172 230 273 343 402
#     4  11  23  44  66  97 133 178 227 282 338 402
#     4  10  22  43  63 100 133 175 229 281 332 405
#     4  10  21  39  68  93 137 174 219 283 330 405
#
# _framework density 24.903364
#
# number of rings (size 3 to 8) (size 9 to 14) (size 15 to 20)
#    0.000    1.750    2.500    1.125    5.250    4.500 
#    2.250    2.500    0.000    0.000    0.000    0.000 
#    0.000    0.000    0.000    0.000    0.000    0.000 
#
# Total GULP energy -89523.420686 kJ/mol
# GULP energy per Si atom -5595.213793 kJ/mol
# Density = 2.484668 g / cm^3
# Si number density = 24.903364 Si / 1000 Ang^3
#
#
#
# Elastic Constant Matrix: (Units=GPa)
#
#
# Indices 1 2 3 4 5 6 
#
# 1 146.9231 20.1719 59.7752 9.7037 -32.5498 -22.7186
# 2 20.1719 70.0768 45.4705 -14.0104 -10.2017 -23.8830
# 3 59.7752 45.4705 170.1304 -10.0992 -28.0223 -30.2639
# 4 9.7037 -14.0104 -10.0992 36.3358 -2.2269 -0.6856
# 5 -32.5498 -10.2017 -28.0223 -2.2269 49.6934 7.5678
# 6 -22.7186 -23.8830 -30.2639 -0.6856 7.5678 40.7298
#
#
#
# Elastic Compliance Matrix: (Units=1/GPa)
#
#
# Indices 1 2 3 4 5 6 
#
# 1 0.009266 -0.000362 -0.002189 -0.002915 0.004251 0.002491
# 2 -0.000362 0.021591 -0.003204 0.007794 0.001217 0.009983
# 3 -0.002189 -0.003204 0.008506 0.001911 0.002363 0.002814
# 4 -0.002915 0.007794 0.001911 0.032015 0.001499 0.004625
# 5 0.004251 0.001217 0.002363 0.001499 0.024510 0.000312
# 6 0.002491 0.009983 0.002814 0.004625 0.000312 0.033906
#
#
# Mechanical properties :
#
#
# Convention : Reuss Voigt Hill
#
# Bulk Modulus (GPa) = 35.90256 70.88506 53.39381
# Shear Modulus (GPa) = 33.20302 42.79932 38.00117
#
# Velocity S-wave (km/s) = 3.65536 4.15012 3.91057
# Velocity P-wave (km/s) = 5.68011 7.17569 6.47125
#
# Compressibility (1/GPa) = 0.02785317
#
# Stress axis : x y z
#
# Youngs Moduli (GPa) = 107.92350 46.31505 117.55879
#
# Poissons Ratio (x) = 0.01677 0.25728
# Poissons Ratio (y) = 0.03908 0.37671
# Poissons Ratio (z) = 0.23619 0.14842
#
# Static dielectric constant tensor:
#      x y z
#    x 1.951590 0.029830 -0.011620 
#    y 0.029830 2.122440 0.082250 
#    z -0.011620 0.082250 1.962090 
# 
# From -- ./inp_files/305028.got.cif
#   From: 2010.05.17/outbox.cif.g08.bks.cpg/sg2_153_cif.got.tgz:305028.got - 2010.06.03 11:33:40.
