data_PCOD9103288
_publ_section_title
;
Structure prediction by ZEFSAII (Michael W. Deem and Ramdas Pophale) SiO2 
 PCOD9103288
Probable space group: P -1
;
_chemical_formula_sum "Si O2"
_cell_formula_units_Z 14
_cell_length_a 15.644256
_cell_length_b 8.859651
_cell_length_c 13.011988
_cell_angle_alpha 84.072383
_cell_angle_beta 23.229330
_cell_angle_gamma 70.853239
_cell_volume 569.092590
_symmetry_space_group_name_H-M "P -1"
_symmetry_group_IT_number 2
_symmetry_cell_setting 'triclinic'
loop_
_space_group_symop_operation_xyz
x,y,z
-x,-y,-z
loop_
_atom_site_type_symbol
_atom_site_label
_atom_site_fract_x
_atom_site_fract_y
_atom_site_fract_z
Si Si1 0.773599 0.022526 0.481949
Si Si2 0.316577 0.348802 0.077532
Si Si3 0.808342 0.337931 0.052508
Si Si4 0.215094 0.708425 0.686120
Si Si5 0.419862 0.619021 0.974136
Si Si6 0.983166 0.416180 0.254090
Si Si7 0.543874 0.858688 0.872843
O O1 0.641952 0.914408 0.664116
O O2 0.710715 0.153385 0.443756
O O3 0.077737 0.839954 0.136889
O O4 0.637791 0.186773 0.708570
O O5 0.258786 0.327518 0.260357
O O6 0.167908 0.312340 0.157994
O O7 0.259881 0.548775 0.104084
O O8 0.487592 0.494843 0.393527
O O9 0.881929 0.256439 0.092788
O O10 0.933050 0.454358 0.890651
O O11 0.010959 0.715934 0.829791
O O12 0.682353 0.543653 0.622279
O O13 0.314807 0.831260 0.099407
O O14 0.500000 0.500000 0.000000
O O15 0.500000 0.000000 0.000000
#
# Coordination Sequence:
#
# PCOD9103288 Si02
#       7
#     2   2   2   2   2   2   2
#     4  11  20  44  69  98 136 174 226 278 339 398
#     4  10  22  41  68  98 137 176 223 277 333 407
#     4  11  24  44  70  98 131 179 233 287 329 404
#     4  11  25  45  68  98 136 175 232 282 345 392
#     4  10  20  38  65  95 131 181 221 266 334 397
#     4  12  21  44  66  97 135 180 218 281 342 400
#     4   9  20  37  66  99 137 172 221 271 325 410
#
# _framework density 24.600567999999999
#
# number of rings (size 3 to 8) (size 9 to 14) (size 15 to 20)
#    0.000    1.429    4.286    0.857    0.000    2.286 
#    5.143    2.857    0.000    0.000    0.000    0.000 
#    0.000    0.000    0.000    0.000    0.000    0.000 
#
# Total GULP energy -77977.287731 kJ/mol
# GULP energy per Si atom -5569.806267 kJ/mol
# Density = 2.454458 g / cm^3
# Si number density = 24.600568 Si / 1000 Ang^3
#
#
#
# Elastic Constant Matrix: (Units=GPa)
#
#
# Indices 1 2 3 4 5 6 
#
# 1 125.5525 45.9061 21.5620 -14.3472 3.9593 -0.0618
# 2 45.9061 140.0029 18.9185 -19.6672 5.5721 2.5112
# 3 21.5620 18.9185 71.3899 -1.8842 12.2803 9.7261
# 4 -14.3472 -19.6672 -1.8842 48.4353 -3.8911 10.9819
# 5 3.9593 5.5721 12.2803 -3.8911 27.1289 -7.3692
# 6 -0.0618 2.5112 9.7261 10.9819 -7.3692 49.4898
#
#
#
# Elastic Compliance Matrix: (Units=1/GPa)
#
#
# Indices 1 2 3 4 5 6 
#
# 1 0.009473 -0.002596 -0.002254 0.001636 0.000486 0.000296
# 2 -0.002596 0.008595 -0.001168 0.002833 -0.000708 -0.000944
# 3 -0.002254 -0.001168 0.017054 -0.000129 -0.008396 -0.004517
# 4 0.001636 0.002833 -0.000129 0.023543 0.001213 -0.005160
# 5 0.000486 -0.000708 -0.008396 0.001213 0.043036 0.007826
# 6 0.000296 -0.000944 -0.004517 -0.005160 0.007826 0.023452
#
#
# Mechanical properties :
#
#
# Convention : Reuss Voigt Hill
#
# Bulk Modulus (GPa) = 43.31854 56.63539 49.97697
# Shear Modulus (GPa) = 34.50995 41.71474 38.11235
#
# Velocity S-wave (km/s) = 3.74948 4.12233 3.94032
# Velocity P-wave (km/s) = 6.03256 6.76241 6.40788
#
# Compressibility (1/GPa) = 0.02308480
#
# Stress axis : x y z
#
# Youngs Moduli (GPa) = 105.56369 116.34761 58.63655
#
# Poissons Ratio (x) = 0.30208 0.13216
# Poissons Ratio (y) = 0.27408 0.06851
# Poissons Ratio (z) = 0.23792 0.13595
#
# Static dielectric constant tensor:
#      x y z
#    x 2.062750 0.054120 -0.019210 
#    y 0.054120 2.160480 0.062090 
#    z -0.019210 0.062090 2.030840 
# 
# From -- ./inp_files/537328.got.cif
#   From: 2010.05.17/outbox.cif.g08.bks.cpg/sg2_269_cif.got.tgz:537328.got - 2010.06.03 11:33:40.
