data_PCOD9103694
_publ_section_title
;
Structure prediction by ZEFSAII (Michael W. Deem and Ramdas Pophale) SiO2 
 PCOD9103694
Probable space group: P -1
;
_chemical_formula_sum "Si O2"
_cell_formula_units_Z 16
_cell_length_a 11.657065
_cell_length_b 11.588931
_cell_length_c 13.568961
_cell_angle_alpha 43.231659
_cell_angle_beta 130.515262
_cell_angle_gamma 97.571880
_cell_volume 720.487916
_symmetry_space_group_name_H-M "P -1"
_symmetry_group_IT_number 2
_symmetry_cell_setting 'triclinic'
loop_
_space_group_symop_operation_xyz
x,y,z
-x,-y,-z
loop_
_atom_site_type_symbol
_atom_site_label
_atom_site_fract_x
_atom_site_fract_y
_atom_site_fract_z
Si Si1 0.613380 0.745164 0.023047
Si Si2 0.892918 0.137562 0.755167
Si Si3 0.177510 0.991780 0.387708
Si Si4 0.759861 0.933310 0.124361
Si Si5 0.544186 0.384639 0.825071
Si Si6 0.888393 0.369593 0.111177
Si Si7 0.035484 0.752540 0.552297
Si Si8 0.577170 0.824770 0.738352
O O1 0.666634 0.843621 0.073420
O O2 0.478711 0.707092 0.029222
O O3 0.792693 0.497484 0.235638
O O4 0.559404 0.886458 0.804598
O O5 0.868097 0.991538 0.762776
O O6 0.670658 0.383016 0.473942
O O7 0.046887 0.152501 0.778469
O O8 0.000000 0.000000 0.000000
O O9 0.071207 0.910715 0.429118
O O10 0.411606 0.797370 0.658963
O O11 0.080714 0.225620 0.238178
O O12 0.836534 0.829566 0.341182
O O13 0.622866 0.197222 0.902259
O O14 0.712161 0.401886 0.932973
O O15 0.960439 0.232330 0.338565
O O16 0.789988 0.607780 0.953949
O O17 0.500000 0.000000 0.500000
#
# Coordination Sequence:
#
# PCOD9103694 Si02
#       8
#     2   2   2   2   2   2   2   2
#     4  11  23  41  64  92 136 172 206 264 322 376
#     4  11  25  43  66  93 128 171 212 265 317 376
#     4  11  21  42  66  93 125 160 217 262 313 379
#     4  11  24  41  62  98 134 167 214 260 319 380
#     4  12  22  42  68  98 123 165 220 262 319 376
#     4  11  22  40  69  95 124 161 215 267 315 378
#     4  10  20  38  67  97 126 166 205 268 320 370
#     4  11  26  43  63  92 130 171 211 264 318 379
#
# _framework density 22.207173999999998
#
# number of rings (size 3 to 8) (size 9 to 14) (size 15 to 20)
#    0.000    1.000    6.250    1.875    3.500    3.000 
#    2.250    0.000    0.000    0.000    0.000    0.000 
#    0.000    0.000    0.000    0.000    0.000    0.000 
#
# Total GULP energy -89222.890274 kJ/mol
# GULP energy per Si atom -5576.430642 kJ/mol
# Density = 2.215663 g / cm^3
# Si number density = 22.207174 Si / 1000 Ang^3
#
#
#
# Elastic Constant Matrix: (Units=GPa)
#
#
# Indices 1 2 3 4 5 6 
#
# 1 37.9178 -1.5070 15.4222 5.7168 1.5385 -8.7538
# 2 -1.5070 90.3397 19.4309 9.0673 5.7269 -18.7961
# 3 15.4222 19.4309 92.4017 10.4745 -3.9500 -27.0904
# 4 5.7168 9.0673 10.4745 35.2476 -12.5063 4.1958
# 5 1.5385 5.7269 -3.9500 -12.5063 27.7640 -0.3143
# 6 -8.7538 -18.7961 -27.0904 4.1958 -0.3143 24.7271
#
#
#
# Elastic Compliance Matrix: (Units=1/GPa)
#
#
# Indices 1 2 3 4 5 6 
#
# 1 0.032998 0.006004 -0.000717 -0.011666 -0.008228 0.017335
# 2 0.006004 0.016105 0.001742 -0.010606 -0.007981 0.017974
# 3 -0.000717 0.001742 0.018078 -0.008900 -0.001503 0.022367
# 4 -0.011666 -0.010606 -0.008900 0.047137 0.022465 -0.029655
# 5 -0.008228 -0.007981 -0.001503 0.022465 0.047869 -0.013830
# 6 0.017335 0.017974 0.022367 -0.029655 -0.013830 0.089602
#
#
# Mechanical properties :
#
#
# Convention : Reuss Voigt Hill
#
# Bulk Modulus (GPa) = 12.30945 31.92793 22.11869
# Shear Modulus (GPa) = 18.88147 30.03529 24.45838
#
# Velocity S-wave (km/s) = 2.91905 3.68163 3.32229
# Velocity P-wave (km/s) = 4.11293 5.69921 4.96977
#
# Compressibility (1/GPa) = 0.08123837
#
# Stress axis : x y z
#
# Youngs Moduli (GPa) = 30.30505 62.09300 55.31635
#
# Poissons Ratio (x) = -0.37280 0.03966
# Poissons Ratio (y) = -0.18195 -0.09636
# Poissons Ratio (z) = 0.02173 -0.10817
#
# Static dielectric constant tensor:
#      x y z
#    x 1.890400 0.002820 0.023640 
#    y 0.002820 1.861290 0.004420 
#    z 0.023640 0.004420 1.906250 
# 
# From -- ./inp_files/427564.got.cif
#   From: 2010.05.17/outbox.cif.g08.bks.cpg/sg2_214_cif.got.tgz:427564.got - 2010.06.03 11:33:40.
