data_PCOD9103699
_publ_section_title
;
Structure prediction by ZEFSAII (Michael W. Deem and Ramdas Pophale) SiO2 
 PCOD9103699
Probable space group: P -1
;
_chemical_formula_sum "Si O2"
_cell_formula_units_Z 16
_cell_length_a 18.695641
_cell_length_b 23.004298
_cell_length_c 5.578228
_cell_angle_alpha 101.026653
_cell_angle_beta 111.923607
_cell_angle_gamma 21.254905
_cell_volume 713.870643
_symmetry_space_group_name_H-M "P -1"
_symmetry_group_IT_number 2
_symmetry_cell_setting 'triclinic'
loop_
_space_group_symop_operation_xyz
x,y,z
-x,-y,-z
loop_
_atom_site_type_symbol
_atom_site_label
_atom_site_fract_x
_atom_site_fract_y
_atom_site_fract_z
Si Si1 0.811980 0.028247 0.459701
Si Si2 0.049870 0.814558 0.199775
Si Si3 0.630671 0.917350 0.348717
Si Si4 0.860013 0.872756 0.604351
Si Si5 0.734819 0.450949 0.450152
Si Si6 0.697968 0.601818 0.708397
Si Si7 0.095100 0.498782 0.608684
Si Si8 0.325519 0.674448 0.047158
O O1 0.574694 0.218156 0.440280
O O2 0.793436 0.969643 0.400149
O O3 0.869022 0.993912 0.225978
O O4 0.064382 0.864089 0.753856
O O5 0.187892 0.664411 0.405277
O O6 0.256619 0.700676 0.241421
O O7 0.892217 0.889570 0.886831
O O8 0.680369 0.950890 0.448190
O O9 0.868758 0.706075 0.473676
O O10 0.500000 0.000000 0.500000
O O11 0.500000 0.000000 0.000000
O O12 0.113503 0.661080 0.690836
O O13 0.808425 0.456463 0.686818
O O14 0.462969 0.636369 0.195118
O O15 0.753297 0.597616 0.524676
O O16 0.782866 0.572512 0.037563
O O17 0.000000 0.500000 0.500000
O O18 0.500000 0.500000 0.000000
#
# Coordination Sequence:
#
# PCOD9103699 Si02
#       8
#     2   2   2   2   2   2   2   2
#     4  10  25  39  67  98 138 189 239 285 347 430
#     4  10  20  38  67  97 132 180 245 286 353 410
#     4  12  28  45  75 110 138 176 243 302 355 424
#     4  10  22  41  67  97 137 177 240 288 353 410
#     4  11  22  40  69  95 140 186 230 299 347 428
#     4  12  28  48  72 104 149 194 235 285 375 436
#     4  12  29  52  75 105 149 192 236 294 374 440
#     4  11  20  39  64 105 134 182 244 298 351 406
#
# _framework density 22.413024
#
# number of rings (size 3 to 8) (size 9 to 14) (size 15 to 20)
#    0.000    1.000    5.000    2.250   10.500    0.500 
#    0.000    0.625    0.000    0.000    0.000    0.000 
#    0.000    0.000    0.000    0.000    0.000    0.000 
#
# Total GULP energy -89131.237873 kJ/mol
# GULP energy per Si atom -5570.702367 kJ/mol
# Density = 2.236201 g / cm^3
# Si number density = 22.413024 Si / 1000 Ang^3
#
#
#
# Elastic Constant Matrix: (Units=GPa)
#
#
# Indices 1 2 3 4 5 6 
#
# 1 51.8864 -2.4274 19.6802 15.0175 15.8294 -15.7288
# 2 -2.4274 102.3229 35.7181 13.9008 -10.6061 -20.3093
# 3 19.6802 35.7181 110.8887 17.1597 11.4470 -19.8180
# 4 15.0175 13.9008 17.1597 30.4758 -0.1014 -3.4182
# 5 15.8294 -10.6061 11.4470 -0.1014 29.3254 2.1158
# 6 -15.7288 -20.3093 -19.8180 -3.4182 2.1158 35.0462
#
#
#
# Elastic Compliance Matrix: (Units=1/GPa)
#
#
# Indices 1 2 3 4 5 6 
#
# 1 0.036210 0.005000 0.000069 -0.018143 -0.019167 0.018575
# 2 0.005000 0.013666 -0.003329 -0.005969 0.002980 0.007518
# 3 0.000069 -0.003329 0.012412 -0.004962 -0.006466 0.005027
# 4 -0.018143 -0.005969 -0.004962 0.046122 0.010491 -0.010542
# 5 -0.019167 0.002980 -0.006466 0.010491 0.048984 -0.012466
# 6 0.018575 0.007518 0.005027 -0.010542 -0.012466 0.043794
#
#
# Mechanical properties :
#
#
# Convention : Reuss Voigt Hill
#
# Bulk Modulus (GPa) = 15.20527 41.22664 28.21596
# Shear Modulus (GPa) = 22.76536 33.11129 27.93833
#
# Velocity S-wave (km/s) = 3.19049 3.84777 3.53444
# Velocity P-wave (km/s) = 4.51344 6.17854 5.41043
#
# Compressibility (1/GPa) = 0.06576668
#
# Stress axis : x y z
#
# Youngs Moduli (GPa) = 27.61658 73.17448 80.56753
#
# Poissons Ratio (x) = -0.36586 -0.00556
# Poissons Ratio (y) = -0.13808 0.26825
# Poissons Ratio (z) = -0.00191 0.24363
#
# Static dielectric constant tensor:
#      x y z
#    x 1.813420 -0.051330 -0.055170 
#    y -0.051330 1.994240 0.043130 
#    z -0.055170 0.043130 1.946010 
# 
# From -- ./inp_files/112935.got.cif
#   From: 2010.05.17/outbox.cif.g08.bks.cpg/sg2_57_cif.got.tgz:112935.got - 2010.06.03 11:33:40.
