data_PCOD9103646
_publ_section_title
;
Structure prediction by ZEFSAII (Michael W. Deem and Ramdas Pophale) SiO2 
 PCOD9103646
Probable space group: P -1
;
_chemical_formula_sum "Si O2"
_cell_formula_units_Z 16
_cell_length_a 14.463143
_cell_length_b 13.513969
_cell_length_c 8.183396
_cell_angle_alpha 116.560898
_cell_angle_beta 85.609741
_cell_angle_gamma 42.085077
_cell_volume 701.960442
_symmetry_space_group_name_H-M "P -1"
_symmetry_group_IT_number 2
_symmetry_cell_setting 'triclinic'
loop_
_space_group_symop_operation_xyz
x,y,z
-x,-y,-z
loop_
_atom_site_type_symbol
_atom_site_label
_atom_site_fract_x
_atom_site_fract_y
_atom_site_fract_z
Si Si1 0.766796 0.024563 0.295094
Si Si2 0.847735 0.969799 0.746180
Si Si3 0.088973 0.853826 0.040967
Si Si4 0.582678 0.539857 0.516998
Si Si5 0.288848 0.263078 0.222660
Si Si6 0.023764 0.333522 0.218081
Si Si7 0.516246 0.349643 0.877238
Si Si8 0.228826 0.546219 0.255158
O O1 0.604190 0.195811 0.301639
O O2 0.637547 0.181179 0.584791
O O3 0.917617 0.966815 0.225608
O O4 0.903845 0.779364 0.053149
O O5 0.921924 0.826557 0.788077
O O6 0.003422 0.777570 0.449996
O O7 0.850088 0.100020 0.840321
O O8 0.633232 0.171394 0.879453
O O9 0.270460 0.602734 0.758608
O O10 0.000000 0.000000 0.000000
O O11 0.500000 0.500000 0.500000
O O12 0.697090 0.453299 0.601871
O O13 0.151183 0.305830 0.226146
O O14 0.284441 0.365706 0.166829
O O15 0.191356 0.413747 0.513835
O O16 0.500000 0.000000 0.000000
O O17 0.500000 0.500000 0.000000
O O18 0.311788 0.510359 0.052432
#
# Coordination Sequence:
#
# PCOD9103646 Si02
#       8
#     2   2   2   2   2   2   2   2
#     4  12  24  37  55  90 123 159 201 247 296 358
#     4  11  21  39  60  85 122 159 201 245 298 357
#     4  12  19  33  58  85 115 153 199 249 296 346
#     4  12  20  34  60  86 115 152 202 250 296 348
#     4  10  20  38  67  93 112 143 199 262 314 351
#     4  10  21  39  64  91 115 148 201 261 303 350
#     4  12  26  39  56  86 131 170 200 234 289 363
#     4  11  23  39  61  87 116 161 198 244 306 358
#
# _framework density 22.793308
#
# number of rings (size 3 to 8) (size 9 to 14) (size 15 to 20)
#    0.000    0.750    3.750    6.000    0.000    3.000 
#    0.000    0.625    0.000   10.500    0.000    0.000 
#    0.000    0.000    0.000    0.000    0.000    0.000 
#
# Total GULP energy -89286.716843 kJ/mol
# GULP energy per Si atom -5580.419803 kJ/mol
# Density = 2.274143 g / cm^3
# Si number density = 22.793308 Si / 1000 Ang^3
#
#
#
# Elastic Constant Matrix: (Units=GPa)
#
#
# Indices 1 2 3 4 5 6 
#
# 1 73.7135 12.2218 21.7144 2.8269 -3.6436 25.5507
# 2 12.2218 50.8006 33.3519 12.9965 -2.8495 -0.9763
# 3 21.7144 33.3519 209.1039 9.4945 -11.0638 23.6586
# 4 2.8269 12.9965 9.4945 37.5144 -0.2436 -9.7823
# 5 -3.6436 -2.8495 -11.0638 -0.2436 44.4249 1.2586
# 6 25.5507 -0.9763 23.6586 -9.7823 1.2586 22.8019
#
#
#
# Elastic Compliance Matrix: (Units=1/GPa)
#
#
# Indices 1 2 3 4 5 6 
#
# 1 0.028440 -0.006799 0.003464 -0.011280 0.003853 -0.040805
# 2 -0.006799 0.025554 -0.004518 -0.004166 -0.000396 0.011635
# 3 0.003464 -0.004518 0.006893 -0.003811 0.002058 -0.012975
# 4 -0.011280 -0.004166 -0.003811 0.038527 -0.002868 0.033102
# 5 0.003853 -0.000396 0.002058 -0.002868 0.023552 -0.009000
# 6 -0.040805 0.011635 -0.012975 0.033102 -0.009000 0.118240
#
#
# Mechanical properties :
#
#
# Convention : Reuss Voigt Hill
#
# Bulk Modulus (GPa) = 22.13298 52.02158 37.07728
# Shear Modulus (GPa) = 18.38425 38.70358 28.54391
#
# Velocity S-wave (km/s) = 2.84309 4.12518 3.54262
# Velocity P-wave (km/s) = 4.52868 6.74998 5.74766
#
# Compressibility (1/GPa) = 0.04518144
#
# Stress axis : x y z
#
# Youngs Moduli (GPa) = 35.16178 39.13312 145.07058
#
# Poissons Ratio (x) = 0.26605 -0.50252
# Poissons Ratio (y) = 0.23905 0.65543
# Poissons Ratio (z) = -0.12180 0.17680
#
# Static dielectric constant tensor:
#      x y z
#    x 2.285080 0.077670 0.046730 
#    y 0.077670 2.013140 -0.027910 
#    z 0.046730 -0.027910 1.928660 
# 
# From -- ./inp_files/281491.got.cif
#   From: 2010.05.17/outbox.cif.g08.bks.cpg/sg2_141_cif.got.tgz:281491.got - 2010.06.03 11:33:40.
