data_PCOD9103710
_publ_section_title
;
Structure prediction by ZEFSAII (Michael W. Deem and Ramdas Pophale) SiO2 
 PCOD9103710
Probable space group: P -1
;
_chemical_formula_sum "Si O2"
_cell_formula_units_Z 14
_cell_length_a 10.780032
_cell_length_b 16.318391
_cell_length_c 8.720189
_cell_angle_alpha 56.535716
_cell_angle_beta 86.368137
_cell_angle_gamma 40.999792
_cell_volume 641.825723
_symmetry_space_group_name_H-M "P -1"
_symmetry_group_IT_number 2
_symmetry_cell_setting 'triclinic'
loop_
_space_group_symop_operation_xyz
x,y,z
-x,-y,-z
loop_
_atom_site_type_symbol
_atom_site_label
_atom_site_fract_x
_atom_site_fract_y
_atom_site_fract_z
Si Si1 0.277016 0.579775 0.377665
Si Si2 0.956835 0.452152 0.416071
Si Si3 0.542017 0.889512 0.475766
Si Si4 0.907352 0.905036 0.834654
Si Si5 0.234081 0.393462 0.021468
Si Si6 0.634424 0.289881 0.390995
Si Si7 0.260012 0.594839 0.856888
O O1 0.500000 0.500000 0.500000
O O2 0.407893 0.432837 0.377024
O O3 0.155964 0.574922 0.491573
O O4 0.056612 0.793139 0.096853
O O5 0.214313 0.264924 0.491187
O O6 0.000000 0.500000 0.500000
O O7 0.754108 0.640683 0.122162
O O8 0.500000 0.000000 0.500000
O O9 0.315605 0.020689 0.244477
O O10 0.559096 0.779740 0.695797
O O11 0.090212 0.751105 0.842803
O O12 0.815896 0.077640 0.629199
O O13 0.170354 0.550643 0.860696
O O14 0.000000 0.500000 0.000000
O O15 0.744545 0.324433 0.363693
O O16 0.523721 0.384210 0.131368
#
# Coordination Sequence:
#
# PCOD9103710 Si02
#       7
#     2   2   2   2   2   2   2
#     4  11  26  45  66  95 146 192 230 286 360 428
#     4  11  25  44  71 101 142 191 233 286 365 422
#     4  11  24  43  71 108 140 178 240 302 349 416
#     4  11  22  40  70 102 140 178 242 294 347 419
#     4  10  21  40  67  94 136 178 227 281 347 412
#     4  10  21  40  65  97 132 181 233 286 343 413
#     4  10  20  38  67  98 137 175 227 288 350 409
#
# _framework density 21.812775999999999
#
# number of rings (size 3 to 8) (size 9 to 14) (size 15 to 20)
#    0.000    1.429    1.429    3.857    8.000    1.143 
#    5.143    0.000    0.000    0.000    0.000    0.000 
#    0.000    0.000    0.000    0.000    0.000    0.000 
#
# Total GULP energy -77950.077093 kJ/mol
# GULP energy per Si atom -5567.862650 kJ/mol
# Density = 2.176313 g / cm^3
# Si number density = 21.812776 Si / 1000 Ang^3
#
#
#
# Elastic Constant Matrix: (Units=GPa)
#
#
# Indices 1 2 3 4 5 6 
#
# 1 154.7209 48.9135 68.5938 6.0675 -9.0461 -10.2643
# 2 48.9135 95.5311 36.4184 10.2758 -10.5451 -7.4118
# 3 68.5938 36.4184 143.9402 7.9843 -3.0454 1.1181
# 4 6.0675 10.2758 7.9843 30.6486 -2.7605 -8.7662
# 5 -9.0461 -10.5451 -3.0454 -2.7605 43.9805 -4.4023
# 6 -10.2643 -7.4118 1.1181 -8.7662 -4.4023 31.4272
#
#
#
# Elastic Compliance Matrix: (Units=1/GPa)
#
#
# Indices 1 2 3 4 5 6 
#
# 1 0.009316 -0.003107 -0.003711 0.001118 0.001278 0.002933
# 2 -0.003107 0.013420 -0.001727 -0.002695 0.002471 0.001806
# 3 -0.003711 -0.001727 0.009261 -0.001930 -0.000919 -0.002616
# 4 0.001118 -0.002695 -0.001930 0.037082 0.002833 0.010539
# 5 0.001278 0.002471 -0.000919 0.002833 0.024229 0.005217
# 6 0.002933 0.001806 -0.002616 0.010539 0.005217 0.036967
#
#
# Mechanical properties :
#
#
# Convention : Reuss Voigt Hill
#
# Bulk Modulus (GPa) = 67.08552 78.00483 72.54518
# Shear Modulus (GPa) = 32.82260 37.22903 35.02581
#
# Velocity S-wave (km/s) = 3.88331 4.13577 4.01153
# Velocity P-wave (km/s) = 7.13643 7.65799 7.40181
#
# Compressibility (1/GPa) = 0.01490635
#
# Stress axis : x y z
#
# Youngs Moduli (GPa) = 107.33893 74.51742 107.98213
#
# Poissons Ratio (x) = 0.23152 0.40075
# Poissons Ratio (y) = 0.33349 0.18648
# Poissons Ratio (z) = 0.39837 0.12869
#
# Static dielectric constant tensor:
#      x y z
#    x 4.246950 1.720430 1.313890 
#    y 1.720430 3.063850 0.955980 
#    z 1.313890 0.955980 2.608960 
# 
# From -- ./inp_files/277438.got.cif
#   From: 2010.05.17/outbox.cif.g08.bks.cpg/sg2_139_cif.got.tgz:277438.got - 2010.06.03 11:33:40.
