data_PCOD9103782
_publ_section_title
;
Structure prediction by ZEFSAII (Michael W. Deem and Ramdas Pophale) SiO2 
 PCOD9103782
Probable space group: P -1
;
_chemical_formula_sum "Si O2"
_cell_formula_units_Z 14
_cell_length_a 9.986260
_cell_length_b 10.270148
_cell_length_c 20.399095
_cell_angle_alpha 150.695148
_cell_angle_beta 52.264890
_cell_angle_gamma 138.346104
_cell_volume 675.540289
_symmetry_space_group_name_H-M "P -1"
_symmetry_group_IT_number 2
_symmetry_cell_setting 'triclinic'
loop_
_space_group_symop_operation_xyz
x,y,z
-x,-y,-z
loop_
_atom_site_type_symbol
_atom_site_label
_atom_site_fract_x
_atom_site_fract_y
_atom_site_fract_z
Si Si1 0.238898 0.736753 0.043507
Si Si2 0.406209 0.702164 0.595188
Si Si3 0.392420 0.245658 0.127766
Si Si4 0.010626 0.699820 0.380881
Si Si5 0.881164 0.163861 0.085730
Si Si6 0.434338 0.908661 0.404977
Si Si7 0.464379 0.775298 0.115625
O O1 0.391808 0.693117 0.932911
O O2 0.281971 0.681629 0.080473
O O3 0.000000 0.500000 0.000000
O O4 0.327821 0.105405 0.159253
O O5 0.500000 0.500000 0.500000
O O6 0.181986 0.530800 0.616707
O O7 0.418981 0.793522 0.555703
O O8 0.538302 0.045611 0.741561
O O9 0.420355 0.580021 0.252591
O O10 0.202596 0.961081 0.017365
O O11 0.002303 0.516475 0.235889
O O12 0.212016 0.820430 0.414573
O O13 0.000000 0.000000 0.500000
O O14 0.665498 0.018267 0.121688
O O15 0.000000 0.000000 0.000000
O O16 0.500000 0.000000 0.500000
O O17 0.500000 0.500000 0.000000
#
# Coordination Sequence:
#
# PCOD9103782 Si02
#       7
#     2   2   2   2   2   2   2
#     4  10  23  40  66  98 133 173 214 277 342 400
#     4  11  24  44  68  97 132 177 231 276 330 403
#     4  10  23  43  63  98 137 171 226 279 336 397
#     4  11  24  43  70 103 132 179 231 275 340 405
#     4  10  20  38  68  93 126 174 218 270 329 393
#     4  12  27  44  69  97 141 179 224 287 345 401
#     4  10  23  39  66  98 129 164 227 273 327 401
#
# _framework density 20.724150999999999
#
# number of rings (size 3 to 8) (size 9 to 14) (size 15 to 20)
#    0.000    1.429    2.857    1.714    4.000    4.000 
#    2.571    0.000    0.000    0.000    0.000    0.000 
#    0.000    0.000    0.000    0.000    0.000    0.000 
#
# Total GULP energy -78085.431093 kJ/mol
# GULP energy per Si atom -5577.530792 kJ/mol
# Density = 2.067698 g / cm^3
# Si number density = 20.724151 Si / 1000 Ang^3
#
#
#
# Elastic Constant Matrix: (Units=GPa)
#
#
# Indices 1 2 3 4 5 6 
#
# 1 157.3290 41.1446 56.4225 3.3165 1.9742 0.5768
# 2 41.1446 104.0355 24.2497 12.4901 5.8224 -3.1685
# 3 56.4225 24.2497 129.9046 7.8192 -9.7068 -15.4710
# 4 3.3165 12.4901 7.8192 24.7846 -5.1003 -1.2203
# 5 1.9742 5.8224 -9.7068 -5.1003 37.3245 2.7615
# 6 0.5768 -3.1685 -15.4710 -1.2203 2.7615 50.2943
#
#
#
# Elastic Compliance Matrix: (Units=1/GPa)
#
#
# Indices 1 2 3 4 5 6 
#
# 1 0.008227 -0.002602 -0.003348 0.001070 -0.000663 -0.001226
# 2 -0.002602 0.011707 -0.000848 -0.005823 -0.002743 0.000516
# 3 -0.003348 -0.000848 0.009932 -0.001611 0.002460 0.002866
# 4 0.001070 -0.005823 -0.001611 0.044997 0.006592 -0.000145
# 5 -0.000663 -0.002743 0.002460 0.006592 0.028857 -0.000833
# 6 -0.001226 0.000516 0.002866 -0.000145 -0.000833 0.020853
#
#
# Mechanical properties :
#
#
# Convention : Reuss Voigt Hill
#
# Bulk Modulus (GPa) = 61.45898 70.54474 66.00186
# Shear Modulus (GPa) = 34.82030 40.44416 37.63223
#
# Velocity S-wave (km/s) = 4.10345 4.42242 4.26592
# Velocity P-wave (km/s) = 7.22296 7.75828 7.49540
#
# Compressibility (1/GPa) = 0.01627102
#
# Stress axis : x y z
#
# Youngs Moduli (GPa) = 121.54430 85.41691 100.68027
#
# Poissons Ratio (x) = 0.22227 0.33704
# Poissons Ratio (y) = 0.31628 0.08540
# Poissons Ratio (z) = 0.40689 0.07245
#
# Static dielectric constant tensor:
#      x y z
#    x 1.757130 -0.041120 0.024930 
#    y -0.041120 1.790250 -0.018340 
#    z 0.024930 -0.018340 1.709910 
# 
# From -- ./inp_files/242162.got.cif
#   From: 2010.05.17/outbox.cif.g08.bks.cpg/sg2_122_cif.got.tgz:242162.got - 2010.06.03 11:33:40.
