data_PCOD9103250
_publ_section_title
;
Structure prediction by ZEFSAII (Michael W. Deem and Ramdas Pophale) SiO2 
 PCOD9103250
Probable space group: P -1
;
_chemical_formula_sum "Si O2"
_cell_formula_units_Z 14
_cell_length_a 9.636105
_cell_length_b 15.321221
_cell_length_c 5.253440
_cell_angle_alpha 74.239723
_cell_angle_beta 110.235468
_cell_angle_gamma 94.275330
_cell_volume 700.211231
_symmetry_space_group_name_H-M "P -1"
_symmetry_group_IT_number 2
_symmetry_cell_setting 'triclinic'
loop_
_space_group_symop_operation_xyz
x,y,z
-x,-y,-z
loop_
_atom_site_type_symbol
_atom_site_label
_atom_site_fract_x
_atom_site_fract_y
_atom_site_fract_z
Si Si1 0.845583 0.818265 0.869476
Si Si2 0.663891 0.307407 0.243171
Si Si3 0.330406 0.994940 0.492126
Si Si4 0.420130 0.850405 0.006715
Si Si5 0.826889 0.173062 0.737180
Si Si6 0.461961 0.605803 0.390538
Si Si7 0.704497 0.753976 0.346761
O O1 0.756669 0.912519 0.690686
O O2 0.819895 0.761550 0.642319
O O3 0.778663 0.767982 0.110866
O O4 0.015150 0.836938 0.025766
O O5 0.573315 0.215832 0.184618
O O6 0.816506 0.258248 0.468482
O O7 0.597557 0.361650 0.397726
O O8 0.649425 0.368660 0.933884
O O9 0.500000 0.000000 0.500000
O O10 0.359037 0.950025 0.823350
O O11 0.228710 0.918368 0.357980
O O12 0.299101 0.808147 0.146690
O O13 0.581817 0.836652 0.234866
O O14 0.500000 0.500000 0.500000
O O15 0.607781 0.664401 0.379205
#
# Coordination Sequence:
#
# PCOD9103250 Si02
#       7
#     2   2   2   2   2   2   2
#     4  12  27  39  62  92 136 168 217 261 312 375
#     4  10  20  38  65  94 125 162 206 253 314 374
#     4  11  23  38  63  92 127 172 226 272 300 349
#     4  10  21  39  66  85 128 170 222 253 313 364
#     4  11  24  41  62  92 130 181 211 254 315 377
#     4  11  22  40  72 103 121 151 212 271 314 380
#     4  11  23  42  62  93 123 165 207 265 323 372
#
# _framework density 19.993967999999999
#
# number of rings (size 3 to 8) (size 9 to 14) (size 15 to 20)
#    0.000    1.143    4.286    3.429    6.000    1.714 
#    0.000    0.000    0.000    5.143    0.000    0.000 
#    0.000    0.000    0.000    0.000    0.000    0.000 
#
# Total GULP energy -78096.712439 kJ/mol
# GULP energy per Si atom -5578.336603 kJ/mol
# Density = 1.994846 g / cm^3
# Si number density = 19.993968 Si / 1000 Ang^3
#
#
#
# Elastic Constant Matrix: (Units=GPa)
#
#
# Indices 1 2 3 4 5 6 
#
# 1 27.6049 -7.1240 22.5307 17.9511 10.0817 3.3124
# 2 -7.1240 97.6458 46.1779 -2.7602 -1.9558 -1.7599
# 3 22.5307 46.1779 145.3324 6.4537 7.2583 2.6019
# 4 17.9511 -2.7602 6.4537 29.5378 5.0767 -0.9994
# 5 10.0817 -1.9558 7.2583 5.0767 41.6504 7.8175
# 6 3.3124 -1.7599 2.6019 -0.9994 7.8175 19.4540
#
#
#
# Elastic Compliance Matrix: (Units=1/GPa)
#
#
# Indices 1 2 3 4 5 6 
#
# 1 0.085973 0.011254 -0.014140 -0.046685 -0.010249 -0.010009
# 2 0.011254 0.013722 -0.005894 -0.004167 -0.000569 0.000128
# 3 -0.014140 -0.005894 0.010660 0.005646 0.000499 0.000538
# 4 -0.046685 -0.004167 0.005646 0.060770 0.000917 0.009570
# 5 -0.010249 -0.000569 0.000499 0.000917 0.028067 -0.009605
# 6 -0.010009 0.000128 0.000538 0.009570 -0.009605 0.057398
#
#
# Mechanical properties :
#
#
# Convention : Reuss Voigt Hill
#
# Bulk Modulus (GPa) = 10.77627 43.75026 27.26327
# Shear Modulus (GPa) = 16.38899 32.06169 24.22534
#
# Velocity S-wave (km/s) = 2.86614 4.00880 3.48463
# Velocity P-wave (km/s) = 4.04407 6.58457 5.46402
#
# Compressibility (1/GPa) = 0.09279648
#
# Stress axis : x y z
#
# Youngs Moduli (GPa) = 11.63156 72.87307 93.80620
#
# Poissons Ratio (x) = -0.82012 1.32642
# Poissons Ratio (y) = -0.13090 0.55287
# Poissons Ratio (z) = 0.16447 0.42949
#
# Static dielectric constant tensor:
#      x y z
#    x 1.734420 -0.026040 -0.038170 
#    y -0.026040 1.737520 0.020430 
#    z -0.038170 0.020430 1.808810 
# 
# From -- ./inp_files/34742.got.cif
#   From: 2010.05.17/outbox.cif.g08.bks.cpg/sg2_18_cif.got.tgz:34742.got - 2010.06.03 11:33:40.
