data_PCOD9103005
_publ_section_title
;
Structure prediction by ZEFSAII (Michael W. Deem and Ramdas Pophale) SiO2 
 PCOD9103005
Probable space group: P -1
;
_chemical_formula_sum "Si O2"
_cell_formula_units_Z 16
_cell_length_a 7.882812
_cell_length_b 23.335262
_cell_length_c 5.290646
_cell_angle_alpha 86.299528
_cell_angle_beta 116.110809
_cell_angle_gamma 126.742036
_cell_volume 673.033207
_symmetry_space_group_name_H-M "P -1"
_symmetry_group_IT_number 2
_symmetry_cell_setting 'triclinic'
loop_
_space_group_symop_operation_xyz
x,y,z
-x,-y,-z
loop_
_atom_site_type_symbol
_atom_site_label
_atom_site_fract_x
_atom_site_fract_y
_atom_site_fract_z
Si Si1 0.339847 0.111082 0.812022
Si Si2 0.711734 0.393275 0.670783
Si Si3 0.831219 0.022903 0.627212
Si Si4 0.690117 0.769044 0.446258
Si Si5 0.366639 0.899357 0.635207
Si Si6 0.779792 0.499951 0.051850
Si Si7 0.053962 0.232357 0.892760
Si Si8 0.326037 0.397954 0.145826
O O1 0.347090 0.171646 0.652235
O O2 0.113612 0.074380 0.873523
O O3 0.248910 0.043840 0.586954
O O4 0.580515 0.136222 0.103929
O O5 0.575685 0.308049 0.642743
O O6 0.499085 0.396672 0.451087
O O7 0.959120 0.438294 0.655933
O O8 0.801466 0.440133 0.972050
O O9 0.797577 0.076100 0.438064
O O10 0.630587 0.979313 0.726913
O O11 0.795532 0.758731 0.263375
O O12 0.854287 0.784458 0.794161
O O13 0.224732 0.838554 0.336619
O O14 0.521875 0.446009 0.038509
O O15 0.762347 0.555202 0.854816
O O16 0.116662 0.311571 0.957571
#
# Coordination Sequence:
#
# PCOD9103005 Si02
#       8
#     2   2   2   2   2   2   2   2
#     4  11  24  43  70  98 134 176 229 272 343 397
#     4  10  21  40  63  91 132 170 223 272 339 386
#     4  10  24  42  66 102 134 172 222 288 328 406
#     4  11  25  46  69  97 142 180 222 282 340 398
#     4  11  24  43  70  98 134 176 229 272 343 397
#     4  10  20  38  64  96 120 174 224 276 326 404
#     4  11  25  46  69  97 142 180 222 282 340 398
#     4  10  21  40  63  91 132 170 223 272 339 386
#
# _framework density 23.772971999999999
#
# number of rings (size 3 to 8) (size 9 to 14) (size 15 to 20)
#    0.000    1.500    2.500    1.500    3.500    5.000 
#    4.500    1.250    0.000    0.000    0.000    0.000 
#    0.000    0.000    0.000    0.000    0.000    0.000 
#
# Total GULP energy -89240.490378 kJ/mol
# GULP energy per Si atom -5577.530649 kJ/mol
# Density = 2.371886 g / cm^3
# Si number density = 23.772972 Si / 1000 Ang^3
#
#
#
# Elastic Constant Matrix: (Units=GPa)
#
#
# Indices 1 2 3 4 5 6 
#
# 1 67.4566 21.4014 19.9969 -1.3865 9.2851 -3.1286
# 2 21.4014 168.5455 56.7035 0.9825 25.4296 -24.6647
# 3 19.9969 56.7035 107.4304 -8.5724 10.0091 -8.7238
# 4 -1.3865 0.9825 -8.5724 37.3548 -2.1953 9.1458
# 5 9.2851 25.4296 10.0091 -2.1953 34.1825 -9.6675
# 6 -3.1286 -24.6647 -8.7238 9.1458 -9.6675 45.2881
#
#
#
# Elastic Compliance Matrix: (Units=1/GPa)
#
#
# Indices 1 2 3 4 5 6 
#
# 1 0.016202 -0.000872 -0.002293 0.000029 -0.003217 -0.000490
# 2 -0.000872 0.008457 -0.003819 -0.002200 -0.004124 0.003374
# 3 -0.002293 -0.003819 0.011938 0.002882 0.000007 -0.000519
# 4 0.000029 -0.002200 0.002882 0.029092 0.000862 -0.006332
# 5 -0.003217 -0.004124 0.000007 0.000862 0.034591 0.004743
# 6 -0.000490 0.003374 -0.000519 -0.006332 0.004743 0.026076
#
#
# Mechanical properties :
#
#
# Convention : Reuss Voigt Hill
#
# Bulk Modulus (GPa) = 44.19198 59.95957 52.07578
# Shear Modulus (GPa) = 33.81413 39.72045 36.76729
#
# Velocity S-wave (km/s) = 3.77553 4.09201 3.93695
# Velocity P-wave (km/s) = 6.13480 6.89946 6.52833
#
# Compressibility (1/GPa) = 0.02262854
#
# Stress axis : x y z
#
# Youngs Moduli (GPa) = 61.72248 118.23940 83.76537
#
# Poissons Ratio (x) = 0.10313 0.19208
# Poissons Ratio (y) = 0.05384 0.31990
# Poissons Ratio (z) = 0.14153 0.45155
#
# Static dielectric constant tensor:
#      x y z
#    x 2.079500 0.068190 0.019880 
#    y 0.068190 1.907350 -0.024800 
#    z 0.019880 -0.024800 1.943860 
# 
# From -- ./inp_files/54887.got.cif
#   From: 2010.05.17/outbox.cif.g08.bks.cpg/sg2_28_cif.got.tgz:54887.got - 2010.06.03 11:33:40.
