data_PCOD9103193
_publ_section_title
;
Structure prediction by ZEFSAII (Michael W. Deem and Ramdas Pophale) SiO2 
 PCOD9103193
Probable space group: P -1
;
_chemical_formula_sum "Si O2"
_cell_formula_units_Z 12
_cell_length_a 11.513101
_cell_length_b 8.563799
_cell_length_c 13.393592
_cell_angle_alpha 59.362331
_cell_angle_beta 146.673782
_cell_angle_gamma 136.581740
_cell_volume 481.823350
_symmetry_space_group_name_H-M "P -1"
_symmetry_group_IT_number 2
_symmetry_cell_setting 'triclinic'
loop_
_space_group_symop_operation_xyz
x,y,z
-x,-y,-z
loop_
_atom_site_type_symbol
_atom_site_label
_atom_site_fract_x
_atom_site_fract_y
_atom_site_fract_z
Si Si1 0.096676 0.821955 0.345114
Si Si2 0.582262 0.061580 0.267108
Si Si3 0.302813 0.217713 0.681145
Si Si4 0.576020 0.333340 0.475786
Si Si5 0.904491 0.377024 0.865505
Si Si6 0.629807 0.416274 0.034209
O O1 0.170620 0.828677 0.512339
O O2 0.249997 0.730220 0.434496
O O3 0.786056 0.655419 0.134247
O O4 0.269111 0.091633 0.347119
O O5 0.635456 0.254628 0.168725
O O6 0.544948 0.866196 0.234551
O O7 0.297673 0.907410 0.174834
O O8 0.390519 0.460064 0.622881
O O9 0.353316 0.251363 0.824588
O O10 0.000000 0.000000 0.500000
O O11 0.713684 0.417367 0.656644
O O12 0.158055 0.481291 0.940625
O O13 0.000000 0.500000 0.000000
#
# Coordination Sequence:
#
# PCOD9103193 Si02
#       6
#     2   2   2   2   2   2
#     4   9  20  43  68  88 121 179 215 254 318 387
#     4  11  23  42  70  97 125 170 217 262 321 383
#     4  12  25  39  62  99 137 165 206 279 321 363
#     4   9  21  40  64  93 133 160 215 268 316 379
#     4  10  20  38  65  92 120 169 214 253 314 379
#     4  11  23  42  67  94 133 169 216 261 316 391
#
# _framework density 24.905394999999999
#
# number of rings (size 3 to 8) (size 9 to 14) (size 15 to 20)
#    0.000    1.667    1.667    4.000    2.333    3.333 
#    0.000    3.333    0.000    0.000    0.000    0.000 
#    0.000    0.000    0.000    0.000    0.000    0.000 
#
# Total GULP energy -67073.241540 kJ/mol
# GULP energy per Si atom -5589.436795 kJ/mol
# Density = 2.484871 g / cm^3
# Si number density = 24.905395 Si / 1000 Ang^3
#
#
#
# Elastic Constant Matrix: (Units=GPa)
#
#
# Indices 1 2 3 4 5 6 
#
# 1 56.1648 8.6833 30.6651 -0.5711 -39.0481 -4.5555
# 2 8.6833 149.2589 61.6355 -6.1201 -10.2056 8.0608
# 3 30.6651 61.6355 181.6154 43.4425 -48.5012 1.1396
# 4 -0.5711 -6.1201 43.4425 45.9719 2.3942 -6.2835
# 5 -39.0481 -10.2056 -48.5012 2.3942 52.7820 8.4840
# 6 -4.5555 8.0608 1.1396 -6.2835 8.4840 35.4392
#
#
#
# Elastic Compliance Matrix: (Units=1/GPa)
#
#
# Indices 1 2 3 4 5 6 
#
# 1 0.038114 -0.001880 0.004499 -0.006258 0.032861 -0.003794
# 2 -0.001880 0.009185 -0.006015 0.007237 -0.005546 0.000474
# 3 0.004499 -0.006015 0.016084 -0.017769 0.018750 -0.006210
# 4 -0.006258 0.007237 -0.017769 0.042168 -0.023267 0.011167
# 5 0.032861 -0.005546 0.018750 -0.023267 0.062762 -0.014267
# 6 -0.003794 0.000474 -0.006210 0.011167 -0.014267 0.033217
#
#
# Mechanical properties :
#
#
# Convention : Reuss Voigt Hill
#
# Bulk Modulus (GPa) = 17.67040 65.44520 41.55780
# Shear Modulus (GPa) = 22.00845 45.90898 33.95872
#
# Velocity S-wave (km/s) = 2.97590 4.29807 3.69658
# Velocity P-wave (km/s) = 4.34953 7.13903 5.91118
#
# Compressibility (1/GPa) = 0.05659182
#
# Stress axis : x y z
#
# Youngs Moduli (GPa) = 26.23702 108.87451 62.17232
#
# Poissons Ratio (x) = 0.20469 -0.27973
# Poissons Ratio (y) = 0.04933 0.37396
# Poissons Ratio (z) = -0.11805 0.65487
#
# Static dielectric constant tensor:
#      x y z
#    x 1.024260 -0.016480 -0.487080 
#    y -0.016480 1.938370 0.009910 
#    z -0.487080 0.009910 1.734560 
# 
# From -- ./inp_files/246993.got.cif
#   From: 2010.05.17/outbox.cif.g08.bks.cpg/sg2_124_cif.got.tgz:246993.got - 2010.06.03 11:33:40.
