data_PCOD9103093
_publ_section_title
;
Structure prediction by ZEFSAII (Michael W. Deem and Ramdas Pophale) SiO2 
 PCOD9103093
Probable space group: P -1
;
_chemical_formula_sum "Si O2"
_cell_formula_units_Z 16
_cell_length_a 8.556262
_cell_length_b 9.144414
_cell_length_c 20.497519
_cell_angle_alpha 54.149180
_cell_angle_beta 146.200818
_cell_angle_gamma 121.477337
_cell_volume 720.886256
_symmetry_space_group_name_H-M "P -1"
_symmetry_group_IT_number 2
_symmetry_cell_setting 'triclinic'
loop_
_space_group_symop_operation_xyz
x,y,z
-x,-y,-z
loop_
_atom_site_type_symbol
_atom_site_label
_atom_site_fract_x
_atom_site_fract_y
_atom_site_fract_z
Si Si1 0.422757 0.407990 0.080973
Si Si2 0.137907 0.820036 0.074070
Si Si3 0.228397 0.559796 0.429217
Si Si4 0.555312 0.733023 0.729341
Si Si5 0.483783 0.441790 0.672370
Si Si6 0.569312 0.922755 0.473767
Si Si7 0.989785 0.633447 0.713518
Si Si8 0.855010 0.308094 0.029843
O O1 0.453474 0.298191 0.188488
O O2 0.699952 0.364404 0.150047
O O3 0.126343 0.329840 0.968966
O O4 0.396121 0.617207 0.036323
O O5 0.410168 0.754118 0.223233
O O6 0.214949 0.814181 0.025399
O O7 0.000000 0.000000 0.000000
O O8 0.500000 0.500000 0.500000
O O9 0.237437 0.464362 0.528153
O O10 0.307803 0.773333 0.407554
O O11 0.993450 0.486549 0.315950
O O12 0.448267 0.556845 0.695908
O O13 0.892094 0.766746 0.822396
O O14 0.411743 0.909695 0.612197
O O15 0.752339 0.542625 0.702360
O O16 0.856568 0.820542 0.600719
O O17 0.500000 0.000000 0.500000
O O18 0.000000 0.500000 0.000000
#
# Coordination Sequence:
#
# PCOD9103093 Si02
#       8
#     2   2   2   2   2   2   2   2
#     4  10  20  36  52  78 112 139 168 218 271 314
#     4  10  19  33  58  84 100 132 185 224 252 313
#     4   8  18  32  50  75 106 135 177 211 253 310
#     4  10  16  32  60  75  98 144 182 207 255 321
#     4  10  16  34  58  75  99 143 183 208 258 313
#     4  10  17  31  56  79  99 137 187 216 243 311
#     4  10  22  34  51  80 113 138 170 221 267 308
#     4   8  16  32  52  73  99 137 172 200 258 316
#
# _framework density 22.194903
#
# number of rings (size 3 to 8) (size 9 to 14) (size 15 to 20)
#    0.000    3.000    6.250    0.000    0.000    7.000 
#    0.000    1.875    0.000    1.500    0.000    0.000 
#    0.000    0.000    0.000    0.000    0.000    0.000 
#
# Total GULP energy -89109.558034 kJ/mol
# GULP energy per Si atom -5569.347377 kJ/mol
# Density = 2.214439 g / cm^3
# Si number density = 22.194903 Si / 1000 Ang^3
#
#
#
# Elastic Constant Matrix: (Units=GPa)
#
#
# Indices 1 2 3 4 5 6 
#
# 1 52.3435 10.7516 22.0272 -3.0039 1.2083 -13.0631
# 2 10.7516 61.6789 17.4320 -19.7342 0.2917 -30.6765
# 3 22.0272 17.4320 57.7357 -11.6657 6.5622 -3.9033
# 4 -3.0039 -19.7342 -11.6657 33.6498 -6.5766 10.5085
# 5 1.2083 0.2917 6.5622 -6.5766 42.8256 7.5424
# 6 -13.0631 -30.6765 -3.9033 10.5085 7.5424 24.2751
#
#
#
# Elastic Compliance Matrix: (Units=1/GPa)
#
#
# Indices 1 2 3 4 5 6 
#
# 1 0.032272 0.017649 -0.015318 -0.006701 -0.007168 0.042334
# 2 0.017649 0.064432 -0.018044 0.001750 -0.014040 0.091624
# 3 -0.015318 -0.018044 0.027785 0.007919 0.002960 -0.030925
# 4 -0.006701 0.001750 0.007919 0.041092 0.008916 -0.020680
# 5 -0.007168 -0.014040 0.002960 0.008916 0.030641 -0.034504
# 6 0.042334 0.091624 -0.030925 -0.020680 -0.034504 0.194461
#
#
# Mechanical properties :
#
#
# Convention : Reuss Voigt Hill
#
# Bulk Modulus (GPa) = 10.74530 30.24218 20.49374
# Shear Modulus (GPa) = 11.03440 28.25327 19.64383
#
# Velocity S-wave (km/s) = 2.23213 3.57173 2.97822
# Velocity P-wave (km/s) = 3.39043 5.53760 4.59130
#
# Compressibility (1/GPa) = 0.09306396
#
# Stress axis : x y z
#
# Youngs Moduli (GPa) = 30.98706 15.52022 35.99042
#
# Poissons Ratio (x) = -0.27392 0.55130
# Poissons Ratio (y) = -0.54689 0.64939
# Poissons Ratio (z) = 0.47466 0.28004
#
# Static dielectric constant tensor:
#      x y z
#    x 2.098930 0.175160 0.070610 
#    y 0.175160 2.030400 0.085790 
#    z 0.070610 0.085790 1.969160 
# 
# From -- ./inp_files/587853.got.cif
#   From: 2010.05.17/outbox.cif.g08.bks.cpg/sg2_294_cif.got.tgz:587853.got - 2010.06.03 11:33:40.
