data_PCOD9103021
_publ_section_title
;
Structure prediction by ZEFSAII (Michael W. Deem and Ramdas Pophale) SiO2 
 PCOD9103021
Probable space group: P -1
;
_chemical_formula_sum "Si O2"
_cell_formula_units_Z 12
_cell_length_a 12.975702
_cell_length_b 12.286338
_cell_length_c 5.060797
_cell_angle_alpha 64.991261
_cell_angle_beta 116.476969
_cell_angle_gamma 139.217536
_cell_volume 466.693547
_symmetry_space_group_name_H-M "P -1"
_symmetry_group_IT_number 2
_symmetry_cell_setting 'triclinic'
loop_
_space_group_symop_operation_xyz
x,y,z
-x,-y,-z
loop_
_atom_site_type_symbol
_atom_site_label
_atom_site_fract_x
_atom_site_fract_y
_atom_site_fract_z
Si Si1 0.182113 0.165909 0.969676
Si Si2 0.612780 0.485471 0.294142
Si Si3 0.369109 0.209906 0.638342
Si Si4 0.742007 0.361130 0.301326
Si Si5 0.934325 0.313725 0.873683
Si Si6 0.250533 0.882277 0.629143
O O1 0.214292 0.323503 0.730046
O O2 0.276610 0.158225 0.860700
O O3 0.265155 0.205613 0.305988
O O4 0.000000 0.000000 0.000000
O O5 0.543594 0.398836 0.591130
O O6 0.617842 0.364712 0.266894
O O7 0.500000 0.500000 0.000000
O O8 0.363938 0.069931 0.670546
O O9 0.847127 0.377517 0.641472
O O10 0.669285 0.190026 0.253007
O O11 0.877246 0.527214 0.113368
O O12 0.848473 0.167898 0.702958
O O13 0.883348 0.233728 0.181293
#
# Coordination Sequence:
#
# PCOD9103021 Si02
#       6
#     2   2   2   2   2   2
#     4  11  25  45  68  96 124 183 230 272 316 389
#     4  10  24  47  65  97 140 182 216 268 333 404
#     4  11  24  44  65  95 139 168 219 277 333 396
#     4   9  21  38  66  95 134 167 221 265 341 375
#     4   9  20  38  60 104 124 167 215 282 320 384
#     4  10  20  38  64  96 129 161 215 273 337 373
#
# _framework density 25.712804999999999
#
# number of rings (size 3 to 8) (size 9 to 14) (size 15 to 20)
#    1.000    1.000    0.000    2.500    4.667    0.667 
#   12.000    0.833    0.000    0.000    0.000    0.000 
#    0.000    0.000    0.000    0.000    0.000    0.000 
#
# Total GULP energy -67056.575315 kJ/mol
# GULP energy per Si atom -5588.047943 kJ/mol
# Density = 2.565428 g / cm^3
# Si number density = 25.712805 Si / 1000 Ang^3
#
#
#
# Elastic Constant Matrix: (Units=GPa)
#
#
# Indices 1 2 3 4 5 6 
#
# 1 130.2022 60.2824 35.1415 -11.4289 -20.5329 -14.2409
# 2 60.2824 145.7126 37.8101 -37.3423 -18.5714 -15.0512
# 3 35.1415 37.8101 110.1513 -17.3049 -35.9820 15.1329
# 4 -11.4289 -37.3423 -17.3049 47.9822 5.7745 -8.5747
# 5 -20.5329 -18.5714 -35.9820 5.7745 31.4953 8.5311
# 6 -14.2409 -15.0512 15.1329 -8.5747 8.5311 50.1961
#
#
#
# Elastic Compliance Matrix: (Units=1/GPa)
#
#
# Indices 1 2 3 4 5 6 
#
# 1 0.010269 -0.003555 -0.001668 -0.000887 0.002369 0.001796
# 2 -0.003555 0.011419 -0.002623 0.008123 -0.001378 0.004828
# 3 -0.001668 -0.002623 0.019308 -0.000120 0.022402 -0.010908
# 4 -0.000887 0.008123 -0.000120 0.028671 -0.003261 0.007672
# 5 0.002369 -0.001378 0.022402 -0.003261 0.063508 -0.017845
# 6 0.001796 0.004828 -0.010908 0.007672 -0.017845 0.029511
#
#
# Mechanical properties :
#
#
# Convention : Reuss Voigt Hill
#
# Bulk Modulus (GPa) = 39.51876 72.50377 56.01127
# Shear Modulus (GPa) = 26.76482 42.79019 34.77750
#
# Velocity S-wave (km/s) = 3.22982 4.08384 3.68167
# Velocity P-wave (km/s) = 5.41402 7.10603 6.31694
#
# Compressibility (1/GPa) = 0.02530444
#
# Stress axis : x y z
#
# Youngs Moduli (GPa) = 97.38283 87.57447 51.79113
#
# Poissons Ratio (x) = 0.31135 0.08639
# Poissons Ratio (y) = 0.34622 0.13582
# Poissons Ratio (z) = 0.16243 0.22967
#
# Static dielectric constant tensor:
#      x y z
#    x 2.075010 -0.011730 0.012660 
#    y -0.011730 2.149460 0.018410 
#    z 0.012660 0.018410 1.983130 
# 
# From -- ./inp_files/26170.got.cif
#   From: 2010.05.17/outbox.cif.g08.bks.cpg/sg2_14_cif.got.tgz:26170.got - 2010.06.03 11:33:40.
