data_PCOD9103108
_publ_section_title
;
Structure prediction by ZEFSAII (Michael W. Deem and Ramdas Pophale) SiO2 
 PCOD9103108
Probable space group: P -1
;
_chemical_formula_sum "Si O2"
_cell_formula_units_Z 14
_cell_length_a 13.368181
_cell_length_b 6.899161
_cell_length_c 22.848548
_cell_angle_alpha 58.231020
_cell_angle_beta 24.193212
_cell_angle_gamma 74.459935
_cell_volume 582.107780
_symmetry_space_group_name_H-M "P -1"
_symmetry_group_IT_number 2
_symmetry_cell_setting 'triclinic'
loop_
_space_group_symop_operation_xyz
x,y,z
-x,-y,-z
loop_
_atom_site_type_symbol
_atom_site_label
_atom_site_fract_x
_atom_site_fract_y
_atom_site_fract_z
Si Si1 0.427708 0.268647 0.528783
Si Si2 0.723221 0.874362 0.600963
Si Si3 0.572909 0.185761 0.721642
Si Si4 0.590082 0.556159 0.875831
Si Si5 0.270168 0.636326 0.269243
Si Si6 0.013167 0.644362 0.833654
Si Si7 0.643821 0.491670 0.254468
O O1 0.500000 0.500000 0.500000
O O2 0.722361 0.266176 0.369380
O O3 0.428305 0.371159 0.446662
O O4 0.124191 0.947874 0.752857
O O5 0.606157 0.998970 0.688636
O O6 0.075394 0.137575 0.356815
O O7 0.284237 0.379703 0.325130
O O8 0.516724 0.740654 0.674610
O O9 0.553651 0.127808 0.811014
O O10 0.323673 0.232579 0.829210
O O11 0.911605 0.499372 0.484448
O O12 0.617615 0.329255 0.862442
O O13 0.500000 0.500000 0.000000
O O14 0.307823 0.518514 0.000059
O O15 0.061974 0.477798 0.882937
#
# Coordination Sequence:
#
# PCOD9103108 Si02
#       7
#     2   2   2   2   2   2   2
#     4   9  19  35  57  76 116 167 192 227 295 358
#     4  10  20  38  65  86 116 162 199 240 292 355
#     4   9  17  33  61  83 109 151 210 236 274 346
#     4  11  21  35  62  90 122 153 191 250 306 339
#     4   9  20  38  59  87 119 160 199 240 290 357
#     4   9  21  37  53  85 122 150 194 245 293 353
#     4   9  19  32  58  87 108 151 202 236 286 355
#
# _framework density 24.050529000000001
#
# number of rings (size 3 to 8) (size 9 to 14) (size 15 to 20)
#    0.857    1.714    0.000    2.571    2.000    1.143 
#    0.000   11.429    0.000   40.286    0.000    0.000 
#    0.000    0.000    0.000    0.000    0.000    0.000 
#
# Total GULP energy -78194.474355 kJ/mol
# GULP energy per Si atom -5585.319597 kJ/mol
# Density = 2.399579 g / cm^3
# Si number density = 24.050529 Si / 1000 Ang^3
#
#
#
# Elastic Constant Matrix: (Units=GPa)
#
#
# Indices 1 2 3 4 5 6 
#
# 1 112.4193 55.2159 53.1381 1.5517 -13.3795 35.4466
# 2 55.2159 171.5501 41.5605 -6.9719 1.1270 43.7318
# 3 53.1381 41.5605 116.6329 -9.6123 -19.8265 14.4687
# 4 1.5517 -6.9719 -9.6123 20.5522 2.9798 10.2120
# 5 -13.3795 1.1270 -19.8265 2.9798 37.7119 6.2039
# 6 35.4466 43.7318 14.4687 10.2120 6.2039 43.0399
#
#
#
# Elastic Compliance Matrix: (Units=1/GPa)
#
#
# Indices 1 2 3 4 5 6 
#
# 1 0.015659 -0.001051 -0.004374 0.001351 0.005058 -0.011408
# 2 -0.001051 0.009289 -0.000954 0.007814 -0.000109 -0.010091
# 3 -0.004374 -0.000954 0.012433 0.005977 0.004824 -0.001722
# 4 0.001351 0.007814 0.005977 0.067235 0.002581 -0.027386
# 5 0.005058 -0.000109 0.004824 0.002581 0.032451 -0.010966
# 6 -0.011408 -0.010091 -0.001722 -0.027386 -0.010966 0.051540
#
#
# Mechanical properties :
#
#
# Convention : Reuss Voigt Hill
#
# Bulk Modulus (GPa) = 40.61087 77.82570 59.21829
# Shear Modulus (GPa) = 23.85831 36.97330 30.41581
#
# Velocity S-wave (km/s) = 3.15303 3.92512 3.56007
# Velocity P-wave (km/s) = 5.49343 7.27816 6.44784
#
# Compressibility (1/GPa) = 0.02462395
#
# Stress axis : x y z
#
# Youngs Moduli (GPa) = 63.86147 107.65250 80.43252
#
# Poissons Ratio (x) = 0.11311 0.35178
# Poissons Ratio (y) = 0.06710 0.07675
# Poissons Ratio (z) = 0.27930 0.10272
#
# Static dielectric constant tensor:
#      x y z
#    x 1.956540 -0.011760 0.029740 
#    y -0.011760 2.008200 -0.011110 
#    z 0.029740 -0.011110 1.948930 
# 
# From -- ./inp_files/618993.got.cif
#   From: 2010.05.17/outbox.cif.g08.bks.cpg/sg2_310_cif.got.tgz:618993.got - 2010.06.03 11:33:40.
