data_PCOD9103926
_publ_section_title
;
Structure prediction by ZEFSAII (Michael W. Deem and Ramdas Pophale) SiO2 
 PCOD9103926
Probable space group: P -1
;
_chemical_formula_sum "Si O2"
_cell_formula_units_Z 14
_cell_length_a 9.274702
_cell_length_b 12.049753
_cell_length_c 9.350781
_cell_angle_alpha 124.523089
_cell_angle_beta 132.140009
_cell_angle_gamma 78.008522
_cell_volume 612.459009
_symmetry_space_group_name_H-M "P -1"
_symmetry_group_IT_number 2
_symmetry_cell_setting 'triclinic'
loop_
_space_group_symop_operation_xyz
x,y,z
-x,-y,-z
loop_
_atom_site_type_symbol
_atom_site_label
_atom_site_fract_x
_atom_site_fract_y
_atom_site_fract_z
Si Si1 0.732378 0.688944 0.033357
Si Si2 0.639500 0.651594 0.254003
Si Si3 0.689296 0.178020 0.854010
Si Si4 0.824296 0.148848 0.626176
Si Si5 0.089526 0.417679 0.380513
Si Si6 0.458234 0.078630 0.893256
Si Si7 0.215938 0.559021 0.267887
O O1 0.783988 0.689573 0.237554
O O2 0.559878 0.767882 0.969756
O O3 0.934962 0.781276 0.158330
O O4 0.663333 0.535161 0.803815
O O5 0.492412 0.750831 0.239938
O O6 0.757585 0.645097 0.472968
O O7 0.500000 0.500000 0.000000
O O8 0.730858 0.101644 0.684571
O O9 0.626069 0.089886 0.891251
O O10 0.897169 0.299113 0.106086
O O11 0.731331 0.274573 0.601467
O O12 0.753563 0.015393 0.380571
O O13 0.187403 0.513133 0.380097
O O14 0.000000 0.500000 0.500000
O O15 0.500000 0.000000 0.000000
O O16 0.000000 0.500000 0.000000
#
# Coordination Sequence:
#
# PCOD9103926 Si02
#       7
#     2   2   2   2   2   2   2
#     4  10  22  44  68  96 134 177 222 283 344 398
#     4  11  23  38  64 101 137 174 225 280 340 404
#     4  11  24  45  66  95 138 178 230 281 337 407
#     4  11  22  45  69  93 141 182 216 280 350 395
#     4  12  22  38  71 100 136 181 222 280 350 398
#     4  11  27  43  67  98 136 180 230 280 336 410
#     4  10  20  38  70 102 131 171 221 284 337 399
#
# _framework density 22.858673
#
# number of rings (size 3 to 8) (size 9 to 14) (size 15 to 20)
#    0.000    1.143    4.286    3.429    4.000    1.143 
#    0.000    2.857    0.000    0.000    0.000    0.000 
#    0.000    0.000    0.000    0.000    0.000    0.000 
#
# Total GULP energy -78304.571589 kJ/mol
# GULP energy per Si atom -5593.183685 kJ/mol
# Density = 2.280665 g / cm^3
# Si number density = 22.858673 Si / 1000 Ang^3
#
#
#
# Elastic Constant Matrix: (Units=GPa)
#
#
# Indices 1 2 3 4 5 6 
#
# 1 117.3737 31.7219 22.2980 -23.6409 -16.4766 24.4409
# 2 31.7219 88.5782 22.5396 -21.3449 -16.8164 18.4319
# 3 22.2980 22.5396 63.5008 -10.3377 -9.6081 -8.3735
# 4 -23.6409 -21.3449 -10.3377 42.8653 9.1042 -11.3093
# 5 -16.4766 -16.8164 -9.6081 9.1042 34.1017 1.2002
# 6 24.4409 18.4319 -8.3735 -11.3093 1.2002 38.5079
#
#
#
# Elastic Compliance Matrix: (Units=1/GPa)
#
#
# Indices 1 2 3 4 5 6 
#
# 1 0.012113 -0.000233 -0.004152 0.002614 0.004146 -0.007841
# 2 -0.000233 0.016312 -0.005339 0.003357 0.005813 -0.008016
# 3 -0.004152 -0.005339 0.020987 0.002881 0.000132 0.010596
# 4 0.002614 0.003357 0.002881 0.029719 -0.004423 0.006227
# 5 0.004146 0.005813 0.000132 -0.004423 0.035686 -0.007796
# 6 -0.007841 -0.008016 0.010596 0.006227 -0.007796 0.039158
#
#
# Mechanical properties :
#
#
# Convention : Reuss Voigt Hill
#
# Bulk Modulus (GPa) = 33.37325 46.95243 40.16284
# Shear Modulus (GPa) = 27.26123 35.95453 31.60788
#
# Velocity S-wave (km/s) = 3.45715 3.97029 3.72257
# Velocity P-wave (km/s) = 5.52878 6.45000 6.00707
#
# Compressibility (1/GPa) = 0.02996412
#
# Stress axis : x y z
#
# Youngs Moduli (GPa) = 82.55866 61.30435 47.64840
#
# Poissons Ratio (x) = 0.01427 0.19782
# Poissons Ratio (y) = 0.01922 0.25441
# Poissons Ratio (z) = 0.34276 0.32732
#
# Static dielectric constant tensor:
#      x y z
#    x 1.910260 0.001030 0.014580 
#    y 0.001030 1.886950 -0.012070 
#    z 0.014580 -0.012070 1.925410 
# 
# From -- ./inp_files/179797.got.cif
#   From: 2010.05.17/outbox.cif.g08.bks.cpg/sg2_90_cif.got.tgz:179797.got - 2010.06.03 11:33:40.
