data_PCOD9103190
_publ_section_title
;
Structure prediction by ZEFSAII (Michael W. Deem and Ramdas Pophale) SiO2 
 PCOD9103190
Probable space group: P -1
;
_chemical_formula_sum "Si O2"
_cell_formula_units_Z 12
_cell_length_a 8.318519
_cell_length_b 12.068708
_cell_length_c 9.988779
_cell_angle_alpha 38.798529
_cell_angle_beta 107.300438
_cell_angle_gamma 84.300634
_cell_volume 499.673889
_symmetry_space_group_name_H-M "P -1"
_symmetry_group_IT_number 2
_symmetry_cell_setting 'triclinic'
loop_
_space_group_symop_operation_xyz
x,y,z
-x,-y,-z
loop_
_atom_site_type_symbol
_atom_site_label
_atom_site_fract_x
_atom_site_fract_y
_atom_site_fract_z
Si Si1 0.697453 0.421835 0.535350
Si Si2 0.738621 0.916392 0.791856
Si Si3 0.905296 0.036177 0.137720
Si Si4 0.629245 0.694973 0.789320
Si Si5 0.270266 0.192734 0.802116
Si Si6 0.595265 0.357944 0.975297
O O1 0.500000 0.500000 0.500000
O O2 0.766648 0.578566 0.442830
O O3 0.838595 0.185342 0.847808
O O4 0.610215 0.472418 0.316278
O O5 0.780162 0.738774 0.860769
O O6 0.886984 0.995602 0.737108
O O7 0.508975 0.113251 0.526608
O O8 0.752451 0.832393 0.022879
O O9 0.740276 0.172351 0.083877
O O10 0.886562 0.840998 0.283183
O O11 0.475933 0.715507 0.847967
O O12 0.700891 0.476179 0.940565
O O13 0.500000 0.000000 0.000000
#
# Coordination Sequence:
#
# PCOD9103190 Si02
#       6
#     2   2   2   2   2   2
#     4  10  20  38  65  92 119 161 201 254 308 367
#     4  11  24  41  60  95 123 161 209 251 307 362
#     4  11  24  40  63  99 125 154 205 265 305 357
#     4  10  22  41  65  81 125 173 203 246 296 377
#     4  12  21  40  66  92 124 163 202 251 316 367
#     4  10  20  41  63  89 119 167 209 241 308 366
#
# _framework density 24.015664999999998
#
# number of rings (size 3 to 8) (size 9 to 14) (size 15 to 20)
#    0.000    1.333    5.000    1.500    2.333    2.000 
#    6.000    0.000    0.000    0.000    0.000    0.000 
#    0.000    0.000    0.000    0.000    0.000    0.000 
#
# Total GULP energy -67178.835762 kJ/mol
# GULP energy per Si atom -5598.236313 kJ/mol
# Density = 2.396100 g / cm^3
# Si number density = 24.015665 Si / 1000 Ang^3
#
#
#
# Elastic Constant Matrix: (Units=GPa)
#
#
# Indices 1 2 3 4 5 6 
#
# 1 87.7026 49.1108 15.5799 -3.5080 -2.1366 33.4202
# 2 49.1108 164.3316 30.5247 -11.4050 -7.7084 50.8602
# 3 15.5799 30.5247 53.5183 -2.1812 -13.3920 -1.4503
# 4 -3.5080 -11.4050 -2.1812 32.6361 10.0829 -2.9256
# 5 -2.1366 -7.7084 -13.3920 10.0829 31.5429 -5.9518
# 6 33.4202 50.8602 -1.4503 -2.9256 -5.9518 55.0592
#
#
#
# Elastic Compliance Matrix: (Units=1/GPa)
#
#
# Indices 1 2 3 4 5 6 
#
# 1 0.016535 -0.001106 -0.005287 0.001300 -0.003598 -0.009474
# 2 -0.001106 0.010695 -0.006693 0.003290 -0.003157 -0.009551
# 3 -0.005287 -0.006693 0.027462 -0.004109 0.013114 0.011314
# 4 0.001300 0.003290 -0.004109 0.035297 -0.012785 -0.003443
# 5 -0.003598 -0.003157 0.013114 -0.012785 0.042100 0.009317
# 6 -0.009474 -0.009551 0.011314 -0.003443 0.009317 0.033858
#
#
# Mechanical properties :
#
#
# Convention : Reuss Voigt Hill
#
# Bulk Modulus (GPa) = 35.06131 55.10925 45.08528
# Shear Modulus (GPa) = 24.79828 37.87012 31.33420
#
# Velocity S-wave (km/s) = 3.21688 3.97532 3.61604
# Velocity P-wave (km/s) = 5.33186 6.63837 6.02066
#
# Compressibility (1/GPa) = 0.02852147
#
# Stress axis : x y z
#
# Youngs Moduli (GPa) = 60.47687 93.49940 36.41345
#
# Poissons Ratio (x) = 0.10339 0.19252
# Poissons Ratio (y) = 0.06688 0.24371
# Poissons Ratio (z) = 0.31974 0.62578
#
# Static dielectric constant tensor:
#      x y z
#    x 1.938900 0.007440 0.096630 
#    y 0.007440 1.955280 -0.023660 
#    z 0.096630 -0.023660 2.034690 
# 
# From -- ./inp_files/155134.got.cif
#   From: 2010.05.17/outbox.cif.g08.bks.cpg/sg2_78_cif.got.tgz:155134.got - 2010.06.03 11:33:40.
