data_PCOD9103236
_publ_section_title
;
Structure prediction by ZEFSAII (Michael W. Deem and Ramdas Pophale) SiO2 
 PCOD9103236
Probable space group: P -1
;
_chemical_formula_sum "Si O2"
_cell_formula_units_Z 12
_cell_length_a 8.251855
_cell_length_b 11.311047
_cell_length_c 10.090565
_cell_angle_alpha 49.086835
_cell_angle_beta 84.144999
_cell_angle_gamma 54.320207
_cell_volume 514.504691
_symmetry_space_group_name_H-M "P -1"
_symmetry_group_IT_number 2
_symmetry_cell_setting 'triclinic'
loop_
_space_group_symop_operation_xyz
x,y,z
-x,-y,-z
loop_
_atom_site_type_symbol
_atom_site_label
_atom_site_fract_x
_atom_site_fract_y
_atom_site_fract_z
Si Si1 0.318907 0.366036 0.589743
Si Si2 0.484735 0.018161 0.330526
Si Si3 0.056290 0.297919 0.808807
Si Si4 0.557024 0.588765 0.040616
Si Si5 0.997649 0.320098 0.100059
Si Si6 0.730319 0.153410 0.880726
O O1 0.180316 0.382452 0.712727
O O2 0.557697 0.280714 0.676178
O O3 0.141256 0.593812 0.362106
O O4 0.347328 0.202445 0.603491
O O5 0.482032 0.203846 0.153807
O O6 0.246088 0.097358 0.259361
O O7 0.500000 0.000000 0.500000
O O8 0.950844 0.343011 0.930139
O O9 0.258446 0.042504 0.963742
O O10 0.500000 0.500000 0.000000
O O11 0.821455 0.377681 0.180049
O O12 0.408259 0.672062 0.120633
O O13 0.000000 0.500000 0.000000
O O14 0.000000 0.000000 0.000000
#
# Coordination Sequence:
#
# PCOD9103236 Si02
#       6
#     2   2   2   2   2   2
#     4  11  22  40  71 101 129 171 235 277 331 403
#     4  11  22  40  69 102 134 172 228 281 334 406
#     4  11  22  41  69 100 129 172 227 280 333 399
#     4  11  24  43  65  97 137 179 221 274 343 402
#     4  10  20  38  65  93 132 174 216 271 334 390
#     4  12  25  43  69  96 140 181 219 278 342 402
#
# _framework density 23.323402000000002
#
# number of rings (size 3 to 8) (size 9 to 14) (size 15 to 20)
#    0.000    1.000    3.333    5.500    0.000    2.000 
#    0.000    0.833    0.000    0.000    0.000    0.000 
#    0.000    0.000    0.000    0.000    0.000    0.000 
#
# Total GULP energy -66823.639233 kJ/mol
# GULP energy per Si atom -5568.636603 kJ/mol
# Density = 2.327032 g / cm^3
# Si number density = 23.323402 Si / 1000 Ang^3
#
#
#
# Elastic Constant Matrix: (Units=GPa)
#
#
# Indices 1 2 3 4 5 6 
#
# 1 74.9490 19.9696 17.8140 4.9242 29.1587 -14.1802
# 2 19.9696 151.3584 17.7677 11.8678 5.3034 1.1413
# 3 17.8140 17.7677 101.9051 -0.6880 22.7728 -1.9372
# 4 4.9242 11.8678 -0.6880 40.7690 -0.1279 4.5405
# 5 29.1587 5.3034 22.7728 -0.1279 35.0025 -2.8165
# 6 -14.1802 1.1413 -1.9372 4.5405 -2.8165 42.0134
#
#
#
# Elastic Compliance Matrix: (Units=1/GPa)
#
#
# Indices 1 2 3 4 5 6 
#
# 1 0.022281 -0.002209 0.000647 -0.002841 -0.018118 0.006702
# 2 -0.002209 0.007131 -0.001215 -0.001746 0.001486 -0.000707
# 3 0.000647 -0.001215 0.011694 0.000424 -0.007945 0.000212
# 4 -0.002841 -0.001746 0.000424 0.025787 0.002165 -0.003534
# 5 -0.018118 0.001486 -0.007945 0.002165 0.048332 -0.003516
# 6 0.006702 -0.000707 0.000212 -0.003534 -0.003516 0.026239
#
#
# Mechanical properties :
#
#
# Convention : Reuss Voigt Hill
#
# Bulk Modulus (GPa) = 28.12631 48.81278 38.46954
# Shear Modulus (GPa) = 31.47295 41.73440 36.60368
#
# Velocity S-wave (km/s) = 3.67742 4.23469 3.96586
# Velocity P-wave (km/s) = 5.48787 6.69957 6.12376
#
# Compressibility (1/GPa) = 0.03555391
#
# Stress axis : x y z
#
# Youngs Moduli (GPa) = 44.88213 140.23330 85.51397
#
# Poissons Ratio (x) = 0.30971 -0.05536
# Poissons Ratio (y) = 0.09912 0.10387
# Poissons Ratio (z) = -0.02906 0.17033
#
# Static dielectric constant tensor:
#      x y z
#    x 2.066290 -0.022810 0.059360 
#    y -0.022810 1.893780 -0.021040 
#    z 0.059360 -0.021040 1.910780 
# 
# From -- ./inp_files/173805.got.cif
#   From: 2010.05.17/outbox.cif.g08.bks.cpg/sg2_87_cif.got.tgz:173805.got - 2010.06.03 11:33:40.
