data_PCOD9103991
_publ_section_title
;
Structure prediction by ZEFSAII (Michael W. Deem and Ramdas Pophale) SiO2 
 PCOD9103991
Probable space group: P -1
;
_chemical_formula_sum "Si O2"
_cell_formula_units_Z 14
_cell_length_a 9.329132
_cell_length_b 11.302536
_cell_length_c 9.803058
_cell_angle_alpha 127.497573
_cell_angle_beta 48.631664
_cell_angle_gamma 122.837054
_cell_volume 598.213907
_symmetry_space_group_name_H-M "P -1"
_symmetry_group_IT_number 2
_symmetry_cell_setting 'triclinic'
loop_
_space_group_symop_operation_xyz
x,y,z
-x,-y,-z
loop_
_atom_site_type_symbol
_atom_site_label
_atom_site_fract_x
_atom_site_fract_y
_atom_site_fract_z
Si Si1 0.766411 0.465747 0.153167
Si Si2 0.807900 0.361841 0.518854
Si Si3 0.556957 0.585051 0.884942
Si Si4 0.127166 0.873412 0.475565
Si Si5 0.182833 0.789681 0.876279
Si Si6 0.842482 0.907867 0.922054
Si Si7 0.873766 0.799325 0.312007
O O1 0.633864 0.396605 0.061285
O O2 0.721580 0.337039 0.205499
O O3 0.737522 0.635070 0.320049
O O4 0.000000 0.500000 0.000000
O O5 0.647752 0.459476 0.661127
O O6 0.776733 0.251476 0.595619
O O7 0.840555 0.258670 0.299544
O O8 0.000000 0.500000 0.500000
O O9 0.708340 0.745181 0.932013
O O10 0.500000 0.500000 0.000000
O O11 0.947926 0.876009 0.694366
O O12 0.038365 0.831326 0.351423
O O13 0.227143 0.056411 0.534169
O O14 0.984337 0.783422 0.087420
O O15 0.286671 0.968726 0.942263
O O16 0.000000 0.000000 0.000000
#
# Coordination Sequence:
#
# PCOD9103991 Si02
#       7
#     2   2   2   2   2   2   2
#     4  10  24  44  71  98 144 188 234 293 359 417
#     4  12  23  41  72 105 143 187 242 295 361 425
#     4  12  30  44  72 112 146 188 249 296 360 440
#     4  10  20  38  71 104 141 190 239 284 362 425
#     4  10  22  40  73  96 139 191 233 285 366 415
#     4  11  22  44  74 106 146 189 237 296 361 427
#     4   9  21  38  69 106 140 190 235 289 357 431
#
# _framework density 23.402998
#
# number of rings (size 3 to 8) (size 9 to 14) (size 15 to 20)
#    0.000    1.429    2.857    0.857   14.000    1.143 
#    0.000    2.857    0.000    0.000    0.000    0.000 
#    0.000    0.000    0.000    0.000    0.000    0.000 
#
# Total GULP energy -78095.224321 kJ/mol
# GULP energy per Si atom -5578.230309 kJ/mol
# Density = 2.334973 g / cm^3
# Si number density = 23.402998 Si / 1000 Ang^3
#
#
#
# Elastic Constant Matrix: (Units=GPa)
#
#
# Indices 1 2 3 4 5 6 
#
# 1 100.2733 41.9419 25.0269 3.0130 6.5564 -9.8517
# 2 41.9419 182.5731 31.5376 53.4425 -5.4924 -31.8467
# 3 25.0269 31.5376 101.8447 11.7425 14.4643 3.3769
# 4 3.0130 53.4425 11.7425 37.3983 -4.5570 5.9461
# 5 6.5564 -5.4924 14.4643 -4.5570 22.2429 -4.5111
# 6 -9.8517 -31.8467 3.3769 5.9461 -4.5111 32.0522
#
#
#
# Elastic Compliance Matrix: (Units=1/GPa)
#
#
# Indices 1 2 3 4 5 6 
#
# 1 0.012263 -0.005199 -0.001706 0.007088 -0.002934 -0.002944
# 2 -0.005199 0.022753 -0.003980 -0.034414 0.008574 0.029019
# 3 -0.001706 -0.003980 0.012955 0.001734 -0.010087 -0.007585
# 4 0.007088 -0.034414 0.001734 0.081870 -0.004686 -0.048045
# 5 -0.002934 0.008574 -0.010087 -0.004686 0.057106 0.017586
# 6 -0.002944 0.029019 -0.007585 -0.048045 0.017586 0.071315
#
#
# Mechanical properties :
#
#
# Convention : Reuss Voigt Hill
#
# Bulk Modulus (GPa) = 38.16870 64.63376 51.40123
# Shear Modulus (GPa) = 17.31510 37.41765 27.36638
#
# Velocity S-wave (km/s) = 2.72300 4.00289 3.42329
# Velocity P-wave (km/s) = 5.12162 7.00299 6.13485
#
# Compressibility (1/GPa) = 0.02619948
#
# Stress axis : x y z
#
# Youngs Moduli (GPa) = 81.54753 43.95099 77.19109
#
# Poissons Ratio (x) = 0.22850 0.13172
# Poissons Ratio (y) = 0.42396 0.30723
# Poissons Ratio (z) = 0.13915 0.17493
#
# Static dielectric constant tensor:
#      x y z
#    x 1.803180 -0.121000 0.094180 
#    y -0.121000 1.935520 0.094080 
#    z 0.094180 0.094080 1.721960 
# 
# From -- ./inp_files/190599.got.cif
#   From: 2010.05.17/outbox.cif.g08.bks.cpg/sg2_96_cif.got.tgz:190599.got - 2010.06.03 11:33:40.
