data_PCOD9103289
_publ_section_title
;
Structure prediction by ZEFSAII (Michael W. Deem and Ramdas Pophale) SiO2 
 PCOD9103289
Probable space group: P -1
;
_chemical_formula_sum "Si O2"
_cell_formula_units_Z 16
_cell_length_a 14.059211
_cell_length_b 13.112635
_cell_length_c 12.313079
_cell_angle_alpha 119.845772
_cell_angle_beta 39.807790
_cell_angle_gamma 147.849808
_cell_volume 691.270505
_symmetry_space_group_name_H-M "P -1"
_symmetry_group_IT_number 2
_symmetry_cell_setting 'triclinic'
loop_
_space_group_symop_operation_xyz
x,y,z
-x,-y,-z
loop_
_atom_site_type_symbol
_atom_site_label
_atom_site_fract_x
_atom_site_fract_y
_atom_site_fract_z
Si Si1 0.673408 0.265818 0.148638
Si Si2 0.244092 0.995846 0.987028
Si Si3 0.218318 0.261221 0.161853
Si Si4 0.828520 0.004766 0.185036
Si Si5 0.253004 0.746842 0.170918
Si Si6 0.899525 0.085641 0.567324
Si Si7 0.307843 0.670705 0.606701
Si Si8 0.787313 0.644525 0.363166
O O1 0.612771 0.191780 0.289413
O O2 0.402641 0.169578 0.316070
O O3 0.673836 0.205684 0.996705
O O4 0.000000 0.500000 0.000000
O O5 0.507198 0.136114 0.899792
O O6 0.219006 0.952835 0.859046
O O7 0.227184 0.126005 0.075179
O O8 0.987960 0.769899 0.152107
O O9 0.003286 0.172098 0.218362
O O10 0.107844 0.208345 0.351581
O O11 0.500000 0.500000 0.000000
O O12 0.535973 0.794405 0.384244
O O13 0.000000 0.000000 0.000000
O O14 0.174002 0.824488 0.319045
O O15 0.979455 0.487990 0.278964
O O16 0.053401 0.168381 0.590073
O O17 0.259073 0.512931 0.625904
O O18 0.500000 0.500000 0.500000
#
# Coordination Sequence:
#
# PCOD9103289 Si02
#       8
#     2   2   2   2   2   2   2   2
#     4  10  20  38  65  95 132 173 217 268 330 398
#     4  11  25  43  66  97 137 167 224 278 326 394
#     4  11  26  45  67  94 131 181 223 270 330 395
#     4  10  22  43  65  89 133 178 218 265 331 401
#     4  10  23  41  66  99 131 174 215 276 334 392
#     4  11  23  42  71  94 138 176 223 267 342 397
#     4  10  22  41  68  94 133 180 217 268 340 398
#     4  11  24  38  65 101 133 174 219 275 332 391
#
# _framework density 23.145786000000001
#
# number of rings (size 3 to 8) (size 9 to 14) (size 15 to 20)
#    0.000    1.500    2.500    1.875   12.250    2.000 
#    0.000    0.625    0.000    0.000    0.000    0.000 
#    0.000    0.000    0.000    0.000    0.000    0.000 
#
# Total GULP energy -89192.500339 kJ/mol
# GULP energy per Si atom -5574.531271 kJ/mol
# Density = 2.309310 g / cm^3
# Si number density = 23.145786 Si / 1000 Ang^3
#
#
#
# Elastic Constant Matrix: (Units=GPa)
#
#
# Indices 1 2 3 4 5 6 
#
# 1 157.5473 43.4006 56.7917 -19.0488 -0.8352 33.0708
# 2 43.4006 64.9282 24.4478 -21.7109 -1.0604 22.5235
# 3 56.7917 24.4478 153.3224 -34.5150 16.4231 8.4627
# 4 -19.0488 -21.7109 -34.5150 43.8917 3.8700 -9.5995
# 5 -0.8352 -1.0604 16.4231 3.8700 46.2045 -10.9216
# 6 33.0708 22.5235 8.4627 -9.5995 -10.9216 44.9546
#
#
#
# Elastic Compliance Matrix: (Units=1/GPa)
#
#
# Indices 1 2 3 4 5 6 
#
# 1 0.009262 -0.003940 -0.002823 -0.001148 0.000106 -0.004528
# 2 -0.003940 0.023394 0.000327 0.008656 -0.002163 -0.007561
# 3 -0.002823 0.000327 0.009424 0.006830 -0.003806 0.000672
# 4 -0.001148 0.008656 0.006830 0.032580 -0.004735 0.001029
# 5 0.000106 -0.002163 -0.003806 -0.004735 0.024945 0.006771
# 6 -0.004528 -0.007561 0.000672 0.001029 0.006771 0.031102
#
#
# Mechanical properties :
#
#
# Convention : Reuss Voigt Hill
#
# Bulk Modulus (GPa) = 34.23659 69.45312 51.84486
# Shear Modulus (GPa) = 32.61250 43.75401 38.18325
#
# Velocity S-wave (km/s) = 3.75774 4.35255 4.06604
# Velocity P-wave (km/s) = 5.80098 7.43852 6.67019
#
# Compressibility (1/GPa) = 0.02920851
#
# Stress axis : x y z
#
# Youngs Moduli (GPa) = 107.96471 42.74532 106.11596
#
# Poissons Ratio (x) = 0.16842 0.29951
# Poissons Ratio (y) = 0.42539 -0.03467
# Poissons Ratio (z) = 0.30473 -0.01396
#
# Static dielectric constant tensor:
#      x y z
#    x 1.877820 0.000700 -0.002600 
#    y 0.000700 2.146730 0.002530 
#    z -0.002600 0.002530 1.932630 
# 
# From -- ./inp_files/455807.got.cif
#   From: 2010.05.17/outbox.cif.g08.bks.cpg/sg2_228_cif.got.tgz:455807.got - 2010.06.03 11:33:40.
