data_PCOD9103323
_publ_section_title
;
Structure prediction by ZEFSAII (Michael W. Deem and Ramdas Pophale) SiO2 
 PCOD9103323
Probable space group: P -1
;
_chemical_formula_sum "Si O2"
_cell_formula_units_Z 14
_cell_length_a 15.522060
_cell_length_b 6.071606
_cell_length_c 7.961498
_cell_angle_alpha 86.502936
_cell_angle_beta 62.362452
_cell_angle_gamma 109.070288
_cell_volume 607.648307
_symmetry_space_group_name_H-M "P -1"
_symmetry_group_IT_number 2
_symmetry_cell_setting 'triclinic'
loop_
_space_group_symop_operation_xyz
x,y,z
-x,-y,-z
loop_
_atom_site_type_symbol
_atom_site_label
_atom_site_fract_x
_atom_site_fract_y
_atom_site_fract_z
Si Si1 0.196830 0.402444 0.559427
Si Si2 0.009988 0.932039 0.683274
Si Si3 0.110447 0.686975 0.814565
Si Si4 0.376014 0.250683 0.287926
Si Si5 0.266154 0.786028 0.201987
Si Si6 0.803256 0.913385 0.001530
Si Si7 0.613674 0.466295 0.084571
O O1 0.196396 0.579166 0.699673
O O2 0.288967 0.304174 0.471448
O O3 0.203197 0.539542 0.370040
O O4 0.082903 0.185025 0.689468
O O5 0.073688 0.767332 0.669346
O O6 0.895661 0.825311 0.876917
O O7 0.000000 0.000000 0.500000
O O8 0.161949 0.914682 0.878289
O O9 0.000000 0.500000 0.000000
O O10 0.492335 0.341284 0.258602
O O11 0.334714 0.976672 0.272624
O O12 0.386452 0.401767 0.099306
O O13 0.201766 0.914872 0.155689
O O14 0.338575 0.727492 0.001118
O O15 0.692967 0.681422 0.116983
#
# Coordination Sequence:
#
# PCOD9103323 Si02
#       7
#     2   2   2   2   2   2   2
#     4  11  23  39  64  90 133 168 214 266 315 380
#     4  12  25  42  66  94 127 165 219 269 321 379
#     4  12  27  43  63  94 131 180 212 259 322 386
#     4   9  18  37  60  97 126 169 215 265 321 372
#     4  10  20  38  65  98 126 167 214 268 316 386
#     4  11  24  39  62  96 130 166 220 258 324 382
#     4   9  19  35  64  92 132 165 212 271 317 379
#
# _framework density 23.039643000000002
#
# number of rings (size 3 to 8) (size 9 to 14) (size 15 to 20)
#    0.000    1.429    1.429    5.143    4.000    2.286 
#    0.000    0.714    0.000    4.286    0.000    0.000 
#    0.000    0.000    0.000    0.000    0.000    0.000 
#
# Total GULP energy -78291.367506 kJ/mol
# GULP energy per Si atom -5592.240536 kJ/mol
# Density = 2.298720 g / cm^3
# Si number density = 23.039643 Si / 1000 Ang^3
#
#
#
# Elastic Constant Matrix: (Units=GPa)
#
#
# Indices 1 2 3 4 5 6 
#
# 1 95.2317 49.8016 40.7161 1.3673 -15.3071 15.9745
# 2 49.8016 101.2458 29.9490 20.8915 -11.2269 14.3128
# 3 40.7161 29.9490 65.0499 13.2785 -1.7425 10.9186
# 4 1.3673 20.8915 13.2785 43.8178 -10.0033 4.1528
# 5 -15.3071 -11.2269 -1.7425 -10.0033 29.9817 -4.1870
# 6 15.9745 14.3128 10.9186 4.1528 -4.1870 35.3656
#
#
#
# Elastic Compliance Matrix: (Units=1/GPa)
#
#
# Indices 1 2 3 4 5 6 
#
# 1 0.020853 -0.007381 -0.010645 0.008596 0.009713 -0.003006
# 2 -0.007381 0.015337 -0.000745 -0.006814 -0.000609 -0.001915
# 3 -0.010645 -0.000745 0.024221 -0.008109 -0.007331 -0.002284
# 4 0.008596 -0.006814 -0.008109 0.030988 0.011581 -0.000889
# 5 0.009713 -0.000609 -0.007331 0.011581 0.041761 0.001707
# 6 -0.003006 -0.001915 -0.002284 -0.000889 0.001707 0.031420
#
#
# Mechanical properties :
#
#
# Convention : Reuss Voigt Hill
#
# Bulk Modulus (GPa) = 43.72530 55.82896 49.77713
# Shear Modulus (GPa) = 23.83846 31.23706 27.53776
#
# Velocity S-wave (km/s) = 3.22012 3.68611 3.46097
# Velocity P-wave (km/s) = 5.73106 6.51159 6.13375
#
# Compressibility (1/GPa) = 0.02287006
#
# Stress axis : x y z
#
# Youngs Moduli (GPa) = 47.95365 65.20133 41.28649
#
# Poissons Ratio (x) = 0.48123 0.43948
# Poissons Ratio (y) = 0.35393 0.03078
# Poissons Ratio (z) = 0.51045 0.04860
#
# Static dielectric constant tensor:
#      x y z
#    x 1.855680 -0.015230 0.023710 
#    y -0.015230 1.888860 -0.004680 
#    z 0.023710 -0.004680 1.864250 
# 
# From -- ./inp_files/27031.got.cif
#   From: 2010.05.17/outbox.cif.g08.bks.cpg/sg2_14_cif.got.tgz:27031.got - 2010.06.03 11:33:40.
