data_PCOD9103966
_publ_section_title
;
Structure prediction by ZEFSAII (Michael W. Deem and Ramdas Pophale) SiO2 
 PCOD9103966
Probable space group: P -1
;
_chemical_formula_sum "Si O2"
_cell_formula_units_Z 16
_cell_length_a 11.815706
_cell_length_b 12.144346
_cell_length_c 9.470062
_cell_angle_alpha 54.842871
_cell_angle_beta 131.033815
_cell_angle_gamma 106.685534
_cell_volume 828.898017
_symmetry_space_group_name_H-M "P -1"
_symmetry_group_IT_number 2
_symmetry_cell_setting 'triclinic'
loop_
_space_group_symop_operation_xyz
x,y,z
-x,-y,-z
loop_
_atom_site_type_symbol
_atom_site_label
_atom_site_fract_x
_atom_site_fract_y
_atom_site_fract_z
Si Si1 0.177926 0.274137 0.972426
Si Si2 0.182155 0.610237 0.111724
Si Si3 0.485089 0.605626 0.279046
Si Si4 0.652887 0.508520 0.205408
Si Si5 0.839516 0.702270 0.723072
Si Si6 0.560650 0.886056 0.247366
Si Si7 0.820515 0.258775 0.680872
Si Si8 0.369151 0.987550 0.288522
O O1 0.237700 0.399200 0.849730
O O2 0.001441 0.258161 0.819237
O O3 0.202986 0.290944 0.149616
O O4 0.275045 0.137411 0.093550
O O5 0.307232 0.619707 0.087775
O O6 0.180419 0.447094 0.245525
O O7 0.219304 0.677267 0.242113
O O8 0.020683 0.691826 0.874162
O O9 0.500000 0.500000 0.500000
O O10 0.593160 0.567662 0.264538
O O11 0.512121 0.747853 0.255508
O O12 0.741971 0.361019 0.423059
O O13 0.500000 0.500000 0.000000
O O14 0.737999 0.831558 0.470950
O O15 0.466714 0.935322 0.271841
O O16 0.500000 0.000000 0.000000
O O17 0.750396 0.119090 0.707939
O O18 0.500000 0.000000 0.500000
#
# Coordination Sequence:
#
# PCOD9103966 Si02
#       8
#     2   2   2   2   2   2   2   2
#     4  11  24  41  65  94 136 172 218 270 328 392
#     4  10  20  38  70  94 123 171 216 266 321 397
#     4  12  21  41  67  92 129 169 217 266 321 391
#     4  12  24  39  66 105 130 164 222 280 324 380
#     4  10  21  40  65  97 129 170 214 265 336 387
#     4  12  24  40  64  95 129 169 217 271 322 385
#     4  11  23  42  65  95 131 175 216 268 334 390
#     4  12  23  42  66  94 130 178 221 261 326 399
#
# _framework density 19.302735999999999
#
# number of rings (size 3 to 8) (size 9 to 14) (size 15 to 20)
#    0.000    0.750    5.000    3.000    0.000    0.000 
#    0.000    4.375    0.000    0.000    0.000    0.000 
#    0.000    0.000    0.000    0.000    0.000    0.000 
#
# Total GULP energy -89231.977219 kJ/mol
# GULP energy per Si atom -5576.998576 kJ/mol
# Density = 1.925880 g / cm^3
# Si number density = 19.302736 Si / 1000 Ang^3
#
#
#
# Elastic Constant Matrix: (Units=GPa)
#
#
# Indices 1 2 3 4 5 6 
#
# 1 76.1528 0.6271 25.7497 0.9314 6.5252 4.9484
# 2 0.6271 88.9114 28.0931 -1.2978 -11.7886 4.0169
# 3 25.7497 28.0931 122.6937 -8.9809 8.8390 9.6381
# 4 0.9314 -1.2978 -8.9809 32.5100 -1.5041 5.5382
# 5 6.5252 -11.7886 8.8390 -1.5041 32.9976 -1.3076
# 6 4.9484 4.0169 9.6381 5.5382 -1.3076 35.8678
#
#
#
# Elastic Compliance Matrix: (Units=1/GPa)
#
#
# Indices 1 2 3 4 5 6 
#
# 1 0.014399 0.000636 -0.003022 -0.001116 -0.001907 -0.001143
# 2 0.000636 0.013090 -0.003505 -0.000144 0.005468 -0.000390
# 3 -0.003022 -0.003505 0.010252 0.003056 -0.003362 -0.002540
# 4 -0.001116 -0.000144 0.003056 0.032624 0.000613 -0.005666
# 5 -0.001907 0.005468 -0.003362 0.000613 0.033631 0.001686
# 6 -0.001143 -0.000390 -0.002540 -0.005666 0.001686 0.029700
#
#
# Mechanical properties :
#
#
# Convention : Reuss Voigt Hill
#
# Bulk Modulus (GPa) = 38.51960 44.07753 41.29856
# Shear Modulus (GPa) = 32.43953 35.82758 34.13355
#
# Velocity S-wave (km/s) = 4.10392 4.31291 4.20971
# Velocity P-wave (km/s) = 6.51575 6.90551 6.71346
#
# Compressibility (1/GPa) = 0.02596081
#
# Stress axis : x y z
#
# Youngs Moduli (GPa) = 69.44720 76.39145 97.53720
#
# Poissons Ratio (x) = -0.04857 0.29477
# Poissons Ratio (y) = -0.04416 0.34182
# Poissons Ratio (z) = 0.20988 0.26772
#
# Static dielectric constant tensor:
#      x y z
#    x 1.689220 0.041620 0.066690 
#    y 0.041620 1.672670 0.054590 
#    z 0.066690 0.054590 1.747700 
# 
# From -- ./inp_files/261824.got.cif
#   From: 2010.05.17/outbox.cif.g08.bks.cpg/sg2_131_cif.got.tgz:261824.got - 2010.06.03 11:33:40.
