data_PCOD9103955
_publ_section_title
;
Structure prediction by ZEFSAII (Michael W. Deem and Ramdas Pophale) SiO2 
 PCOD9103955
Probable space group: P -1
;
_chemical_formula_sum "Si O2"
_cell_formula_units_Z 16
_cell_length_a 10.791263
_cell_length_b 14.315438
_cell_length_c 5.564478
_cell_angle_alpha 87.569034
_cell_angle_beta 115.521019
_cell_angle_gamma 108.050365
_cell_volume 733.389671
_symmetry_space_group_name_H-M "P -1"
_symmetry_group_IT_number 2
_symmetry_cell_setting 'triclinic'
loop_
_space_group_symop_operation_xyz
x,y,z
-x,-y,-z
loop_
_atom_site_type_symbol
_atom_site_label
_atom_site_fract_x
_atom_site_fract_y
_atom_site_fract_z
Si Si1 0.095243 0.708270 0.713102
Si Si2 0.173707 0.388738 0.771058
Si Si3 0.829938 0.444539 0.914759
Si Si4 0.583627 0.679110 0.158084
Si Si5 0.110335 0.898740 0.460736
Si Si6 0.794791 0.881186 0.430115
Si Si7 0.446806 0.590354 0.537960
Si Si8 0.079770 0.208493 0.072530
O O1 0.163520 0.810144 0.613926
O O2 0.986740 0.626602 0.460922
O O3 0.185759 0.658232 0.955364
O O4 0.982010 0.734943 0.789142
O O5 0.295925 0.376909 0.697941
O O6 0.150440 0.292530 0.929930
O O7 0.222693 0.486355 0.956319
O O8 0.727479 0.434123 0.600591
O O9 0.000000 0.500000 0.000000
O O10 0.668730 0.796535 0.203216
O O11 0.495202 0.661741 0.335879
O O12 0.508946 0.634496 0.845969
O O13 0.059999 0.874095 0.147172
O O14 0.953022 0.889879 0.448777
O O15 0.212822 0.009004 0.580332
O O16 0.811032 0.840693 0.714275
O O17 0.500000 0.500000 0.500000
#
# Coordination Sequence:
#
# PCOD9103955 Si02
#       8
#     2   2   2   2   2   2   2   2
#     4  10  21  36  57  92 129 160 218 268 325 381
#     4  11  21  36  64  93 132 171 212 266 332 391
#     4  12  26  42  68  93 126 178 222 271 327 389
#     4  12  24  44  67  94 140 177 212 269 337 394
#     4   9  19  32  55  97 123 165 213 275 322 376
#     4  10  19  32  60  89 132 164 214 263 333 382
#     4  12  29  45  67  96 136 175 225 266 330 400
#     4  10  16  33  53  94 130 163 207 275 322 383
#
# _framework density 21.816506
#
# number of rings (size 3 to 8) (size 9 to 14) (size 15 to 20)
#    0.000    1.250    6.250    1.875    1.750    1.000 
#    0.000    0.000    0.000    1.500    0.000    0.000 
#    0.000    0.000    0.000    0.000    0.000    0.000 
#
# Total GULP energy -89292.200789 kJ/mol
# GULP energy per Si atom -5580.762549 kJ/mol
# Density = 2.176685 g / cm^3
# Si number density = 21.816506 Si / 1000 Ang^3
#
#
#
# Elastic Constant Matrix: (Units=GPa)
#
#
# Indices 1 2 3 4 5 6 
#
# 1 43.2307 9.3941 15.1362 1.6128 7.1349 10.4371
# 2 9.3941 123.3075 64.7707 16.1389 15.5029 -9.5559
# 3 15.1362 64.7707 132.3294 7.8020 15.9799 0.1558
# 4 1.6128 16.1389 7.8020 28.8141 -2.3884 0.8787
# 5 7.1349 15.5029 15.9799 -2.3884 34.1691 -5.8617
# 6 10.4371 -9.5559 0.1558 0.8787 -5.8617 20.8719
#
#
#
# Elastic Compliance Matrix: (Units=1/GPa)
#
#
# Indices 1 2 3 4 5 6 
#
# 1 0.029648 -0.001824 -0.001526 -0.000323 -0.007727 -0.017806
# 2 -0.001824 0.012595 -0.005358 -0.005874 -0.002147 0.006363
# 3 -0.001526 -0.005358 0.010677 0.000051 -0.002673 -0.002523
# 4 -0.000323 -0.005874 0.000051 0.038492 0.004924 -0.002766
# 5 -0.007727 -0.002147 -0.002673 0.004924 0.035627 0.012699
# 6 -0.017806 0.006363 -0.002523 -0.002766 0.012699 0.063430
#
#
# Mechanical properties :
#
#
# Convention : Reuss Voigt Hill
#
# Bulk Modulus (GPa) = 28.16469 53.05219 40.60844
# Shear Modulus (GPa) = 22.75645 30.74214 26.74929
#
# Velocity S-wave (km/s) = 3.23319 3.75790 3.50537
# Velocity P-wave (km/s) = 5.18419 6.57262 5.91925
#
# Compressibility (1/GPa) = 0.03550545
#
# Stress axis : x y z
#
# Youngs Moduli (GPa) = 33.72884 79.39644 93.66117
#
# Poissons Ratio (x) = 0.14478 0.14289
# Poissons Ratio (y) = 0.06150 0.50185
# Poissons Ratio (z) = 0.05146 0.42542
#
# Static dielectric constant tensor:
#      x y z
#    x 1.845010 0.076450 -0.039960 
#    y 0.076450 1.843340 -0.005310 
#    z -0.039960 -0.005310 1.909060 
# 
# From -- ./inp_files/76216.got.cif
#   From: 2010.05.17/outbox.cif.g08.bks.cpg/sg2_39_cif.got.tgz:76216.got - 2010.06.03 11:33:40.
