data_PCOD9103835
_publ_section_title
;
Structure prediction by ZEFSAII (Michael W. Deem and Ramdas Pophale) SiO2 
 PCOD9103835
Probable space group: P -1
;
_chemical_formula_sum "Si O2"
_cell_formula_units_Z 16
_cell_length_a 11.916886
_cell_length_b 11.529455
_cell_length_c 9.091546
_cell_angle_alpha 56.588850
_cell_angle_beta 69.154344
_cell_angle_gamma 37.656613
_cell_volume 629.112654
_symmetry_space_group_name_H-M "P -1"
_symmetry_group_IT_number 2
_symmetry_cell_setting 'triclinic'
loop_
_space_group_symop_operation_xyz
x,y,z
-x,-y,-z
loop_
_atom_site_type_symbol
_atom_site_label
_atom_site_fract_x
_atom_site_fract_y
_atom_site_fract_z
Si Si1 0.337514 0.772437 0.279393
Si Si2 0.766916 0.579510 0.061684
Si Si3 0.419634 0.502577 0.178484
Si Si4 0.645219 0.813404 0.679738
Si Si5 0.334603 0.896797 0.475411
Si Si6 0.919143 0.382178 0.687628
Si Si7 0.155263 0.219228 0.950097
Si Si8 0.088774 0.743613 0.531306
O O1 0.441558 0.601980 0.221506
O O2 0.442648 0.730357 0.405594
O O3 0.190349 0.788166 0.390147
O O4 0.246630 0.995466 0.113636
O O5 0.805692 0.416360 0.266810
O O6 0.957533 0.412213 0.992815
O O7 0.620272 0.730121 0.889206
O O8 0.742070 0.731824 0.078983
O O9 0.544423 0.259229 0.334217
O O10 0.206032 0.637797 0.179208
O O11 0.500000 0.500000 0.000000
O O12 0.802906 0.615248 0.636798
O O13 0.500000 0.000000 0.500000
O O14 0.694570 0.914589 0.666268
O O15 0.124301 0.029633 0.492678
O O16 0.924627 0.353642 0.531227
O O17 0.111283 0.233248 0.788405
#
# Coordination Sequence:
#
# PCOD9103835 Si02
#       8
#     2   2   2   2   2   2   2   2
#     4  11  24  44  69  97 139 177 225 287 337 399
#     4  10  20  40  66 103 131 174 226 275 337 406
#     4  11  27  44  64  96 138 183 226 274 346 415
#     4  11  22  44  71  93 140 183 223 282 343 403
#     4  12  23  43  68  99 134 182 225 279 349 399
#     4  10  24  42  67  99 141 172 224 288 341 390
#     4  10  20  38  68  97 131 179 223 281 330 394
#     4  11  24  40  70 107 134 174 230 286 333 407
#
# _framework density 25.432648
#
# number of rings (size 3 to 8) (size 9 to 14) (size 15 to 20)
#    0.000    1.250    3.750    2.250    3.500    4.000 
#    0.000    0.625    0.000    0.000    0.000    0.000 
#    0.000    0.000    0.000    0.000    0.000    0.000 
#
# Total GULP energy -89426.528759 kJ/mol
# GULP energy per Si atom -5589.158047 kJ/mol
# Density = 2.537476 g / cm^3
# Si number density = 25.432648 Si / 1000 Ang^3
#
#
#
# Elastic Constant Matrix: (Units=GPa)
#
#
# Indices 1 2 3 4 5 6 
#
# 1 51.3303 18.3255 17.0641 7.5599 13.2647 9.6355
# 2 18.3255 104.7032 30.4460 8.1832 1.8416 33.4934
# 3 17.0641 30.4460 134.2980 -5.8767 26.4212 -1.8496
# 4 7.5599 8.1832 -5.8767 50.5091 5.6906 2.2977
# 5 13.2647 1.8416 26.4212 5.6906 43.5518 1.3798
# 6 9.6355 33.4934 -1.8496 2.2977 1.3798 42.1401
#
#
#
# Elastic Compliance Matrix: (Units=1/GPa)
#
#
# Indices 1 2 3 4 5 6 
#
# 1 0.023229 -0.002318 -0.001465 -0.002488 -0.005661 -0.003212
# 2 -0.002318 0.014908 -0.003967 -0.002364 0.003154 -0.011467
# 3 -0.001465 -0.003967 0.009837 0.002480 -0.005803 0.003975
# 4 -0.002488 -0.002364 0.002480 0.021163 -0.003460 0.001516
# 5 -0.005661 0.003154 -0.005803 -0.003460 0.028595 -0.002215
# 6 -0.003212 -0.011467 0.003975 0.001516 -0.002215 0.033743
#
#
# Mechanical properties :
#
#
# Convention : Reuss Voigt Hill
#
# Bulk Modulus (GPa) = 30.79550 46.88920 38.84235
# Shear Modulus (GPa) = 31.68594 42.20661 36.94628
#
# Velocity S-wave (km/s) = 3.53353 4.07817 3.81558
# Velocity P-wave (km/s) = 5.36495 6.37589 5.89214
#
# Compressibility (1/GPa) = 0.03247228
#
# Stress axis : x y z
#
# Youngs Moduli (GPa) = 43.05036 67.08030 101.66084
#
# Poissons Ratio (x) = 0.15548 0.14897
# Poissons Ratio (y) = 0.09978 0.40329
# Poissons Ratio (z) = 0.06309 0.26611
#
# Static dielectric constant tensor:
#      x y z
#    x 2.182600 0.013890 0.028500 
#    y 0.013890 2.000470 0.024880 
#    z 0.028500 0.024880 2.029690 
# 
# From -- ./inp_files/306492.got.cif
#   From: 2010.05.17/outbox.cif.g08.bks.cpg/sg2_154_cif.got.tgz:306492.got - 2010.06.03 11:33:40.
