data_PCOD9103474
_publ_section_title
;
Structure prediction by ZEFSAII (Michael W. Deem and Ramdas Pophale) SiO2 
 PCOD9103474
Probable space group: P -1
;
_chemical_formula_sum "Si O2"
_cell_formula_units_Z 16
_cell_length_a 9.900219
_cell_length_b 9.147677
_cell_length_c 13.215298
_cell_angle_alpha 101.657150
_cell_angle_beta 46.348193
_cell_angle_gamma 82.921514
_cell_volume 787.670694
_symmetry_space_group_name_H-M "P -1"
_symmetry_group_IT_number 2
_symmetry_cell_setting 'triclinic'
loop_
_space_group_symop_operation_xyz
x,y,z
-x,-y,-z
loop_
_atom_site_type_symbol
_atom_site_label
_atom_site_fract_x
_atom_site_fract_y
_atom_site_fract_z
Si Si1 0.218219 0.365276 0.880014
Si Si2 0.740166 0.925115 0.865149
Si Si3 0.267511 0.370298 0.298537
Si Si4 0.959930 0.848412 0.955956
Si Si5 0.488399 0.561648 0.128019
Si Si6 0.103974 0.874778 0.339740
Si Si7 0.298787 0.514147 0.667935
Si Si8 0.900547 0.636028 0.413306
O O1 0.317064 0.407774 0.933856
O O2 0.342329 0.389880 0.722907
O O3 0.000000 0.500000 0.000000
O O4 0.175179 0.205541 0.901700
O O5 0.775581 0.763195 0.762587
O O6 0.835712 0.893040 0.921928
O O7 0.832531 0.035182 0.770596
O O8 0.500000 0.000000 0.000000
O O9 0.458557 0.418544 0.186770
O O10 0.269704 0.321910 0.407072
O O11 0.090476 0.528729 0.368502
O O12 0.164685 0.693435 0.802963
O O13 0.000000 0.000000 0.000000
O O14 0.305956 0.733290 0.255067
O O15 0.500000 0.500000 0.000000
O O16 0.955323 0.785387 0.370091
O O17 0.000000 0.000000 0.500000
O O18 0.500000 0.500000 0.500000
O O19 0.156129 0.460655 0.658885
#
# Coordination Sequence:
#
# PCOD9103474 Si02
#       8
#     2   2   2   2   2   2   2   2
#     4  10  24  43  67  93 135 172 222 267 327 395
#     4  12  24  41  66  98 134 170 217 269 331 389
#     4  10  20  38  66  93 128 163 214 272 321 382
#     4  11  26  46  64  94 138 175 216 269 334 390
#     4  11  23  40  68  98 127 170 225 269 323 387
#     4  11  24  40  65  99 136 166 210 277 334 383
#     4  11  24  44  71  96 127 174 228 268 325 397
#     4  10  21  39  66  93 125 169 216 265 325 385
#
# _framework density 20.313058999999999
#
# number of rings (size 3 to 8) (size 9 to 14) (size 15 to 20)
#    0.000    1.250    2.500    3.000    7.000    5.000 
#    2.250    0.625    0.000    0.000    0.000    0.000 
#    0.000    0.000    0.000    0.000    0.000    0.000 
#
# Total GULP energy -89285.975024 kJ/mol
# GULP energy per Si atom -5580.373439 kJ/mol
# Density = 2.026683 g / cm^3
# Si number density = 20.313059 Si / 1000 Ang^3
#
#
#
# Elastic Constant Matrix: (Units=GPa)
#
#
# Indices 1 2 3 4 5 6 
#
# 1 81.3400 44.1643 25.5841 6.9701 4.8792 14.5345
# 2 44.1643 159.2861 67.3035 -28.0146 3.3746 25.7611
# 3 25.5841 67.3035 109.6549 -19.2479 1.8993 5.4548
# 4 6.9701 -28.0146 -19.2479 46.0452 6.1537 3.1504
# 5 4.8792 3.3746 1.8993 6.1537 28.4439 -3.0636
# 6 14.5345 25.7611 5.4548 3.1504 -3.0636 35.7885
#
#
#
# Elastic Compliance Matrix: (Units=1/GPa)
#
#
# Indices 1 2 3 4 5 6 
#
# 1 0.016230 -0.004068 -0.002070 -0.005417 -0.001312 -0.002983
# 2 -0.004068 0.011713 -0.004699 0.006587 -0.002542 -0.006861
# 3 -0.002070 -0.004699 0.012874 0.002744 -0.000326 0.001991
# 4 -0.005417 0.006587 0.002744 0.029043 -0.006977 -0.006114
# 5 -0.001312 -0.002542 -0.000326 -0.006977 0.037890 0.006270
# 6 -0.002983 -0.006861 0.001991 -0.006114 0.006270 0.034863
#
#
# Mechanical properties :
#
#
# Convention : Reuss Voigt Hill
#
# Bulk Modulus (GPa) = 52.23260 69.37608 60.80434
# Shear Modulus (GPa) = 29.29661 36.27082 32.78371
#
# Velocity S-wave (km/s) = 3.80182 4.23021 4.02172
# Velocity P-wave (km/s) = 6.71129 7.62149 7.18083
#
# Compressibility (1/GPa) = 0.01914513
#
# Stress axis : x y z
#
# Youngs Moduli (GPa) = 61.61513 85.37418 77.67297
#
# Poissons Ratio (x) = 0.34730 0.16075
# Poissons Ratio (y) = 0.25065 0.36495
# Poissons Ratio (z) = 0.12752 0.40113
#
# Static dielectric constant tensor:
#      x y z
#    x 1.691880 -0.011750 -0.017910 
#    y -0.011750 1.711640 -0.048460 
#    z -0.017910 -0.048460 1.791320 
# 
# From -- ./inp_files/382506.got.cif
#   From: 2010.05.17/outbox.cif.g08.bks.cpg/sg2_192_cif.got.tgz:382506.got - 2010.06.03 11:33:40.
