data_PCOD9103957
_publ_section_title
;
Structure prediction by ZEFSAII (Michael W. Deem and Ramdas Pophale) SiO2 
 PCOD9103957
Probable space group: P -1
;
_chemical_formula_sum "Si O2"
_cell_formula_units_Z 16
_cell_length_a 11.467900
_cell_length_b 9.988234
_cell_length_c 10.460474
_cell_angle_alpha 136.274981
_cell_angle_beta 117.809370
_cell_angle_gamma 82.244997
_cell_volume 691.304518
_symmetry_space_group_name_H-M "P -1"
_symmetry_group_IT_number 2
_symmetry_cell_setting 'triclinic'
loop_
_space_group_symop_operation_xyz
x,y,z
-x,-y,-z
loop_
_atom_site_type_symbol
_atom_site_label
_atom_site_fract_x
_atom_site_fract_y
_atom_site_fract_z
Si Si1 0.071047 0.065047 0.285224
Si Si2 0.357888 0.450319 0.047184
Si Si3 0.062448 0.335809 0.229449
Si Si4 0.904129 0.230152 0.499332
Si Si5 0.432608 0.751511 0.079587
Si Si6 0.654973 0.053900 0.058715
Si Si7 0.653097 0.600983 0.704324
Si Si8 0.260866 0.044808 0.570400
O O1 0.988014 0.091279 0.386913
O O2 0.055464 0.236893 0.297759
O O3 0.221615 0.083506 0.433098
O O4 0.010125 0.850612 0.032577
O O5 0.358670 0.638262 0.089405
O O6 0.335819 0.478285 0.202522
O O7 0.492649 0.588568 0.924129
O O8 0.255726 0.237536 0.789213
O O9 0.012265 0.530007 0.313979
O O10 0.225840 0.421400 0.336661
O O11 0.845396 0.158629 0.561098
O O12 0.766946 0.174108 0.301235
O O13 0.339512 0.825370 0.986139
O O14 0.576187 0.933231 0.314774
O O15 0.679964 0.842266 0.897928
O O16 0.500000 0.000000 0.000000
O O17 0.500000 0.500000 0.500000
#
# Coordination Sequence:
#
# PCOD9103957 Si02
#       8
#     2   2   2   2   2   2   2   2
#     4  11  25  47  66  94 135 174 222 269 322 396
#     4   9  19  38  57  99 127 167 221 253 334 384
#     4  11  27  44  65  99 133 170 225 271 327 391
#     4  12  23  42  71  96 126 177 221 267 330 388
#     4   9  20  34  65  97 124 170 219 265 320 398
#     4  12  19  39  64  97 130 164 218 262 324 392
#     4  12  24  38  66  97 135 173 211 279 331 383
#     4  10  20  38  70  91 129 170 218 269 322 383
#
# _framework density 23.144649000000001
#
# number of rings (size 3 to 8) (size 9 to 14) (size 15 to 20)
#    0.750    0.500    5.000    1.500    3.500    0.500 
#    0.000    1.875    0.000    0.000    0.000    0.000 
#    0.000    0.000    0.000    0.000    0.000    0.000 
#
# Total GULP energy -89457.092568 kJ/mol
# GULP energy per Si atom -5591.068285 kJ/mol
# Density = 2.309197 g / cm^3
# Si number density = 23.144649 Si / 1000 Ang^3
#
#
#
# Elastic Constant Matrix: (Units=GPa)
#
#
# Indices 1 2 3 4 5 6 
#
# 1 26.6228 -5.7670 3.7013 -2.1999 0.6627 -1.4549
# 2 -5.7670 142.2949 20.7705 -2.6563 -5.7453 10.6153
# 3 3.7013 20.7705 65.7419 6.4006 7.2568 -2.3519
# 4 -2.1999 -2.6563 6.4006 30.2668 -11.2027 1.0433
# 5 0.6627 -5.7453 7.2568 -11.2027 20.6672 2.7218
# 6 -1.4549 10.6153 -2.3519 1.0433 2.7218 24.8243
#
#
#
# Elastic Compliance Matrix: (Units=1/GPa)
#
#
# Indices 1 2 3 4 5 6 
#
# 1 0.038952 0.002345 -0.003803 0.005113 0.003467 0.000325
# 2 0.002345 0.008445 -0.004156 0.004467 0.006785 -0.004799
# 3 -0.003803 -0.004156 0.019474 -0.010157 -0.014084 0.005370
# 4 0.005113 0.004467 -0.010157 0.047964 0.031705 -0.008065
# 5 0.003467 0.006785 -0.014084 0.031705 0.074068 -0.013486
# 6 0.000325 -0.004799 0.005370 -0.008065 -0.013486 0.044681
#
#
# Mechanical properties :
#
#
# Convention : Reuss Voigt Hill
#
# Bulk Modulus (GPa) = 17.97143 30.22993 24.10068
# Shear Modulus (GPa) = 18.98557 29.54867 24.26712
#
# Velocity S-wave (km/s) = 2.86720 3.57696 3.24156
# Velocity P-wave (km/s) = 4.32929 5.49083 4.94429
#
# Compressibility (1/GPa) = 0.05564387
#
# Stress axis : x y z
#
# Youngs Moduli (GPa) = 25.67240 118.41886 51.35148
#
# Poissons Ratio (x) = -0.27769 0.19528
# Poissons Ratio (y) = -0.06020 0.21339
# Poissons Ratio (z) = 0.09763 0.49209
#
# Static dielectric constant tensor:
#      x y z
#    x 1.905490 -0.023120 0.016450 
#    y -0.023120 1.943600 0.007160 
#    z 0.016450 0.007160 1.846480 
# 
# From -- ./inp_files/299570.got.cif
#   From: 2010.05.17/outbox.cif.g08.bks.cpg/sg2_150_cif.got.tgz:299570.got - 2010.06.03 11:33:40.
