data_PCOD9103188
_publ_section_title
;
Structure prediction by ZEFSAII (Michael W. Deem and Ramdas Pophale) SiO2 
 PCOD9103188
Probable space group: P -1
;
_chemical_formula_sum "Si O2"
_cell_formula_units_Z 16
_cell_length_a 20.532666
_cell_length_b 22.377215
_cell_length_c 9.411104
_cell_angle_alpha 138.596327
_cell_angle_beta 151.231935
_cell_angle_gamma 22.693288
_cell_volume 761.753891
_symmetry_space_group_name_H-M "P -1"
_symmetry_group_IT_number 2
_symmetry_cell_setting 'triclinic'
loop_
_space_group_symop_operation_xyz
x,y,z
-x,-y,-z
loop_
_atom_site_type_symbol
_atom_site_label
_atom_site_fract_x
_atom_site_fract_y
_atom_site_fract_z
Si Si1 0.277784 0.016345 0.947841
Si Si2 0.219753 0.610209 0.443122
Si Si3 0.921844 0.850105 0.892278
Si Si4 0.448513 0.675016 0.002089
Si Si5 0.662279 0.500006 0.821526
Si Si6 0.658857 0.891805 0.250578
Si Si7 0.088989 0.543221 0.319214
Si Si8 0.939299 0.037445 0.618051
O O1 0.268921 0.921263 0.693131
O O2 0.493318 0.949953 0.167989
O O3 0.020467 0.204372 0.744032
O O4 0.261903 0.026955 0.108007
O O5 0.296936 0.501048 0.266761
O O6 0.147618 0.589167 0.399184
O O7 0.407864 0.588842 0.795267
O O8 0.791224 0.905766 0.593363
O O9 0.100134 0.837027 0.197007
O O10 0.083031 0.673870 0.930229
O O11 0.662193 0.599904 0.369055
O O12 0.527942 0.638677 0.923349
O O13 0.186845 0.867202 0.865628
O O14 0.500000 0.500000 0.500000
O O15 0.866117 0.704574 0.274559
O O16 0.500000 0.000000 0.000000
O O17 0.000000 0.500000 0.000000
O O18 0.000000 0.000000 0.500000
#
# Coordination Sequence:
#
# PCOD9103188 Si02
#       8
#     2   2   2   2   2   2   2   2
#     4   9  19  39  64  90 118 153 195 244 300 349
#     4   9  19  39  64  84 117 156 196 245 297 352
#     4  10  20  38  65  92 115 152 200 246 294 349
#     4  10  20  39  65  87 118 155 198 243 301 351
#     4   9  17  35  64  91 111 147 197 248 296 351
#     4  12  24  41  61  80 123 169 201 233 289 367
#     4  12  26  43  55  86 125 162 200 245 293 345
#     4   9  19  37  64  96 120 141 192 258 299 336
#
# _framework density 21.004158
#
# number of rings (size 3 to 8) (size 9 to 14) (size 15 to 20)
#    0.000    2.000    2.500    3.000    1.750    0.000 
#    9.000    1.250    0.000    0.000    0.000    0.000 
#    0.000    0.000    0.000    0.000    0.000    0.000 
#
# Total GULP energy -89253.589476 kJ/mol
# GULP energy per Si atom -5578.349342 kJ/mol
# Density = 2.095635 g / cm^3
# Si number density = 21.004158 Si / 1000 Ang^3
#
#
#
# Elastic Constant Matrix: (Units=GPa)
#
#
# Indices 1 2 3 4 5 6 
#
# 1 30.4579 7.1016 11.3944 5.3098 -2.6008 -5.6030
# 2 7.1016 60.2832 29.2883 6.7826 -1.5538 -2.5221
# 3 11.3944 29.2883 133.1054 12.2780 -14.9591 5.0774
# 4 5.3098 6.7826 12.2780 27.3320 3.0597 -0.8110
# 5 -2.6008 -1.5538 -14.9591 3.0597 29.4702 -2.4479
# 6 -5.6030 -2.5221 5.0774 -0.8110 -2.4479 23.6085
#
#
#
# Elastic Compliance Matrix: (Units=1/GPa)
#
#
# Indices 1 2 3 4 5 6 
#
# 1 0.037143 -0.002218 -0.002116 -0.005829 0.003455 0.009191
# 2 -0.002218 0.019118 -0.003968 -0.002379 -0.000772 0.002208
# 3 -0.002116 -0.003968 0.009499 -0.003460 0.004568 -0.002614
# 4 -0.005829 -0.002379 -0.003460 0.040601 -0.006627 -0.000186
# 5 0.003455 -0.000772 0.004568 -0.006627 0.037487 0.003415
# 6 0.009191 0.002208 -0.002614 -0.000186 0.003415 0.045685
#
#
# Mechanical properties :
#
#
# Convention : Reuss Voigt Hill
#
# Bulk Modulus (GPa) = 20.34371 35.49058 27.91714
# Shear Modulus (GPa) = 22.46959 27.81962 25.14460
#
# Velocity S-wave (km/s) = 3.27428 3.64329 3.46370
# Velocity P-wave (km/s) = 4.89910 5.88487 5.41446
#
# Compressibility (1/GPa) = 0.04915524
#
# Stress axis : x y z
#
# Youngs Moduli (GPa) = 26.92294 52.30749 105.26894
#
# Poissons Ratio (x) = 0.11602 0.22277
# Poissons Ratio (y) = 0.05972 0.41774
# Poissons Ratio (z) = 0.05697 0.20757
#
# Static dielectric constant tensor:
#      x y z
#    x 1.778210 0.015650 0.003720 
#    y 0.015650 1.811770 0.007240 
#    z 0.003720 0.007240 1.762090 
# 
# From -- ./inp_files/187658.got.cif
#   From: 2010.05.17/outbox.cif.g08.bks.cpg/sg2_94_cif.got.tgz:187658.got - 2010.06.03 11:33:40.
