data_PCOD9103805
_publ_section_title
;
Structure prediction by ZEFSAII (Michael W. Deem and Ramdas Pophale) SiO2 
 PCOD9103805
Probable space group: P -1
;
_chemical_formula_sum "Si O2"
_cell_formula_units_Z 16
_cell_length_a 16.777864
_cell_length_b 8.344899
_cell_length_c 9.711081
_cell_angle_alpha 110.987989
_cell_angle_beta 57.740749
_cell_angle_gamma 144.783464
_cell_volume 654.524391
_symmetry_space_group_name_H-M "P -1"
_symmetry_group_IT_number 2
_symmetry_cell_setting 'triclinic'
loop_
_space_group_symop_operation_xyz
x,y,z
-x,-y,-z
loop_
_atom_site_type_symbol
_atom_site_label
_atom_site_fract_x
_atom_site_fract_y
_atom_site_fract_z
Si Si1 0.977031 0.867674 0.620305
Si Si2 0.358164 0.902742 0.503135
Si Si3 0.871047 0.235426 0.903666
Si Si4 0.905919 0.248050 0.353749
Si Si5 0.559422 0.887466 0.227662
Si Si6 0.692493 0.641936 0.882161
Si Si7 0.181751 0.204375 0.883198
Si Si8 0.154838 0.425280 0.776759
O O1 0.074211 0.134127 0.708950
O O2 0.031975 0.757464 0.569963
O O3 0.000000 0.000000 0.500000
O O4 0.798180 0.629676 0.746352
O O5 0.232840 0.823691 0.508581
O O6 0.470953 0.942376 0.328134
O O7 0.256858 0.639781 0.621890
O O8 0.438923 0.143274 0.617681
O O9 0.959635 0.471217 0.777409
O O10 0.006827 0.339664 0.901688
O O11 0.735930 0.138143 0.084500
O O12 0.778873 0.936783 0.836953
O O13 0.829140 0.989490 0.248648
O O14 0.464916 0.621221 0.135567
O O15 0.717747 0.687591 0.038252
O O16 0.245135 0.469280 0.834297
O O17 0.000000 0.000000 0.000000
#
# Coordination Sequence:
#
# PCOD9103805 Si02
#       8
#     2   2   2   2   2   2   2   2
#     4  10  20  38  68  95 129 163 205 277 333 384
#     4  10  23  42  65  93 133 179 221 264 324 392
#     4  10  21  38  67  97 127 166 224 278 318 376
#     4  10  22  40  71 102 121 165 231 273 316 387
#     4  11  24  39  62  95 142 183 209 262 335 395
#     4  11  22  39  60  97 133 170 220 273 330 382
#     4  11  19  37  68  98 124 165 222 283 326 376
#     4   9  20  38  66  96 117 166 227 272 321 375
#
# _framework density 24.445231
#
# number of rings (size 3 to 8) (size 9 to 14) (size 15 to 20)
#    0.000    1.750    3.750    1.875    1.750    1.500 
#    0.000   12.500    0.000   45.000    0.000    0.000 
#    0.000    0.000    0.000    0.000    0.000    0.000 
#
# Total GULP energy -89241.610202 kJ/mol
# GULP energy per Si atom -5577.600638 kJ/mol
# Density = 2.438959 g / cm^3
# Si number density = 24.445231 Si / 1000 Ang^3
#
#
#
# Elastic Constant Matrix: (Units=GPa)
#
#
# Indices 1 2 3 4 5 6 
#
# 1 143.2749 70.4072 51.3094 -3.6207 -3.1524 -18.3431
# 2 70.4072 115.6488 40.8029 -0.6988 -1.5270 6.7098
# 3 51.3094 40.8029 102.1137 10.6749 -19.9076 -9.2776
# 4 -3.6207 -0.6988 10.6749 30.2396 -3.8985 2.0580
# 5 -3.1524 -1.5270 -19.9076 -3.8985 56.1881 2.4045
# 6 -18.3431 6.7098 -9.2776 2.0580 2.4045 57.8293
#
#
#
# Elastic Compliance Matrix: (Units=1/GPa)
#
#
# Indices 1 2 3 4 5 6 
#
# 1 0.011788 -0.006170 -0.003478 0.002137 -0.000755 0.003852
# 2 -0.006170 0.013678 -0.002969 0.000796 -0.000799 -0.004015
# 3 -0.003478 -0.002969 0.014243 -0.005056 0.004355 0.001525
# 4 0.002137 0.000796 -0.005056 0.035343 0.000868 -0.001519
# 5 -0.000755 -0.000799 0.004355 0.000868 0.019348 -0.000284
# 6 0.003852 -0.004015 0.001525 -0.001519 -0.000284 0.019291
#
#
# Mechanical properties :
#
#
# Convention : Reuss Voigt Hill
#
# Bulk Modulus (GPa) = 69.08817 76.23073 72.65945
# Shear Modulus (GPa) = 34.78252 42.08593 38.43423
#
# Velocity S-wave (km/s) = 3.77619 4.15377 3.96947
# Velocity P-wave (km/s) = 6.88016 7.36594 7.12719
#
# Compressibility (1/GPa) = 0.01447426
#
# Stress axis : x y z
#
# Youngs Moduli (GPa) = 84.83407 73.11125 70.20882
#
# Poissons Ratio (x) = 0.45108 0.24421
# Poissons Ratio (y) = 0.52340 0.20846
# Poissons Ratio (z) = 0.29509 0.21708
#
# Static dielectric constant tensor:
#      x y z
#    x 2.126900 -0.004630 0.096180 
#    y -0.004630 2.070660 0.080000 
#    z 0.096180 0.080000 2.055910 
# 
# From -- ./inp_files/460598.got.cif
#   From: 2010.05.17/outbox.cif.g08.bks.cpg/sg2_231_cif.got.tgz:460598.got - 2010.06.03 11:33:40.
