data_PCOD9103766
_publ_section_title
;
Structure prediction by ZEFSAII (Michael W. Deem and Ramdas Pophale) SiO2 
 PCOD9103766
Probable space group: P -1
;
_chemical_formula_sum "Si O2"
_cell_formula_units_Z 10
_cell_length_a 11.515447
_cell_length_b 14.263096
_cell_length_c 8.645427
_cell_angle_alpha 35.573196
_cell_angle_beta 41.636747
_cell_angle_gamma 28.821426
_cell_volume 395.158635
_symmetry_space_group_name_H-M "P -1"
_symmetry_group_IT_number 2
_symmetry_cell_setting 'triclinic'
loop_
_space_group_symop_operation_xyz
x,y,z
-x,-y,-z
loop_
_atom_site_type_symbol
_atom_site_label
_atom_site_fract_x
_atom_site_fract_y
_atom_site_fract_z
Si Si1 0.964913 0.765636 0.829265
Si Si2 0.337379 0.775468 0.604386
Si Si3 0.115548 0.378007 0.384608
Si Si4 0.283255 0.627583 0.418449
Si Si5 0.313826 0.900307 0.810477
O O1 0.145536 0.761679 0.758633
O O2 0.070833 0.697096 0.642605
O O3 0.968185 0.586049 0.134217
O O4 0.722308 0.025251 0.702199
O O5 0.603654 0.547390 0.598384
O O6 0.310835 0.824019 0.746133
O O7 0.399617 0.245949 0.255922
O O8 0.000000 0.500000 0.500000
O O9 0.145500 0.166200 0.627407
O O10 0.500000 0.500000 0.500000
O O11 0.236133 0.831101 0.117605
#
# Coordination Sequence:
#
# PCOD9103766 Si02
#       5
#     2   2   2   2   2
#     4  10  23  42  66  93 126 164 209 257 315 362
#     4  10  22  39  69  96 122 159 216 260 302 368
#     4  11  26  42  63  89 134 168 201 259 318 371
#     4  10  20  38  68  91 124 159 208 261 304 362
#     4  11  24  42  65  96 123 167 212 252 314 372
#
# _framework density 25.306290000000001
#
# number of rings (size 3 to 8) (size 9 to 14) (size 15 to 20)
#    0.000    1.600    4.000    0.600    8.400    3.200 
#    0.000    2.000    0.000    0.000    0.000    0.000 
#    0.000    0.000    0.000    0.000    0.000    0.000 
#
# Total GULP energy -56021.416982 kJ/mol
# GULP energy per Si atom -5602.141698 kJ/mol
# Density = 2.524869 g / cm^3
# Si number density = 25.306290 Si / 1000 Ang^3
#
#
#
# Elastic Constant Matrix: (Units=GPa)
#
#
# Indices 1 2 3 4 5 6 
#
# 1 78.1564 0.5582 53.5720 -9.5278 2.9815 26.9457
# 2 0.5582 127.3697 62.7782 -21.4682 -1.2213 26.6823
# 3 53.5720 62.7782 242.5733 -30.6109 24.4961 23.4918
# 4 -9.5278 -21.4682 -30.6109 51.4438 -0.0726 2.9903
# 5 2.9815 -1.2213 24.4961 -0.0726 34.2427 3.6260
# 6 26.9457 26.6823 23.4918 2.9903 3.6260 49.4820
#
#
#
# Elastic Compliance Matrix: (Units=1/GPa)
#
#
# Indices 1 2 3 4 5 6 
#
# 1 0.020543 0.005474 -0.004527 0.004124 0.002973 -0.012456
# 2 0.005474 0.011990 -0.003238 0.004584 0.003169 -0.008418
# 3 -0.004527 -0.003238 0.006482 0.001581 -0.004500 0.001368
# 4 0.004124 0.004584 0.001581 0.023454 -0.000552 -0.006845
# 5 0.002973 0.003169 -0.004500 -0.000552 0.032651 -0.003551
# 6 -0.012456 -0.008418 0.001368 -0.006845 -0.003551 0.031556
#
#
# Mechanical properties :
#
#
# Convention : Reuss Voigt Hill
#
# Bulk Modulus (GPa) = 29.04261 75.76847 52.40554
# Shear Modulus (GPa) = 35.03010 49.11308 42.07159
#
# Velocity S-wave (km/s) = 3.72458 4.41017 4.08179
# Velocity P-wave (km/s) = 5.47704 7.47920 6.55501
#
# Compressibility (1/GPa) = 0.03443217
#
# Stress axis : x y z
#
# Youngs Moduli (GPa) = 48.67924 83.40425 154.27979
#
# Poissons Ratio (x) = -0.45658 0.69844
# Poissons Ratio (y) = -0.26648 0.49958
# Poissons Ratio (z) = 0.22038 0.27008
#
# Static dielectric constant tensor:
#      x y z
#    x 2.096580 -0.059660 -0.078320 
#    y -0.059660 1.989550 -0.016240 
#    z -0.078320 -0.016240 1.954940 
# 
# From -- ./inp_files/144117.got.cif
#   From: 2010.05.17/outbox.cif.g08.bks.cpg/sg2_73_cif.got.tgz:144117.got - 2010.06.03 11:33:40.
