data_PCOD9103823
_publ_section_title
;
Structure prediction by ZEFSAII (Michael W. Deem and Ramdas Pophale) SiO2 
 PCOD9103823
Probable space group: P -1
;
_chemical_formula_sum "Si O2"
_cell_formula_units_Z 15
_cell_length_a 11.633354
_cell_length_b 19.043677
_cell_length_c 8.167158
_cell_angle_alpha 136.725088
_cell_angle_beta 130.477939
_cell_angle_gamma 26.911594
_cell_volume 561.387849
_symmetry_space_group_name_H-M "P -1"
_symmetry_group_IT_number 2
_symmetry_cell_setting 'triclinic'
loop_
_space_group_symop_operation_xyz
x,y,z
-x,-y,-z
loop_
_atom_site_type_symbol
_atom_site_label
_atom_site_fract_x
_atom_site_fract_y
_atom_site_fract_z
Si Si1 0.636860 0.027011 0.340884
Si Si2 0.827875 0.314955 0.150259
Si Si3 0.673396 0.338232 0.557955
Si Si4 0.000000 0.000000 0.500000
Si Si5 0.003363 0.669871 0.998761
Si Si6 0.236675 0.334033 0.716911
Si Si7 0.799194 0.851781 0.510516
Si Si8 0.723310 0.194024 0.028256
O O1 0.800879 0.932439 0.503185
O O2 0.767166 0.038340 0.364795
O O3 0.714921 0.868948 0.089240
O O4 0.359507 0.211199 0.460404
O O5 0.602219 0.498922 0.339607
O O6 0.747070 0.238469 0.946624
O O7 0.071028 0.177156 0.257405
O O8 0.891859 0.336475 0.080674
O O9 0.812574 0.372207 0.771943
O O10 0.664975 0.307683 0.310582
O O11 0.820298 0.172237 0.514596
O O12 0.047840 0.525932 0.812400
O O13 0.115299 0.314337 0.689755
O O14 0.480611 0.253169 0.892027
O O15 0.500000 0.000000 0.500000
O O16 0.000000 0.000000 0.000000
#
# Coordination Sequence:
#
# PCOD9103823 Si02
#       8
#     2   2   2   1   2   2   2   2
#     4  10  23  43  67  97 139 180 223 291 342 411
#     4  12  24  41  71 102 139 178 237 291 346 412
#     4  11  24  41  66 105 145 173 228 301 342 411
#     4  10  20  38  68  96 138 172 212 282 362 380
#     4  11  24  41  69 105 138 177 224 296 357 406
#     4  11  24  45  71  96 141 186 233 281 353 417
#     4  10  24  49  69  95 144 188 232 292 339 418
#     4  12  25  40  70 103 134 185 238 282 352 417
#
# _framework density 26.719497
#
# number of rings (size 3 to 8) (size 9 to 14) (size 15 to 20)
#    0.000    1.067    1.333    6.400    9.333    1.067 
#    0.000    2.667    0.000    0.000    0.000    0.000 
#    0.000    0.000    0.000    0.000    0.000    0.000 
#
# Total GULP energy -83653.543216 kJ/mol
# GULP energy per Si atom -5576.902881 kJ/mol
# Density = 2.665868 g / cm^3
# Si number density = 26.719497 Si / 1000 Ang^3
#
#
#
# Elastic Constant Matrix: (Units=GPa)
#
#
# Indices 1 2 3 4 5 6 
#
# 1 125.2130 26.8152 22.0497 18.9850 24.3341 35.2050
# 2 26.8152 128.6924 31.9381 31.6057 -0.1157 17.6359
# 3 22.0497 31.9381 84.7838 33.4595 1.1537 5.6615
# 4 18.9850 31.6057 33.4595 51.6414 -2.4259 13.9754
# 5 24.3341 -0.1157 1.1537 -2.4259 45.2762 14.7666
# 6 35.2050 17.6359 5.6615 13.9754 14.7666 56.2051
#
#
#
# Elastic Compliance Matrix: (Units=1/GPa)
#
#
# Indices 1 2 3 4 5 6 
#
# 1 0.010866 -0.000880 -0.001600 -0.001286 -0.004263 -0.004929
# 2 -0.000880 0.009562 -0.001717 -0.003971 0.000819 -0.001504
# 3 -0.001600 -0.001717 0.016584 -0.009843 -0.000930 0.002562
# 4 -0.001286 -0.003971 -0.009843 0.030387 0.004410 -0.005671
# 5 -0.004263 0.000819 -0.000930 0.004410 0.026446 -0.005538
# 6 -0.004929 -0.001504 0.002562 -0.005671 -0.005538 0.023958
#
#
# Mechanical properties :
#
#
# Convention : Reuss Voigt Hill
#
# Bulk Modulus (GPa) = 34.94214 55.58835 45.26525
# Shear Modulus (GPa) = 36.83672 47.81695 42.32683
#
# Velocity S-wave (km/s) = 3.71704 4.23494 3.98442
# Velocity P-wave (km/s) = 5.61495 6.69048 6.17617
#
# Compressibility (1/GPa) = 0.02861874
#
# Stress axis : x y z
#
# Youngs Moduli (GPa) = 92.03219 104.58194 60.30067
#
# Poissons Ratio (x) = 0.09198 0.09647
# Poissons Ratio (y) = 0.08094 0.10353
# Poissons Ratio (z) = 0.14724 0.17955
#
# Static dielectric constant tensor:
#      x y z
#    x 0.096430 -0.319680 2.044340 
#    y -0.319680 2.059800 0.355620 
#    z 2.044340 0.355620 0.129010 
# 
# From -- ./inp_files/279943.got.cif
#   From: 2010.05.17/outbox.cif.g08.bks.cpg/sg2_140_cif.got.tgz:279943.got - 2010.06.03 11:33:40.
