data_PCOD9103380
_publ_section_title
;
Structure prediction by ZEFSAII (Michael W. Deem and Ramdas Pophale) SiO2 
 PCOD9103380
Probable space group: P -1
;
_chemical_formula_sum "Si O2"
_cell_formula_units_Z 12
_cell_length_a 14.075732
_cell_length_b 14.805888
_cell_length_c 12.355825
_cell_angle_alpha 150.656456
_cell_angle_beta 150.707831
_cell_angle_gamma 30.461469
_cell_volume 559.053831
_symmetry_space_group_name_H-M "P -1"
_symmetry_group_IT_number 2
_symmetry_cell_setting 'triclinic'
loop_
_space_group_symop_operation_xyz
x,y,z
-x,-y,-z
loop_
_atom_site_type_symbol
_atom_site_label
_atom_site_fract_x
_atom_site_fract_y
_atom_site_fract_z
Si Si1 0.600908 0.452432 0.667655
Si Si2 0.581557 0.319929 0.066852
Si Si3 0.259894 0.380878 0.512635
Si Si4 0.936852 0.896670 0.928350
Si Si5 0.288793 0.894303 0.431552
Si Si6 0.154199 0.368503 0.772731
O O1 0.500000 0.500000 0.500000
O O2 0.425772 0.581632 0.719388
O O3 0.682047 0.219539 0.543683
O O4 0.784034 0.530809 0.957063
O O5 0.667395 0.441791 0.197648
O O6 0.735670 0.085247 0.976231
O O7 0.337041 0.351846 0.848319
O O8 0.479676 0.204113 0.499892
O O9 0.076577 0.490663 0.355434
O O10 0.145788 0.273031 0.360558
O O11 0.129894 0.830052 0.135846
O O12 0.000000 0.000000 0.000000
O O13 0.192033 0.137567 0.592067
#
# Coordination Sequence:
#
# PCOD9103380 Si02
#       6
#     2   2   2   2   2   2
#     4   9  20  40  64  93 123 160 207 248 309 372
#     4   9  21  39  61  88 125 157 204 255 305 355
#     4  11  19  41  64  85 125 167 196 259 308 355
#     4  12  24  40  65  92 121 168 211 249 311 369
#     4  11  22  40  65  89 130 162 200 263 305 359
#     4  10  20  38  66  86 125 163 200 253 310 356
#
# _framework density 21.464839000000001
#
# number of rings (size 3 to 8) (size 9 to 14) (size 15 to 20)
#    1.000    0.667    5.000    0.000    0.000    2.000 
#    0.000   10.000    0.000    0.000    0.000    0.000 
#    0.000    0.000    0.000    0.000    0.000    0.000 
#
# Total GULP energy -66904.915390 kJ/mol
# GULP energy per Si atom -5575.409616 kJ/mol
# Density = 2.141598 g / cm^3
# Si number density = 21.464839 Si / 1000 Ang^3
#
#
#
# Elastic Constant Matrix: (Units=GPa)
#
#
# Indices 1 2 3 4 5 6 
#
# 1 37.2849 22.5355 32.1176 -6.0624 2.2512 12.5094
# 2 22.5355 106.1286 48.4013 7.5297 -6.7251 3.7245
# 3 32.1176 48.4013 134.8372 -0.3935 9.9500 16.5915
# 4 -6.0624 7.5297 -0.3935 50.2820 7.4159 7.0769
# 5 2.2512 -6.7251 9.9500 7.4159 20.5397 -1.6152
# 6 12.5094 3.7245 16.5915 7.0769 -1.6152 39.5108
#
#
#
# Elastic Compliance Matrix: (Units=1/GPa)
#
#
# Indices 1 2 3 4 5 6 
#
# 1 0.041840 -0.007306 -0.005146 0.009134 -0.008757 -0.012391
# 2 -0.007306 0.013825 -0.004460 -0.004991 0.009618 0.004170
# 3 -0.005146 -0.004460 0.011173 0.001645 -0.007157 -0.003229
# 4 0.009134 -0.004991 0.001645 0.024809 -0.013026 -0.008088
# 5 -0.008757 0.009618 -0.007157 -0.013026 0.061730 0.009728
# 6 -0.012391 0.004170 -0.003229 -0.008088 0.009728 0.032042
#
#
# Mechanical properties :
#
#
# Convention : Reuss Voigt Hill
#
# Bulk Modulus (GPa) = 30.28885 53.81772 42.05329
# Shear Modulus (GPa) = 21.71574 33.74625 27.73100
#
# Velocity S-wave (km/s) = 3.18416 3.96935 3.59824
# Velocity P-wave (km/s) = 5.25928 6.79225 6.07432
#
# Compressibility (1/GPa) = 0.03301545
#
# Stress axis : x y z
#
# Youngs Moduli (GPa) = 23.90047 72.33249 89.49858
#
# Poissons Ratio (x) = 0.52843 0.46057
# Poissons Ratio (y) = 0.17461 0.39915
# Poissons Ratio (z) = 0.12300 0.32259
#
# Static dielectric constant tensor:
#      x y z
#    x 1.806410 0.005940 0.048890 
#    y 0.005940 1.794850 0.031720 
#    z 0.048890 0.031720 1.819410 
# 
# From -- ./inp_files/429171.got.cif
#   From: 2010.05.17/outbox.cif.g08.bks.cpg/sg2_215_cif.got.tgz:429171.got - 2010.06.03 11:33:40.
