data_PCOD9103214
_publ_section_title
;
Structure prediction by ZEFSAII (Michael W. Deem and Ramdas Pophale) SiO2 
 PCOD9103214
Probable space group: P -1
;
_chemical_formula_sum "Si O2"
_cell_formula_units_Z 16
_cell_length_a 13.475954
_cell_length_b 7.717364
_cell_length_c 9.088159
_cell_angle_alpha 50.732943
_cell_angle_beta 87.946167
_cell_angle_gamma 96.722146
_cell_volume 719.249501
_symmetry_space_group_name_H-M "P -1"
_symmetry_group_IT_number 2
_symmetry_cell_setting 'triclinic'
loop_
_space_group_symop_operation_xyz
x,y,z
-x,-y,-z
loop_
_atom_site_type_symbol
_atom_site_label
_atom_site_fract_x
_atom_site_fract_y
_atom_site_fract_z
Si Si1 0.267872 0.051809 0.948358
Si Si2 0.754238 0.372039 0.045127
Si Si3 0.327126 0.851387 0.329185
Si Si4 0.172985 0.408025 0.594150
Si Si5 0.543796 0.757879 0.324048
Si Si6 0.868572 0.753044 0.651326
Si Si7 0.386492 0.936891 0.596563
Si Si8 0.911958 0.292411 0.331978
O O1 0.193027 0.208624 0.808599
O O2 0.382119 0.189588 0.844667
O O3 0.250948 0.821406 0.976346
O O4 0.263203 0.979014 0.155999
O O5 0.650531 0.295432 0.185393
O O6 0.839525 0.347739 0.174757
O O7 0.779546 0.609400 0.831070
O O8 0.277206 0.586450 0.471301
O O9 0.444588 0.875235 0.261325
O O10 0.324310 0.926187 0.457267
O O11 0.141461 0.311136 0.487139
O O12 0.102718 0.553705 0.608138
O O13 0.500000 0.500000 0.500000
O O14 0.618399 0.863342 0.395992
O O15 0.971475 0.671823 0.740313
O O16 0.884202 0.024442 0.516363
O O17 0.500000 0.000000 0.500000
#
# Coordination Sequence:
#
# PCOD9103214 Si02
#       8
#     2   2   2   2   2   2   2   2
#     4  11  23  39  66  96 134 179 226 275 332 405
#     4  11  21  43  69  97 135 179 223 279 339 402
#     4  11  21  41  63  93 134 177 222 271 337 398
#     4  12  23  43  68  98 138 175 225 283 343 401
#     4  10  20  38  65  92 132 177 218 274 333 397
#     4  11  25  46  71  98 137 178 227 283 350 406
#     4   9  21  40  65  95 135 167 222 279 320 399
#     4  11  25  45  69 101 137 177 227 287 342 411
#
# _framework density 22.245408999999999
#
# number of rings (size 3 to 8) (size 9 to 14) (size 15 to 20)
#    0.000    1.250    5.000    1.125    0.000    1.000 
#    0.000    1.250    0.000    0.000    0.000    0.000 
#    0.000    0.000    0.000    0.000    0.000    0.000 
#
# Total GULP energy -89366.815036 kJ/mol
# GULP energy per Si atom -5585.425940 kJ/mol
# Density = 2.219478 g / cm^3
# Si number density = 22.245409 Si / 1000 Ang^3
#
#
#
# Elastic Constant Matrix: (Units=GPa)
#
#
# Indices 1 2 3 4 5 6 
#
# 1 53.1448 3.8317 4.1200 -0.8607 -5.8928 -4.6419
# 2 3.8317 66.9419 50.8965 0.7391 5.4038 1.9411
# 3 4.1200 50.8965 144.9368 0.3154 1.8239 0.1214
# 4 -0.8607 0.7391 0.3154 29.2997 4.0001 1.9267
# 5 -5.8928 5.4038 1.8239 4.0001 32.7204 2.3567
# 6 -4.6419 1.9411 0.1214 1.9267 2.3567 28.6711
#
#
#
# Elastic Compliance Matrix: (Units=1/GPa)
#
#
# Indices 1 2 3 4 5 6 
#
# 1 0.019580 -0.001412 -0.000108 -0.000070 0.003559 0.002978
# 2 -0.001412 0.020810 -0.007226 0.000036 -0.003196 -0.001347
# 3 -0.000108 -0.007226 0.009432 -0.000033 0.000625 0.000383
# 4 -0.000070 0.000036 -0.000033 0.034824 -0.004129 -0.002014
# 5 0.003559 -0.003196 0.000625 -0.004129 0.032315 -0.001589
# 6 0.002978 -0.001347 0.000383 -0.002014 -0.001589 0.035716
#
#
# Mechanical properties :
#
#
# Convention : Reuss Voigt Hill
#
# Bulk Modulus (GPa) = 30.93040 42.52443 36.72742
# Shear Modulus (GPa) = 27.63259 31.88326 29.75793
#
# Velocity S-wave (km/s) = 3.52827 3.78994 3.66144
# Velocity P-wave (km/s) = 5.52563 6.18943 5.86693
#
# Compressibility (1/GPa) = 0.03233065
#
# Stress axis : x y z
#
# Youngs Moduli (GPa) = 51.07165 48.05394 106.02053
#
# Poissons Ratio (x) = 0.06783 0.01146
# Poissons Ratio (y) = 0.07209 0.76614
# Poissons Ratio (z) = 0.00552 0.34725
#
# Static dielectric constant tensor:
#      x y z
#    x 1.883050 -0.033400 -0.018950 
#    y -0.033400 1.855560 0.039590 
#    z -0.018950 0.039590 1.832520 
# 
# From -- ./inp_files/297291.got.cif
#   From: 2010.05.17/outbox.cif.g08.bks.cpg/sg2_149_cif.got.tgz:297291.got - 2010.06.03 11:33:40.
