data_PCOD9103184
_publ_section_title
;
Structure prediction by ZEFSAII (Michael W. Deem and Ramdas Pophale) SiO2 
 PCOD9103184
Probable space group: P -1
;
_chemical_formula_sum "Si O2"
_cell_formula_units_Z 13
_cell_length_a 13.598436
_cell_length_b 5.111960
_cell_length_c 21.936913
_cell_angle_alpha 67.593747
_cell_angle_beta 156.650035
_cell_angle_gamma 103.909576
_cell_volume 533.209937
_symmetry_space_group_name_H-M "P -1"
_symmetry_group_IT_number 2
_symmetry_cell_setting 'triclinic'
loop_
_space_group_symop_operation_xyz
x,y,z
-x,-y,-z
loop_
_atom_site_type_symbol
_atom_site_label
_atom_site_fract_x
_atom_site_fract_y
_atom_site_fract_z
Si Si1 0.090455 0.771440 0.224885
Si Si2 0.500000 0.500000 0.000000
Si Si3 0.620645 0.846887 0.488247
Si Si4 0.156999 0.363266 0.675383
Si Si5 0.064182 0.040034 0.754230
Si Si6 0.443665 0.114767 0.123772
Si Si7 0.198545 0.017703 0.547322
O O1 0.318260 0.903529 0.323032
O O2 0.230417 0.447745 0.362268
O O3 0.912517 0.956103 0.161420
O O4 0.864635 0.786952 0.047388
O O5 0.494908 0.322249 0.080196
O O6 0.774755 0.258783 0.159038
O O7 0.756067 0.091323 0.566178
O O8 0.684161 0.832357 0.454228
O O9 0.013028 0.709325 0.564438
O O10 0.198649 0.268048 0.779521
O O11 0.946062 0.199886 0.547016
O O12 0.407171 0.214662 0.790016
O O13 0.581861 0.123351 0.266074
#
# Coordination Sequence:
#
# PCOD9103184 Si02
#       7
#     2   1   2   2   2   2   2
#     4  11  22  39  64  92 125 176 216 276 312 388
#     4  10  22  38  58 100 122 158 206 276 320 388
#     4  10  22  41  62  88 131 171 227 255 330 379
#     4  10  23  41  68  95 133 173 213 265 337 394
#     4  10  20  38  65  91 131 166 217 268 327 387
#     4  11  24  39  65  97 131 165 220 270 331 385
#     4  11  23  45  67  96 132 176 214 269 329 397
#
# _framework density 24.38064
#
# number of rings (size 3 to 8) (size 9 to 14) (size 15 to 20)
#    0.000    1.538    3.077    1.385    0.000    8.000 
#    0.000    0.000    0.000    3.692    0.000    0.000 
#    0.000    0.000    0.000    0.000    0.000    0.000 
#
# Total GULP energy -72475.102653 kJ/mol
# GULP energy per Si atom -5575.007896 kJ/mol
# Density = 2.432515 g / cm^3
# Si number density = 24.380640 Si / 1000 Ang^3
#
#
#
# Elastic Constant Matrix: (Units=GPa)
#
#
# Indices 1 2 3 4 5 6 
#
# 1 59.8251 0.6288 25.1730 4.8819 6.0911 7.4529
# 2 0.6288 97.6178 27.9331 -0.7467 12.3954 3.7929
# 3 25.1730 27.9331 162.7943 12.7661 7.9263 14.3155
# 4 4.8819 -0.7467 12.7661 19.7314 17.9784 7.2947
# 5 6.0911 12.3954 7.9263 17.9784 43.9140 2.4068
# 6 7.4529 3.7929 14.3155 7.2947 2.4068 27.1712
#
#
#
# Elastic Compliance Matrix: (Units=1/GPa)
#
#
# Indices 1 2 3 4 5 6 
#
# 1 0.018489 0.001130 -0.002664 0.000981 -0.002593 -0.003859
# 2 0.001130 0.011880 -0.002348 0.008415 -0.006399 -0.002424
# 3 -0.002664 -0.002348 0.007428 -0.005514 0.002035 -0.001555
# 4 0.000981 0.008415 -0.005514 0.099922 -0.041234 -0.021712
# 5 -0.002593 -0.006399 0.002035 -0.041234 0.041015 0.007970
# 6 -0.003859 -0.002424 -0.001555 -0.021712 0.007970 0.044143
#
#
# Mechanical properties :
#
#
# Convention : Reuss Voigt Hill
#
# Bulk Modulus (GPa) = 33.29845 47.52299 40.41072
# Shear Modulus (GPa) = 20.77687 35.93015 28.35351
#
# Velocity S-wave (km/s) = 2.92239 3.84307 3.41391
# Velocity P-wave (km/s) = 5.00745 6.26312 5.67015
#
# Compressibility (1/GPa) = 0.03003143
#
# Stress axis : x y z
#
# Youngs Moduli (GPa) = 54.08547 84.17679 134.63087
#
# Poissons Ratio (x) = -0.09512 0.35869
# Poissons Ratio (y) = -0.06111 0.31617
# Poissons Ratio (z) = 0.14410 0.19768
#
# Static dielectric constant tensor:
#      x y z
#    x 2.083560 -0.099870 -0.181310 
#    y -0.099870 2.199430 0.199680 
#    z -0.181310 0.199680 2.199570 
# 
# From -- ./inp_files/30928.got.cif
#   From: 2010.05.17/outbox.cif.g08.bks.cpg/sg2_16_cif.got.tgz:30928.got - 2010.06.03 11:33:40.
