data_PCOD9103596
_publ_section_title
;
Structure prediction by ZEFSAII (Michael W. Deem and Ramdas Pophale) SiO2 
 PCOD9103596
Probable space group: P -1
;
_chemical_formula_sum "Si O2"
_cell_formula_units_Z 12
_cell_length_a 12.249369
_cell_length_b 22.151766
_cell_length_c 11.320830
_cell_angle_alpha 149.693981
_cell_angle_beta 138.144459
_cell_angle_gamma 20.923642
_cell_volume 520.257008
_symmetry_space_group_name_H-M "P -1"
_symmetry_group_IT_number 2
_symmetry_cell_setting 'triclinic'
loop_
_space_group_symop_operation_xyz
x,y,z
-x,-y,-z
loop_
_atom_site_type_symbol
_atom_site_label
_atom_site_fract_x
_atom_site_fract_y
_atom_site_fract_z
Si Si1 0.633915 0.490398 0.835686
Si Si2 0.865576 0.982426 0.993640
Si Si3 0.477083 0.225115 0.624409
Si Si4 0.501909 0.384797 0.721937
Si Si5 0.025278 0.142772 0.386678
Si Si6 0.254640 0.147206 0.160557
O O1 0.683782 0.327247 0.658929
O O2 0.807209 0.386365 0.673888
O O3 0.248139 0.738811 0.924807
O O4 0.733571 0.534964 0.078767
O O5 0.828876 0.941657 0.768645
O O6 0.695504 0.013969 0.011053
O O7 0.803212 0.162597 0.235458
O O8 0.636740 0.190762 0.580695
O O9 0.317281 0.210192 0.414069
O O10 0.705281 0.042039 0.606802
O O11 0.123780 0.597852 0.749014
O O12 0.500000 0.500000 0.000000
O O13 0.500000 0.000000 0.000000
#
# Coordination Sequence:
#
# PCOD9103596 Si02
#       6
#     2   2   2   2   2   2
#     4   9  19  37  62  87 118 159 197 250 290 344
#     4   9  21  41  58  92 118 154 210 240 287 362
#     4  10  22  36  57  91 122 151 200 242 299 359
#     4   9  20  39  59  85 121 151 206 243 279 360
#     4  10  20  38  67  85 117 160 202 248 288 352
#     4  11  24  39  61  88 127 160 188 250 310 349
#
# _framework density 23.065521
#
# number of rings (size 3 to 8) (size 9 to 14) (size 15 to 20)
#    0.000    2.333    0.000    2.000    7.000    1.333 
#    0.000    0.833    0.000    0.000    0.000    0.000 
#    0.000    0.000    0.000    0.000    0.000    0.000 
#
# Total GULP energy -66943.411695 kJ/mol
# GULP energy per Si atom -5578.617641 kJ/mol
# Density = 2.301302 g / cm^3
# Si number density = 23.065521 Si / 1000 Ang^3
#
#
#
# Elastic Constant Matrix: (Units=GPa)
#
#
# Indices 1 2 3 4 5 6 
#
# 1 92.0173 25.6265 15.1495 -6.8135 -17.0060 7.1081
# 2 25.6265 90.5839 30.9211 -32.4813 -5.1330 13.3006
# 3 15.1495 30.9211 79.7440 -24.4089 -23.7150 -7.8196
# 4 -6.8135 -32.4813 -24.4089 32.9382 4.5183 -4.3005
# 5 -17.0060 -5.1330 -23.7150 4.5183 41.9230 -0.0786
# 6 7.1081 13.3006 -7.8196 -4.3005 -0.0786 24.1354
#
#
#
# Elastic Compliance Matrix: (Units=1/GPa)
#
#
# Indices 1 2 3 4 5 6 
#
# 1 0.012859 -0.003668 -0.000568 -0.002329 0.004692 -0.002350
# 2 -0.003668 0.020050 -0.004173 0.015213 -0.003049 -0.008620
# 3 -0.000568 -0.004173 0.022425 0.012494 0.010620 0.011994
# 4 -0.002329 0.015213 0.012494 0.054646 0.002108 0.006094
# 5 0.004692 -0.003049 0.010620 0.002108 0.031171 0.004216
# 6 -0.002350 -0.008620 0.011994 0.006094 0.004216 0.051861
#
#
# Mechanical properties :
#
#
# Convention : Reuss Voigt Hill
#
# Bulk Modulus (GPa) = 25.96422 45.08212 35.52317
# Shear Modulus (GPa) = 22.45493 32.50919 27.48206
#
# Velocity S-wave (km/s) = 3.12353 3.75831 3.45552
# Velocity P-wave (km/s) = 4.92846 6.19845 5.59958
#
# Compressibility (1/GPa) = 0.03851454
#
# Stress axis : x y z
#
# Youngs Moduli (GPa) = 77.76748 49.87627 44.59322
#
# Poissons Ratio (x) = 0.18294 0.02535
# Poissons Ratio (y) = 0.28525 0.18609
# Poissons Ratio (z) = 0.04421 0.20814
#
# Static dielectric constant tensor:
#      x y z
#    x 1.973850 0.034110 0.018250 
#    y 0.034110 1.866800 0.039320 
#    z 0.018250 0.039320 1.891630 
# 
# From -- ./inp_files/26370.got.cif
#   From: 2010.05.17/outbox.cif.g08.bks.cpg/sg2_14_cif.got.tgz:26370.got - 2010.06.03 11:33:40.
