data_PCOD9103884
_publ_section_title
;
Structure prediction by ZEFSAII (Michael W. Deem and Ramdas Pophale) SiO2 
 PCOD9103884
Probable space group: P -1
;
_chemical_formula_sum "Si O2"
_cell_formula_units_Z 14
_cell_length_a 5.257066
_cell_length_b 22.781999
_cell_length_c 15.978279
_cell_angle_alpha 19.726320
_cell_angle_beta 119.344261
_cell_angle_gamma 118.709507
_cell_volume 561.853254
_symmetry_space_group_name_H-M "P -1"
_symmetry_group_IT_number 2
_symmetry_cell_setting 'triclinic'
loop_
_space_group_symop_operation_xyz
x,y,z
-x,-y,-z
loop_
_atom_site_type_symbol
_atom_site_label
_atom_site_fract_x
_atom_site_fract_y
_atom_site_fract_z
Si Si1 0.575714 0.173027 0.579879
Si Si2 0.033242 0.278246 0.887016
Si Si3 0.953750 0.573591 0.600963
Si Si4 0.528405 0.851440 0.587965
Si Si5 0.031733 0.305911 0.234942
Si Si6 0.297398 0.780319 0.924821
Si Si7 0.490775 0.132149 0.897985
O O1 0.656470 0.152497 0.523486
O O2 0.238341 0.217388 0.455614
O O3 0.758531 0.329559 0.444351
O O4 0.616627 0.995464 0.872945
O O5 0.007418 0.474215 0.655323
O O6 0.911827 0.175210 0.089921
O O7 0.364941 0.248191 0.959322
O O8 0.804675 0.220270 0.856757
O O9 0.824217 0.416590 0.850466
O O10 0.723427 0.717809 0.356858
O O11 0.777072 0.720717 0.781902
O O12 0.292679 0.781507 0.709537
O O13 0.673129 0.044847 0.359564
O O14 0.000000 0.500000 0.000000
O O15 0.500000 0.000000 0.000000
#
# Coordination Sequence:
#
# PCOD9103884 Si02
#       7
#     2   2   2   2   2   2   2
#     4  10  23  39  62  93 128 170 214 271 318 371
#     4  10  23  41  60  83 128 176 222 254 312 373
#     4  10  25  39  60  91 134 178 217 261 314 379
#     4  10  20  38  69  92 129 156 218 259 324 380
#     4  10  22  40  70 100 125 158 212 273 334 382
#     4  10  21  40  63  88 123 176 216 252 319 376
#     4  12  25  39  62  96 134 178 225 267 311 375
#
# _framework density 24.917535999999998
#
# number of rings (size 3 to 8) (size 9 to 14) (size 15 to 20)
#    1.714    0.000    1.429    3.000    6.000    1.714 
#    0.000    0.000    0.000    1.714    0.000    0.000 
#    0.000    0.000    0.000    0.000    0.000    0.000 
#
# Total GULP energy -78232.656944 kJ/mol
# GULP energy per Si atom -5588.046925 kJ/mol
# Density = 2.486082 g / cm^3
# Si number density = 24.917536 Si / 1000 Ang^3
#
#
#
# Elastic Constant Matrix: (Units=GPa)
#
#
# Indices 1 2 3 4 5 6 
#
# 1 130.3288 41.4483 42.9095 -7.5484 -4.1253 33.8068
# 2 41.4483 116.8938 58.4628 -34.4420 4.6437 -2.7479
# 3 42.9095 58.4628 146.7719 -31.8415 17.5348 21.2982
# 4 -7.5484 -34.4420 -31.8415 38.9733 6.6495 1.2320
# 5 -4.1253 4.6437 17.5348 6.6495 37.3985 -7.2378
# 6 33.8068 -2.7479 21.2982 1.2320 -7.2378 20.0999
#
#
#
# Elastic Compliance Matrix: (Units=1/GPa)
#
#
# Indices 1 2 3 4 5 6 
#
# 1 0.021138 -0.010696 0.006916 0.003424 -0.009474 -0.047965
# 2 -0.010696 0.018654 -0.008044 0.006003 0.005119 0.030540
# 3 0.006916 -0.008044 0.018791 0.013767 -0.017174 -0.039671
# 4 0.003424 0.006003 0.013767 0.047417 -0.021062 -0.030017
# 5 -0.009474 0.005119 -0.017174 -0.021062 0.047131 0.053096
# 6 -0.047965 0.030540 -0.039671 -0.030017 0.053096 0.197596
#
#
# Mechanical properties :
#
#
# Convention : Reuss Voigt Hill
#
# Bulk Modulus (GPa) = 28.62585 75.51507 52.07046
# Shear Modulus (GPa) = 12.95272 36.03928 24.49600
#
# Velocity S-wave (km/s) = 2.28244 3.80721 3.13882
# Velocity P-wave (km/s) = 4.29642 7.04970 5.83770
#
# Compressibility (1/GPa) = 0.03493347
#
# Stress axis : x y z
#
# Youngs Moduli (GPa) = 47.30814 53.60845 53.21798
#
# Poissons Ratio (x) = 0.57341 -0.36804
# Poissons Ratio (y) = 0.50602 0.42809
# Poissons Ratio (z) = -0.32717 0.43123
#
# Static dielectric constant tensor:
#      x y z
#    x 2.038510 -0.057870 -0.060060 
#    y -0.057870 2.034510 0.042210 
#    z -0.060060 0.042210 1.960880 
# 
# From -- ./inp_files/551054.got.cif
#   From: 2010.05.17/outbox.cif.g08.bks.cpg/sg2_276_cif.got.tgz:551054.got - 2010.06.03 11:33:40.
