data_PCOD9103221
_publ_section_title
;
Structure prediction by ZEFSAII (Michael W. Deem and Ramdas Pophale) SiO2 
 PCOD9103221
Probable space group: P -1
;
_chemical_formula_sum "Si O2"
_cell_formula_units_Z 16
_cell_length_a 8.211551
_cell_length_b 11.587311
_cell_length_c 13.140380
_cell_angle_alpha 34.481799
_cell_angle_beta 86.029097
_cell_angle_gamma 73.658852
_cell_volume 648.092175
_symmetry_space_group_name_H-M "P -1"
_symmetry_group_IT_number 2
_symmetry_cell_setting 'triclinic'
loop_
_space_group_symop_operation_xyz
x,y,z
-x,-y,-z
loop_
_atom_site_type_symbol
_atom_site_label
_atom_site_fract_x
_atom_site_fract_y
_atom_site_fract_z
Si Si1 0.599196 0.644865 0.338303
Si Si2 0.754740 0.419352 0.849894
Si Si3 0.626756 0.252886 0.306570
Si Si4 0.175154 0.181879 0.482545
Si Si5 0.894375 0.442411 0.134606
Si Si6 0.314750 0.977145 0.956939
Si Si7 0.175819 0.796037 0.447052
Si Si8 0.844800 0.829671 0.967331
O O1 0.500000 0.500000 0.500000
O O2 0.480792 0.802461 0.139756
O O3 0.763943 0.450737 0.420347
O O4 0.651923 0.836377 0.248217
O O5 0.574036 0.568682 0.806966
O O6 0.777729 0.610635 0.637348
O O7 0.742097 0.198428 0.968561
O O8 0.950179 0.309516 0.967869
O O9 0.756863 0.341872 0.176669
O O10 0.718344 0.209961 0.447705
O O11 0.654473 0.026584 0.411337
O O12 0.045800 0.268721 0.325672
O O13 0.037940 0.120069 0.600369
O O14 0.770688 0.656050 0.051972
O O15 0.000000 0.500000 0.000000
O O16 0.181788 0.113492 0.954263
O O17 0.226042 0.946687 0.256109
#
# Coordination Sequence:
#
# PCOD9103221 Si02
#       8
#     2   2   2   2   2   2   2   2
#     4  11  22  40  68  99 123 161 219 274 308 376
#     4  11  24  41  60  92 130 168 204 264 331 371
#     4  11  21  39  66  91 122 166 219 267 310 374
#     4  10  22  40  61  88 129 168 208 265 322 378
#     4  10  20  38  65  93 120 166 217 259 319 376
#     4  11  23  42  65  93 132 169 211 263 325 380
#     4  11  21  41  65  95 121 166 221 257 316 386
#     4  11  23  40  65  92 132 170 205 263 325 383
#
# _framework density 24.687844999999999
#
# number of rings (size 3 to 8) (size 9 to 14) (size 15 to 20)
#    0.000    1.250    2.500    6.000    1.750    0.000 
#    2.250    9.375    0.000    0.000    0.000    0.000 
#    0.000    0.000    0.000    0.000    0.000    0.000 
#
# Total GULP energy -89235.446425 kJ/mol
# GULP energy per Si atom -5577.215402 kJ/mol
# Density = 2.463165 g / cm^3
# Si number density = 24.687845 Si / 1000 Ang^3
#
#
#
# Elastic Constant Matrix: (Units=GPa)
#
#
# Indices 1 2 3 4 5 6 
#
# 1 62.7821 22.2204 28.2285 -12.2002 -10.3682 -20.4263
# 2 22.2204 82.7917 58.8238 -43.2749 -12.3396 -16.8825
# 3 28.2285 58.8238 149.8211 -27.1476 -28.4917 -4.0689
# 4 -12.2002 -43.2749 -27.1476 58.6960 -3.2654 -7.9458
# 5 -10.3682 -12.3396 -28.4917 -3.2654 41.2660 -8.7019
# 6 -20.4263 -16.8825 -4.0689 -7.9458 -8.7019 38.2725
#
#
#
# Elastic Compliance Matrix: (Units=1/GPa)
#
#
# Indices 1 2 3 4 5 6 
#
# 1 0.027733 0.011299 -0.002922 0.017183 0.015280 0.026516
# 2 0.011299 0.047016 -0.007921 0.039961 0.022906 0.039432
# 3 -0.002922 -0.007921 0.010513 -0.001890 0.003250 -0.003589
# 4 0.017183 0.039961 -0.001890 0.056898 0.028952 0.044993
# 5 0.015280 0.022906 0.003250 0.028952 0.046896 0.035278
# 6 0.026516 0.039432 -0.003589 0.044993 0.035278 0.074655
#
#
# Mechanical properties :
#
#
# Convention : Reuss Voigt Hill
#
# Bulk Modulus (GPa) = 11.60438 57.10447 34.35443
# Shear Modulus (GPa) = 17.15131 40.05505 28.60318
#
# Velocity S-wave (km/s) = 2.63863 4.03235 3.40750
# Velocity P-wave (km/s) = 3.74083 6.69780 5.42468
#
# Compressibility (1/GPa) = 0.08617437
#
# Stress axis : x y z
#
# Youngs Moduli (GPa) = 36.05870 21.26930 95.11909
#
# Poissons Ratio (x) = -0.24032 0.27793
# Poissons Ratio (y) = -0.40742 0.75340
# Poissons Ratio (z) = 0.10536 0.16847
#
# Static dielectric constant tensor:
#      x y z
#    x 2.187110 0.135680 -0.155920 
#    y 0.135680 2.179180 -0.099910 
#    z -0.155920 -0.099910 2.053810 
# 
# From -- ./inp_files/499683.got.cif
#   From: 2010.05.17/outbox.cif.g08.bks.cpg/sg2_250_cif.got.tgz:499683.got - 2010.06.03 11:33:40.
