data_PCOD9103136
_publ_section_title
;
Structure prediction by ZEFSAII (Michael W. Deem and Ramdas Pophale) SiO2 
 PCOD9103136
Probable space group: P -1
;
_chemical_formula_sum "Si O2"
_cell_formula_units_Z 16
_cell_length_a 10.891702
_cell_length_b 7.362206
_cell_length_c 9.985404
_cell_angle_alpha 93.795805
_cell_angle_beta 125.008161
_cell_angle_gamma 68.681186
_cell_volume 600.222631
_symmetry_space_group_name_H-M "P -1"
_symmetry_group_IT_number 2
_symmetry_cell_setting 'triclinic'
loop_
_space_group_symop_operation_xyz
x,y,z
-x,-y,-z
loop_
_atom_site_type_symbol
_atom_site_label
_atom_site_fract_x
_atom_site_fract_y
_atom_site_fract_z
Si Si1 0.719453 0.109230 0.622362
Si Si2 0.585151 0.702869 0.927130
Si Si3 0.304108 0.701639 0.637039
Si Si4 0.413431 0.158267 0.789429
Si Si5 0.237760 0.851774 0.075601
Si Si6 0.786063 0.769292 0.823349
Si Si7 0.936354 0.199650 0.285228
Si Si8 0.152998 0.406020 0.427143
O O1 0.622575 0.228087 0.442374
O O2 0.733827 0.239151 0.762568
O O3 0.667538 0.951653 0.661882
O O4 0.896250 0.982630 0.660037
O O5 0.468811 0.586882 0.820734
O O6 0.714197 0.683986 0.891708
O O7 0.449589 0.932445 0.840325
O O8 0.655287 0.700731 0.118118
O O9 0.169702 0.837843 0.665761
O O10 0.206428 0.583517 0.501462
O O11 0.592488 0.150437 0.872322
O O12 0.296593 0.232536 0.592565
O O13 0.130602 0.091476 0.047825
O O14 0.165928 0.757749 0.913700
O O15 0.862266 0.614442 0.744666
O O16 0.992253 0.374361 0.371386
#
# Coordination Sequence:
#
# PCOD9103136 Si02
#       8
#     2   2   2   2   2   2   2   2
#     4   9  21  37  64  92 117 154 213 249 299 349
#     4  10  20  38  65  89 124 152 213 248 301 352
#     4  12  24  39  60  95 125 167 197 250 304 375
#     4  10  21  40  63  97 117 160 202 262 300 356
#     4   9  19  40  69  87 118 154 213 251 304 340
#     4   8  20  39  60  91 118 158 192 263 292 357
#     4  11  21  44  63  87 119 168 205 258 294 358
#     4  11  25  40  61  89 133 162 200 241 318 365
#
# _framework density 26.656777000000002
#
# number of rings (size 3 to 8) (size 9 to 14) (size 15 to 20)
#    0.750    1.250    1.250    2.625    1.750    2.500 
#    0.000    0.625    0.000    0.000    0.000    0.000 
#    0.000    0.000    0.000    0.000    0.000    0.000 
#
# Total GULP energy -89222.283862 kJ/mol
# GULP energy per Si atom -5576.392741 kJ/mol
# Density = 2.659610 g / cm^3
# Si number density = 26.656777 Si / 1000 Ang^3
#
#
#
# Elastic Constant Matrix: (Units=GPa)
#
#
# Indices 1 2 3 4 5 6 
#
# 1 76.2600 8.3866 31.9300 4.9530 -18.4472 16.4586
# 2 8.3866 59.6490 18.3206 12.4416 -4.6584 8.8360
# 3 31.9300 18.3206 149.6108 31.9939 -14.7478 7.9697
# 4 4.9530 12.4416 31.9939 39.0739 5.0721 5.9608
# 5 -18.4472 -4.6584 -14.7478 5.0721 56.2028 0.8965
# 6 16.4586 8.8360 7.9697 5.9608 0.8965 24.9895
#
#
#
# Elastic Compliance Matrix: (Units=1/GPa)
#
#
# Indices 1 2 3 4 5 6 
#
# 1 0.017999 0.000252 -0.002996 0.001161 0.005220 -0.011452
# 2 0.000252 0.018961 -0.000870 -0.004766 0.001944 -0.005525
# 3 -0.002996 -0.000870 0.009113 -0.007217 0.001971 0.001025
# 4 0.001161 -0.004766 -0.007217 0.034239 -0.004922 -0.004768
# 5 0.005220 0.001944 0.001971 -0.004922 0.020698 -0.004323
# 6 -0.011452 -0.005525 0.001025 -0.004768 -0.004323 0.050479
#
#
# Mechanical properties :
#
#
# Convention : Reuss Voigt Hill
#
# Bulk Modulus (GPa) = 25.74419 44.75491 35.24955
# Shear Modulus (GPa) = 29.12661 39.17876 34.15268
#
# Velocity S-wave (km/s) = 3.30912 3.83789 3.58327
# Velocity P-wave (km/s) = 4.92737 6.03862 5.51108
#
# Compressibility (1/GPa) = 0.03884371
#
# Stress axis : x y z
#
# Youngs Moduli (GPa) = 55.55967 52.73951 109.73413
#
# Poissons Ratio (x) = -0.01326 0.32872
# Poissons Ratio (y) = -0.01397 0.09551
# Poissons Ratio (z) = 0.16644 0.04590
#
# Static dielectric constant tensor:
#      x y z
#    x 2.037210 -0.060190 -0.027110 
#    y -0.060190 2.328490 0.053270 
#    z -0.027110 0.053270 2.104540 
# 
# From -- ./inp_files/244182.got.cif
#   From: 2010.05.17/outbox.cif.g08.bks.cpg/sg2_123_cif.got.tgz:244182.got - 2010.06.03 11:33:40.
