data_PCOD9103326
_publ_section_title
;
Structure prediction by ZEFSAII (Michael W. Deem and Ramdas Pophale) SiO2 
 PCOD9103326
Probable space group: P -1
;
_chemical_formula_sum "Si O2"
_cell_formula_units_Z 14
_cell_length_a 14.017367
_cell_length_b 17.396375
_cell_length_c 7.297177
_cell_angle_alpha 131.084258
_cell_angle_beta 50.929799
_cell_angle_gamma 156.561939
_cell_volume 531.264423
_symmetry_space_group_name_H-M "P -1"
_symmetry_group_IT_number 2
_symmetry_cell_setting 'triclinic'
loop_
_space_group_symop_operation_xyz
x,y,z
-x,-y,-z
loop_
_atom_site_type_symbol
_atom_site_label
_atom_site_fract_x
_atom_site_fract_y
_atom_site_fract_z
Si Si1 0.735436 0.340381 0.487023
Si Si2 0.610438 0.033171 0.154857
Si Si3 0.165271 0.148062 0.303237
Si Si4 0.027021 0.723034 0.585693
Si Si5 0.586234 0.296509 0.984698
Si Si6 0.237323 0.267713 0.985027
Si Si7 0.008835 0.250473 0.742119
O O1 0.612003 0.150025 0.261831
O O2 0.815494 0.487216 0.482757
O O3 0.000000 0.500000 0.500000
O O4 0.571594 0.265345 0.734301
O O5 0.740876 0.140324 0.363322
O O6 0.793128 0.103801 0.913475
O O7 0.396932 0.801480 0.090522
O O8 0.366802 0.207102 0.191716
O O9 0.223230 0.215833 0.127203
O O10 0.158391 0.251847 0.574677
O O11 0.893107 0.908908 0.260974
O O12 0.930455 0.753433 0.853297
O O13 0.076331 0.793394 0.431377
O O14 0.819464 0.531879 0.086952
O O15 0.500000 0.500000 0.000000
#
# Coordination Sequence:
#
# PCOD9103326 Si02
#       7
#     2   2   2   2   2   2   2
#     4  10  21  43  72  92 128 182 222 274 334 384
#     4  11  24  45  66  98 131 177 226 272 330 391
#     4  10  23  38  63 100 135 172 216 269 327 399
#     4  10  21  44  66  92 133 175 214 279 327 383
#     4  12  22  43  70  96 137 177 220 272 334 392
#     4  10  20  38  65  98 128 173 223 261 329 398
#     4  11  25  42  65 103 137 170 223 272 328 401
#
# _framework density 26.352228
#
# number of rings (size 3 to 8) (size 9 to 14) (size 15 to 20)
#    0.000    1.429    4.286    1.714    0.000    3.429 
#    2.571    0.714    0.000    0.000    0.000    0.000 
#    0.000    0.000    0.000    0.000    0.000    0.000 
#
# Total GULP energy -78413.939099 kJ/mol
# GULP energy per Si atom -5600.995650 kJ/mol
# Density = 2.629225 g / cm^3
# Si number density = 26.352228 Si / 1000 Ang^3
#
#
#
# Elastic Constant Matrix: (Units=GPa)
#
#
# Indices 1 2 3 4 5 6 
#
# 1 79.7753 18.6044 9.5310 -3.3691 -5.1656 -21.8658
# 2 18.6044 147.0893 20.7728 10.6248 -9.8248 -28.9577
# 3 9.5310 20.7728 110.7557 -12.7986 -25.2397 -11.3856
# 4 -3.3691 10.6248 -12.7986 44.2366 -12.1197 -8.4690
# 5 -5.1656 -9.8248 -25.2397 -12.1197 34.4896 1.3190
# 6 -21.8658 -28.9577 -11.3856 -8.4690 1.3190 40.6508
#
#
#
# Elastic Compliance Matrix: (Units=1/GPa)
#
#
# Indices 1 2 3 4 5 6 
#
# 1 0.015475 -0.000351 0.001201 0.004567 0.004349 0.009221
# 2 -0.000351 0.008111 -0.000805 -0.000908 0.001153 0.005137
# 3 0.001201 -0.000805 0.013509 0.008674 0.012684 0.005251
# 4 0.004567 -0.000908 0.008674 0.032562 0.017816 0.010445
# 5 0.004349 0.001153 0.012684 0.017816 0.045174 0.008959
# 6 0.009221 0.005137 0.005251 0.010445 0.008959 0.036575
#
#
# Mechanical properties :
#
#
# Convention : Reuss Voigt Hill
#
# Bulk Modulus (GPa) = 26.89317 48.38186 37.63752
# Shear Modulus (GPa) = 30.54161 43.12288 36.83225
#
# Velocity S-wave (km/s) = 3.40807 4.04964 3.74263
# Velocity P-wave (km/s) = 5.07090 6.34552 5.74368
#
# Compressibility (1/GPa) = 0.03718416
#
# Stress axis : x y z
#
# Youngs Moduli (GPa) = 64.61864 123.29573 74.02391
#
# Poissons Ratio (x) = 0.04329 -0.08889
# Poissons Ratio (y) = 0.02269 0.05960
# Poissons Ratio (z) = -0.07759 0.09928
#
# Static dielectric constant tensor:
#      x y z
#    x 2.115390 0.036460 -0.001100 
#    y 0.036460 2.066620 -0.009350 
#    z -0.001100 -0.009350 2.053040 
# 
# From -- ./inp_files/190480.got.cif
#   From: 2010.05.17/outbox.cif.g08.bks.cpg/sg2_96_cif.got.tgz:190480.got - 2010.06.03 11:33:40.
