data_PCOD9103200
_publ_section_title
;
Structure prediction by ZEFSAII (Michael W. Deem and Ramdas Pophale) SiO2 
 PCOD9103200
Probable space group: P -1
;
_chemical_formula_sum "Si O2"
_cell_formula_units_Z 14
_cell_length_a 7.441200
_cell_length_b 8.956067
_cell_length_c 12.867248
_cell_angle_alpha 55.252333
_cell_angle_beta 120.052907
_cell_angle_gamma 122.681386
_cell_volume 569.482626
_symmetry_space_group_name_H-M "P -1"
_symmetry_group_IT_number 2
_symmetry_cell_setting 'triclinic'
loop_
_space_group_symop_operation_xyz
x,y,z
-x,-y,-z
loop_
_atom_site_type_symbol
_atom_site_label
_atom_site_fract_x
_atom_site_fract_y
_atom_site_fract_z
Si Si1 0.170969 0.610492 0.663881
Si Si2 0.425657 0.246439 0.688018
Si Si3 0.755432 0.701127 0.061798
Si Si4 0.242019 0.906467 0.057441
Si Si5 0.040598 0.891622 0.657081
Si Si6 0.688345 0.372846 0.517962
Si Si7 0.909071 0.676520 0.899037
O O1 0.287125 0.468255 0.800591
O O2 0.155495 0.749323 0.697160
O O3 0.281470 0.715857 0.547941
O O4 0.922444 0.479932 0.603006
O O5 0.594133 0.207826 0.831452
O O6 0.525188 0.230833 0.608896
O O7 0.402928 0.454515 0.602921
O O8 0.190194 0.077919 0.690849
O O9 0.025668 0.818493 0.104752
O O10 0.735360 0.640012 0.958769
O O11 0.649230 0.863948 0.984522
O O12 0.121595 0.853413 0.934298
O O13 0.863308 0.747453 0.744334
O O14 0.000000 0.000000 0.500000
O O15 0.000000 0.500000 0.000000
#
# Coordination Sequence:
#
# PCOD9103200 Si02
#       7
#     2   2   2   2   2   2   2
#     4  11  21  42  63  93 124 173 217 252 325 392
#     4  11  23  42  62  99 128 163 215 272 314 376
#     4   9  19  38  64  90 120 170 216 252 313 385
#     4   9  20  37  63  90 125 163 216 252 311 381
#     4  12  25  39  65  98 129 167 216 267 325 383
#     4  10  23  38  68  89 130 171 206 268 319 381
#     4  10  20  38  65  92 126 171 206 265 315 381
#
# _framework density 24.583718999999999
#
# number of rings (size 3 to 8) (size 9 to 14) (size 15 to 20)
#    0.857    0.857    4.286    0.000    2.000    2.286 
#    0.000    2.143    0.000    0.000    0.000    0.000 
#    0.000    0.000    0.000    0.000    0.000    0.000 
#
# Total GULP energy -78125.767438 kJ/mol
# GULP energy per Si atom -5580.411960 kJ/mol
# Density = 2.452777 g / cm^3
# Si number density = 24.583719 Si / 1000 Ang^3
#
#
#
# Elastic Constant Matrix: (Units=GPa)
#
#
# Indices 1 2 3 4 5 6 
#
# 1 37.0108 -9.8492 31.1589 2.7101 -14.0031 0.0329
# 2 -9.8492 38.3007 2.2634 1.4909 -1.4065 -8.6735
# 3 31.1589 2.2634 144.6226 -10.4442 -13.8845 4.5330
# 4 2.7101 1.4909 -10.4442 18.0808 5.2825 -1.5147
# 5 -14.0031 -1.4065 -13.8845 5.2825 51.0724 7.2314
# 6 0.0329 -8.6735 4.5330 -1.5147 7.2314 24.2391
#
#
#
# Elastic Compliance Matrix: (Units=1/GPa)
#
#
# Indices 1 2 3 4 5 6 
#
# 1 0.044556 0.013629 -0.010007 -0.016686 0.011274 0.002282
# 2 0.013629 0.032765 -0.004045 -0.006918 0.002664 0.011235
# 3 -0.010007 -0.004045 0.009690 0.007393 -0.000617 -0.002600
# 4 -0.016686 -0.006918 0.007393 0.065854 -0.010030 0.003272
# 5 0.011274 0.002664 -0.000617 -0.010030 0.024593 -0.006910
# 6 0.002282 0.011235 -0.002600 0.003272 -0.006910 0.048025
#
#
# Mechanical properties :
#
#
# Convention : Reuss Voigt Hill
#
# Bulk Modulus (GPa) = 11.60560 29.67558 20.64059
# Shear Modulus (GPa) = 19.60402 31.76919 25.68660
#
# Velocity S-wave (km/s) = 2.82696 3.59874 3.23594
# Velocity P-wave (km/s) = 3.92259 5.41898 4.73033
#
# Compressibility (1/GPa) = 0.08616528
#
# Stress axis : x y z
#
# Youngs Moduli (GPa) = 22.44349 30.52081 103.19895
#
# Poissons Ratio (x) = -0.41598 1.03272
# Poissons Ratio (y) = -0.30589 0.41746
# Poissons Ratio (z) = 0.22459 0.12346
#
# Static dielectric constant tensor:
#      x y z
#    x 2.068290 -0.020170 -0.082900 
#    y -0.020170 1.998420 0.082510 
#    z -0.082900 0.082510 2.026780 
# 
# From -- ./inp_files/263556.got.cif
#   From: 2010.05.17/outbox.cif.g08.bks.cpg/sg2_132_cif.got.tgz:263556.got - 2010.06.03 11:33:40.
