data_PCOD9103031
_publ_section_title
;
Structure prediction by ZEFSAII (Michael W. Deem and Ramdas Pophale) SiO2 
 PCOD9103031
Probable space group: P -1
;
_chemical_formula_sum "Si O2"
_cell_formula_units_Z 16
_cell_length_a 9.385656
_cell_length_b 11.344844
_cell_length_c 11.259989
_cell_angle_alpha 56.691490
_cell_angle_beta 75.554657
_cell_angle_gamma 41.225819
_cell_volume 630.550015
_symmetry_space_group_name_H-M "P -1"
_symmetry_group_IT_number 2
_symmetry_cell_setting 'triclinic'
loop_
_space_group_symop_operation_xyz
x,y,z
-x,-y,-z
loop_
_atom_site_type_symbol
_atom_site_label
_atom_site_fract_x
_atom_site_fract_y
_atom_site_fract_z
Si Si1 0.677576 0.230712 0.446278
Si Si2 0.808948 0.110421 0.215164
Si Si3 0.469847 0.891614 0.152530
Si Si4 0.725363 0.197482 0.936288
Si Si5 0.012210 0.465148 0.729887
Si Si6 0.202853 0.607876 0.345532
Si Si7 0.985767 0.301687 0.066554
Si Si8 0.973582 0.265395 0.333573
O O1 0.439140 0.388193 0.474647
O O2 0.767680 0.323797 0.395539
O O3 0.695213 0.183915 0.326595
O O4 0.857950 0.986208 0.592313
O O5 0.019742 0.846566 0.310189
O O6 0.890730 0.212356 0.121176
O O7 0.650881 0.204294 0.079714
O O8 0.371539 0.835754 0.124229
O O9 0.722274 0.694911 0.257361
O O10 0.252277 0.100761 0.155211
O O11 0.500000 0.000000 0.000000
O O12 0.687816 0.380128 0.793015
O O13 0.000000 0.000000 0.000000
O O14 0.922338 0.434172 0.660289
O O15 0.913825 0.694722 0.633989
O O16 0.964966 0.409386 0.892378
O O17 0.881492 0.416922 0.152360
#
# Coordination Sequence:
#
# PCOD9103031 Si02
#       8
#     2   2   2   2   2   2   2   2
#     4  10  24  44  62  86 119 165 209 246 291 362
#     4  10  19  38  64  93 120 155 203 245 301 364
#     4  10  18  31  56  91 120 151 189 242 305 355
#     4  10  16  32  59  89 123 149 193 249 297 357
#     4  11  22  38  60  92 123 154 200 250 311 356
#     4  11  21  39  64  91 121 160 198 250 306 355
#     4  10  18  37  62  91 121 155 193 251 310 352
#     4  10  23  43  59  85 124 155 206 254 291 361
#
# _framework density 25.374673999999999
#
# number of rings (size 3 to 8) (size 9 to 14) (size 15 to 20)
#    0.000    1.750    3.750    3.375    0.000    1.000 
#   11.250    2.500    0.000    0.000    0.000    0.000 
#    0.000    0.000    0.000    0.000    0.000    0.000 
#
# Total GULP energy -89275.349544 kJ/mol
# GULP energy per Si atom -5579.709346 kJ/mol
# Density = 2.531692 g / cm^3
# Si number density = 25.374674 Si / 1000 Ang^3
#
#
#
# Elastic Constant Matrix: (Units=GPa)
#
#
# Indices 1 2 3 4 5 6 
#
# 1 155.5005 30.7017 12.1160 -17.8153 -22.8195 6.4914
# 2 30.7017 89.0977 33.4101 -10.4911 -9.5287 2.3300
# 3 12.1160 33.4101 58.8559 14.2410 -23.0392 -12.1512
# 4 -17.8153 -10.4911 14.2410 47.9441 -1.0519 -1.8667
# 5 -22.8195 -9.5287 -23.0392 -1.0519 34.7986 -4.5836
# 6 6.4914 2.3300 -12.1512 -1.8667 -4.5836 35.0042
#
#
#
# Elastic Compliance Matrix: (Units=1/GPa)
#
#
# Indices 1 2 3 4 5 6 
#
# 1 0.007836 -0.002381 0.001366 0.002105 0.005455 0.000006
# 2 -0.002381 0.018430 -0.016469 0.007583 -0.008133 -0.007163
# 3 0.001366 -0.016469 0.044604 -0.014984 0.027993 0.019193
# 4 0.002105 0.007583 -0.014984 0.027397 -0.006356 -0.005468
# 5 0.005455 -0.008133 0.027993 -0.006356 0.050472 0.015517
# 6 0.000006 -0.007163 0.019193 -0.005468 0.015517 0.037447
#
#
# Mechanical properties :
#
#
# Convention : Reuss Voigt Hill
#
# Bulk Modulus (GPa) = 27.85371 50.65663 39.25517
# Shear Modulus (GPa) = 21.44804 38.69779 30.07291
#
# Velocity S-wave (km/s) = 2.91048 3.90943 3.44634
# Velocity P-wave (km/s) = 4.72179 6.35492 5.59823
#
# Compressibility (1/GPa) = 0.03590186
#
# Stress axis : x y z
#
# Youngs Moduli (GPa) = 127.61562 54.25884 22.41957
#
# Poissons Ratio (x) = 0.12921 -0.03063
# Poissons Ratio (y) = 0.30390 0.36923
# Poissons Ratio (z) = -0.17436 0.89359
#
# Static dielectric constant tensor:
#      x y z
#    x 2.006490 -0.019650 0.111690 
#    y -0.019650 2.181020 -0.018220 
#    z 0.111690 -0.018220 2.176830 
# 
# From -- ./inp_files/500014.got.cif
#   From: 2010.05.17/outbox.cif.g08.bks.cpg/sg2_251_cif.got.tgz:500014.got - 2010.06.03 11:33:40.
