data_PCOD9103414
_publ_section_title
;
Structure prediction by ZEFSAII (Michael W. Deem and Ramdas Pophale) SiO2 
 PCOD9103414
Probable space group: P -1
;
_chemical_formula_sum "Si O2"
_cell_formula_units_Z 16
_cell_length_a 11.243254
_cell_length_b 14.132572
_cell_length_c 13.889571
_cell_angle_alpha 42.427246
_cell_angle_beta 43.263454
_cell_angle_gamma 32.000984
_cell_volume 756.096294
_symmetry_space_group_name_H-M "P -1"
_symmetry_group_IT_number 2
_symmetry_cell_setting 'triclinic'
loop_
_space_group_symop_operation_xyz
x,y,z
-x,-y,-z
loop_
_atom_site_type_symbol
_atom_site_label
_atom_site_fract_x
_atom_site_fract_y
_atom_site_fract_z
Si Si1 0.296281 0.808037 0.366911
Si Si2 0.346036 0.378983 0.951500
Si Si3 0.178215 0.766515 0.263933
Si Si4 0.813411 0.508935 0.659884
Si Si5 0.688218 0.783461 0.077082
Si Si6 0.700856 0.168531 0.254619
Si Si7 0.167008 0.770428 0.675485
Si Si8 0.876982 0.375231 0.932585
O O1 0.218312 0.751502 0.366451
O O2 0.551145 0.732512 0.250810
O O3 0.275424 0.739739 0.530753
O O4 0.108863 0.039407 0.308771
O O5 0.627802 0.226392 0.891230
O O6 0.240948 0.315284 0.994874
O O7 0.246131 0.577160 0.814047
O O8 0.278376 0.425729 0.067639
O O9 0.244121 0.588386 0.304940
O O10 0.909751 0.953174 0.260201
O O11 0.572784 0.716842 0.677134
O O12 0.912086 0.392782 0.788260
O O13 0.000000 0.500000 0.500000
O O14 0.884774 0.744383 0.057043
O O15 0.500000 0.000000 0.000000
O O16 0.740763 0.171251 0.342786
O O17 0.754107 0.290544 0.081506
#
# Coordination Sequence:
#
# PCOD9103414 Si02
#       8
#     2   2   2   2   2   2   2   2
#     4   9  20  34  62  95 126 167 203 259 321 376
#     4  10  20  38  66  90 123 166 208 261 313 379
#     4  10  21  41  66  92 124 169 212 257 317 369
#     4  12  27  44  64  92 130 165 215 267 309 374
#     4  11  22  37  58  96 135 156 210 261 317 372
#     4  10  22  44  67  88 129 163 217 261 307 383
#     4   9  17  36  63  93 123 164 211 256 318 374
#     4  11  23  41  65  95 124 171 209 257 319 373
#
# _framework density 21.161325000000001
#
# number of rings (size 3 to 8) (size 9 to 14) (size 15 to 20)
#    0.000    1.750    2.500    3.750    1.750    4.000 
#    2.250    2.500    0.000    0.000    0.000    0.000 
#    0.000    0.000    0.000    0.000    0.000    0.000 
#
# Total GULP energy -89301.281193 kJ/mol
# GULP energy per Si atom -5581.330075 kJ/mol
# Density = 2.111316 g / cm^3
# Si number density = 21.161325 Si / 1000 Ang^3
#
#
#
# Elastic Constant Matrix: (Units=GPa)
#
#
# Indices 1 2 3 4 5 6 
#
# 1 47.0409 12.6392 42.3189 12.4975 6.9686 0.0121
# 2 12.6392 98.3842 9.5597 11.2008 -2.7584 -7.9497
# 3 42.3189 9.5597 88.5950 27.1576 18.4173 -0.3789
# 4 12.4975 11.2008 27.1576 27.9596 1.6546 -5.5917
# 5 6.9686 -2.7584 18.4173 1.6546 29.8758 13.6695
# 6 0.0121 -7.9497 -0.3789 -5.5917 13.6695 40.0234
#
#
#
# Elastic Compliance Matrix: (Units=1/GPa)
#
#
# Indices 1 2 3 4 5 6 
#
# 1 0.038583 -0.003390 -0.019562 0.002582 0.003362 -0.001658
# 2 -0.003390 0.011053 0.001667 -0.004251 0.000330 0.001506
# 3 -0.019562 0.001667 0.028974 -0.018780 -0.013256 0.002515
# 4 0.002582 -0.004251 -0.018780 0.055220 0.005289 0.004886
# 5 0.003362 0.000330 -0.013256 0.005289 0.047748 -0.015630
# 6 -0.001658 0.001506 0.002515 0.004886 -0.015630 0.031330
#
#
# Mechanical properties :
#
#
# Convention : Reuss Voigt Hill
#
# Bulk Modulus (GPa) = 27.74497 40.33951 34.04224
# Shear Modulus (GPa) = 18.69228 30.87192 24.78210
#
# Velocity S-wave (km/s) = 2.97530 3.82368 3.42585
# Velocity P-wave (km/s) = 4.99428 6.21275 5.63654
#
# Compressibility (1/GPa) = 0.03604257
#
# Stress axis : x y z
#
# Youngs Moduli (GPa) = 25.91795 90.47726 34.51311
#
# Poissons Ratio (x) = 0.30668 0.67513
# Poissons Ratio (y) = 0.08785 -0.05754
# Poissons Ratio (z) = 0.50700 -0.15086
#
# Static dielectric constant tensor:
#      x y z
#    x 1.767140 -0.021630 -0.023220 
#    y -0.021630 1.838510 0.025040 
#    z -0.023220 0.025040 1.766500 
# 
# From -- ./inp_files/521451.got.cif
#   From: 2010.05.17/outbox.cif.g08.bks.cpg/sg2_261_cif.got.tgz:521451.got - 2010.06.03 11:33:40.
