data_PCOD9103320
_publ_section_title
;
Structure prediction by ZEFSAII (Michael W. Deem and Ramdas Pophale) SiO2 
 PCOD9103320
Probable space group: P -1
;
_chemical_formula_sum "Si O2"
_cell_formula_units_Z 16
_cell_length_a 15.179162
_cell_length_b 9.770301
_cell_length_c 4.806899
_cell_angle_alpha 105.177588
_cell_angle_beta 81.430395
_cell_angle_gamma 116.606552
_cell_volume 614.744832
_symmetry_space_group_name_H-M "P -1"
_symmetry_group_IT_number 2
_symmetry_cell_setting 'triclinic'
loop_
_space_group_symop_operation_xyz
x,y,z
-x,-y,-z
loop_
_atom_site_type_symbol
_atom_site_label
_atom_site_fract_x
_atom_site_fract_y
_atom_site_fract_z
Si Si1 0.656001 0.056646 0.476124
Si Si2 0.418982 0.150542 0.116060
Si Si3 0.630771 0.340774 0.342701
Si Si4 0.957145 0.816094 0.487326
Si Si5 0.257611 0.476480 0.133538
Si Si6 0.228712 0.176616 0.187053
Si Si7 0.093945 0.507817 0.628330
Si Si8 0.863902 0.159864 0.211401
O O1 0.607106 0.006919 0.772174
O O2 0.639289 0.195097 0.413034
O O3 0.773525 0.109334 0.448491
O O4 0.602212 0.905109 0.221934
O O5 0.525503 0.277413 0.211783
O O6 0.333649 0.202485 0.265514
O O7 0.653014 0.460912 0.650703
O O8 0.710894 0.423378 0.107718
O O9 0.845363 0.783923 0.575188
O O10 0.032247 0.818282 0.697471
O O11 0.941391 0.651860 0.256553
O O12 0.000000 0.000000 0.500000
O O13 0.239300 0.297096 0.995660
O O14 0.171841 0.501510 0.357928
O O15 0.172778 0.993165 0.042979
O O16 0.131407 0.680085 0.837755
O O17 0.000000 0.500000 0.500000
#
# Coordination Sequence:
#
# PCOD9103320 Si02
#       8
#     2   2   2   2   2   2   2   2
#     4  11  22  40  67  99 138 176 233 283 347 405
#     4  11  24  41  67 101 134 186 228 287 345 409
#     4  12  24  43  69  97 144 179 234 286 347 408
#     4  10  20  38  65  97 136 178 224 283 349 412
#     4  11  25  44  69 102 140 183 227 290 349 408
#     4  10  24  42  65  97 139 181 233 283 349 415
#     4   9  20  42  66  98 137 178 229 276 340 412
#     4  10  20  40  66  92 135 179 228 279 342 408
#
# _framework density 26.027062999999998
#
# number of rings (size 3 to 8) (size 9 to 14) (size 15 to 20)
#    0.000    1.500    1.250    3.375    0.000    5.000 
#    2.250    1.250    0.000    0.000    0.000    0.000 
#    0.000    0.000    0.000    0.000    0.000    0.000 
#
# Total GULP energy -89428.404509 kJ/mol
# GULP energy per Si atom -5589.275282 kJ/mol
# Density = 2.596782 g / cm^3
# Si number density = 26.027063 Si / 1000 Ang^3
#
#
#
# Elastic Constant Matrix: (Units=GPa)
#
#
# Indices 1 2 3 4 5 6 
#
# 1 141.7270 54.3257 30.6149 10.1522 14.8915 -7.8023
# 2 54.3257 178.8844 47.6144 18.9120 -9.9969 -41.6055
# 3 30.6149 47.6144 90.9691 4.6993 8.5054 -7.6265
# 4 10.1522 18.9120 4.6993 45.0959 -1.7814 -9.7408
# 5 14.8915 -9.9969 8.5054 -1.7814 26.4411 3.7579
# 6 -7.8023 -41.6055 -7.6265 -9.7408 3.7579 41.0101
#
#
#
# Elastic Compliance Matrix: (Units=1/GPa)
#
#
# Indices 1 2 3 4 5 6 
#
# 1 0.009031 -0.002963 -0.000988 -0.001180 -0.005794 -0.001220
# 2 -0.002963 0.009784 -0.003915 -0.001113 0.005433 0.007872
# 3 -0.000988 -0.003915 0.013766 -0.000019 -0.005193 -0.001128
# 4 -0.001180 -0.001113 -0.000019 0.023866 0.001262 0.004195
# 5 -0.005794 0.005433 -0.005193 0.001262 0.044946 -0.000375
# 6 -0.001220 0.007872 -0.001128 0.004195 -0.000375 0.032960
#
#
# Mechanical properties :
#
#
# Convention : Reuss Voigt Hill
#
# Bulk Modulus (GPa) = 59.34515 75.18783 67.26649
# Shear Modulus (GPa) = 32.11291 41.11111 36.61201
#
# Velocity S-wave (km/s) = 3.51640 3.97867 3.75466
# Velocity P-wave (km/s) = 6.27197 7.07513 6.68562
#
# Compressibility (1/GPa) = 0.01685058
#
# Stress axis : x y z
#
# Youngs Moduli (GPa) = 110.72900 102.20612 72.64156
#
# Poissons Ratio (x) = 0.30279 0.07179
# Poissons Ratio (y) = 0.32803 0.28436
# Poissons Ratio (z) = 0.10943 0.40010
#
# Static dielectric constant tensor:
#      x y z
#    x 2.020640 0.042470 -0.005840 
#    y 0.042470 2.189360 -0.003890 
#    z -0.005840 -0.003890 2.056400 
# 
# From -- ./inp_files/95507.got.cif
#   From: 2010.05.17/outbox.cif.g08.bks.cpg/sg2_48_cif.got.tgz:95507.got - 2010.06.03 11:33:40.
