data_PCOD9103767
_publ_section_title
;
Structure prediction by ZEFSAII (Michael W. Deem and Ramdas Pophale) SiO2 
 PCOD9103767
Probable space group: P -1
;
_chemical_formula_sum "Si O2"
_cell_formula_units_Z 16
_cell_length_a 15.323481
_cell_length_b 8.062031
_cell_length_c 10.887366
_cell_angle_alpha 66.046567
_cell_angle_beta 50.750449
_cell_angle_gamma 106.605718
_cell_volume 611.006762
_symmetry_space_group_name_H-M "P -1"
_symmetry_group_IT_number 2
_symmetry_cell_setting 'triclinic'
loop_
_space_group_symop_operation_xyz
x,y,z
-x,-y,-z
loop_
_atom_site_type_symbol
_atom_site_label
_atom_site_fract_x
_atom_site_fract_y
_atom_site_fract_z
Si Si1 0.280503 0.225368 0.525875
Si Si2 0.719699 0.217074 0.141555
Si Si3 0.320934 0.721418 0.597108
Si Si4 0.641621 0.267534 0.705123
Si Si5 0.128685 0.023980 0.457209
Si Si6 0.013316 0.487379 0.634344
Si Si7 0.710800 0.723699 0.228908
Si Si8 0.349605 0.446720 0.935246
O O1 0.381559 0.546453 0.342471
O O2 0.152502 0.074437 0.567336
O O3 0.211770 0.103800 0.761958
O O4 0.440997 0.286546 0.341982
O O5 0.779049 0.287474 0.209003
O O6 0.722247 0.434929 0.038019
O O7 0.516653 0.913807 0.411390
O O8 0.827627 0.234208 0.942724
O O9 0.360575 0.837170 0.391713
O O10 0.232714 0.416971 0.759972
O O11 0.845365 0.495738 0.488102
O O12 0.500000 0.000000 0.000000
O O13 0.082737 0.759148 0.550866
O O14 0.306620 0.294323 0.146128
O O15 0.000000 0.000000 0.500000
O O16 0.000000 0.500000 0.500000
O O17 0.500000 0.500000 0.500000
O O18 0.730891 0.759043 0.050647
#
# Coordination Sequence:
#
# PCOD9103767 Si02
#       8
#     2   2   2   2   2   2   2   2
#     4  10  22  40  64  95 123 163 221 257 310 386
#     4  10  21  40  63  94 125 165 209 263 320 378
#     4   9  20  37  65  92 122 163 214 257 315 381
#     4  11  23  39  64  93 130 167 212 259 314 377
#     4  12  24  40  61  93 126 165 211 261 322 377
#     4  12  26  42  62  89 132 168 210 265 329 377
#     4   8  17  37  62  92 122 159 208 262 305 375
#     4  10  20  38  68  91 126 162 210 266 310 379
#
# _framework density 26.186288999999999
#
# number of rings (size 3 to 8) (size 9 to 14) (size 15 to 20)
#    0.000    1.750    1.250    2.625    3.500    2.500 
#    0.000    0.625    2.750    0.000    0.000    0.000 
#    0.000    0.000    0.000    0.000    0.000    0.000 
#
# Total GULP energy -89357.419285 kJ/mol
# GULP energy per Si atom -5584.838705 kJ/mol
# Density = 2.612669 g / cm^3
# Si number density = 26.186289 Si / 1000 Ang^3
#
#
#
# Elastic Constant Matrix: (Units=GPa)
#
#
# Indices 1 2 3 4 5 6 
#
# 1 121.3654 40.4322 32.0438 22.7474 6.1239 24.0674
# 2 40.4322 121.6439 8.7017 20.6757 11.1891 22.4877
# 3 32.0438 8.7017 63.5789 30.7719 0.6571 1.1909
# 4 22.7474 20.6757 30.7719 41.2684 -1.9464 14.6570
# 5 6.1239 11.1891 0.6571 -1.9464 39.9113 7.1970
# 6 24.0674 22.4877 1.1909 14.6570 7.1970 54.8961
#
#
#
# Elastic Compliance Matrix: (Units=1/GPa)
#
#
# Indices 1 2 3 4 5 6 
#
# 1 0.011263 -0.002733 -0.005549 0.000661 -0.000143 -0.003856
# 2 -0.002733 0.010313 0.002521 -0.005172 -0.002519 -0.001370
# 3 -0.005549 0.002521 0.028933 -0.022434 -0.002709 0.007117
# 4 0.000661 -0.005172 -0.022434 0.047427 0.006040 -0.011139
# 5 -0.000143 -0.002519 -0.002709 0.006040 0.026840 -0.003978
# 6 -0.003856 -0.001370 0.007117 -0.011139 -0.003978 0.023809
#
#
# Mechanical properties :
#
#
# Convention : Reuss Voigt Hill
#
# Bulk Modulus (GPa) = 25.64966 52.10485 38.87725
# Shear Modulus (GPa) = 28.88468 42.24253 35.56360
#
# Velocity S-wave (km/s) = 3.32482 4.02077 3.68924
# Velocity P-wave (km/s) = 4.95535 6.44177 5.74682
#
# Compressibility (1/GPa) = 0.03898688
#
# Stress axis : x y z
#
# Youngs Moduli (GPa) = 88.78591 96.96628 34.56315
#
# Poissons Ratio (x) = 0.26502 0.19179
# Poissons Ratio (y) = 0.24266 -0.08714
# Poissons Ratio (z) = 0.49266 -0.24447
#
# Static dielectric constant tensor:
#      x y z
#    x 1.624530 0.008130 -0.077830 
#    y 0.008130 2.190360 -0.084220 
#    z -0.077830 -0.084220 2.199230 
# 
# From -- ./inp_files/462047.got.cif
#   From: 2010.05.17/outbox.cif.g08.bks.cpg/sg2_232_cif.got.tgz:462047.got - 2010.06.03 11:33:40.
