data_PCOD9103855
_publ_section_title
;
Structure prediction by ZEFSAII (Michael W. Deem and Ramdas Pophale) SiO2 
 PCOD9103855
Probable space group: P -1
;
_chemical_formula_sum "Si O2"
_cell_formula_units_Z 14
_cell_length_a 12.270379
_cell_length_b 15.610548
_cell_length_c 10.129164
_cell_angle_alpha 153.365770
_cell_angle_beta 128.164204
_cell_angle_gamma 44.678972
_cell_volume 610.611575
_symmetry_space_group_name_H-M "P -1"
_symmetry_group_IT_number 2
_symmetry_cell_setting 'triclinic'
loop_
_space_group_symop_operation_xyz
x,y,z
-x,-y,-z
loop_
_atom_site_type_symbol
_atom_site_label
_atom_site_fract_x
_atom_site_fract_y
_atom_site_fract_z
Si Si1 0.419869 0.468112 0.267253
Si Si2 0.637502 0.030042 0.714255
Si Si3 0.103015 0.560669 0.561888
Si Si4 0.699179 0.278864 0.727022
Si Si5 0.622001 0.696256 0.416941
Si Si6 0.112750 0.541263 0.238823
Si Si7 0.079470 0.983984 0.252854
O O1 0.500000 0.500000 0.500000
O O2 0.331300 0.666004 0.373795
O O3 0.287825 0.404490 0.132169
O O4 0.558853 0.278728 0.033148
O O5 0.787237 0.972405 0.658525
O O6 0.500000 0.000000 0.500000
O O7 0.670612 0.875242 0.651206
O O8 0.282346 0.415946 0.535991
O O9 0.083497 0.512017 0.329368
O O10 0.000000 0.500000 0.500000
O O11 0.063777 0.804335 0.904544
O O12 0.560514 0.223693 0.591651
O O13 0.855549 0.109399 0.681297
O O14 0.672576 0.504494 0.083935
O O15 0.071377 0.792209 0.545975
O O16 0.000000 0.500000 0.000000
#
# Coordination Sequence:
#
# PCOD9103855 Si02
#       7
#     2   2   2   2   2   2   2
#     4  12  26  44  65  99 145 180 222 289 357 404
#     4  12  20  40  74 102 130 183 237 276 338 419
#     4  11  25  46  71  97 135 188 242 279 332 423
#     4  10  20  39  67  99 130 172 230 284 333 400
#     4  10  20  38  69 100 126 170 240 286 314 398
#     4  12  28  46  67 105 150 178 222 294 367 405
#     4  11  24  44  74  99 135 188 239 279 336 425
#
# _framework density 22.927833
#
# number of rings (size 3 to 8) (size 9 to 14) (size 15 to 20)
#    0.000    0.857    2.857    5.571    4.000    1.714 
#    2.571    1.429    0.000    0.000    0.000    0.000 
#    0.000    0.000    0.000    0.000    0.000    0.000 
#
# Total GULP energy -78321.912353 kJ/mol
# GULP energy per Si atom -5594.422311 kJ/mol
# Density = 2.287565 g / cm^3
# Si number density = 22.927833 Si / 1000 Ang^3
#
#
#
# Elastic Constant Matrix: (Units=GPa)
#
#
# Indices 1 2 3 4 5 6 
#
# 1 94.9917 15.2455 7.5840 -4.3282 3.2707 12.2170
# 2 15.2455 94.2128 24.9302 -29.6197 -14.1873 25.4971
# 3 7.5840 24.9302 35.2610 -18.3765 5.0100 8.0478
# 4 -4.3282 -29.6197 -18.3765 47.9109 -1.1258 0.5946
# 5 3.2707 -14.1873 5.0100 -1.1258 31.1503 -0.3744
# 6 12.2170 25.4971 8.0478 0.5946 -0.3744 39.9317
#
#
#
# Elastic Compliance Matrix: (Units=1/GPa)
#
#
# Indices 1 2 3 4 5 6 
#
# 1 0.011156 -0.001161 -0.000782 -0.000016 -0.001605 -0.002529
# 2 -0.001161 0.020929 -0.008305 0.010053 0.011216 -0.011379
# 3 -0.000782 -0.008305 0.042192 0.010780 -0.010135 -0.003217
# 4 -0.000016 0.010053 0.010780 0.031424 0.003874 -0.009019
# 5 -0.001605 0.011216 -0.010135 0.003874 0.039097 -0.004319
# 6 -0.002529 -0.011379 -0.003217 -0.009019 -0.004319 0.033825
#
#
# Mechanical properties :
#
#
# Convention : Reuss Voigt Hill
#
# Bulk Modulus (GPa) = 18.59332 35.55389 27.07361
# Shear Modulus (GPa) = 23.03682 35.57897 29.30789
#
# Velocity S-wave (km/s) = 3.17322 3.94354 3.57916
# Velocity P-wave (km/s) = 4.64251 6.02294 5.37721
#
# Compressibility (1/GPa) = 0.05378276
#
# Stress axis : x y z
#
# Youngs Moduli (GPa) = 89.63986 47.78082 23.70115
#
# Poissons Ratio (x) = 0.05545 0.01853
# Poissons Ratio (y) = 0.10403 0.19683
# Poissons Ratio (z) = 0.07008 0.39680
#
# Static dielectric constant tensor:
#      x y z
#    x 1.853840 0.044440 0.020180 
#    y 0.044440 1.919820 0.012740 
#    z 0.020180 0.012740 1.831840 
# 
# From -- ./inp_files/157188.got.cif
#   From: 2010.05.17/outbox.cif.g08.bks.cpg/sg2_79_cif.got.tgz:157188.got - 2010.06.03 11:33:40.
