data_PCOD9103439
_publ_section_title
;
Structure prediction by ZEFSAII (Michael W. Deem and Ramdas Pophale) SiO2 
 PCOD9103439
Probable space group: P -1
;
_chemical_formula_sum "Si O2"
_cell_formula_units_Z 16
_cell_length_a 13.921643
_cell_length_b 13.105532
_cell_length_c 14.764373
_cell_angle_alpha 42.683614
_cell_angle_beta 151.299305
_cell_angle_gamma 148.916572
_cell_volume 666.479715
_symmetry_space_group_name_H-M "P -1"
_symmetry_group_IT_number 2
_symmetry_cell_setting 'triclinic'
loop_
_space_group_symop_operation_xyz
x,y,z
-x,-y,-z
loop_
_atom_site_type_symbol
_atom_site_label
_atom_site_fract_x
_atom_site_fract_y
_atom_site_fract_z
Si Si1 0.834133 0.566091 0.666181
Si Si2 0.407748 0.829638 0.966606
Si Si3 0.707501 0.806035 0.097507
Si Si4 0.207979 0.154762 0.209629
Si Si5 0.308685 0.729400 0.400277
Si Si6 0.780969 0.620826 0.081775
Si Si7 0.151659 0.431437 0.623738
Si Si8 0.327822 0.482278 0.235351
O O1 0.731998 0.355956 0.678010
O O2 0.618276 0.579476 0.446570
O O3 0.838404 0.575599 0.772581
O O4 0.122475 0.735407 0.753992
O O5 0.644040 0.915590 0.037019
O O6 0.347672 0.643162 0.089439
O O7 0.500000 0.000000 0.000000
O O8 0.867553 0.748625 0.315702
O O9 0.406121 0.604455 0.961986
O O10 0.904455 0.958881 0.082861
O O11 0.388023 0.102563 0.427825
O O12 0.236630 0.301594 0.212003
O O13 0.297430 0.270231 0.112418
O O14 0.245090 0.561945 0.525944
O O15 0.087203 0.743229 0.230033
O O16 0.748056 0.590717 0.181882
O O17 0.000000 0.500000 0.500000
#
# Coordination Sequence:
#
# PCOD9103439 Si02
#       8
#     2   2   2   2   2   2   2   2
#     4  10  20  38  66  91 129 181 219 270 340 393
#     4  12  24  40  66 100 137 178 226 271 336 405
#     4  12  23  43  69 102 136 176 230 280 333 410
#     4  11  23  41  68  98 136 179 223 282 335 398
#     4  10  20  42  66  92 135 177 215 278 343 396
#     4  11  22  45  68  96 137 175 223 284 343 393
#     4  10  23  44  74  97 133 185 223 284 350 395
#     4  10  21  41  64  92 139 178 222 279 334 392
#
# _framework density 24.006730999999998
#
# number of rings (size 3 to 8) (size 9 to 14) (size 15 to 20)
#    0.000    1.250    3.750    2.250    0.000    2.000 
#    4.500    5.000    0.000    0.000    0.000    0.000 
#    0.000    0.000    0.000    0.000    0.000    0.000 
#
# Total GULP energy -89086.179088 kJ/mol
# GULP energy per Si atom -5567.886193 kJ/mol
# Density = 2.395209 g / cm^3
# Si number density = 24.006731 Si / 1000 Ang^3
#
#
#
# Elastic Constant Matrix: (Units=GPa)
#
#
# Indices 1 2 3 4 5 6 
#
# 1 112.3193 0.7428 9.8105 13.3396 2.0767 6.2459
# 2 0.7428 59.8433 16.3894 15.7049 -4.3872 10.8849
# 3 9.8105 16.3894 91.4521 12.5362 5.8881 -2.7019
# 4 13.3396 15.7049 12.5362 24.2346 5.5093 0.7925
# 5 2.0767 -4.3872 5.8881 5.5093 43.0964 0.5350
# 6 6.2459 10.8849 -2.7019 0.7925 0.5350 28.3352
#
#
#
# Elastic Compliance Matrix: (Units=1/GPa)
#
#
# Indices 1 2 3 4 5 6 
#
# 1 0.009904 0.002448 -0.000715 -0.006744 0.000769 -0.003018
# 2 0.002448 0.023797 -0.002925 -0.016050 0.004875 -0.009603
# 3 -0.000715 -0.002925 0.012226 -0.003783 -0.001482 0.002581
# 4 -0.006744 -0.016050 -0.003783 0.059056 -0.008414 0.005799
# 5 0.000769 0.004875 -0.001482 -0.008414 0.024971 -0.002420
# 6 -0.003018 -0.009603 0.002581 0.005799 -0.002420 0.039776
#
#
# Mechanical properties :
#
#
# Convention : Reuss Voigt Hill
#
# Bulk Modulus (GPa) = 22.96579 35.27778 29.12178
# Shear Modulus (GPa) = 26.79113 34.91138 30.85125
#
# Velocity S-wave (km/s) = 3.34426 3.81758 3.58873
# Velocity P-wave (km/s) = 4.94967 5.84455 5.41562
#
# Compressibility (1/GPa) = 0.04354304
#
# Stress axis : x y z
#
# Youngs Moduli (GPa) = 100.96888 42.02156 81.79438
#
# Poissons Ratio (x) = -0.10288 0.05852
# Poissons Ratio (y) = -0.24719 0.23924
# Poissons Ratio (z) = 0.07223 0.12291
#
# Static dielectric constant tensor:
#      x y z
#    x 1.953660 0.080980 0.132250 
#    y 0.080980 1.827620 0.015300 
#    z 0.132250 0.015300 1.940610 
# 
# From -- ./inp_files/534284.got.cif
#   From: 2010.05.17/outbox.cif.g08.bks.cpg/sg2_268_cif.got.tgz:534284.got - 2010.06.03 11:33:40.
