data_PCOD9103923
_publ_section_title
;
Structure prediction by ZEFSAII (Michael W. Deem and Ramdas Pophale) SiO2 
 PCOD9103923
Probable space group: P -1
;
_chemical_formula_sum "Si O2"
_cell_formula_units_Z 16
_cell_length_a 11.964831
_cell_length_b 12.658365
_cell_length_c 12.378630
_cell_angle_alpha 147.925188
_cell_angle_beta 134.834679
_cell_angle_gamma 55.575276
_cell_volume 703.431679
_symmetry_space_group_name_H-M "P -1"
_symmetry_group_IT_number 2
_symmetry_cell_setting 'triclinic'
loop_
_space_group_symop_operation_xyz
x,y,z
-x,-y,-z
loop_
_atom_site_type_symbol
_atom_site_label
_atom_site_fract_x
_atom_site_fract_y
_atom_site_fract_z
Si Si1 0.792778 0.180737 0.501186
Si Si2 0.642964 0.772087 0.589168
Si Si3 0.356801 0.571052 0.534590
Si Si4 0.112019 0.019158 0.196128
Si Si5 0.389875 0.749009 0.218778
Si Si6 0.531942 0.098960 0.940096
Si Si7 0.954649 0.998249 0.630605
Si Si8 0.641507 0.708713 0.186408
O O1 0.776502 0.388903 0.609838
O O2 0.900244 0.055121 0.388797
O O3 0.619166 0.062092 0.286209
O O4 0.876931 0.181137 0.676220
O O5 0.675084 0.595116 0.539159
O O6 0.772368 0.788279 0.595355
O O7 0.471169 0.756750 0.399472
O O8 0.647887 0.975722 0.840066
O O9 0.500000 0.500000 0.500000
O O10 0.397111 0.784450 0.806726
O O11 0.006277 0.002286 0.217122
O O12 0.240607 0.863928 0.182085
O O13 0.000000 0.000000 0.000000
O O14 0.535204 0.812280 0.291850
O O15 0.342557 0.515915 0.964155
O O16 0.463706 0.275819 0.978146
O O17 0.808928 0.826182 0.379795
#
# Coordination Sequence:
#
# PCOD9103923 Si02
#       8
#     2   2   2   2   2   2   2   2
#     4  10  23  43  68  96 137 188 226 288 341 413
#     4  12  24  44  72 104 140 182 228 289 348 411
#     4  12  26  41  69 106 133 176 242 289 342 407
#     4  12  27  42  67 103 144 183 225 289 354 417
#     4  11  21  41  70 101 135 183 231 276 345 419
#     4  11  22  41  68  99 135 173 229 288 341 400
#     4  10  23  44  67  95 142 188 228 278 360 409
#     4  10  20  38  70 101 130 178 234 282 334 415
#
# _framework density 22.745636000000001
#
# number of rings (size 3 to 8) (size 9 to 14) (size 15 to 20)
#    0.000    1.000    5.000    2.250    1.750    1.000 
#    0.000    1.250    0.000    6.000    0.000    0.000 
#    0.000    0.000    0.000    0.000    0.000    0.000 
#
# Total GULP energy -89262.796140 kJ/mol
# GULP energy per Si atom -5578.924759 kJ/mol
# Density = 2.269387 g / cm^3
# Si number density = 22.745636 Si / 1000 Ang^3
#
#
#
# Elastic Constant Matrix: (Units=GPa)
#
#
# Indices 1 2 3 4 5 6 
#
# 1 72.5079 12.5387 0.0441 -14.3147 -5.4137 15.9711
# 2 12.5387 184.8579 22.5019 -19.8626 -0.8164 30.0258
# 3 0.0441 22.5019 53.8609 -19.0249 -13.7788 -2.2927
# 4 -14.3147 -19.8626 -19.0249 38.7662 4.2141 -6.5900
# 5 -5.4137 -0.8164 -13.7788 4.2141 27.8144 -8.2153
# 6 15.9711 30.0258 -2.2927 -6.5900 -8.2153 36.8639
#
#
#
# Elastic Compliance Matrix: (Units=1/GPa)
#
#
# Indices 1 2 3 4 5 6 
#
# 1 0.016326 0.000192 0.002260 0.006094 0.001721 -0.005616
# 2 0.000192 0.007052 -0.003823 0.001079 -0.003797 -0.006718
# 3 0.002260 -0.003823 0.029264 0.013197 0.015725 0.009818
# 4 0.006094 0.001079 0.013197 0.035431 0.003705 0.004461
# 5 0.001721 -0.003797 0.015725 0.003705 0.047724 0.014623
# 6 -0.005616 -0.006718 0.009818 0.004461 0.014623 0.039699
#
#
# Mechanical properties :
#
#
# Convention : Reuss Voigt Hill
#
# Bulk Modulus (GPa) = 20.03979 42.37734 31.20856
# Shear Modulus (GPa) = 25.65815 39.09837 32.37826
#
# Velocity S-wave (km/s) = 3.36229 4.15051 3.77701
# Velocity P-wave (km/s) = 4.88905 6.45294 5.72465
#
# Compressibility (1/GPa) = 0.04990073
#
# Stress axis : x y z
#
# Youngs Moduli (GPa) = 61.25335 141.79862 34.17203
#
# Poissons Ratio (x) = -0.02724 -0.07723
# Poissons Ratio (y) = -0.01177 0.13063
# Poissons Ratio (z) = -0.13844 0.54205
#
# Static dielectric constant tensor:
#      x y z
#    x 1.887950 0.039520 -0.035150 
#    y 0.039520 1.878440 -0.034330 
#    z -0.035150 -0.034330 1.892530 
# 
# From -- ./inp_files/429135.got.cif
#   From: 2010.05.17/outbox.cif.g08.bks.cpg/sg2_215_cif.got.tgz:429135.got - 2010.06.03 11:33:40.
