data_PCOD9103237
_publ_section_title
;
Structure prediction by ZEFSAII (Michael W. Deem and Ramdas Pophale) SiO2 
 PCOD9103237
Probable space group: P -1
;
_chemical_formula_sum "Si O2"
_cell_formula_units_Z 15
_cell_length_a 5.329968
_cell_length_b 17.363999
_cell_length_c 13.447496
_cell_angle_alpha 151.436027
_cell_angle_beta 112.817240
_cell_angle_gamma 62.092153
_cell_volume 525.067973
_symmetry_space_group_name_H-M "P -1"
_symmetry_group_IT_number 2
_symmetry_cell_setting 'triclinic'
loop_
_space_group_symop_operation_xyz
x,y,z
-x,-y,-z
loop_
_atom_site_type_symbol
_atom_site_label
_atom_site_fract_x
_atom_site_fract_y
_atom_site_fract_z
Si Si1 0.587866 0.561025 0.215786
Si Si2 0.512466 0.008066 0.770362
Si Si3 0.941449 0.745910 0.820570
Si Si4 0.425745 0.422181 0.536699
Si Si5 0.909959 0.940098 0.574986
Si Si6 0.500000 0.000000 0.000000
Si Si7 0.178081 0.371895 0.123047
Si Si8 0.439321 0.264909 0.792200
O O1 0.612540 0.617191 0.397298
O O2 0.490240 0.683025 0.247956
O O3 0.903556 0.452887 0.109053
O O4 0.406000 0.428413 0.040378
O O5 0.774917 0.917783 0.636824
O O6 0.553336 0.003037 0.888442
O O7 0.228590 0.950303 0.640466
O O8 0.429057 0.205789 0.947832
O O9 0.635057 0.728395 0.707417
O O10 0.953327 0.703233 0.888570
O O11 0.199996 0.592431 0.648991
O O12 0.858095 0.940012 0.008089
O O13 0.708760 0.477792 0.646073
O O14 0.703771 0.112217 0.694178
O O15 0.837485 0.799295 0.334974
#
# Coordination Sequence:
#
# PCOD9103237 Si02
#       8
#     2   2   2   2   2   1   2   2
#     4  10  21  42  62 100 129 171 233 291 340 403
#     4  11  25  45  72 101 139 183 226 285 349 422
#     4   9  21  39  59  97 132 177 222 283 347 426
#     4  10  20  38  68  89 134 175 228 284 354 410
#     4  11  25  48  70  97 143 186 231 282 355 409
#     4  10  24  42  66 104 140 174 230 278 352 422
#     4  10  20  38  65  93 132 176 223 285 349 413
#     4  10  23  43  67  96 136 179 237 286 342 406
#
# _framework density 28.567729
#
# number of rings (size 3 to 8) (size 9 to 14) (size 15 to 20)
#    0.000    1.867    1.333    1.200    5.600    3.733 
#    7.200    2.000    0.000    0.000    0.000    0.000 
#    0.000    0.000    0.000    0.000    0.000    0.000 
#
# Total GULP energy -83736.906286 kJ/mol
# GULP energy per Si atom -5582.460419 kJ/mol
# Density = 2.850271 g / cm^3
# Si number density = 28.567729 Si / 1000 Ang^3
#
#
#
# Elastic Constant Matrix: (Units=GPa)
#
#
# Indices 1 2 3 4 5 6 
#
# 1 100.9454 47.7579 31.5332 -3.3684 21.4178 4.2539
# 2 47.7579 175.4232 13.3061 1.6402 -3.4693 -8.9515
# 3 31.5332 13.3061 123.8243 -40.8522 15.4950 -9.8499
# 4 -3.3684 1.6402 -40.8522 40.8332 -4.2732 7.5821
# 5 21.4178 -3.4693 15.4950 -4.2732 48.2876 -9.9452
# 6 4.2539 -8.9515 -9.8499 7.5821 -9.9452 15.9789
#
#
#
# Elastic Compliance Matrix: (Units=1/GPa)
#
#
# Indices 1 2 3 4 5 6 
#
# 1 0.016077 -0.005052 -0.003682 -0.000339 -0.009453 -0.015102
# 2 -0.005052 0.007668 -0.000026 -0.002024 0.004562 0.009424
# 3 -0.003682 -0.000026 0.013523 0.012624 -0.001043 0.002663
# 4 -0.000339 -0.002024 0.012624 0.039434 -0.003466 -0.014131
# 5 -0.009453 0.004562 -0.001043 -0.003466 0.030407 0.024999
# 6 -0.015102 0.009424 0.002663 -0.014131 0.024999 0.095788
#
#
# Mechanical properties :
#
#
# Convention : Reuss Voigt Hill
#
# Bulk Modulus (GPa) = 50.63649 65.04304 57.83977
# Shear Modulus (GPa) = 22.02638 41.52632 31.77635
#
# Velocity S-wave (km/s) = 2.77974 3.81676 3.33876
# Velocity P-wave (km/s) = 5.29775 6.49931 5.92904
#
# Compressibility (1/GPa) = 0.01974860
#
# Stress axis : x y z
#
# Youngs Moduli (GPa) = 62.19904 130.41318 73.94560
#
# Poissons Ratio (x) = 0.65887 0.27225
# Poissons Ratio (y) = 0.31424 0.00194
# Poissons Ratio (z) = 0.22900 0.00342
#
# Static dielectric constant tensor:
#      x y z
#    x 2.323850 0.017670 -0.028840 
#    y 0.017670 1.625650 -0.773550 
#    z -0.028840 -0.773550 1.219510 
# 
# From -- ./inp_files/485084.got.cif
#   From: 2010.05.17/outbox.cif.g08.bks.cpg/sg2_243_cif.got.tgz:485084.got - 2010.06.03 11:33:40.
