data_PCOD9103674
_publ_section_title
;
Structure prediction by ZEFSAII (Michael W. Deem and Ramdas Pophale) SiO2 
 PCOD9103674
Probable space group: P -1
;
_chemical_formula_sum "Si O2"
_cell_formula_units_Z 16
_cell_length_a 13.683573
_cell_length_b 9.102805
_cell_length_c 9.799235
_cell_angle_alpha 96.401645
_cell_angle_beta 38.249461
_cell_angle_gamma 85.639743
_cell_volume 723.900950
_symmetry_space_group_name_H-M "P -1"
_symmetry_group_IT_number 2
_symmetry_cell_setting 'triclinic'
loop_
_space_group_symop_operation_xyz
x,y,z
-x,-y,-z
loop_
_atom_site_type_symbol
_atom_site_label
_atom_site_fract_x
_atom_site_fract_y
_atom_site_fract_z
Si Si1 0.827576 0.116383 0.227021
Si Si2 0.643306 0.535365 0.525593
Si Si3 0.356624 0.841346 0.854137
Si Si4 0.407221 0.965569 0.296111
Si Si5 0.600862 0.345856 0.795823
Si Si6 0.903979 0.376761 0.063498
Si Si7 0.857154 0.729414 0.452434
Si Si8 0.899291 0.180828 0.632672
O O1 0.730917 0.136164 0.192762
O O2 0.713445 0.069503 0.458514
O O3 0.889756 0.268905 0.194688
O O4 0.000000 0.000000 0.000000
O O5 0.498278 0.685318 0.680771
O O6 0.592567 0.406049 0.655814
O O7 0.716746 0.479897 0.289063
O O8 0.770293 0.597958 0.490511
O O9 0.442657 0.976102 0.806569
O O10 0.232448 0.821753 0.105207
O O11 0.469024 0.804217 0.132588
O O12 0.284617 0.110492 0.370779
O O13 0.784925 0.269453 0.644088
O O14 0.500000 0.500000 0.000000
O O15 0.000000 0.500000 0.000000
O O16 0.006876 0.278843 0.818574
O O17 0.969539 0.725657 0.460775
O O18 0.000000 0.000000 0.500000
#
# Coordination Sequence:
#
# PCOD9103674 Si02
#       8
#     2   2   2   2   2   2   2   2
#     4  12  22  41  69  97 128 161 218 272 320 390
#     4  10  23  42  65  94 134 172 208 271 336 385
#     4  11  25  43  65  96 130 174 219 263 334 399
#     4  11  23  43  67  95 131 173 215 270 328 390
#     4  12  25  43  65  96 132 169 224 276 321 379
#     4  10  20  38  67  95 127 167 206 264 334 385
#     4  10  21  43  67  94 129 172 218 265 326 395
#     4  12  24  42  69  96 125 176 228 267 323 382
#
# _framework density 22.102471000000001
#
# number of rings (size 3 to 8) (size 9 to 14) (size 15 to 20)
#    0.000    1.000    6.250    0.375    0.000    2.500 
#    2.250    1.250    0.000    0.000    0.000    0.000 
#    0.000    0.000    0.000    0.000    0.000    0.000 
#
# Total GULP energy -89125.568745 kJ/mol
# GULP energy per Si atom -5570.348047 kJ/mol
# Density = 2.205216 g / cm^3
# Si number density = 22.102471 Si / 1000 Ang^3
#
#
#
# Elastic Constant Matrix: (Units=GPa)
#
#
# Indices 1 2 3 4 5 6 
#
# 1 91.9050 33.1901 3.0683 -3.3838 -29.7742 0.7816
# 2 33.1901 109.3179 18.9764 11.8454 -18.2635 20.9851
# 3 3.0683 18.9764 86.8549 17.5985 -3.5023 2.0110
# 4 -3.3838 11.8454 17.5985 50.6189 4.3889 -2.1876
# 5 -29.7742 -18.2635 -3.5023 4.3889 31.1500 -4.7948
# 6 0.7816 20.9851 2.0110 -2.1876 -4.7948 37.5654
#
#
#
# Elastic Compliance Matrix: (Units=1/GPa)
#
#
# Indices 1 2 3 4 5 6 
#
# 1 0.016836 -0.003516 0.000548 0.000648 0.014537 0.003478
# 2 -0.003516 0.012695 -0.001716 -0.003185 0.003309 -0.006690
# 3 0.000548 -0.001716 0.012763 -0.004125 0.001568 0.000224
# 4 0.000648 -0.003185 -0.004125 0.022483 -0.004460 0.002727
# 5 0.014537 0.003309 0.001568 -0.004460 0.049327 0.003802
# 6 0.003478 -0.006690 0.000224 0.002727 0.003802 0.030917
#
#
# Mechanical properties :
#
#
# Convention : Reuss Voigt Hill
#
# Bulk Modulus (GPa) = 30.37077 44.28303 37.32690
# Shear Modulus (GPa) = 30.23632 39.38973 34.81302
#
# Velocity S-wave (km/s) = 3.70267 4.22612 3.97303
# Velocity P-wave (km/s) = 5.66131 6.62513 6.16209
#
# Compressibility (1/GPa) = 0.03292640
#
# Stress axis : x y z
#
# Youngs Moduli (GPa) = 59.39717 78.77061 78.35199
#
# Poissons Ratio (x) = 0.27694 -0.04292
# Poissons Ratio (y) = 0.20883 0.13443
# Poissons Ratio (z) = -0.03254 0.13515
#
# Static dielectric constant tensor:
#      x y z
#    x 1.845150 0.081020 0.058090 
#    y 0.081020 1.856900 0.040320 
#    z 0.058090 0.040320 1.849070 
# 
# From -- ./inp_files/188369.got.cif
#   From: 2010.05.17/outbox.cif.g08.bks.cpg/sg2_95_cif.got.tgz:188369.got - 2010.06.03 11:33:40.
