data_PCOD9103558
_publ_section_title
;
Structure prediction by ZEFSAII (Michael W. Deem and Ramdas Pophale) SiO2 
 PCOD9103558
Probable space group: P -1
;
_chemical_formula_sum "Si O2"
_cell_formula_units_Z 14
_cell_length_a 9.149689
_cell_length_b 9.026176
_cell_length_c 9.517755
_cell_angle_alpha 115.435846
_cell_angle_beta 117.782312
_cell_angle_gamma 73.613736
_cell_volume 624.709450
_symmetry_space_group_name_H-M "P -1"
_symmetry_group_IT_number 2
_symmetry_cell_setting 'triclinic'
loop_
_space_group_symop_operation_xyz
x,y,z
-x,-y,-z
loop_
_atom_site_type_symbol
_atom_site_label
_atom_site_fract_x
_atom_site_fract_y
_atom_site_fract_z
Si Si1 0.639597 0.852057 0.474374
Si Si2 0.926200 0.416898 0.795870
Si Si3 0.369340 0.320167 0.319874
Si Si4 0.251335 0.980506 0.011828
Si Si5 0.558560 0.338678 0.154843
Si Si6 0.107072 0.920123 0.221328
Si Si7 0.282271 0.384847 0.825122
O O1 0.609487 0.716713 0.522186
O O2 0.638414 0.773971 0.289438
O O3 0.500000 0.000000 0.500000
O O4 0.812094 0.927900 0.611276
O O5 0.784692 0.544198 0.719152
O O6 0.859249 0.246810 0.743989
O O7 0.087330 0.380720 0.755381
O O8 0.000000 0.500000 0.000000
O O9 0.526174 0.360503 0.314572
O O10 0.326634 0.145331 0.162555
O O11 0.372413 0.847185 0.929602
O O12 0.187075 0.898910 0.092870
O O13 0.088922 0.037190 0.870279
O O14 0.679771 0.457811 0.185631
O O15 0.381368 0.386026 0.016611
#
# Coordination Sequence:
#
# PCOD9103558 Si02
#       7
#     2   2   2   2   2   2   2
#     4  11  27  47  65  95 140 175 216 274 337 396
#     4  12  22  42  69 102 133 169 227 273 319 396
#     4  11  24  42  71  97 133 176 218 273 331 387
#     4  10  20  38  66  99 128 172 225 271 325 389
#     4  11  23  40  71  99 129 170 230 275 323 385
#     4  10  22  39  66  94 135 173 216 273 336 379
#     4  11  25  42  67 100 135 175 217 276 332 385
#
# _framework density 22.410416999999999
#
# number of rings (size 3 to 8) (size 9 to 14) (size 15 to 20)
#    0.000    1.143    2.857    3.000    8.000    2.857 
#    0.000    0.000    0.000    0.000    0.000    0.000 
#    0.000    0.000    0.000    0.000    0.000    0.000 
#
# Total GULP energy -78399.693341 kJ/mol
# GULP energy per Si atom -5599.978096 kJ/mol
# Density = 2.235941 g / cm^3
# Si number density = 22.410417 Si / 1000 Ang^3
#
#
#
# Elastic Constant Matrix: (Units=GPa)
#
#
# Indices 1 2 3 4 5 6 
#
# 1 82.6459 48.1155 -2.0693 -2.5358 -16.9406 -5.4980
# 2 48.1155 128.1492 -0.6105 -5.2326 -13.2240 1.9694
# 3 -2.0693 -0.6105 40.2925 1.4906 -6.3553 6.0224
# 4 -2.5358 -5.2326 1.4906 36.0058 3.1321 1.2948
# 5 -16.9406 -13.2240 -6.3553 3.1321 22.9618 3.1720
# 6 -5.4980 1.9694 6.0224 1.2948 3.1720 35.3941
#
#
#
# Elastic Compliance Matrix: (Units=1/GPa)
#
#
# Indices 1 2 3 4 5 6 
#
# 1 0.017606 -0.005599 0.002186 -0.000616 0.010208 0.001782
# 2 -0.005599 0.010174 0.000393 0.000960 0.001942 -0.001712
# 3 0.002186 0.000393 0.027413 -0.001638 0.010370 -0.005216
# 4 -0.000616 0.000960 -0.001638 0.028317 -0.004144 -0.000535
# 5 0.010208 0.001942 0.010370 -0.004144 0.056352 -0.005186
# 6 0.001782 -0.001712 -0.005216 -0.000535 -0.005186 0.029997
#
#
# Mechanical properties :
#
#
# Convention : Reuss Voigt Hill
#
# Bulk Modulus (GPa) = 20.34494 37.99543 29.17018
# Shear Modulus (GPa) = 26.00323 32.58246 29.29284
#
# Velocity S-wave (km/s) = 3.41004 3.81714 3.61932
# Velocity P-wave (km/s) = 4.96010 6.03478 5.52364
#
# Compressibility (1/GPa) = 0.04915228
#
# Stress axis : x y z
#
# Youngs Moduli (GPa) = 56.79740 98.29348 36.47941
#
# Poissons Ratio (x) = 0.55038 -0.07974
# Poissons Ratio (y) = 0.31803 -0.01435
# Poissons Ratio (z) = -0.12415 -0.03866
#
# Static dielectric constant tensor:
#      x y z
#    x 1.832870 0.033720 0.016770 
#    y 0.033720 1.813570 0.015290 
#    z 0.016770 0.015290 1.833510 
# 
# From -- ./inp_files/158500.got.cif
#   From: 2010.05.17/outbox.cif.g08.bks.cpg/sg2_80_cif.got.tgz:158500.got - 2010.06.03 11:33:40.
