data_PCOD9103701
_publ_section_title
;
Structure prediction by ZEFSAII (Michael W. Deem and Ramdas Pophale) SiO2 
 PCOD9103701
Probable space group: P -1
;
_chemical_formula_sum "Si O2"
_cell_formula_units_Z 13
_cell_length_a 12.739636
_cell_length_b 9.273954
_cell_length_c 8.965826
_cell_angle_alpha 47.405400
_cell_angle_beta 109.767117
_cell_angle_gamma 134.174978
_cell_volume 541.130796
_symmetry_space_group_name_H-M "P -1"
_symmetry_group_IT_number 2
_symmetry_cell_setting 'triclinic'
loop_
_space_group_symop_operation_xyz
x,y,z
-x,-y,-z
loop_
_atom_site_type_symbol
_atom_site_label
_atom_site_fract_x
_atom_site_fract_y
_atom_site_fract_z
Si Si1 0.438848 0.145707 0.417057
Si Si2 0.204786 0.904101 0.050977
Si Si3 0.174127 0.652092 0.494908
Si Si4 0.270910 0.375138 0.907700
Si Si5 0.533840 0.822493 0.254160
Si Si6 0.708304 0.425013 0.904536
Si Si7 0.000000 0.500000 0.000000
O O1 0.550368 0.414322 0.191422
O O2 0.456324 0.233781 0.532983
O O3 0.500000 0.000000 0.500000
O O4 0.262776 0.912139 0.459945
O O5 0.240801 0.770736 0.277965
O O6 0.049542 0.685771 0.041562
O O7 0.197802 0.088889 0.018641
O O8 0.334885 0.088053 0.859731
O O9 0.203038 0.474473 0.706116
O O10 0.000000 0.500000 0.500000
O O11 0.262765 0.407491 0.056465
O O12 0.372221 0.580394 0.274471
O O13 0.579923 0.107447 0.101659
O O14 0.859988 0.484959 0.905310
#
# Coordination Sequence:
#
# PCOD9103701 Si02
#       7
#     2   2   2   2   2   2   1
#     4  10  21  40  67 100 138 178 233 288 334 407
#     4  11  26  44  71 100 138 183 232 283 353 411
#     4  11  24  42  70 102 137 185 225 282 348 408
#     4  11  24  45  68 103 136 181 239 285 330 422
#     4  10  21  39  68  98 135 187 225 281 345 401
#     4  10  20  38  67  97 135 181 228 276 348 405
#     4  10  24  40  68  98 136 180 220 288 350 410
#
# _framework density 24.023765999999998
#
# number of rings (size 3 to 8) (size 9 to 14) (size 15 to 20)
#    0.000    1.538    3.077    1.846   12.923    5.538 
#    0.000    0.769    0.000    0.000    0.000    0.000 
#    0.000    0.000    0.000    0.000    0.000    0.000 
#
# Total GULP energy -72398.270623 kJ/mol
# GULP energy per Si atom -5569.097740 kJ/mol
# Density = 2.396909 g / cm^3
# Si number density = 24.023766 Si / 1000 Ang^3
#
#
#
# Elastic Constant Matrix: (Units=GPa)
#
#
# Indices 1 2 3 4 5 6 
#
# 1 99.7255 58.7485 50.2474 27.6956 -3.8179 3.7373
# 2 58.7485 196.2752 55.9368 46.2139 18.0121 -13.7608
# 3 50.2474 55.9368 92.4570 31.4326 9.5141 -4.3423
# 4 27.6956 46.2139 31.4326 44.2482 -4.1943 3.5810
# 5 -3.8179 18.0121 9.5141 -4.1943 33.9848 7.7177
# 6 3.7373 -13.7608 -4.3423 3.5810 7.7177 50.4007
#
#
#
# Elastic Compliance Matrix: (Units=1/GPa)
#
#
# Indices 1 2 3 4 5 6 
#
# 1 0.016407 -0.003601 -0.007542 -0.000201 0.006716 -0.003864
# 2 -0.003601 0.009081 0.000338 -0.008536 -0.007391 0.004514
# 3 -0.007542 0.000338 0.019436 -0.010630 -0.008784 0.004426
# 4 -0.000201 -0.008536 -0.010630 0.041242 0.014470 -0.008377
# 5 0.006716 -0.007391 -0.008784 0.014470 0.040735 -0.010538
# 6 -0.003864 0.004514 0.004426 -0.008377 -0.010538 0.023950
#
#
# Mechanical properties :
#
#
# Convention : Reuss Voigt Hill
#
# Bulk Modulus (GPa) = 42.89500 79.81365 61.35432
# Shear Modulus (GPa) = 27.74188 40.62839 34.18514
#
# Velocity S-wave (km/s) = 3.40187 4.11685 3.77632
# Velocity P-wave (km/s) = 5.77272 7.47615 6.67897
#
# Compressibility (1/GPa) = 0.02331274
#
# Stress axis : x y z
#
# Youngs Moduli (GPa) = 60.94989 110.11774 51.45094
#
# Poissons Ratio (x) = 0.39657 0.38804
# Poissons Ratio (y) = 0.21950 -0.01737
# Poissons Ratio (z) = 0.45968 -0.03718
#
# Static dielectric constant tensor:
#      x y z
#    x 1.988420 0.019380 0.078820 
#    y 0.019380 1.898740 -0.007680 
#    z 0.078820 -0.007680 2.048830 
# 
# From -- ./inp_files/291934.got.cif
#   From: 2010.05.17/outbox.cif.g08.bks.cpg/sg2_146_cif.got.tgz:291934.got - 2010.06.03 11:33:40.
