data_PCOD9103245
_publ_section_title
;
Structure prediction by ZEFSAII (Michael W. Deem and Ramdas Pophale) SiO2 
 PCOD9103245
Probable space group: P -1
;
_chemical_formula_sum "Si O2"
_cell_formula_units_Z 16
_cell_length_a 10.304430
_cell_length_b 27.512897
_cell_length_c 7.773689
_cell_angle_alpha 140.800967
_cell_angle_beta 118.744465
_cell_angle_gamma 33.569509
_cell_volume 679.179093
_symmetry_space_group_name_H-M "P -1"
_symmetry_group_IT_number 2
_symmetry_cell_setting 'triclinic'
loop_
_space_group_symop_operation_xyz
x,y,z
-x,-y,-z
loop_
_atom_site_type_symbol
_atom_site_label
_atom_site_fract_x
_atom_site_fract_y
_atom_site_fract_z
Si Si1 0.027422 0.928582 0.063068
Si Si2 0.040780 0.593873 0.798839
Si Si3 0.848023 0.646264 0.326481
Si Si4 0.858849 0.165467 0.727204
Si Si5 0.219490 0.149922 0.797539
Si Si6 0.388755 0.324117 0.409885
Si Si7 0.508483 0.915048 0.866574
Si Si8 0.644153 0.519908 0.666774
O O1 0.073080 0.880322 0.155624
O O2 0.305675 0.802017 0.793611
O O3 0.928256 0.059213 0.374206
O O4 0.786928 0.981696 0.982399
O O5 0.236718 0.471866 0.728212
O O6 0.222431 0.513038 0.519641
O O7 0.783663 0.649447 0.769004
O O8 0.927147 0.728774 0.093813
O O9 0.666250 0.700526 0.522941
O O10 0.633046 0.792321 0.490571
O O11 0.103176 0.592086 0.356090
O O12 0.000000 0.500000 0.000000
O O13 0.034096 0.159080 0.749914
O O14 0.558951 0.327007 0.980347
O O15 0.500000 0.000000 0.500000
O O16 0.298564 0.158449 0.048372
O O17 0.500000 0.000000 0.000000
O O18 0.500000 0.500000 0.500000
#
# Coordination Sequence:
#
# PCOD9103245 Si02
#       8
#     2   2   2   2   2   2   2   2
#     4  11  24  39  66  96 136 170 221 268 335 394
#     4  10  20  38  65  94 122 169 213 269 329 381
#     4  11  25  44  65  95 131 176 219 269 339 396
#     4  11  22  39  65 103 125 172 225 272 320 407
#     4  12  24  44  67  98 135 175 222 276 337 397
#     4  10  21  40  65  91 129 170 217 271 326 389
#     4  12  25  46  67  97 137 180 215 274 343 401
#     4  11  19  38  68  89 123 162 220 267 318 380
#
# _framework density 23.557852
#
# number of rings (size 3 to 8) (size 9 to 14) (size 15 to 20)
#    0.000    1.000    6.250    1.500    0.000    1.500 
#    2.250    0.000    0.000    2.250    0.000    0.000 
#    0.000    0.000    0.000    0.000    0.000    0.000 
#
# Total GULP energy -89387.209356 kJ/mol
# GULP energy per Si atom -5586.700585 kJ/mol
# Density = 2.350423 g / cm^3
# Si number density = 23.557852 Si / 1000 Ang^3
#
#
#
# Elastic Constant Matrix: (Units=GPa)
#
#
# Indices 1 2 3 4 5 6 
#
# 1 159.7974 40.5548 62.2964 30.3781 18.5824 -15.7353
# 2 40.5548 54.7726 34.0985 29.3382 3.5943 -12.7455
# 3 62.2964 34.0985 153.3335 55.9251 16.2936 -2.6200
# 4 30.3781 29.3382 55.9251 42.9417 -0.2358 -3.4418
# 5 18.5824 3.5943 16.2936 -0.2358 37.2132 12.9965
# 6 -15.7353 -12.7455 -2.6200 -3.4418 12.9965 44.8262
#
#
#
# Elastic Compliance Matrix: (Units=1/GPa)
#
#
# Indices 1 2 3 4 5 6 
#
# 1 0.009004 -0.003954 -0.001915 -0.000947 -0.004371 0.003119
# 2 -0.003954 0.034777 0.003992 -0.025507 -0.006298 0.008601
# 3 -0.001915 0.003992 0.014462 -0.020111 -0.006460 0.001637
# 4 -0.000947 -0.025507 -0.020111 0.067021 0.014942 -0.007947
# 5 -0.004371 -0.006298 -0.006460 0.014942 0.037250 -0.013355
# 6 0.003119 0.008601 0.001637 -0.007947 -0.013355 0.029206
#
#
# Mechanical properties :
#
#
# Convention : Reuss Voigt Hill
#
# Bulk Modulus (GPa) = 18.35284 71.31142 44.83213
# Shear Modulus (GPa) = 23.40424 40.39315 31.89870
#
# Velocity S-wave (km/s) = 3.15537 4.14531 3.68374
# Velocity P-wave (km/s) = 4.59158 7.29712 6.09633
#
# Compressibility (1/GPa) = 0.05448748
#
# Stress axis : x y z
#
# Youngs Moduli (GPa) = 111.06693 28.75464 69.14900
#
# Poissons Ratio (x) = 0.11370 0.13245
# Poissons Ratio (y) = 0.43916 -0.27605
# Poissons Ratio (z) = 0.21274 -0.11479
#
# Static dielectric constant tensor:
#      x y z
#    x 1.847550 0.005410 0.051420 
#    y 0.005410 1.987300 -0.085490 
#    z 0.051420 -0.085490 2.042770 
# 
# From -- ./inp_files/227763.got.cif
#   From: 2010.05.17/outbox.cif.g08.bks.cpg/sg2_114_cif.got.tgz:227763.got - 2010.06.03 11:33:40.
