data_PCOD9103739
_publ_section_title
;
Structure prediction by ZEFSAII (Michael W. Deem and Ramdas Pophale) SiO2 
 PCOD9103739
Probable space group: P -1
;
_chemical_formula_sum "Si O2"
_cell_formula_units_Z 15
_cell_length_a 8.656157
_cell_length_b 15.974744
_cell_length_c 13.892301
_cell_angle_alpha 139.954211
_cell_angle_beta 32.042067
_cell_angle_gamma 134.830725
_cell_volume 646.824537
_symmetry_space_group_name_H-M "P -1"
_symmetry_group_IT_number 2
_symmetry_cell_setting 'triclinic'
loop_
_space_group_symop_operation_xyz
x,y,z
-x,-y,-z
loop_
_atom_site_type_symbol
_atom_site_label
_atom_site_fract_x
_atom_site_fract_y
_atom_site_fract_z
Si Si1 0.783178 0.872988 0.045882
Si Si2 0.306423 0.049635 0.498550
Si Si3 0.042279 0.374244 0.617120
Si Si4 0.500000 0.000000 0.000000
Si Si5 0.028770 0.588579 0.966119
Si Si6 0.278378 0.140849 0.386806
Si Si7 0.631615 0.755685 0.826675
Si Si8 0.607735 0.737463 0.205675
O O1 0.817294 0.792688 0.054664
O O2 0.482018 0.931308 0.278816
O O3 0.737080 0.769867 0.892310
O O4 0.000000 0.000000 0.000000
O O5 0.338943 0.138214 0.464199
O O6 0.430938 0.133287 0.597940
O O7 0.956649 0.990811 0.636748
O O8 0.115208 0.507890 0.756349
O O9 0.136952 0.264476 0.540995
O O10 0.214544 0.348174 0.405950
O O11 0.697019 0.338877 0.743213
O O12 0.448634 0.884331 0.842439
O O13 0.680279 0.900891 0.882018
O O14 0.282800 0.708987 0.963445
O O15 0.000000 0.500000 0.000000
O O16 0.747100 0.646485 0.127395
#
# Coordination Sequence:
#
# PCOD9103739 Si02
#       8
#     2   2   2   1   2   2   2   2
#     4  12  26  41  66 107 144 178 221 289 365 422
#     4  11  22  38  64  98 138 178 223 278 351 416
#     4  11  24  45  68 102 139 184 232 294 341 410
#     4  10  20  38  68 104 134 174 222 290 336 410
#     4  12  27  48  74  98 134 191 246 284 335 419
#     4  10  21  37  66  97 135 177 231 275 344 413
#     4  11  25  45  71 103 140 183 238 279 351 419
#     4  12  26  44  70 102 144 181 231 295 359 408
#
# _framework density 23.190214000000001
#
# number of rings (size 3 to 8) (size 9 to 14) (size 15 to 20)
#    0.000    0.800    2.667    4.400    7.467    0.000 
#    0.000    5.333    0.000    0.000    0.000    0.000 
#    0.000    0.000    0.000    0.000    0.000    0.000 
#
# Total GULP energy -83620.172066 kJ/mol
# GULP energy per Si atom -5574.678138 kJ/mol
# Density = 2.313743 g / cm^3
# Si number density = 23.190214 Si / 1000 Ang^3
#
#
#
# Elastic Constant Matrix: (Units=GPa)
#
#
# Indices 1 2 3 4 5 6 
#
# 1 112.1445 29.1165 35.4251 -13.7757 23.3586 -10.3387
# 2 29.1165 26.6169 16.6273 2.3453 1.9692 4.9253
# 3 35.4251 16.6273 48.8355 15.7322 -0.9636 -7.1144
# 4 -13.7757 2.3453 15.7322 31.3704 3.2335 0.5543
# 5 23.3586 1.9692 -0.9636 3.2335 44.2321 0.7874
# 6 -10.3387 4.9253 -7.1144 0.5543 0.7874 40.9066
#
#
#
# Elastic Compliance Matrix: (Units=1/GPa)
#
#
# Indices 1 2 3 4 5 6 
#
# 1 0.027750 -0.018998 -0.021554 0.025996 -0.016277 0.005514
# 2 -0.018998 0.065744 -0.007189 -0.010225 0.007946 -0.013982
# 3 -0.021554 -0.007189 0.051208 -0.036274 0.015389 0.004519
# 4 0.025996 -0.010225 -0.036274 0.064166 -0.018772 0.000984
# 5 -0.016277 0.007946 0.015389 -0.018772 0.032607 -0.002767
# 6 0.005514 -0.013982 0.004519 0.000984 -0.002767 0.028349
#
#
# Mechanical properties :
#
#
# Convention : Reuss Voigt Hill
#
# Bulk Modulus (GPa) = 20.31749 38.88165 29.59957
# Shear Modulus (GPa) = 13.09884 30.39703 21.74793
#
# Velocity S-wave (km/s) = 2.37922 3.62438 3.06568
# Velocity P-wave (km/s) = 4.04077 5.85813 5.03217
#
# Compressibility (1/GPa) = 0.04921869
#
# Stress axis : x y z
#
# Youngs Moduli (GPa) = 36.03558 15.21052 19.52835
#
# Poissons Ratio (x) = 0.28898 0.42092
# Poissons Ratio (y) = 0.68462 0.14039
# Poissons Ratio (z) = 0.77671 0.10935
#
# Static dielectric constant tensor:
#      x y z
#    x 1.900200 0.011030 -0.014000 
#    y 0.011030 1.881180 -0.054310 
#    z -0.014000 -0.054310 1.919170 
# 
# From -- ./inp_files/507299.got.cif
#   From: 2010.05.17/outbox.cif.g08.bks.cpg/sg2_254_cif.got.tgz:507299.got - 2010.06.03 11:33:40.
