data_PCOD9103591
_publ_section_title
;
Structure prediction by ZEFSAII (Michael W. Deem and Ramdas Pophale) SiO2 
 PCOD9103591
Probable space group: P -1
;
_chemical_formula_sum "Si O2"
_cell_formula_units_Z 13
_cell_length_a 8.274662
_cell_length_b 13.376340
_cell_length_c 6.938720
_cell_angle_alpha 126.811227
_cell_angle_beta 81.279837
_cell_angle_gamma 128.618591
_cell_volume 449.039069
_symmetry_space_group_name_H-M "P -1"
_symmetry_group_IT_number 2
_symmetry_cell_setting 'triclinic'
loop_
_space_group_symop_operation_xyz
x,y,z
-x,-y,-z
loop_
_atom_site_type_symbol
_atom_site_label
_atom_site_fract_x
_atom_site_fract_y
_atom_site_fract_z
Si Si1 0.417015 0.468754 0.709638
Si Si2 0.938554 0.188478 0.361137
Si Si3 0.792782 0.852425 0.148173
Si Si4 0.264125 0.534676 0.165048
Si Si5 0.733271 0.984930 0.695011
Si Si6 0.790285 0.258880 0.845309
Si Si7 0.500000 0.000000 0.000000
O O1 0.570200 0.425338 0.653755
O O2 0.200696 0.346947 0.474187
O O3 0.584221 0.671385 0.893098
O O4 0.301277 0.437390 0.900072
O O5 0.871279 0.209696 0.605797
O O6 0.888148 0.016673 0.199907
O O7 0.760482 0.155166 0.213218
O O8 0.738424 0.886644 0.408630
O O9 0.006138 0.871946 0.144681
O O10 0.305634 0.676608 0.184513
O O11 0.001225 0.412638 0.106933
O O12 0.574945 0.891541 0.796393
O O13 0.637796 0.083478 0.791260
#
# Coordination Sequence:
#
# PCOD9103591 Si02
#       7
#     2   2   2   2   2   2   1
#     4  10  20  38  67 108 133 173 232 297 338 409
#     4  10  25  43  67  99 140 184 233 285 357 409
#     4  10  22  44  77 104 128 182 246 292 332 419
#     4   9  18  31  66 107 138 157 226 306 338 383
#     4  10  23  42  71 104 140 185 232 283 355 410
#     4   9  18  38  65 105 131 174 231 289 336 405
#     4  12  28  46  62  98 154 186 222 292 360 422
#
# _framework density 28.950707999999999
#
# number of rings (size 3 to 8) (size 9 to 14) (size 15 to 20)
#    0.000    2.154    1.538    0.000   10.769    1.846 
#    0.000    1.538    0.000    0.000    0.000    1.077 
#    0.000    0.000    0.000    0.000    0.000    0.000 
#
# Total GULP energy -72394.120775 kJ/mol
# GULP energy per Si atom -5568.778521 kJ/mol
# Density = 2.888481 g / cm^3
# Si number density = 28.950708 Si / 1000 Ang^3
#
#
#
# Elastic Constant Matrix: (Units=GPa)
#
#
# Indices 1 2 3 4 5 6 
#
# 1 200.7958 61.3935 87.8751 34.6460 34.6248 15.8922
# 2 61.3935 75.0955 64.2673 26.0136 10.1287 1.3555
# 3 87.8751 64.2673 149.3239 29.0263 38.6313 19.1193
# 4 34.6460 26.0136 29.0263 54.3934 17.3438 -4.3370
# 5 34.6248 10.1287 38.6313 17.3438 74.1810 8.9044
# 6 15.8922 1.3555 19.1193 -4.3370 8.9044 51.7468
#
#
#
# Elastic Compliance Matrix: (Units=1/GPa)
#
#
# Indices 1 2 3 4 5 6 
#
# 1 0.007653 -0.003732 -0.002020 -0.001659 -0.001455 -0.001395
# 2 -0.003732 0.025623 -0.009020 -0.006155 0.004068 0.002592
# 3 -0.002020 -0.009020 0.013400 -0.000453 -0.004291 -0.003394
# 4 -0.001659 -0.006155 -0.000453 0.024271 -0.004257 0.003605
# 5 -0.001455 0.004068 -0.004291 -0.004257 0.016997 -0.001356
# 6 -0.001395 0.002592 -0.003394 0.003605 -0.001356 0.021475
#
#
# Mechanical properties :
#
#
# Convention : Reuss Voigt Hill
#
# Bulk Modulus (GPa) = 58.36608 94.69855 76.53232
# Shear Modulus (GPa) = 34.56098 50.17619 42.36858
#
# Velocity S-wave (km/s) = 3.45887 4.16764 3.82969
# Velocity P-wave (km/s) = 6.01298 7.47932 6.78588
#
# Compressibility (1/GPa) = 0.01713324
#
# Stress axis : x y z
#
# Youngs Moduli (GPa) = 130.67312 39.02796 74.62564
#
# Poissons Ratio (x) = 0.14563 0.15074
# Poissons Ratio (y) = 0.48761 0.67310
# Poissons Ratio (z) = 0.26395 0.35202
#
# Static dielectric constant tensor:
#      x y z
#    x 2.234630 -0.221470 0.034060 
#    y -0.221470 1.395170 0.400290 
#    z 0.034060 0.400290 2.259110 
# 
# From -- ./inp_files/204295.got.cif
#   From: 2010.05.17/outbox.cif.g08.bks.cpg/sg2_103_cif.got.tgz:204295.got - 2010.06.03 11:33:40.
