data_PCOD9103416
_publ_section_title
;
Structure prediction by ZEFSAII (Michael W. Deem and Ramdas Pophale) SiO2 
 PCOD9103416
Probable space group: P -1
;
_chemical_formula_sum "Si O2"
_cell_formula_units_Z 14
_cell_length_a 9.710591
_cell_length_b 10.381739
_cell_length_c 12.193051
_cell_angle_alpha 95.656768
_cell_angle_beta 118.126901
_cell_angle_gamma 128.615757
_cell_volume 695.943525
_symmetry_space_group_name_H-M "P -1"
_symmetry_group_IT_number 2
_symmetry_cell_setting 'triclinic'
loop_
_space_group_symop_operation_xyz
x,y,z
-x,-y,-z
loop_
_atom_site_type_symbol
_atom_site_label
_atom_site_fract_x
_atom_site_fract_y
_atom_site_fract_z
Si Si1 0.586529 0.132938 0.649419
Si Si2 0.093946 0.505177 0.920401
Si Si3 0.881576 0.781758 0.134536
Si Si4 0.922026 0.083297 0.531049
Si Si5 0.512337 0.252782 0.055819
Si Si6 0.663080 0.929938 0.803902
Si Si7 0.178946 0.499928 0.603520
O O1 0.846501 0.361787 0.745128
O O2 0.500000 0.000000 0.500000
O O3 0.367525 0.086550 0.594806
O O4 0.621952 0.045339 0.747567
O O5 0.156861 0.390954 0.933691
O O6 0.344136 0.723948 0.987339
O O7 0.000000 0.500000 0.000000
O O8 0.989509 0.852364 0.303860
O O9 0.649301 0.726909 0.036741
O O10 0.087954 0.962800 0.143833
O O11 0.045052 0.279016 0.526417
O O12 0.000000 0.000000 0.500000
O O13 0.353255 0.074961 0.070610
O O14 0.738426 0.438121 0.233282
O O15 0.439834 0.695581 0.663394
O O16 0.000000 0.500000 0.500000
#
# Coordination Sequence:
#
# PCOD9103416 Si02
#       7
#     2   2   2   2   2   2   2
#     4  11  20  42  66  90 125 172 220 260 314 388
#     4  11  24  37  63  94 124 167 217 262 311 387
#     4  11  21  41  62  91 128 169 208 265 329 378
#     4  12  24  38  66  97 125 167 217 271 316 382
#     4  10  21  37  65  87 127 161 206 262 328 372
#     4   9  20  36  70  84 120 172 212 254 323 380
#     4  10  20  38  66  90 123 167 214 256 327 377
#
# _framework density 20.116575999999998
#
# number of rings (size 3 to 8) (size 9 to 14) (size 15 to 20)
#    0.857    0.571    5.714    0.857    2.000    0.000 
#    0.000    3.571   12.571    0.000    0.000    0.000 
#    0.000    0.000    0.000    0.000    0.000    0.000 
#
# Total GULP energy -77963.731573 kJ/mol
# GULP energy per Si atom -5568.837969 kJ/mol
# Density = 2.007079 g / cm^3
# Si number density = 20.116576 Si / 1000 Ang^3
#
#
#
# Elastic Constant Matrix: (Units=GPa)
#
#
# Indices 1 2 3 4 5 6 
#
# 1 155.1414 54.3169 43.9903 -0.9715 20.0111 24.6254
# 2 54.3169 104.7159 16.6901 -1.9449 10.4806 22.9069
# 3 43.9903 16.6901 67.4504 -6.3009 22.2587 7.3492
# 4 -0.9715 -1.9449 -6.3009 27.0040 3.1385 7.3222
# 5 20.0111 10.4806 22.2587 3.1385 38.7536 2.5456
# 6 24.6254 22.9069 7.3492 7.3222 2.5456 40.6045
#
#
#
# Elastic Compliance Matrix: (Units=1/GPa)
#
#
# Indices 1 2 3 4 5 6 
#
# 1 0.009613 -0.003484 -0.004733 -0.000089 -0.001104 -0.002923
# 2 -0.003484 0.012703 0.000576 0.002631 -0.001818 -0.005518
# 3 -0.004733 0.000576 0.022233 0.006878 -0.010905 -0.002035
# 4 -0.000089 0.002631 0.006878 0.042353 -0.007399 -0.009849
# 5 -0.001104 -0.001818 -0.010905 -0.007399 0.033538 0.002901
# 6 -0.002923 -0.005518 -0.002035 -0.009849 0.002901 0.031476
#
#
# Mechanical properties :
#
#
# Convention : Reuss Voigt Hill
#
# Bulk Modulus (GPa) = 34.16812 61.92249 48.04531
# Shear Modulus (GPa) = 28.25580 35.42643 31.84111
#
# Velocity S-wave (km/s) = 3.75187 4.20105 3.98280
# Velocity P-wave (km/s) = 5.98253 7.37431 6.71457
#
# Compressibility (1/GPa) = 0.02926705
#
# Stress axis : x y z
#
# Youngs Moduli (GPa) = 104.02181 78.72208 44.97829
#
# Poissons Ratio (x) = 0.27426 0.21289
# Poissons Ratio (y) = 0.36240 -0.02590
# Poissons Ratio (z) = 0.49234 -0.04533
#
# Static dielectric constant tensor:
#      x y z
#    x 1.705150 0.035440 -0.024810 
#    y 0.035440 1.845550 0.044990 
#    z -0.024810 0.044990 1.792790 
# 
# From -- ./inp_files/385371.got.cif
#   From: 2010.05.17/outbox.cif.g08.bks.cpg/sg2_193_cif.got.tgz:385371.got - 2010.06.03 11:33:40.
