data_PCOD9103676
_publ_section_title
;
Structure prediction by ZEFSAII (Michael W. Deem and Ramdas Pophale) SiO2 
 PCOD9103676
Probable space group: P -1
;
_chemical_formula_sum "Si O2"
_cell_formula_units_Z 15
_cell_length_a 8.108306
_cell_length_b 10.607516
_cell_length_c 13.548382
_cell_angle_alpha 31.712927
_cell_angle_beta 105.262818
_cell_angle_gamma 101.026180
_cell_volume 589.712514
_symmetry_space_group_name_H-M "P -1"
_symmetry_group_IT_number 2
_symmetry_cell_setting 'triclinic'
loop_
_space_group_symop_operation_xyz
x,y,z
-x,-y,-z
loop_
_atom_site_type_symbol
_atom_site_label
_atom_site_fract_x
_atom_site_fract_y
_atom_site_fract_z
Si Si1 0.396982 0.472768 0.314842
Si Si2 0.449805 0.917569 0.736903
Si Si3 0.411796 0.138855 0.985377
Si Si4 0.937610 0.306552 0.979342
Si Si5 0.859281 0.225267 0.331927
Si Si6 0.000000 0.000000 0.000000
Si Si7 0.778382 0.270520 0.701024
Si Si8 0.206473 0.978240 0.337837
O O1 0.403963 0.189898 0.513002
O O2 0.347242 0.569668 0.354878
O O3 0.252512 0.569089 0.149255
O O4 0.566616 0.592002 0.223762
O O5 0.634102 0.852444 0.760165
O O6 0.485327 0.912987 0.862550
O O7 0.292969 0.775377 0.771097
O O8 0.234447 0.009099 0.065491
O O9 0.500000 0.000000 0.000000
O O10 0.056213 0.523625 0.830725
O O11 0.031388 0.151231 0.186209
O O12 0.943473 0.104408 0.032031
O O13 0.781023 0.170854 0.462028
O O14 0.000000 0.000000 0.500000
O O15 0.031837 0.707121 0.248495
O O16 0.765066 0.206593 0.628182
#
# Coordination Sequence:
#
# PCOD9103676 Si02
#       8
#     2   2   2   2   2   1   2   2
#     4  10  20  38  67  95 134 174 213 277 333 390
#     4  11  24  42  64 101 133 171 228 271 329 404
#     4   9  20  36  61  93 128 168 215 266 329 386
#     4  10  22  42  66  94 133 173 221 276 327 396
#     4  12  26  44  67  97 134 179 232 269 326 404
#     4   8  16  36  62  88 126 162 210 268 330 372
#     4   8  17  37  59  95 127 165 216 269 328 393
#     4  10  24  42  65  94 134 174 221 280 334 383
#
# _framework density 25.436122999999998
#
# number of rings (size 3 to 8) (size 9 to 14) (size 15 to 20)
#    0.000    2.133    1.333    0.400    1.867   10.133 
#    0.000   10.000    0.000    0.000    0.000    0.000 
#    0.000    0.000    0.000    0.000    0.000    0.000 
#
# Total GULP energy -83550.846000 kJ/mol
# GULP energy per Si atom -5570.056400 kJ/mol
# Density = 2.537823 g / cm^3
# Si number density = 25.436123 Si / 1000 Ang^3
#
#
#
# Elastic Constant Matrix: (Units=GPa)
#
#
# Indices 1 2 3 4 5 6 
#
# 1 82.5035 46.8744 26.6259 12.2020 6.6022 9.0435
# 2 46.8744 102.9268 39.6571 21.8174 -4.7142 24.5957
# 3 26.6259 39.6571 105.8733 3.0162 8.9809 0.1744
# 4 12.2020 21.8174 3.0162 40.9797 8.2050 1.6253
# 5 6.6022 -4.7142 8.9809 8.2050 40.3403 4.4230
# 6 9.0435 24.5957 0.1744 1.6253 4.4230 40.6123
#
#
#
# Elastic Compliance Matrix: (Units=1/GPa)
#
#
# Indices 1 2 3 4 5 6 
#
# 1 0.017066 -0.007805 -0.001062 -0.000184 -0.003577 0.001328
# 2 -0.007805 0.020764 -0.006227 -0.009477 0.008260 -0.011331
# 3 -0.001062 -0.006227 0.012318 0.003449 -0.004470 0.004303
# 4 -0.000184 -0.009477 0.003449 0.030774 -0.008706 0.005482
# 5 -0.003577 0.008260 -0.004470 -0.008706 0.029883 -0.007093
# 6 0.001328 -0.011331 0.004303 0.005482 -0.007093 0.031724
#
#
# Mechanical properties :
#
#
# Convention : Reuss Voigt Hill
#
# Bulk Modulus (GPa) = 50.09755 57.51314 53.80534
# Shear Modulus (GPa) = 27.87520 36.26286 32.06903
#
# Velocity S-wave (km/s) = 3.31401 3.77987 3.55458
# Velocity P-wave (km/s) = 5.86360 6.45831 6.16813
#
# Compressibility (1/GPa) = 0.01996106
#
# Stress axis : x y z
#
# Youngs Moduli (GPa) = 58.59700 48.16012 81.17893
#
# Poissons Ratio (x) = 0.37589 0.08620
# Poissons Ratio (y) = 0.45735 0.50548
# Poissons Ratio (z) = 0.06222 0.29988
#
# Static dielectric constant tensor:
#      x y z
#    x 2.168890 0.092220 0.088070 
#    y 0.092220 2.097270 0.101860 
#    z 0.088070 0.101860 2.087870 
# 
# From -- ./inp_files/76723.got.cif
#   From: 2010.05.17/outbox.cif.g08.bks.cpg/sg2_39_cif.got.tgz:76723.got - 2010.06.03 11:33:40.
