data_PCOD9103501
_publ_section_title
;
Structure prediction by ZEFSAII (Michael W. Deem and Ramdas Pophale) SiO2 
 PCOD9103501
Probable space group: P -1
;
_chemical_formula_sum "Si O2"
_cell_formula_units_Z 13
_cell_length_a 14.895517
_cell_length_b 5.199983
_cell_length_c 8.247803
_cell_angle_alpha 120.159070
_cell_angle_beta 77.254945
_cell_angle_gamma 69.721890
_cell_volume 452.624958
_symmetry_space_group_name_H-M "P -1"
_symmetry_group_IT_number 2
_symmetry_cell_setting 'triclinic'
loop_
_space_group_symop_operation_xyz
x,y,z
-x,-y,-z
loop_
_atom_site_type_symbol
_atom_site_label
_atom_site_fract_x
_atom_site_fract_y
_atom_site_fract_z
Si Si1 0.147366 0.809788 0.381437
Si Si2 0.737112 0.724155 0.244028
Si Si3 0.557352 0.965993 0.793919
Si Si4 0.334282 0.654531 0.069324
Si Si5 0.916680 0.415577 0.352140
Si Si6 0.500000 0.000000 0.500000
Si Si7 0.093079 0.321243 0.044647
O O1 0.278176 0.632443 0.249049
O O2 0.110700 0.777355 0.563264
O O3 0.107254 0.603567 0.226761
O O4 0.097850 0.212139 0.472121
O O5 0.821026 0.555587 0.302785
O O6 0.612024 0.996630 0.424799
O O7 0.733545 0.407225 0.055283
O O8 0.789652 0.882153 0.155489
O O9 0.657659 0.008951 0.807016
O O10 0.562588 0.747918 0.567824
O O11 0.457711 0.343892 0.870189
O O12 0.500000 0.000000 0.000000
O O13 0.035765 0.192587 0.150139
O O14 0.000000 0.500000 0.000000
#
# Coordination Sequence:
#
# PCOD9103501 Si02
#       7
#     2   2   2   2   2   1   2
#     4  11  23  40  68  99 134 174 225 283 339 409
#     4   9  20  41  62  95 131 180 222 283 340 405
#     4  10  21  39  63  90 129 178 227 282 340 405
#     4   9  21  40  56  91 132 170 225 278 336 405
#     4  11  23  42  67 100 132 177 227 278 340 407
#     4  10  20  38  66  94 134 170 238 276 346 410
#     4   9  20  42  65  95 139 174 226 278 345 400
#
# _framework density 28.721347000000002
#
# number of rings (size 3 to 8) (size 9 to 14) (size 15 to 20)
#    0.000    2.154    0.000    1.846    4.308    0.000 
#    8.308   19.231    0.000    0.000    0.000    0.000 
#    0.000    0.000    0.000    0.000    0.000    0.000 
#
# Total GULP energy -72448.799476 kJ/mol
# GULP energy per Si atom -5572.984575 kJ/mol
# Density = 2.865598 g / cm^3
# Si number density = 28.721347 Si / 1000 Ang^3
#
#
#
# Elastic Constant Matrix: (Units=GPa)
#
#
# Indices 1 2 3 4 5 6 
#
# 1 194.7976 40.1489 72.6870 -20.4527 -31.4021 54.3515
# 2 40.1489 124.5441 56.6082 -27.9925 -13.2289 33.9228
# 3 72.6870 56.6082 101.9802 -35.2793 -29.5929 23.9358
# 4 -20.4527 -27.9925 -35.2793 61.2699 6.2518 -12.4248
# 5 -31.4021 -13.2289 -29.5929 6.2518 95.0472 -2.3986
# 6 54.3515 33.9228 23.9358 -12.4248 -2.3986 39.5374
#
#
#
# Elastic Compliance Matrix: (Units=1/GPa)
#
#
# Indices 1 2 3 4 5 6 
#
# 1 0.010894 0.002969 -0.006081 -0.001583 0.001865 -0.014227
# 2 0.002969 0.013332 -0.006339 0.001087 0.000506 -0.011310
# 3 -0.006081 -0.006339 0.020030 0.007134 0.002979 0.004094
# 4 -0.001583 0.001087 0.007134 0.021066 0.000554 0.003579
# 5 0.001865 0.000506 0.002979 0.000554 0.012000 -0.003899
# 6 -0.014227 -0.011310 0.004094 0.003579 -0.003899 0.052964
#
#
# Mechanical properties :
#
#
# Convention : Reuss Voigt Hill
#
# Bulk Modulus (GPa) = 39.44016 84.46780 61.95398
# Shear Modulus (GPa) = 31.71772 55.96273 43.84022
#
# Velocity S-wave (km/s) = 3.32674 4.41894 3.91115
# Velocity P-wave (km/s) = 5.34024 7.45046 6.48180
#
# Compressibility (1/GPa) = 0.02535487
#
# Stress axis : x y z
#
# Youngs Moduli (GPa) = 91.79010 75.00621 49.92497
#
# Poissons Ratio (x) = -0.22270 0.30357
# Poissons Ratio (y) = -0.27253 0.31649
# Poissons Ratio (z) = 0.55814 0.47549
#
# Static dielectric constant tensor:
#      x y z
#    x 2.018480 -0.196680 -0.385060 
#    y -0.196680 2.338870 -0.202530 
#    z -0.385060 -0.202530 1.459040 
# 
# From -- ./inp_files/133211.got.cif
#   From: 2010.05.17/outbox.cif.g08.bks.cpg/sg2_67_cif.got.tgz:133211.got - 2010.06.03 11:33:40.
