data_PCOD9103616
_publ_section_title
;
Structure prediction by ZEFSAII (Michael W. Deem and Ramdas Pophale) SiO2 
 PCOD9103616
Probable space group: P -1
;
_chemical_formula_sum "Si O2"
_cell_formula_units_Z 16
_cell_length_a 6.139596
_cell_length_b 10.530881
_cell_length_c 22.939779
_cell_angle_alpha 150.333183
_cell_angle_beta 79.695380
_cell_angle_gamma 108.471150
_cell_volume 681.446357
_symmetry_space_group_name_H-M "P -1"
_symmetry_group_IT_number 2
_symmetry_cell_setting 'triclinic'
loop_
_space_group_symop_operation_xyz
x,y,z
-x,-y,-z
loop_
_atom_site_type_symbol
_atom_site_label
_atom_site_fract_x
_atom_site_fract_y
_atom_site_fract_z
Si Si1 0.709049 0.854697 0.289943
Si Si2 0.281525 0.372112 0.096389
Si Si3 0.962919 0.866642 0.511728
Si Si4 0.093510 0.882411 0.201286
Si Si5 0.442221 0.206675 0.412777
Si Si6 0.538848 0.148345 0.908389
Si Si7 0.813240 0.005661 0.942657
Si Si8 0.940950 0.249969 0.263217
O O1 0.444046 0.652615 0.227298
O O2 0.854018 0.927176 0.370937
O O3 0.675782 0.131344 0.379489
O O4 0.847926 0.745686 0.191071
O O5 0.289057 0.148446 0.054820
O O6 0.400922 0.337535 0.015947
O O7 0.006383 0.295747 0.065859
O O8 0.996348 0.571124 0.393126
O O9 0.703386 0.817606 0.530348
O O10 0.000000 0.000000 0.500000
O O11 0.268934 0.008364 0.295831
O O12 0.052288 0.115043 0.254667
O O13 0.232845 0.732320 0.095225
O O14 0.500000 0.500000 0.500000
O O15 0.631474 0.034647 0.915597
O O16 0.339627 0.907156 0.788431
O O17 0.957015 0.831989 0.834371
#
# Coordination Sequence:
#
# PCOD9103616 Si02
#       8
#     2   2   2   2   2   2   2   2
#     4  11  25  41  63  94 135 165 208 268 317 375
#     4  10  22  40  59  94 128 166 210 261 318 374
#     4  11  26  41  62 100 131 165 211 267 324 379
#     4  10  21  40  63  94 120 168 218 258 309 375
#     4  11  23  43  67  89 128 179 217 257 318 379
#     4  10  20  38  67  90 121 169 215 254 313 379
#     4   9  21  39  64  89 124 172 212 257 311 386
#     4  10  21  40  65  92 127 165 217 259 310 383
#
# _framework density 23.479469000000002
#
# number of rings (size 3 to 8) (size 9 to 14) (size 15 to 20)
#    0.000    1.750    0.000    3.375    3.500    6.000 
#    0.000    8.750    0.000    0.000    0.000    0.000 
#    0.000    0.000    0.000    0.000    0.000    0.000 
#
# Total GULP energy -89475.402963 kJ/mol
# GULP energy per Si atom -5592.212685 kJ/mol
# Density = 2.342603 g / cm^3
# Si number density = 23.479469 Si / 1000 Ang^3
#
#
#
# Elastic Constant Matrix: (Units=GPa)
#
#
# Indices 1 2 3 4 5 6 
#
# 1 88.8903 52.5669 13.4251 -8.3472 -2.4137 -13.6334
# 2 52.5669 126.0286 37.2316 -20.9190 -2.4348 0.3485
# 3 13.4251 37.2316 70.1635 -3.2023 5.0741 8.3219
# 4 -8.3472 -20.9190 -3.2023 34.7505 1.0862 0.8668
# 5 -2.4137 -2.4348 5.0741 1.0862 27.7838 -5.8412
# 6 -13.6334 0.3485 8.3219 0.8668 -5.8412 38.2973
#
#
#
# Elastic Compliance Matrix: (Units=1/GPa)
#
#
# Indices 1 2 3 4 5 6 
#
# 1 0.016266 -0.006674 -0.000501 -0.000385 0.002262 0.006314
# 2 -0.006674 0.013338 -0.005457 0.005921 0.001085 -0.001280
# 3 -0.000501 -0.005457 0.018085 -0.001471 -0.004766 -0.004752
# 4 -0.000385 0.005921 -0.001471 0.032151 -0.000650 -0.000698
# 5 0.002262 0.001085 -0.004766 -0.000650 0.038812 0.007766
# 6 0.006314 -0.001280 -0.004752 -0.000698 0.007766 0.030604
#
#
# Mechanical properties :
#
#
# Convention : Reuss Voigt Hill
#
# Bulk Modulus (GPa) = 44.59293 54.61439 49.60366
# Shear Modulus (GPa) = 27.47327 32.29024 29.88176
#
# Velocity S-wave (km/s) = 3.42438 3.71247 3.57133
# Velocity P-wave (km/s) = 5.88801 6.45659 6.17884
#
# Compressibility (1/GPa) = 0.02242508
#
# Stress axis : x y z
#
# Youngs Moduli (GPa) = 61.47754 74.97333 55.29403
#
# Poissons Ratio (x) = 0.50040 0.02768
# Poissons Ratio (y) = 0.41033 0.30174
# Poissons Ratio (z) = 0.03078 0.40913
#
# Static dielectric constant tensor:
#      x y z
#    x 1.897160 0.039610 -0.035420 
#    y 0.039610 1.867600 0.021130 
#    z -0.035420 0.021130 1.946150 
# 
# From -- ./inp_files/604483.got.cif
#   From: 2010.05.17/outbox.cif.g08.bks.cpg/sg2_303_cif.got.tgz:604483.got - 2010.06.03 11:33:40.
