data_PCOD9103001
_publ_section_title
;
Structure prediction by ZEFSAII (Michael W. Deem and Ramdas Pophale) SiO2 
 PCOD9103001
Probable space group: P -1
;
_chemical_formula_sum "Si O2"
_cell_formula_units_Z 15
_cell_length_a 11.173695
_cell_length_b 18.525263
_cell_length_c 14.451597
_cell_angle_alpha 30.645046
_cell_angle_beta 47.530359
_cell_angle_gamma 26.543341
_cell_volume 620.033733
_symmetry_space_group_name_H-M "P -1"
_symmetry_group_IT_number 2
_symmetry_cell_setting 'triclinic'
loop_
_space_group_symop_operation_xyz
x,y,z
-x,-y,-z
loop_
_atom_site_type_symbol
_atom_site_label
_atom_site_fract_x
_atom_site_fract_y
_atom_site_fract_z
Si Si1 0.256225 0.659505 0.298897
Si Si2 0.202392 0.528440 0.808225
Si Si3 0.784669 0.083055 0.444373
Si Si4 0.500000 0.500000 0.000000
Si Si5 0.925440 0.120564 0.048730
Si Si6 0.826968 0.786501 0.105294
Si Si7 0.425170 0.241919 0.608014
Si Si8 0.022797 0.370846 0.990781
O O1 0.523188 0.575449 0.246071
O O2 0.374421 0.414245 0.510537
O O3 0.084583 0.807035 0.129391
O O4 0.047152 0.873177 0.251898
O O5 0.173921 0.411552 0.888150
O O6 0.924661 0.835229 0.609138
O O7 0.199364 0.482126 0.969119
O O8 0.473335 0.274354 0.445756
O O9 0.739938 0.219684 0.232452
O O10 0.000000 0.000000 0.500000
O O11 0.391219 0.631564 0.014308
O O12 0.127771 0.084018 0.037815
O O13 0.817662 0.694318 0.302513
O O14 0.061345 0.579536 0.128842
O O15 0.500000 0.000000 0.000000
O O16 0.735383 0.930655 0.795167
#
# Coordination Sequence:
#
# PCOD9103001 Si02
#       8
#     2   2   2   1   2   2   2   2
#     4  11  22  42  65 102 134 182 236 293 357 413
#     4  10  20  40  69  97 138 182 239 289 355 424
#     4  11  22  41  70 102 141 187 232 296 356 416
#     4  12  26  44  68 108 136 184 242 288 352 428
#     4  11  26  41  67  97 142 186 228 298 353 417
#     4  10  22  39  61  93 133 176 232 280 348 420
#     4  10  20  38  64  95 134 180 228 285 350 416
#     4   9  21  37  65 101 134 181 231 289 347 428
#
# _framework density 24.192231
#
# number of rings (size 3 to 8) (size 9 to 14) (size 15 to 20)
#    0.000    1.600    2.667    1.600    7.467    1.600 
#    0.000    4.000    0.000    3.200    0.000    0.000 
#    0.000    0.000    0.000    0.000    0.000    0.000 
#
# Total GULP energy -83555.002889 kJ/mol
# GULP energy per Si atom -5570.333526 kJ/mol
# Density = 2.413717 g / cm^3
# Si number density = 24.192231 Si / 1000 Ang^3
#
#
#
# Elastic Constant Matrix: (Units=GPa)
#
#
# Indices 1 2 3 4 5 6 
#
# 1 90.5717 -0.2592 43.0507 -22.2565 -20.6188 20.4068
# 2 -0.2592 98.7889 11.1985 -13.5847 -19.4871 21.8054
# 3 43.0507 11.1985 106.5563 -5.7044 -26.2509 10.0712
# 4 -22.2565 -13.5847 -5.7044 44.1273 26.1056 -7.7675
# 5 -20.6188 -19.4871 -26.2509 26.1056 44.6264 -4.6873
# 6 20.4068 21.8054 10.0712 -7.7675 -4.6873 37.1428
#
#
#
# Elastic Compliance Matrix: (Units=1/GPa)
#
#
# Indices 1 2 3 4 5 6 
#
# 1 0.018049 0.003956 -0.006161 0.007187 0.001304 -0.008901
# 2 0.003956 0.013463 -0.000702 0.001096 0.005714 -0.008936
# 3 -0.006161 -0.000702 0.013815 -0.006896 0.008980 -0.000258
# 4 0.007187 0.001096 -0.006896 0.040054 -0.023404 0.002701
# 5 0.001304 0.005714 0.008980 -0.023404 0.043863 -0.005865
# 6 -0.008901 -0.008936 -0.000258 0.002701 -0.005865 0.036954
#
#
# Mechanical properties :
#
#
# Convention : Reuss Voigt Hill
#
# Bulk Modulus (GPa) = 25.30832 44.87743 35.09287
# Shear Modulus (GPa) = 27.00040 41.30777 34.15408
#
# Velocity S-wave (km/s) = 3.34440 4.13665 3.76144
# Velocity P-wave (km/s) = 5.03958 6.43478 5.77944
#
# Compressibility (1/GPa) = 0.03951270
#
# Stress axis : x y z
#
# Youngs Moduli (GPa) = 55.40541 74.27835 72.38479
#
# Poissons Ratio (x) = -0.29383 0.44594
# Poissons Ratio (y) = -0.21917 0.05082
# Poissons Ratio (z) = 0.34133 0.05215
#
# Static dielectric constant tensor:
#      x y z
#    x 1.964730 -0.043040 0.045530 
#    y -0.043040 2.126510 0.085440 
#    z 0.045530 0.085440 1.979660 
# 
# From -- ./inp_files/523430.got.cif
#   From: 2010.05.17/outbox.cif.g08.bks.cpg/sg2_262_cif.got.tgz:523430.got - 2010.06.03 11:33:40.
