data_PCOD9103546
_publ_section_title
;
Structure prediction by ZEFSAII (Michael W. Deem and Ramdas Pophale) SiO2 
 PCOD9103546
Probable space group: P -1
;
_chemical_formula_sum "Si O2"
_cell_formula_units_Z 14
_cell_length_a 7.960308
_cell_length_b 9.621241
_cell_length_c 11.885124
_cell_angle_alpha 59.168891
_cell_angle_beta 42.653802
_cell_angle_gamma 76.955445
_cell_volume 511.399842
_symmetry_space_group_name_H-M "P -1"
_symmetry_group_IT_number 2
_symmetry_cell_setting 'triclinic'
loop_
_space_group_symop_operation_xyz
x,y,z
-x,-y,-z
loop_
_atom_site_type_symbol
_atom_site_label
_atom_site_fract_x
_atom_site_fract_y
_atom_site_fract_z
Si Si1 0.405952 0.343188 0.751911
Si Si2 0.531267 0.616842 0.725270
Si Si3 0.950355 0.470425 0.858018
Si Si4 0.048204 0.170332 0.828697
Si Si5 0.814116 0.933144 0.860054
Si Si6 0.298522 0.092741 0.316982
Si Si7 0.282788 0.804731 0.587718
O O1 0.617775 0.488432 0.650607
O O2 0.334216 0.283864 0.681849
O O3 0.152911 0.415215 0.864036
O O4 0.365744 0.177587 0.911979
O O5 0.688847 0.737138 0.693237
O O6 0.440898 0.743666 0.632561
O O7 0.300275 0.512640 0.962474
O O8 0.882768 0.302910 0.885673
O O9 0.129710 0.645665 0.652607
O O10 0.966434 0.107674 0.770022
O O11 0.000000 0.000000 0.000000
O O12 0.643997 0.913612 0.839968
O O13 0.049002 0.853552 0.747419
O O14 0.422018 0.969936 0.380989
O O15 0.000000 0.000000 0.500000
#
# Coordination Sequence:
#
# PCOD9103546 Si02
#       7
#     2   2   2   2   2   2   2
#     4   8  15  27  53  79  94 118 169 207 249 274
#     4  11  16  32  55  77  94 128 176 215 234 288
#     4   9  16  29  56  82  91 121 173 213 244 280
#     4   8  15  27  51  81 102 125 155 210 257 290
#     4  10  16  33  48  75 111 129 155 203 259 299
#     4  10  24  32  45  74 109 139 160 201 258 296
#     4  10  17  34  52  76  99 130 172 204 242 298
#
# _framework density 27.375837000000001
#
# number of rings (size 3 to 8) (size 9 to 14) (size 15 to 20)
#    0.857    1.714    2.857    1.286    0.000    0.571 
#    0.000    1.429    0.000    3.429   14.857    0.000 
#    0.000    0.000    0.000    0.000    0.000    0.000 
#
# Total GULP energy -78009.241253 kJ/mol
# GULP energy per Si atom -5572.088661 kJ/mol
# Density = 2.731353 g / cm^3
# Si number density = 27.375837 Si / 1000 Ang^3
#
#
#
# Elastic Constant Matrix: (Units=GPa)
#
#
# Indices 1 2 3 4 5 6 
#
# 1 61.9771 41.8619 21.9327 -4.1768 1.6801 34.8015
# 2 41.8619 229.0713 21.6035 -36.5380 -2.0339 59.6414
# 3 21.9327 21.6035 67.6088 -4.3012 11.8995 28.3394
# 4 -4.1768 -36.5380 -4.3012 30.6358 12.2717 -13.0216
# 5 1.6801 -2.0339 11.8995 12.2717 35.3680 4.1308
# 6 34.8015 59.6414 28.3394 -13.0216 4.1308 56.8231
#
#
#
# Elastic Compliance Matrix: (Units=1/GPa)
#
#
# Indices 1 2 3 4 5 6 
#
# 1 0.025814 -0.001715 -0.002858 -0.006429 0.003539 -0.014315
# 2 -0.001715 0.006980 0.001237 0.006697 -0.001645 -0.005238
# 3 -0.002858 0.001237 0.020234 0.002989 -0.006649 -0.008472
# 4 -0.006429 0.006697 0.002989 0.051527 -0.019201 0.008622
# 5 0.003539 -0.001645 -0.006649 -0.019201 0.037406 -0.004244
# 6 -0.014315 -0.005238 -0.008472 0.008622 -0.004244 0.038374
#
#
# Mechanical properties :
#
#
# Convention : Reuss Voigt Hill
#
# Bulk Modulus (GPa) = 21.57167 58.82815 40.19991
# Shear Modulus (GPa) = 24.69671 42.78266 33.73969
#
# Velocity S-wave (km/s) = 3.00682 3.95750 3.51445
# Velocity P-wave (km/s) = 4.46671 6.51292 5.58434
#
# Compressibility (1/GPa) = 0.04635709
#
# Stress axis : x y z
#
# Youngs Moduli (GPa) = 38.73934 143.27605 49.42189
#
# Poissons Ratio (x) = 0.24569 0.14123
# Poissons Ratio (y) = 0.06643 -0.06116
# Poissons Ratio (z) = 0.11070 -0.17730
#
# Static dielectric constant tensor:
#      x y z
#    x 2.184670 -0.001500 -0.037810 
#    y -0.001500 2.341270 0.027620 
#    z -0.037810 0.027620 2.253550 
# 
# From -- ./inp_files/381658.got.cif
#   From: 2010.05.17/outbox.cif.g08.bks.cpg/sg2_191_cif.got.tgz:381658.got - 2010.06.03 11:33:40.
