data_PCOD9103962
_publ_section_title
;
Structure prediction by ZEFSAII (Michael W. Deem and Ramdas Pophale) SiO2 
 PCOD9103962
Probable space group: P -1
;
_chemical_formula_sum "Si O2"
_cell_formula_units_Z 16
_cell_length_a 9.964678
_cell_length_b 29.050084
_cell_length_c 15.541487
_cell_angle_alpha 19.267311
_cell_angle_beta 137.082737
_cell_angle_gamma 146.305880
_cell_volume 788.179079
_symmetry_space_group_name_H-M "P -1"
_symmetry_group_IT_number 2
_symmetry_cell_setting 'triclinic'
loop_
_space_group_symop_operation_xyz
x,y,z
-x,-y,-z
loop_
_atom_site_type_symbol
_atom_site_label
_atom_site_fract_x
_atom_site_fract_y
_atom_site_fract_z
Si Si1 0.454942 0.002103 0.073393
Si Si2 0.533046 0.514792 0.593164
Si Si3 0.711593 0.410710 0.513364
Si Si4 0.319360 0.121919 0.212681
Si Si5 0.465746 0.951642 0.717505
Si Si6 0.066450 0.866885 0.253445
Si Si7 0.847535 0.948445 0.392921
Si Si8 0.915956 0.732097 0.926341
O O1 0.167944 0.882117 0.178878
O O2 0.597179 0.929739 0.305156
O O3 0.565460 0.202749 0.794824
O O4 0.500000 0.000000 0.000000
O O5 0.500000 0.500000 0.500000
O O6 0.378157 0.564830 0.481930
O O7 0.814765 0.665438 0.495535
O O8 0.430737 0.323725 0.915417
O O9 0.000000 0.500000 0.500000
O O10 0.726983 0.532548 0.228595
O O11 0.411235 0.066237 0.433485
O O12 0.429047 0.108809 0.198308
O O13 0.014354 0.996236 0.301188
O O14 0.694856 0.063962 0.695281
O O15 0.192919 0.799499 0.903325
O O16 0.000000 0.000000 0.000000
O O17 0.806518 0.780815 0.713443
O O18 0.022803 0.127849 0.217308
#
# Coordination Sequence:
#
# PCOD9103962 Si02
#       8
#     2   2   2   2   2   2   2   2
#     4  12  27  42  63  96 132 174 214 264 329 382
#     4  12  27  40  64  96 129 169 220 267 322 385
#     4  12  23  42  65  96 126 167 216 271 316 383
#     4  10  22  40  68  97 127 168 217 269 308 394
#     4  10  22  42  66  96 130 170 217 256 330 382
#     4  12  25  42  61  89 133 175 208 269 324 384
#     4  10  20  40  65  95 123 168 211 262 317 381
#     4  10  20  38  70  93 123 163 220 263 312 381
#
# _framework density 20.299955000000001
#
# number of rings (size 3 to 8) (size 9 to 14) (size 15 to 20)
#    0.000    1.000    5.000    0.750    7.000    0.500 
#    0.000    0.625    0.000    0.000    0.000    0.000 
#    0.000    0.000    0.000    0.000    0.000    0.000 
#
# Total GULP energy -89244.174294 kJ/mol
# GULP energy per Si atom -5577.760893 kJ/mol
# Density = 2.025375 g / cm^3
# Si number density = 20.299955 Si / 1000 Ang^3
#
#
#
# Elastic Constant Matrix: (Units=GPa)
#
#
# Indices 1 2 3 4 5 6 
#
# 1 171.6056 22.4751 22.8565 9.2213 3.9183 5.2264
# 2 22.4751 42.9550 8.6690 11.6073 0.3169 4.1342
# 3 22.8565 8.6690 76.7019 16.8096 0.3834 7.1275
# 4 9.2213 11.6073 16.8096 16.8032 1.8267 -0.7106
# 5 3.9183 0.3169 0.3834 1.8267 32.7463 -0.3054
# 6 5.2264 4.1342 7.1275 -0.7106 -0.3054 28.8031
#
#
#
# Elastic Compliance Matrix: (Units=1/GPa)
#
#
# Indices 1 2 3 4 5 6 
#
# 1 0.006458 -0.003087 -0.001596 0.000251 -0.000741 -0.000336
# 2 -0.003087 0.031012 0.002934 -0.023021 0.001271 -0.005172
# 3 -0.001596 0.002934 0.017887 -0.019365 0.000986 -0.005025
# 4 0.000251 -0.023021 -0.019365 0.095611 -0.004817 0.010358
# 5 -0.000741 0.001271 0.000986 -0.004817 0.030871 -0.000083
# 6 -0.000336 -0.005172 -0.005025 0.010358 -0.000083 0.037020
#
#
# Mechanical properties :
#
#
# Convention : Reuss Voigt Hill
#
# Bulk Modulus (GPa) = 19.28255 44.36263 31.82259
# Shear Modulus (GPa) = 20.86442 31.48797 26.17619
#
# Velocity S-wave (km/s) = 3.20942 3.94272 3.59482
# Velocity P-wave (km/s) = 4.82216 6.52899 5.73938
#
# Compressibility (1/GPa) = 0.05186035
#
# Stress axis : x y z
#
# Youngs Moduli (GPa) = 154.85185 32.24538 55.90552
#
# Poissons Ratio (x) = 0.09954 0.08920
# Poissons Ratio (y) = 0.47802 -0.16403
# Poissons Ratio (z) = 0.24708 -0.09461
#
# Static dielectric constant tensor:
#      x y z
#    x 1.750030 -0.041280 -0.020190 
#    y -0.041280 1.761830 0.139340 
#    z -0.020190 0.139340 1.787720 
# 
# From -- ./inp_files/508983.got.cif
#   From: 2010.05.17/outbox.cif.g08.bks.cpg/sg2_255_cif.got.tgz:508983.got - 2010.06.03 11:33:40.
