data_PCOD9103160
_publ_section_title
;
Structure prediction by ZEFSAII (Michael W. Deem and Ramdas Pophale) SiO2 
 PCOD9103160
Probable space group: P -1
;
_chemical_formula_sum "Si O2"
_cell_formula_units_Z 16
_cell_length_a 14.697273
_cell_length_b 9.168692
_cell_length_c 12.010287
_cell_angle_alpha 43.687024
_cell_angle_beta 133.557620
_cell_angle_gamma 122.308076
_cell_volume 807.995003
_symmetry_space_group_name_H-M "P -1"
_symmetry_group_IT_number 2
_symmetry_cell_setting 'triclinic'
loop_
_space_group_symop_operation_xyz
x,y,z
-x,-y,-z
loop_
_atom_site_type_symbol
_atom_site_label
_atom_site_fract_x
_atom_site_fract_y
_atom_site_fract_z
Si Si1 0.891904 0.637050 0.790423
Si Si2 0.158936 0.155912 0.663486
Si Si3 0.384262 0.015165 0.306556
Si Si4 0.075369 0.758334 0.683868
Si Si5 0.395447 0.081858 0.027186
Si Si6 0.537445 0.337030 0.811207
Si Si7 0.702086 0.455436 0.562273
Si Si8 0.775901 0.639224 0.913224
O O1 0.779611 0.489989 0.721947
O O2 0.840942 0.741767 0.800099
O O3 0.966423 0.759437 0.686805
O O4 0.000000 0.500000 0.000000
O O5 0.224721 0.375927 0.551330
O O6 0.010281 0.196824 0.520697
O O7 0.170412 0.952608 0.700766
O O8 0.245521 0.103727 0.870166
O O9 0.431962 0.086745 0.184233
O O10 0.283737 0.179971 0.166685
O O11 0.500000 0.000000 0.500000
O O12 0.313460 0.783127 0.360828
O O13 0.134262 0.530664 0.861373
O O14 0.427786 0.859748 0.124339
O O15 0.472807 0.251783 0.919629
O O16 0.436119 0.464454 0.590670
O O17 0.657856 0.487473 0.857750
#
# Coordination Sequence:
#
# PCOD9103160 Si02
#       8
#     2   2   2   2   2   2   2   2
#     4   9  20  36  63  90 114 155 213 261 295 347
#     4   9  18  38  66  88 115 151 207 269 301 344
#     4  12  26  40  55  91 139 170 194 240 316 382
#     4   9  18  37  67  92 116 150 216 267 300 349
#     4  10  22  38  63  91 120 159 206 261 305 362
#     4  10  20  38  65  91 116 157 218 254 304 355
#     4  10  21  38  62  89 123 162 203 258 300 364
#     4  11  21  38  58  92 127 164 198 251 312 371
#
# _framework density 19.802102999999999
#
# number of rings (size 3 to 8) (size 9 to 14) (size 15 to 20)
#    0.000    2.000    2.500    0.750    3.500    1.500 
#    0.000    6.250    0.000    0.000    0.000    0.000 
#    0.000    0.000    0.000    0.000    0.000    0.000 
#
# Total GULP energy -89079.630210 kJ/mol
# GULP energy per Si atom -5567.476888 kJ/mol
# Density = 1.975703 g / cm^3
# Si number density = 19.802103 Si / 1000 Ang^3
#
#
#
# Elastic Constant Matrix: (Units=GPa)
#
#
# Indices 1 2 3 4 5 6 
#
# 1 76.0007 36.3579 32.9519 -3.3010 0.1543 -12.3898
# 2 36.3579 55.3728 40.8539 -15.2787 -2.6109 -14.4658
# 3 32.9519 40.8539 132.8498 10.6071 19.8998 -17.8050
# 4 -3.3010 -15.2787 10.6071 39.9189 -0.9749 -0.9243
# 5 0.1543 -2.6109 19.8998 -0.9749 27.9064 3.9642
# 6 -12.3898 -14.4658 -17.8050 -0.9243 3.9642 20.3660
#
#
#
# Elastic Compliance Matrix: (Units=1/GPa)
#
#
# Indices 1 2 3 4 5 6 
#
# 1 0.019855 -0.013523 0.000218 -0.003575 -0.002068 0.002905
# 2 -0.013523 0.045269 -0.012456 0.020085 0.012251 0.011565
# 3 0.000218 -0.012456 0.014795 -0.008850 -0.012926 0.006335
# 4 -0.003575 0.020085 -0.008850 0.035108 0.008835 0.004228
# 5 -0.002068 0.012251 -0.012926 0.008835 0.048345 -0.012866
# 6 0.002905 0.011565 0.006335 0.004228 -0.012866 0.067318
#
#
# Mechanical properties :
#
#
# Convention : Reuss Voigt Hill
#
# Bulk Modulus (GPa) = 35.21270 53.83897 44.52583
# Shear Modulus (GPa) = 17.14225 27.90891 22.52558
#
# Velocity S-wave (km/s) = 2.94543 3.75826 3.37639
# Velocity P-wave (km/s) = 5.42110 6.78824 6.14282
#
# Compressibility (1/GPa) = 0.02839885
#
# Stress axis : x y z
#
# Youngs Moduli (GPa) = 50.36566 22.09002 67.58918
#
# Poissons Ratio (x) = 0.29872 -0.01476
# Poissons Ratio (y) = 0.68110 0.84187
# Poissons Ratio (z) = -0.01100 0.27515
#
# Static dielectric constant tensor:
#      x y z
#    x 1.779770 0.018820 -0.072840 
#    y 0.018820 1.692910 0.032270 
#    z -0.072840 0.032270 1.837090 
# 
# From -- ./inp_files/444078.got.cif
#   From: 2010.05.17/outbox.cif.g08.bks.cpg/sg2_223_cif.got.tgz:444078.got - 2010.06.03 11:33:40.
