data_PCOD9103932
_publ_section_title
;
Structure prediction by ZEFSAII (Michael W. Deem and Ramdas Pophale) SiO2 
 PCOD9103932
Probable space group: P -1
;
_chemical_formula_sum "Si O2"
_cell_formula_units_Z 14
_cell_length_a 11.755455
_cell_length_b 9.220881
_cell_length_c 8.183496
_cell_angle_alpha 110.311275
_cell_angle_beta 71.833145
_cell_angle_gamma 56.360870
_cell_volume 528.910153
_symmetry_space_group_name_H-M "P -1"
_symmetry_group_IT_number 2
_symmetry_cell_setting 'triclinic'
loop_
_space_group_symop_operation_xyz
x,y,z
-x,-y,-z
loop_
_atom_site_type_symbol
_atom_site_label
_atom_site_fract_x
_atom_site_fract_y
_atom_site_fract_z
Si Si1 0.863140 0.443321 0.085243
Si Si2 0.591257 0.047099 0.878177
Si Si3 0.630508 0.447517 0.871778
Si Si4 0.603176 0.444751 0.315264
Si Si5 0.681825 0.914039 0.419493
Si Si6 0.885306 0.021045 0.375120
Si Si7 0.899364 0.926466 0.887446
O O1 0.676750 0.539785 0.257848
O O2 0.822691 0.662551 0.175239
O O3 0.992927 0.279671 0.113756
O O4 0.946252 0.264249 0.825244
O O5 0.682678 0.913909 0.615019
O O6 0.754471 0.965856 0.871264
O O7 0.424407 0.325014 0.026593
O O8 0.500000 0.000000 0.000000
O O9 0.570491 0.502003 0.557920
O O10 0.447082 0.539156 0.909982
O O11 0.793097 0.188679 0.641505
O O12 0.779567 0.168789 0.125476
O O13 0.500000 0.000000 0.500000
O O14 0.728513 0.046876 0.403827
O O15 0.968385 0.094939 0.286645
#
# Coordination Sequence:
#
# PCOD9103932 Si02
#       7
#     2   2   2   2   2   2   2
#     4  11  24  42  72 110 141 186 236 296 360 407
#     4  11  28  49  70 107 143 189 240 291 359 426
#     4  11  22  44  72 102 141 190 237 287 350 426
#     4  10  20  38  70 102 139 186 240 281 340 430
#     4  12  28  47  73 105 147 192 233 291 361 429
#     4  11  23  47  71 105 146 184 240 293 352 420
#     4  10  24  44  72 105 140 186 239 297 353 406
#
# _framework density 26.469524
#
# number of rings (size 3 to 8) (size 9 to 14) (size 15 to 20)
#    0.000    1.143    1.429    4.714    8.000    1.143 
#    2.571    0.000    0.000    0.000    0.000    0.000 
#    0.000    0.000    0.000    0.000    0.000    0.000 
#
# Total GULP energy -77983.920480 kJ/mol
# GULP energy per Si atom -5570.280034 kJ/mol
# Density = 2.640928 g / cm^3
# Si number density = 26.469524 Si / 1000 Ang^3
#
#
#
# Elastic Constant Matrix: (Units=GPa)
#
#
# Indices 1 2 3 4 5 6 
#
# 1 154.9377 36.2073 31.6683 -15.1750 -0.0965 7.8753
# 2 36.2073 102.6802 6.3540 10.8710 -0.5004 26.7542
# 3 31.6683 6.3540 157.5791 16.9087 -25.3962 16.5344
# 4 -15.1750 10.8710 16.9087 39.6362 10.8360 -9.7042
# 5 -0.0965 -0.5004 -25.3962 10.8360 59.1405 -2.2500
# 6 7.8753 26.7542 16.5344 -9.7042 -2.2500 49.2449
#
#
#
# Elastic Compliance Matrix: (Units=1/GPa)
#
#
# Indices 1 2 3 4 5 6 
#
# 1 0.008744 -0.004626 -0.003181 0.007566 -0.002642 0.003554
# 2 -0.004626 0.015013 0.003016 -0.010520 0.002948 -0.010368
# 3 -0.003181 0.003016 0.009298 -0.008905 0.005426 -0.005759
# 4 0.007566 -0.010520 -0.008905 0.041514 -0.010930 0.015177
# 5 -0.002642 0.002948 0.005426 -0.010930 0.021103 -0.004190
# 6 0.003554 -0.010368 -0.005759 0.015177 -0.004190 0.030104
#
#
# Mechanical properties :
#
#
# Convention : Reuss Voigt Hill
#
# Bulk Modulus (GPa) = 42.60354 62.62845 52.61599
# Shear Modulus (GPa) = 34.92030 52.33548 43.62789
#
# Velocity S-wave (km/s) = 3.63611 4.45139 4.06425
# Velocity P-wave (km/s) = 5.81022 7.08038 6.47651
#
# Compressibility (1/GPa) = 0.02347223
#
# Stress axis : x y z
#
# Youngs Moduli (GPa) = 114.35902 66.60794 107.55090
#
# Poissons Ratio (x) = 0.30816 0.34216
# Poissons Ratio (y) = 0.52907 -0.32439
# Poissons Ratio (z) = 0.36382 -0.20090
#
# Static dielectric constant tensor:
#      x y z
#    x 2.289530 -0.029070 0.129420 
#    y -0.029070 2.239560 0.101120 
#    z 0.129420 0.101120 2.303720 
# 
# From -- ./inp_files/245417.got.cif
#   From: 2010.05.17/outbox.cif.g08.bks.cpg/sg2_123_cif.got.tgz:245417.got - 2010.06.03 11:33:40.
