data_PCOD9103423
_publ_section_title
;
Structure prediction by ZEFSAII (Michael W. Deem and Ramdas Pophale) SiO2 
 PCOD9103423
Probable space group: P -1
;
_chemical_formula_sum "Si O2"
_cell_formula_units_Z 16
_cell_length_a 8.844169
_cell_length_b 7.652269
_cell_length_c 12.821756
_cell_angle_alpha 96.156526
_cell_angle_beta 129.184894
_cell_angle_gamma 106.664808
_cell_volume 593.755594
_symmetry_space_group_name_H-M "P -1"
_symmetry_group_IT_number 2
_symmetry_cell_setting 'triclinic'
loop_
_space_group_symop_operation_xyz
x,y,z
-x,-y,-z
loop_
_atom_site_type_symbol
_atom_site_label
_atom_site_fract_x
_atom_site_fract_y
_atom_site_fract_z
Si Si1 0.545871 0.684365 0.139013
Si Si2 0.915310 0.596081 0.338390
Si Si3 0.209620 0.963090 0.599596
Si Si4 0.581079 0.795981 0.495854
Si Si5 0.346882 0.090316 0.985625
Si Si6 0.862559 0.590443 0.687050
Si Si7 0.074745 0.865756 0.219359
Si Si8 0.161012 0.761049 0.028923
O O1 0.689884 0.921197 0.243463
O O2 0.546545 0.694342 0.012796
O O3 0.309247 0.646933 0.074404
O O4 0.676159 0.584622 0.251960
O O5 0.946198 0.409720 0.303534
O O6 0.983671 0.725258 0.270174
O O7 0.105171 0.730593 0.512089
O O8 0.371784 0.097508 0.588107
O O9 0.000000 0.000000 0.500000
O O10 0.738277 0.691936 0.576460
O O11 0.334353 0.631019 0.394115
O O12 0.681634 0.968233 0.636621
O O13 0.092243 0.040097 0.854506
O O14 0.500000 0.000000 0.000000
O O15 0.312455 0.996549 0.081480
O O16 0.973466 0.670801 0.852727
O O17 0.073453 0.759414 0.105241
#
# Coordination Sequence:
#
# PCOD9103423 Si02
#       8
#     2   2   2   2   2   2   2   2
#     4   9  20  38  62  93 117 163 213 260 296 365
#     4   9  21  39  60  90 127 162 205 257 310 367
#     4   9  19  39  68  86 116 163 220 253 287 370
#     4  10  23  41  62  89 131 161 204 256 313 370
#     4   9  18  36  59  90 123 154 202 261 302 351
#     4  11  24  39  59  91 138 162 189 259 337 362
#     4  10  20  38  66  91 115 163 221 250 289 372
#     4  11  22  35  66  94 123 161 207 258 310 370
#
# _framework density 26.947113000000002
#
# number of rings (size 3 to 8) (size 9 to 14) (size 15 to 20)
#    0.000    2.250    1.250    1.125    3.500    2.000 
#    0.000    2.500    5.500    0.000    0.000    0.000 
#    0.000    0.000    0.000    0.000    0.000    0.000 
#
# Total GULP energy -89267.058468 kJ/mol
# GULP energy per Si atom -5579.191154 kJ/mol
# Density = 2.688578 g / cm^3
# Si number density = 26.947113 Si / 1000 Ang^3
#
#
#
# Elastic Constant Matrix: (Units=GPa)
#
#
# Indices 1 2 3 4 5 6 
#
# 1 129.0303 26.1905 50.0918 -12.1407 2.8125 -5.0638
# 2 26.1905 52.5148 6.2421 -7.3274 12.8663 8.9052
# 3 50.0918 6.2421 118.7152 9.8497 1.8136 -13.2003
# 4 -12.1407 -7.3274 9.8497 46.5504 -10.4482 8.7868
# 5 2.8125 12.8663 1.8136 -10.4482 44.9885 -19.7319
# 6 -5.0638 8.9052 -13.2003 8.7868 -19.7319 31.6424
#
#
#
# Elastic Compliance Matrix: (Units=1/GPa)
#
#
# Indices 1 2 3 4 5 6 
#
# 1 0.010890 -0.005624 -0.004321 0.003051 0.002900 0.002484
# 2 -0.005624 0.030489 -0.001741 0.004027 -0.016972 -0.021909
# 3 -0.004321 -0.001741 0.011518 -0.004688 0.002485 0.007455
# 4 0.003051 0.004027 -0.004688 0.025831 0.000769 -0.009294
# 5 0.002900 -0.016972 0.002485 0.000769 0.040796 0.031504
# 6 0.002484 -0.021909 0.007455 -0.009294 0.031504 0.063503
#
#
# Mechanical properties :
#
#
# Convention : Reuss Voigt Hill
#
# Bulk Modulus (GPa) = 33.86804 51.70102 42.78453
# Shear Modulus (GPa) = 23.12242 39.15199 31.13721
#
# Velocity S-wave (km/s) = 2.93246 3.81585 3.40294
# Velocity P-wave (km/s) = 4.90524 6.21628 5.59926
#
# Compressibility (1/GPa) = 0.02952636
#
# Stress axis : x y z
#
# Youngs Moduli (GPa) = 91.82417 32.79864 86.81986
#
# Poissons Ratio (x) = 0.18445 0.37513
# Poissons Ratio (y) = 0.51639 0.15117
# Poissons Ratio (z) = 0.39675 0.05711
#
# Static dielectric constant tensor:
#      x y z
#    x 2.083960 -0.052910 -0.017640 
#    y -0.052910 2.304190 0.084880 
#    z -0.017640 0.084880 2.199340 
# 
# From -- ./inp_files/493507.got.cif
#   From: 2010.05.17/outbox.cif.g08.bks.cpg/sg2_247_cif.got.tgz:493507.got - 2010.06.03 11:33:40.
