data_PCOD9103827
_publ_section_title
;
Structure prediction by ZEFSAII (Michael W. Deem and Ramdas Pophale) SiO2 
 PCOD9103827
Probable space group: P -1
;
_chemical_formula_sum "Si O2"
_cell_formula_units_Z 16
_cell_length_a 9.972243
_cell_length_b 7.515416
_cell_length_c 12.563619
_cell_angle_alpha 130.456611
_cell_angle_beta 105.831506
_cell_angle_gamma 97.431946
_cell_volume 626.006953
_symmetry_space_group_name_H-M "P -1"
_symmetry_group_IT_number 2
_symmetry_cell_setting 'triclinic'
loop_
_space_group_symop_operation_xyz
x,y,z
-x,-y,-z
loop_
_atom_site_type_symbol
_atom_site_label
_atom_site_fract_x
_atom_site_fract_y
_atom_site_fract_z
Si Si1 0.276498 0.494545 0.887776
Si Si2 0.546295 0.264167 0.173850
Si Si3 0.153965 0.930487 0.255221
Si Si4 0.304426 0.424682 0.268878
Si Si5 0.428169 0.824476 0.259961
Si Si6 0.279703 0.715447 0.571050
Si Si7 0.011675 0.640914 0.900670
Si Si8 0.955372 0.071286 0.403126
O O1 0.389343 0.529206 0.827168
O O2 0.643139 0.361258 0.930435
O O3 0.177376 0.194776 0.773850
O O4 0.159803 0.619993 0.872722
O O5 0.396727 0.256646 0.197979
O O6 0.671855 0.298993 0.303843
O O7 0.500000 0.000000 0.000000
O O8 0.332729 0.000338 0.316627
O O9 0.081286 0.656088 0.195777
O O10 0.098294 0.122784 0.376999
O O11 0.078199 0.836531 0.088313
O O12 0.388680 0.662028 0.296903
O O13 0.311257 0.517648 0.426189
O O14 0.123219 0.304798 0.159054
O O15 0.601837 0.009273 0.344699
O O16 0.113470 0.718714 0.524320
O O17 0.000000 0.000000 0.500000
#
# Coordination Sequence:
#
# PCOD9103827 Si02
#       8
#     2   2   2   2   2   2   2   2
#     4  10  21  41  65  95 127 167 213 266 313 374
#     4  12  27  43  61  90 133 176 219 250 307 389
#     4   8  16  31  57  91 120 149 196 260 313 368
#     4  11  23  41  64  89 127 167 210 269 323 365
#     4  10  20  38  68  97 123 162 216 266 322 370
#     4  12  25  41  62  95 133 167 211 261 319 381
#     4   8  16  34  61  85 116 156 204 251 316 365
#     4  11  22  38  66  97 127 157 213 268 323 373
#
# _framework density 25.558820000000001
#
# number of rings (size 3 to 8) (size 9 to 14) (size 15 to 20)
#    0.000    1.750    1.250    6.000    3.500    2.000 
#    0.000    4.375    0.000    0.000    0.000    0.000 
#    0.000    0.000    0.000    0.000    0.000    0.000 
#
# Total GULP energy -89620.234594 kJ/mol
# GULP energy per Si atom -5601.264662 kJ/mol
# Density = 2.550065 g / cm^3
# Si number density = 25.558820 Si / 1000 Ang^3
#
#
#
# Elastic Constant Matrix: (Units=GPa)
#
#
# Indices 1 2 3 4 5 6 
#
# 1 135.3360 29.0144 48.5978 0.3722 -33.7622 -22.5652
# 2 29.0144 86.4940 19.7684 -7.9031 -12.7671 8.4866
# 3 48.5978 19.7684 117.9302 -20.3742 -30.1764 -17.1996
# 4 0.3722 -7.9031 -20.3742 26.9487 -1.1804 -6.0353
# 5 -33.7622 -12.7671 -30.1764 -1.1804 47.0079 4.2898
# 6 -22.5652 8.4866 -17.1996 -6.0353 4.2898 47.7579
#
#
#
# Elastic Compliance Matrix: (Units=1/GPa)
#
#
# Indices 1 2 3 4 5 6 
#
# 1 0.010805 -0.002894 -0.002362 -0.001643 0.005042 0.004108
# 2 -0.002894 0.013557 -0.000812 0.002600 0.001501 -0.003875
# 3 -0.002362 -0.000812 0.014184 0.011949 0.007031 0.005015
# 4 -0.001643 0.002600 0.011949 0.049186 0.007648 0.008594
# 5 0.005042 0.001501 0.007031 0.007648 0.029739 0.002943
# 6 0.004108 -0.003875 0.005015 0.008594 0.002943 0.026196
#
#
# Mechanical properties :
#
#
# Convention : Reuss Voigt Hill
#
# Bulk Modulus (GPa) = 37.86313 59.39129 48.62721
# Shear Modulus (GPa) = 30.37548 40.50152 35.43850
#
# Velocity S-wave (km/s) = 3.45114 3.98507 3.72768
# Velocity P-wave (km/s) = 5.54317 6.66798 6.13142
#
# Compressibility (1/GPa) = 0.02641092
#
# Stress axis : x y z
#
# Youngs Moduli (GPa) = 92.55083 73.76203 70.50244
#
# Poissons Ratio (x) = 0.21344 0.16652
# Poissons Ratio (y) = 0.26781 0.05724
# Poissons Ratio (z) = 0.21860 0.05989
#
# Static dielectric constant tensor:
#      x y z
#    x 2.022690 -0.006440 -0.002570 
#    y -0.006440 2.080830 0.048290 
#    z -0.002570 0.048290 1.945730 
# 
# From -- ./inp_files/383593.got.cif
#   From: 2010.05.17/outbox.cif.g08.bks.cpg/sg2_192_cif.got.tgz:383593.got - 2010.06.03 11:33:40.
