data_PCOD9103958
_publ_section_title
;
Structure prediction by ZEFSAII (Michael W. Deem and Ramdas Pophale) SiO2 
 PCOD9103958
Probable space group: P -1
;
_chemical_formula_sum "Si O2"
_cell_formula_units_Z 15
_cell_length_a 14.880893
_cell_length_b 12.410337
_cell_length_c 9.564727
_cell_angle_alpha 67.052272
_cell_angle_beta 132.354828
_cell_angle_gamma 148.092021
_cell_volume 610.441253
_symmetry_space_group_name_H-M "P -1"
_symmetry_group_IT_number 2
_symmetry_cell_setting 'triclinic'
loop_
_space_group_symop_operation_xyz
x,y,z
-x,-y,-z
loop_
_atom_site_type_symbol
_atom_site_label
_atom_site_fract_x
_atom_site_fract_y
_atom_site_fract_z
Si Si1 0.294402 0.847519 0.059003
Si Si2 0.735476 0.508321 0.326243
Si Si3 0.000000 0.000000 0.000000
Si Si4 0.840772 0.372969 0.675625
Si Si5 0.228742 0.278313 0.515110
Si Si6 0.245482 0.873132 0.542262
Si Si7 0.572362 0.717564 0.485817
Si Si8 0.235233 0.070855 0.936277
O O1 0.262532 0.759636 0.220898
O O2 0.575048 0.060753 0.215041
O O3 0.225490 0.924131 0.973863
O O4 0.108018 0.636024 0.863149
O O5 0.703252 0.370003 0.465712
O O6 0.731786 0.625579 0.346938
O O7 0.514405 0.331490 0.079227
O O8 0.993470 0.699426 0.433869
O O9 0.782361 0.839644 0.741780
O O10 0.848469 0.952127 0.987704
O O11 0.821445 0.253326 0.603477
O O12 0.326150 0.460800 0.415697
O O13 0.380945 0.294006 0.614805
O O14 0.950331 0.030049 0.317004
O O15 0.388017 0.112366 0.555154
#
# Coordination Sequence:
#
# PCOD9103958 Si02
#       8
#     2   2   1   2   2   2   2   2
#     4  11  24  40  68  95 130 170 225 273 315 377
#     4  12  24  42  64  96 141 175 210 259 337 397
#     4  10  20  38  70  92 118 162 216 276 314 364
#     4  11  24  41  63  99 131 173 221 267 317 383
#     4  10  22  43  68  93 127 167 226 274 314 382
#     4  12  26  42  64  99 139 173 208 268 329 403
#     4  10  22  43  68  97 126 167 224 273 321 375
#     4  11  22  39  68  96 125 171 218 269 324 374
#
# _framework density 24.572389000000001
#
# number of rings (size 3 to 8) (size 9 to 14) (size 15 to 20)
#    0.000    1.067    4.000    2.400    1.867    2.133 
#    2.400    2.667    0.000    0.000    0.000    0.000 
#    0.000    0.000    0.000    0.000    0.000    0.000 
#
# Total GULP energy -83724.333944 kJ/mol
# GULP energy per Si atom -5581.622263 kJ/mol
# Density = 2.451646 g / cm^3
# Si number density = 24.572389 Si / 1000 Ang^3
#
#
#
# Elastic Constant Matrix: (Units=GPa)
#
#
# Indices 1 2 3 4 5 6 
#
# 1 143.0117 56.2251 56.1134 25.6817 2.5611 -33.9490
# 2 56.2251 77.7027 11.9110 -0.9899 -6.2313 -27.1773
# 3 56.1134 11.9110 118.6988 8.1330 3.4581 -9.5258
# 4 25.6817 -0.9899 8.1330 23.9638 -1.9624 -3.3712
# 5 2.5611 -6.2313 3.4581 -1.9624 44.3289 10.4726
# 6 -33.9490 -27.1773 -9.5258 -3.3712 10.4726 40.1680
#
#
#
# Elastic Compliance Matrix: (Units=1/GPa)
#
#
# Indices 1 2 3 4 5 6 
#
# 1 0.018083 -0.010510 -0.005655 -0.017336 -0.004389 0.006520
# 2 -0.010510 0.023205 0.002324 0.012729 0.002406 0.007810
# 3 -0.005655 0.002324 0.010655 0.002476 0.000046 -0.000484
# 4 -0.017336 0.012729 0.002476 0.060196 0.005709 -0.001889
# 5 -0.004389 0.002406 0.000046 0.005709 0.025336 -0.008197
# 6 0.006520 0.007810 -0.000484 -0.001889 -0.008197 0.037554
#
#
# Mechanical properties :
#
#
# Convention : Reuss Voigt Hill
#
# Bulk Modulus (GPa) = 41.21720 65.32359 53.27040
# Shear Modulus (GPa) = 23.71954 36.03640 29.87797
#
# Velocity S-wave (km/s) = 3.11029 3.83370 3.49078
# Velocity P-wave (km/s) = 5.45057 6.79987 6.16226
#
# Compressibility (1/GPa) = 0.02426172
#
# Stress axis : x y z
#
# Youngs Moduli (GPa) = 55.30075 43.09448 93.85388
#
# Poissons Ratio (x) = 0.45292 0.53073
# Poissons Ratio (y) = 0.58121 -0.21816
# Poissons Ratio (z) = 0.31272 -0.10017
#
# Static dielectric constant tensor:
#      x y z
#    x 1.948560 0.084020 0.007600 
#    y 0.084020 2.013790 -0.008060 
#    z 0.007600 -0.008060 1.907300 
# 
# From -- ./inp_files/252772.got.cif
#   From: 2010.05.17/outbox.cif.g08.bks.cpg/sg2_127_cif.got.tgz:252772.got - 2010.06.03 11:33:40.
