data_PCOD9103903
_publ_section_title
;
Structure prediction by ZEFSAII (Michael W. Deem and Ramdas Pophale) SiO2 
 PCOD9103903
Probable space group: P -1
;
_chemical_formula_sum "Si O2"
_cell_formula_units_Z 16
_cell_length_a 10.541709
_cell_length_b 17.123036
_cell_length_c 7.743758
_cell_angle_alpha 78.523212
_cell_angle_beta 113.399656
_cell_angle_gamma 142.255484
_cell_volume 768.628971
_symmetry_space_group_name_H-M "P -1"
_symmetry_group_IT_number 2
_symmetry_cell_setting 'triclinic'
loop_
_space_group_symop_operation_xyz
x,y,z
-x,-y,-z
loop_
_atom_site_type_symbol
_atom_site_label
_atom_site_fract_x
_atom_site_fract_y
_atom_site_fract_z
Si Si1 0.001957 0.356892 0.400494
Si Si2 0.597142 0.957585 0.019297
Si Si3 0.551994 0.222656 0.672132
Si Si4 0.945991 0.502258 0.166310
Si Si5 0.499199 0.385390 0.554164
Si Si6 0.654561 0.516951 0.955008
Si Si7 0.951854 0.754777 0.805374
Si Si8 0.564159 0.117238 0.424136
O O1 0.274803 0.491454 0.491317
O O2 0.960566 0.276534 0.256367
O O3 0.915175 0.406736 0.295212
O O4 0.838105 0.247539 0.504638
O O5 0.506788 0.850817 0.151895
O O6 0.528995 0.909158 0.807051
O O7 0.864853 0.094273 0.126954
O O8 0.500000 0.000000 0.000000
O O9 0.481040 0.282309 0.613845
O O10 0.462135 0.132086 0.500720
O O11 0.819696 0.349253 0.727836
O O12 0.743453 0.472109 0.088882
O O13 0.000000 0.500000 0.000000
O O14 0.543022 0.445242 0.739257
O O15 0.272383 0.312763 0.375950
O O16 0.872015 0.671308 0.967624
O O17 0.500000 0.500000 0.000000
O O18 0.500000 0.000000 0.500000
#
# Coordination Sequence:
#
# PCOD9103903 Si02
#       8
#     2   2   2   2   2   2   2   2
#     4  10  20  38  69  96 131 171 224 281 337 409
#     4  12  23  44  69  94 134 181 224 288 339 395
#     4  11  24  43  68 100 138 175 236 282 336 409
#     4  11  19  38  71 100 133 179 222 285 351 399
#     4  10  24  43  66  95 136 185 216 279 360 401
#     4  11  23  39  66 104 135 173 226 280 344 416
#     4  11  22  43  64  91 139 181 221 278 348 403
#     4  12  25  40  68 105 128 176 231 282 338 403
#
# _framework density 20.816285000000001
#
# number of rings (size 3 to 8) (size 9 to 14) (size 15 to 20)
#    0.000    1.000    6.250    3.000    0.000    5.500 
#    2.250    0.625    0.000    0.000    0.000    0.000 
#    0.000    0.000    0.000    0.000    0.000    0.000 
#
# Total GULP energy -89376.836167 kJ/mol
# GULP energy per Si atom -5586.052260 kJ/mol
# Density = 2.076891 g / cm^3
# Si number density = 20.816285 Si / 1000 Ang^3
#
#
#
# Elastic Constant Matrix: (Units=GPa)
#
#
# Indices 1 2 3 4 5 6 
#
# 1 144.4901 47.0742 54.7649 -8.3477 2.6358 -15.4516
# 2 47.0742 143.3030 48.6915 -15.5467 3.8410 -16.3328
# 3 54.7649 48.6915 96.8118 3.2922 0.1882 -11.2627
# 4 -8.3477 -15.5467 3.2922 36.2519 0.5041 1.4226
# 5 2.6358 3.8410 0.1882 0.5041 44.4922 2.7757
# 6 -15.4516 -16.3328 -11.2627 1.4226 2.7757 28.2959
#
#
#
# Elastic Compliance Matrix: (Units=1/GPa)
#
#
# Indices 1 2 3 4 5 6 
#
# 1 0.009395 -0.000983 -0.004574 0.002060 -0.000644 0.002702
# 2 -0.000983 0.009494 -0.003978 0.004093 -0.000994 0.003252
# 3 -0.004574 -0.003978 0.015226 -0.004205 0.000509 0.001428
# 4 0.002060 0.004093 -0.004205 0.030193 -0.000823 0.000376
# 5 -0.000644 -0.000994 0.000509 -0.000823 0.022789 -0.002917
# 6 0.002702 0.003252 0.001428 0.000376 -0.002917 0.039529
#
#
# Mechanical properties :
#
#
# Convention : Reuss Voigt Hill
#
# Bulk Modulus (GPa) = 66.47335 76.18513 71.32924
# Shear Modulus (GPa) = 33.17625 37.41294 35.29459
#
# Velocity S-wave (km/s) = 3.99653 4.24405 4.12215
# Velocity P-wave (km/s) = 7.30062 7.79065 7.54961
#
# Compressibility (1/GPa) = 0.01504362
#
# Stress axis : x y z
#
# Youngs Moduli (GPa) = 106.44328 105.32963 65.67803
#
# Poissons Ratio (x) = 0.10355 0.30044
# Poissons Ratio (y) = 0.10465 0.26126
# Poissons Ratio (z) = 0.48692 0.41898
#
# Static dielectric constant tensor:
#      x y z
#    x 1.798910 0.001250 -0.026770 
#    y 0.001250 1.762840 0.035590 
#    z -0.026770 0.035590 1.837750 
# 
# From -- ./inp_files/207100.got.cif
#   From: 2010.05.17/outbox.cif.g08.bks.cpg/sg2_104_cif.got.tgz:207100.got - 2010.06.03 11:33:40.
