data_PCOD9103218
_publ_section_title
;
Structure prediction by ZEFSAII (Michael W. Deem and Ramdas Pophale) SiO2 
 PCOD9103218
Probable space group: P -1
;
_chemical_formula_sum "Si O2"
_cell_formula_units_Z 16
_cell_length_a 8.994846
_cell_length_b 9.026869
_cell_length_c 24.155493
_cell_angle_alpha 133.353198
_cell_angle_beta 45.222561
_cell_angle_gamma 98.954800
_cell_volume 781.852248
_symmetry_space_group_name_H-M "P -1"
_symmetry_group_IT_number 2
_symmetry_cell_setting 'triclinic'
loop_
_space_group_symop_operation_xyz
x,y,z
-x,-y,-z
loop_
_atom_site_type_symbol
_atom_site_label
_atom_site_fract_x
_atom_site_fract_y
_atom_site_fract_z
Si Si1 0.365012 0.351653 0.710736
Si Si2 0.724339 0.568667 0.525497
Si Si3 0.292715 0.076044 0.288684
Si Si4 0.137555 0.751780 0.032425
Si Si5 0.142442 0.381802 0.017015
Si Si6 0.674995 0.305613 0.728204
Si Si7 0.243774 0.629619 0.705608
Si Si8 0.789678 0.763951 0.444685
O O1 0.536421 0.311306 0.709595
O O2 0.363275 0.524432 0.708740
O O3 0.520646 0.054575 0.573317
O O4 0.054429 0.506128 0.850148
O O5 0.665442 0.745386 0.640245
O O6 0.481955 0.558864 0.584980
O O7 0.742743 0.703582 0.502742
O O8 0.009161 0.279486 0.384643
O O9 0.542695 0.875935 0.130747
O O10 0.282413 0.903622 0.292971
O O11 0.988195 0.699068 0.012911
O O12 0.127207 0.617360 0.055302
O O13 0.445513 0.586889 0.889201
O O14 0.984907 0.057775 0.155684
O O15 0.953984 0.244755 0.626669
O O16 0.152357 0.464214 0.667839
#
# Coordination Sequence:
#
# PCOD9103218 Si02
#       8
#     2   2   2   2   2   2   2   2
#     4  11  23  38  64  90 120 162 203 249 293 355
#     4  11  23  37  62  89 120 156 200 248 300 355
#     4  10  20  38  65  93 116 147 203 260 293 346
#     4   9  19  37  61  88 120 160 197 248 298 353
#     4   9  18  38  64  89 119 152 202 251 301 346
#     4  10  22  40  64  89 120 157 203 252 298 348
#     4  12  25  40  59  90 130 158 200 244 301 367
#     4  12  25  41  60  87 127 166 197 243 304 362
#
# _framework density 20.464223
#
# number of rings (size 3 to 8) (size 9 to 14) (size 15 to 20)
#    0.000    1.500    2.500    3.375    3.500    3.500 
#    0.000    0.000    0.000    3.750    0.000    0.000 
#    0.000    0.000    0.000    0.000    0.000    0.000 
#
# Total GULP energy -89398.687321 kJ/mol
# GULP energy per Si atom -5587.417958 kJ/mol
# Density = 2.041765 g / cm^3
# Si number density = 20.464223 Si / 1000 Ang^3
#
#
#
# Elastic Constant Matrix: (Units=GPa)
#
#
# Indices 1 2 3 4 5 6 
#
# 1 15.6992 15.8192 28.4146 3.4912 3.4342 -0.3529
# 2 15.8192 93.6182 84.5324 -5.1641 -3.2134 -5.2691
# 3 28.4146 84.5324 166.9742 15.0729 -12.4839 -4.6591
# 4 3.4912 -5.1641 15.0729 41.2217 -1.2371 2.6572
# 5 3.4342 -3.2134 -12.4839 -1.2371 17.1688 5.7684
# 6 -0.3529 -5.2691 -4.6591 2.6572 5.7684 21.2222
#
#
#
# Elastic Compliance Matrix: (Units=1/GPa)
#
#
# Indices 1 2 3 4 5 6 
#
# 1 0.113428 -0.001113 -0.021262 -0.003780 -0.041556 0.008711
# 2 -0.001113 0.021903 -0.011784 0.006788 -0.004868 0.003306
# 3 -0.021262 -0.011784 0.017095 -0.005282 0.015094 -0.002968
# 4 -0.003780 0.006788 -0.005282 0.027616 0.001301 -0.003348
# 5 -0.041556 -0.004868 0.015094 0.001301 0.083963 -0.021571
# 6 0.008711 0.003306 -0.002968 -0.003348 -0.021571 0.053717
#
#
# Mechanical properties :
#
#
# Convention : Reuss Voigt Hill
#
# Bulk Modulus (GPa) = 11.88919 59.31379 35.60149
# Shear Modulus (GPa) = 12.07505 25.75755 18.91630
#
# Velocity S-wave (km/s) = 2.43174 3.55161 3.04363
# Velocity P-wave (km/s) = 3.70228 6.77242 5.45768
#
# Compressibility (1/GPa) = 0.08411004
#
# Stress axis : x y z
#
# Youngs Moduli (GPa) = 8.81613 45.65510 58.49532
#
# Poissons Ratio (x) = 0.05082 1.24371
# Poissons Ratio (y) = 0.00981 0.68930
# Poissons Ratio (z) = 0.18745 0.53799
#
# Static dielectric constant tensor:
#      x y z
#    x 1.737830 0.003390 0.019070 
#    y 0.003390 1.689370 -0.010430 
#    z 0.019070 -0.010430 1.732800 
# 
# From -- ./inp_files/205728.got.cif
#   From: 2010.05.17/outbox.cif.g08.bks.cpg/sg2_103_cif.got.tgz:205728.got - 2010.06.03 11:33:40.
