data_PCOD9103727
_publ_section_title
;
Structure prediction by ZEFSAII (Michael W. Deem and Ramdas Pophale) SiO2 
 PCOD9103727
Probable space group: P -1
;
_chemical_formula_sum "Si O2"
_cell_formula_units_Z 12
_cell_length_a 5.641662
_cell_length_b 14.358241
_cell_length_c 7.212814
_cell_angle_alpha 86.133520
_cell_angle_beta 92.776695
_cell_angle_gamma 123.779738
_cell_volume 484.485988
_symmetry_space_group_name_H-M "P -1"
_symmetry_group_IT_number 2
_symmetry_cell_setting 'triclinic'
loop_
_space_group_symop_operation_xyz
x,y,z
-x,-y,-z
loop_
_atom_site_type_symbol
_atom_site_label
_atom_site_fract_x
_atom_site_fract_y
_atom_site_fract_z
Si Si1 0.820930 0.953512 0.313670
Si Si2 0.295705 0.804811 0.537056
Si Si3 0.768208 0.110301 0.087397
Si Si4 0.834845 0.417147 0.330672
Si Si5 0.441947 0.495670 0.276416
Si Si6 0.149125 0.251840 0.768537
O O1 0.504708 0.901469 0.388767
O O2 0.806876 0.848873 0.238518
O O3 0.945976 0.059288 0.170495
O O4 0.000000 0.000000 0.500000
O O5 0.306104 0.852897 0.731649
O O6 0.358148 0.709001 0.580459
O O7 0.993878 0.746364 0.429865
O O8 0.929968 0.210950 0.936523
O O9 0.103430 0.427719 0.233085
O O10 0.000000 0.500000 0.500000
O O11 0.634497 0.450163 0.220416
O O12 0.500000 0.500000 0.500000
O O13 0.582124 0.624030 0.204750
O O14 0.500000 0.000000 0.000000
#
# Coordination Sequence:
#
# PCOD9103727 Si02
#       6
#     2   2   2   2   2   2
#     4  12  24  43  71  97 135 189 236 286 352 420
#     4  12  24  43  71  98 137 187 228 286 359 419
#     4  12  26  45  65 103 141 179 237 293 346 419
#     4  10  20  38  69 100 134 178 237 284 349 429
#     4  10  20  38  68 100 134 182 231 287 351 426
#     4  12  24  42  70  99 138 184 230 290 354 414
#
# _framework density 24.768518
#
# number of rings (size 3 to 8) (size 9 to 14) (size 15 to 20)
#    0.000    0.667    6.667    4.000    0.000    0.000 
#    0.000    1.667    0.000    0.000    0.000    0.000 
#    0.000    0.000    0.000    0.000    0.000    0.000 
#
# Total GULP energy -67105.418537 kJ/mol
# GULP energy per Si atom -5592.118211 kJ/mol
# Density = 2.471214 g / cm^3
# Si number density = 24.768518 Si / 1000 Ang^3
#
#
#
# Elastic Constant Matrix: (Units=GPa)
#
#
# Indices 1 2 3 4 5 6 
#
# 1 103.1186 12.4600 3.9204 7.6718 -7.4668 -5.8903
# 2 12.4600 92.9132 39.9899 -15.9050 4.6540 -18.1231
# 3 3.9204 39.9899 110.2283 8.2878 -6.5606 0.8018
# 4 7.6718 -15.9050 8.2878 35.8226 1.8355 -3.1248
# 5 -7.4668 4.6540 -6.5606 1.8355 26.0061 -5.2918
# 6 -5.8903 -18.1231 0.8018 -3.1248 -5.2918 46.8985
#
#
#
# Elastic Compliance Matrix: (Units=1/GPa)
#
#
# Indices 1 2 3 4 5 6 
#
# 1 0.010601 -0.002696 0.001140 -0.003904 0.004188 0.000482
# 2 -0.002696 0.017911 -0.007606 0.011159 -0.005290 0.006859
# 3 0.001140 -0.007606 0.012626 -0.007043 0.004772 -0.002943
# 4 -0.003904 0.011159 -0.007043 0.036150 -0.006299 0.005640
# 5 0.004188 -0.005290 0.004772 -0.006299 0.042822 0.002812
# 6 0.000482 0.006859 -0.002943 0.005640 0.002812 0.024777
#
#
# Mechanical properties :
#
#
# Convention : Reuss Voigt Hill
#
# Bulk Modulus (GPa) = 43.83181 46.55562 45.19372
# Shear Modulus (GPa) = 29.27118 38.40475 33.83797
#
# Velocity S-wave (km/s) = 3.44145 3.94197 3.70018
# Velocity P-wave (km/s) = 5.79020 6.28935 6.04493
#
# Compressibility (1/GPa) = 0.02281448
#
# Stress axis : x y z
#
# Youngs Moduli (GPa) = 94.32839 55.83156 79.20255
#
# Poissons Ratio (x) = 0.15055 -0.09033
# Poissons Ratio (y) = 0.25436 0.60240
# Poissons Ratio (z) = -0.10758 0.42464
#
# Static dielectric constant tensor:
#      x y z
#    x 2.217310 0.104370 0.110730 
#    y 0.104370 2.029830 0.079200 
#    z 0.110730 0.079200 2.406600 
# 
# From -- ./inp_files/134196.got.cif
#   From: 2010.05.17/outbox.cif.g08.bks.cpg/sg2_68_cif.got.tgz:134196.got - 2010.06.03 11:33:40.
