data_PCOD9103660
_publ_section_title
;
Structure prediction by ZEFSAII (Michael W. Deem and Ramdas Pophale) SiO2 
 PCOD9103660
Probable space group: P -1
;
_chemical_formula_sum "Si O2"
_cell_formula_units_Z 16
_cell_length_a 22.092146
_cell_length_b 8.379464
_cell_length_c 13.730222
_cell_angle_alpha 122.617749
_cell_angle_beta 22.094657
_cell_angle_gamma 125.656562
_cell_volume 776.806976
_symmetry_space_group_name_H-M "P -1"
_symmetry_group_IT_number 2
_symmetry_cell_setting 'triclinic'
loop_
_space_group_symop_operation_xyz
x,y,z
-x,-y,-z
loop_
_atom_site_type_symbol
_atom_site_label
_atom_site_fract_x
_atom_site_fract_y
_atom_site_fract_z
Si Si1 0.184967 0.209934 0.995099
Si Si2 0.881102 0.093355 0.845656
Si Si3 0.151957 0.837746 0.635031
Si Si4 0.663570 0.381485 0.009996
Si Si5 0.335091 0.268172 0.582210
Si Si6 0.064455 0.480290 0.005960
Si Si7 0.463968 0.791941 0.043176
Si Si8 0.223786 0.996966 0.243687
O O1 0.999475 0.157239 0.209420
O O2 0.203486 0.035323 0.978920
O O3 0.218377 0.407496 0.073375
O O4 0.308421 0.254070 0.733153
O O5 0.913858 0.320739 0.899341
O O6 0.056981 0.043757 0.546268
O O7 0.780667 0.030673 0.875004
O O8 0.068471 0.696362 0.800396
O O9 0.240549 0.055155 0.611068
O O10 0.293261 0.760478 0.345810
O O11 0.523904 0.321938 0.282499
O O12 0.563749 0.369236 0.053093
O O13 0.760976 0.212431 0.806851
O O14 0.238244 0.419606 0.733056
O O15 0.000000 0.500000 0.000000
O O16 0.620357 0.830512 0.894590
O O17 0.500000 0.000000 0.000000
#
# Coordination Sequence:
#
# PCOD9103660 Si02
#       8
#     2   2   2   2   2   2   2   2
#     4  11  23  39  65  95 128 168 218 259 307 392
#     4  11  24  42  62  93 134 172 206 261 330 371
#     4  11  21  41  70  95 121 170 222 259 314 373
#     4  11  23  41  68  96 124 165 217 265 322 364
#     4  11  22  42  68  94 126 166 218 264 312 379
#     4  11  24  40  65  95 132 172 209 261 318 385
#     4  10  20  38  67  94 123 159 209 274 311 369
#     4  10  22  42  67  88 132 166 206 272 316 379
#
# _framework density 20.597135999999999
#
# number of rings (size 3 to 8) (size 9 to 14) (size 15 to 20)
#    0.000    1.250    2.500    6.375    1.750    4.000 
#    2.250    2.500    0.000    0.000    0.000    0.000 
#    0.000    0.000    0.000    0.000    0.000    0.000 
#
# Total GULP energy -89461.077426 kJ/mol
# GULP energy per Si atom -5591.317339 kJ/mol
# Density = 2.055026 g / cm^3
# Si number density = 20.597136 Si / 1000 Ang^3
#
#
#
# Elastic Constant Matrix: (Units=GPa)
#
#
# Indices 1 2 3 4 5 6 
#
# 1 106.2182 8.9401 5.0528 -5.0342 3.8238 9.7462
# 2 8.9401 70.1492 -5.7814 0.7558 -7.7700 9.1533
# 3 5.0528 -5.7814 47.0226 10.0150 2.2536 -3.1001
# 4 -5.0342 0.7558 10.0150 16.5396 5.3264 -2.7628
# 5 3.8238 -7.7700 2.2536 5.3264 17.5253 3.8270
# 6 9.7462 9.1533 -3.1001 -2.7628 3.8270 35.5749
#
#
#
# Elastic Compliance Matrix: (Units=1/GPa)
#
#
# Indices 1 2 3 4 5 6 
#
# 1 0.010257 -0.001808 -0.002460 0.005735 -0.004101 -0.001673
# 2 -0.001808 0.016704 0.002975 -0.007494 0.010851 -0.005293
# 3 -0.002460 0.002975 0.025458 -0.017467 0.003812 0.000360
# 4 0.005735 -0.007494 -0.017467 0.084146 -0.029774 0.008573
# 5 -0.004101 0.010851 0.003812 -0.029774 0.073857 -0.011594
# 6 -0.001673 -0.005293 0.000360 0.008573 -0.011594 0.031874
#
#
# Mechanical properties :
#
#
# Convention : Reuss Voigt Hill
#
# Bulk Modulus (GPa) = 20.06656 26.64589 23.35623
# Shear Modulus (GPa) = 19.12114 28.27319 23.69716
#
# Velocity S-wave (km/s) = 3.05017 3.70898 3.39559
# Velocity P-wave (km/s) = 4.70832 5.59525 5.17084
#
# Compressibility (1/GPa) = 0.04983414
#
# Stress axis : x y z
#
# Youngs Moduli (GPa) = 97.49796 59.86546 39.28091
#
# Poissons Ratio (x) = 0.10821 0.09661
# Poissons Ratio (y) = 0.17624 -0.11686
# Poissons Ratio (z) = 0.23980 -0.17810
#
# Static dielectric constant tensor:
#      x y z
#    x 1.769680 0.006160 0.004730 
#    y 0.006160 1.709280 0.013030 
#    z 0.004730 0.013030 1.721360 
# 
# From -- ./inp_files/542679.got.cif
#   From: 2010.05.17/outbox.cif.g08.bks.cpg/sg2_272_cif.got.tgz:542679.got - 2010.06.03 11:33:40.
