data_PCOD9103688
_publ_section_title
;
Structure prediction by ZEFSAII (Michael W. Deem and Ramdas Pophale) SiO2 
 PCOD9103688
Probable space group: P -1
;
_chemical_formula_sum "Si O2"
_cell_formula_units_Z 14
_cell_length_a 10.086711
_cell_length_b 14.078824
_cell_length_c 10.273510
_cell_angle_alpha 71.726368
_cell_angle_beta 70.701565
_cell_angle_gamma 133.343742
_cell_volume 617.419672
_symmetry_space_group_name_H-M "P -1"
_symmetry_group_IT_number 2
_symmetry_cell_setting 'triclinic'
loop_
_space_group_symop_operation_xyz
x,y,z
-x,-y,-z
loop_
_atom_site_type_symbol
_atom_site_label
_atom_site_fract_x
_atom_site_fract_y
_atom_site_fract_z
Si Si1 0.679373 0.332977 0.495115
Si Si2 0.318317 0.922241 0.717058
Si Si3 0.667422 0.455309 0.200458
Si Si4 0.681411 0.591280 0.775644
Si Si5 0.776649 0.952572 0.632029
Si Si6 0.649540 0.042969 0.806477
Si Si7 0.195716 0.520351 0.337757
O O1 0.413600 0.096805 0.631793
O O2 0.712972 0.444726 0.336489
O O3 0.624881 0.320322 0.670449
O O4 0.992788 0.469218 0.344086
O O5 0.027495 0.833511 0.582730
O O6 0.446652 0.946882 0.791892
O O7 0.500000 0.000000 0.500000
O O8 0.444292 0.410112 0.289734
O O9 0.522089 0.273136 0.242730
O O10 0.971138 0.680209 0.937070
O O11 0.623745 0.441099 0.825485
O O12 0.500000 0.500000 0.000000
O O13 0.708594 0.960937 0.793132
O O14 0.000000 0.000000 0.500000
O O15 0.960127 0.297192 0.580527
O O16 0.500000 0.000000 0.000000
#
# Coordination Sequence:
#
# PCOD9103688 Si02
#       7
#     2   2   2   2   2   2   2
#     4  10  22  42  68  97 132 167 230 269 343 388
#     4  11  25  40  62  99 140 170 220 289 330 394
#     4  11  24  41  71  96 132 179 227 272 337 403
#     4  10  23  43  69  95 134 178 221 276 336 402
#     4   9  21  43  62 100 128 176 226 273 330 409
#     4  10  20  38  67  96 135 173 225 275 344 398
#     4   9  21  43  65  95 139 172 215 289 331 397
#
# _framework density 22.675015999999999
#
# number of rings (size 3 to 8) (size 9 to 14) (size 15 to 20)
#    0.000    2.000    0.000    1.714    8.000    4.000 
#   15.429    2.143    0.000    0.000    0.000    0.000 
#    0.000    0.000    0.000    0.000    0.000    0.000 
#
# Total GULP energy -78116.487395 kJ/mol
# GULP energy per Si atom -5579.749100 kJ/mol
# Density = 2.262341 g / cm^3
# Si number density = 22.675016 Si / 1000 Ang^3
#
#
#
# Elastic Constant Matrix: (Units=GPa)
#
#
# Indices 1 2 3 4 5 6 
#
# 1 114.0600 26.4524 36.5509 25.4679 5.6761 -7.1143
# 2 26.4524 115.4765 37.3236 0.4926 -9.8077 1.1269
# 3 36.5509 37.3236 85.9140 11.9944 -13.1942 6.6437
# 4 25.4679 0.4926 11.9944 48.7196 -9.7610 -7.9033
# 5 5.6761 -9.8077 -13.1942 -9.7610 39.0893 8.5493
# 6 -7.1143 1.1269 6.6437 -7.9033 8.5493 31.2622
#
#
#
# Elastic Compliance Matrix: (Units=1/GPa)
#
#
# Indices 1 2 3 4 5 6 
#
# 1 0.012766 -0.001834 -0.005128 -0.005991 -0.006486 0.004320
# 2 -0.001834 0.010464 -0.003733 0.002204 0.002192 -0.000043
# 3 -0.005128 -0.003733 0.017195 -0.001267 0.006797 -0.006866
# 4 -0.005991 0.002204 -0.001267 0.025859 0.006679 0.003537
# 5 -0.006486 0.002192 0.006797 0.006679 0.033316 -0.010422
# 6 0.004320 -0.000043 -0.006866 0.003537 -0.010422 0.038175
#
#
# Mechanical properties :
#
#
# Convention : Reuss Voigt Hill
#
# Bulk Modulus (GPa) = 52.53935 57.34493 54.94214
# Shear Modulus (GPa) = 30.20979 38.15580 34.18279
#
# Velocity S-wave (km/s) = 3.65402 4.10655 3.88688
# Velocity P-wave (km/s) = 6.40495 6.91591 6.66533
#
# Compressibility (1/GPa) = 0.01903335
#
# Stress axis : x y z
#
# Youngs Moduli (GPa) = 78.33390 95.56825 58.15799
#
# Poissons Ratio (x) = 0.17530 0.29823
# Poissons Ratio (y) = 0.14369 0.21711
# Poissons Ratio (z) = 0.40169 0.35677
#
# Static dielectric constant tensor:
#      x y z
#    x 1.964870 -0.035840 -0.007100 
#    y -0.035840 1.890300 0.002370 
#    z -0.007100 0.002370 1.898690 
# 
# From -- ./inp_files/200791.got.cif
#   From: 2010.05.17/outbox.cif.g08.bks.cpg/sg2_101_cif.got.tgz:200791.got - 2010.06.03 11:33:40.
