data_PCOD9103759
_publ_section_title
;
Structure prediction by ZEFSAII (Michael W. Deem and Ramdas Pophale) SiO2 
 PCOD9103759
Probable space group: P -1
;
_chemical_formula_sum "Si O2"
_cell_formula_units_Z 15
_cell_length_a 19.830183
_cell_length_b 8.267816
_cell_length_c 6.549489
_cell_angle_alpha 64.472989
_cell_angle_beta 50.769066
_cell_angle_gamma 54.098134
_cell_volume 670.659109
_symmetry_space_group_name_H-M "P -1"
_symmetry_group_IT_number 2
_symmetry_cell_setting 'triclinic'
loop_
_space_group_symop_operation_xyz
x,y,z
-x,-y,-z
loop_
_atom_site_type_symbol
_atom_site_label
_atom_site_fract_x
_atom_site_fract_y
_atom_site_fract_z
Si Si1 0.740868 0.920106 0.397162
Si Si2 0.157286 0.883329 0.185696
Si Si3 0.384923 0.822726 0.199771
Si Si4 0.937138 0.585258 0.275282
Si Si5 0.451076 0.114436 0.323168
Si Si6 0.500000 0.500000 0.500000
Si Si7 0.991446 0.811718 0.374919
Si Si8 0.352327 0.550679 0.099657
O O1 0.823213 0.694886 0.381483
O O2 0.633846 0.948584 0.526825
O O3 0.720556 0.022364 0.603376
O O4 0.781245 0.022380 0.100721
O O5 0.236821 0.666761 0.228481
O O6 0.079478 0.871759 0.183177
O O7 0.096098 0.021580 0.415945
O O8 0.428085 0.654032 0.382337
O O9 0.382667 0.711190 0.057998
O O10 0.454187 0.929840 0.972010
O O11 0.960946 0.751996 0.251707
O O12 0.966387 0.395999 0.467164
O O13 0.000000 0.500000 0.000000
O O14 0.393148 0.356818 0.274865
O O15 0.500000 0.000000 0.500000
O O16 0.406520 0.495875 0.808601
#
# Coordination Sequence:
#
# PCOD9103759 Si02
#       8
#     2   2   2   2   2   1   2   2
#     4  12  24  43  68 102 136 180 228 283 345 411
#     4  11  22  45  71 102 134 184 237 283 338 422
#     4  11  24  43  68  96 136 184 230 287 332 409
#     4  11  23  46  69 103 139 178 223 289 355 413
#     4  11  25  43  67  99 140 181 227 283 344 405
#     4  10  20  38  68  90 130 172 228 274 334 386
#     4  10  24  45  72  97 140 178 227 290 347 409
#     4  11  23  44  69  99 136 184 233 281 339 416
#
# _framework density 22.366059
#
# number of rings (size 3 to 8) (size 9 to 14) (size 15 to 20)
#    0.000    1.067    2.667    4.400    1.867    0.533 
#    4.800    0.000    0.000    0.000    0.000    0.000 
#    0.000    0.000    0.000    0.000    0.000    0.000 
#
# Total GULP energy -83532.507073 kJ/mol
# GULP energy per Si atom -5568.833805 kJ/mol
# Density = 2.231515 g / cm^3
# Si number density = 22.366059 Si / 1000 Ang^3
#
#
#
# Elastic Constant Matrix: (Units=GPa)
#
#
# Indices 1 2 3 4 5 6 
#
# 1 110.0496 24.6225 55.2744 -6.3485 -16.0963 -0.3957
# 2 24.6225 71.3915 50.8524 -2.0235 -2.1320 -28.2980
# 3 55.2744 50.8524 123.7871 -11.6235 -9.8168 -6.9825
# 4 -6.3485 -2.0235 -11.6235 39.6866 -11.8940 -3.9636
# 5 -16.0963 -2.1320 -9.8168 -11.8940 27.8777 -3.9129
# 6 -0.3957 -28.2980 -6.9825 -3.9636 -3.9129 47.9887
#
#
#
# Elastic Compliance Matrix: (Units=1/GPa)
#
#
# Indices 1 2 3 4 5 6 
#
# 1 0.012715 -0.001092 -0.004467 0.002653 0.006758 -0.000419
# 2 -0.001092 0.027190 -0.009894 -0.000264 -0.000105 0.014554
# 3 -0.004467 -0.009894 0.014515 0.003560 0.002840 -0.003234
# 4 0.002653 -0.000264 0.003560 0.032232 0.017141 0.004444
# 5 0.006758 -0.000105 0.002840 0.017141 0.048894 0.005809
# 6 -0.000419 0.014554 -0.003234 0.004444 0.005809 0.029787
#
#
# Mechanical properties :
#
#
# Convention : Reuss Voigt Hill
#
# Bulk Modulus (GPa) = 42.53120 62.96964 52.75042
# Shear Modulus (GPa) = 24.50032 34.74254 29.62143
#
# Velocity S-wave (km/s) = 3.31331 3.94554 3.64317
# Velocity P-wave (km/s) = 5.80470 6.99797 6.42908
#
# Compressibility (1/GPa) = 0.02351215
#
# Stress axis : x y z
#
# Youngs Moduli (GPa) = 78.64676 36.77810 68.89415
#
# Poissons Ratio (x) = 0.04017 0.30778
# Poissons Ratio (y) = 0.08590 0.68166
# Poissons Ratio (z) = 0.35135 0.36389
#
# Static dielectric constant tensor:
#      x y z
#    x 1.925510 0.100010 0.067610 
#    y 0.100010 1.947160 0.109850 
#    z 0.067610 0.109850 1.912170 
# 
# From -- ./inp_files/106438.got.cif
#   From: 2010.05.17/outbox.cif.g08.bks.cpg/sg2_54_cif.got.tgz:106438.got - 2010.06.03 11:33:40.
