data_PCOD9103531
_publ_section_title
;
Structure prediction by ZEFSAII (Michael W. Deem and Ramdas Pophale) SiO2 
 PCOD9103531
Probable space group: P -1
;
_chemical_formula_sum "Si O2"
_cell_formula_units_Z 16
_cell_length_a 9.414089
_cell_length_b 20.463588
_cell_length_c 5.039703
_cell_angle_alpha 83.767463
_cell_angle_beta 104.714330
_cell_angle_gamma 50.305987
_cell_volume 673.031554
_symmetry_space_group_name_H-M "P -1"
_symmetry_group_IT_number 2
_symmetry_cell_setting 'triclinic'
loop_
_space_group_symop_operation_xyz
x,y,z
-x,-y,-z
loop_
_atom_site_type_symbol
_atom_site_label
_atom_site_fract_x
_atom_site_fract_y
_atom_site_fract_z
Si Si1 0.322662 0.104140 0.754934
Si Si2 0.637082 0.437542 0.843201
Si Si3 0.564776 0.624096 0.166193
Si Si4 0.055875 0.871882 0.451950
Si Si5 0.199621 0.933758 0.875557
Si Si6 0.460012 0.769261 0.429274
Si Si7 0.421389 0.155212 0.258282
Si Si8 0.814003 0.511197 0.834045
O O1 0.386023 0.115231 0.498148
O O2 0.108135 0.133921 0.603981
O O3 0.297181 0.168125 0.939083
O O4 0.500000 0.000000 0.000000
O O5 0.500000 0.500000 0.500000
O O6 0.636469 0.358804 0.890417
O O7 0.826381 0.428952 0.933461
O O8 0.500000 0.500000 0.000000
O O9 0.534935 0.704243 0.245371
O O10 0.742468 0.540964 0.482743
O O11 0.637750 0.593563 0.912903
O O12 0.094074 0.901469 0.723998
O O13 0.280396 0.786204 0.488561
O O14 0.950875 0.960583 0.180365
O O15 0.348437 0.913683 0.719917
O O16 0.347858 0.866848 0.206090
O O17 0.618131 0.757480 0.700472
O O18 0.000000 0.500000 0.000000
#
# Coordination Sequence:
#
# PCOD9103531 Si02
#       8
#     2   2   2   2   2   2   2   2
#     4  12  23  38  62  87 113 154 210 276 327 363
#     4   8  16  34  57  88 116 151 192 231 281 354
#     4  10  22  37  65  90 123 166 198 247 302 369
#     4  10  23  36  63  87 118 160 222 266 310 360
#     4  10  21  40  60  88 117 167 216 268 300 373
#     4  11  23  41  61  88 129 166 216 251 324 365
#     4  11  23  39  59  83 121 160 207 257 324 372
#     4  10  20  38  66  97 125 154 201 245 299 365
#
# _framework density 23.773029999999999
#
# number of rings (size 3 to 8) (size 9 to 14) (size 15 to 20)
#    0.000    1.750    2.500    1.125    5.250    1.000 
#    0.000    2.500    0.000    0.000    0.000    0.000 
#    0.000    0.000    0.000    0.000    0.000    0.000 
#
# Total GULP energy -89314.762099 kJ/mol
# GULP energy per Si atom -5582.172631 kJ/mol
# Density = 2.371892 g / cm^3
# Si number density = 23.773030 Si / 1000 Ang^3
#
#
#
# Elastic Constant Matrix: (Units=GPa)
#
#
# Indices 1 2 3 4 5 6 
#
# 1 171.2007 16.0174 48.6341 6.8436 32.5904 4.4103
# 2 16.0174 34.9748 3.3191 16.5705 0.2117 8.7932
# 3 48.6341 3.3191 107.0047 25.0876 -4.5462 -2.0005
# 4 6.8436 16.5705 25.0876 31.5999 3.4438 7.4626
# 5 32.5904 0.2117 -4.5462 3.4438 47.8860 11.0640
# 6 4.4103 8.7932 -2.0005 7.4626 11.0640 19.6158
#
#
#
# Elastic Compliance Matrix: (Units=1/GPa)
#
#
# Indices 1 2 3 4 5 6 
#
# 1 0.009453 -0.007685 -0.005996 0.007010 -0.008072 0.002594
# 2 -0.007685 0.048392 0.008897 -0.028568 0.011277 -0.014550
# 3 -0.005996 0.008897 0.016179 -0.017386 0.006357 0.002039
# 4 0.007010 -0.028568 -0.017386 0.062043 -0.008611 -0.009290
# 5 -0.008072 0.011277 0.006357 -0.008611 0.031496 -0.017081
# 6 0.002594 -0.014550 0.002039 -0.009290 -0.017081 0.070295
#
#
# Mechanical properties :
#
#
# Convention : Reuss Voigt Hill
#
# Bulk Modulus (GPa) = 15.51460 49.90238 32.70849
# Shear Modulus (GPa) = 18.59345 36.16766 27.38056
#
# Velocity S-wave (km/s) = 2.79968 3.90471 3.39742
# Velocity P-wave (km/s) = 4.12205 6.43162 5.40171
#
# Compressibility (1/GPa) = 0.06445543
#
# Stress axis : x y z
#
# Youngs Moduli (GPa) = 105.78567 20.66461 61.80864
#
# Poissons Ratio (x) = 0.15880 0.37061
# Poissons Ratio (y) = 0.81294 -0.54989
# Poissons Ratio (z) = 0.63430 -0.18385
#
# Static dielectric constant tensor:
#      x y z
#    x 1.989860 0.036560 -0.015560 
#    y 0.036560 1.988130 -0.005130 
#    z -0.015560 -0.005130 1.939630 
# 
# From -- ./inp_files/51746.got.cif
#   From: 2010.05.17/outbox.cif.g08.bks.cpg/sg2_26_cif.got.tgz:51746.got - 2010.06.03 11:33:40.
