data_PCOD9103769
_publ_section_title
;
Structure prediction by ZEFSAII (Michael W. Deem and Ramdas Pophale) SiO2 
 PCOD9103769
Probable space group: P -1
;
_chemical_formula_sum "Si O2"
_cell_formula_units_Z 16
_cell_length_a 19.622065
_cell_length_b 7.499414
_cell_length_c 9.775882
_cell_angle_alpha 53.830868
_cell_angle_beta 132.453715
_cell_angle_gamma 143.593863
_cell_volume 626.322046
_symmetry_space_group_name_H-M "P -1"
_symmetry_group_IT_number 2
_symmetry_cell_setting 'triclinic'
loop_
_space_group_symop_operation_xyz
x,y,z
-x,-y,-z
loop_
_atom_site_type_symbol
_atom_site_label
_atom_site_fract_x
_atom_site_fract_y
_atom_site_fract_z
Si Si1 0.810754 0.858331 0.780289
Si Si2 0.538542 0.719658 0.104179
Si Si3 0.228561 0.856670 0.615395
Si Si4 0.766091 0.403140 0.533600
Si Si5 0.292544 0.280378 0.844533
Si Si6 0.022202 0.929209 0.714420
Si Si7 0.080229 0.363570 0.844049
Si Si8 0.580235 0.729958 0.631635
O O1 0.707580 0.789899 0.772727
O O2 0.772642 0.901273 0.562293
O O3 0.823583 0.620804 0.939482
O O4 0.952997 0.185905 0.838249
O O5 0.629427 0.802611 0.064863
O O6 0.497677 0.437477 0.262750
O O7 0.633789 0.990702 0.214180
O O8 0.402918 0.590022 0.936678
O O9 0.197211 0.648550 0.539564
O O10 0.134825 0.663513 0.702755
O O11 0.737553 0.610612 0.372670
O O12 0.890163 0.585962 0.712841
O O13 0.638288 0.067303 0.550512
O O14 0.156640 0.022231 0.845653
O O15 0.041187 0.136774 0.767725
O O16 0.000000 0.000000 0.500000
O O17 0.500000 0.500000 0.500000
#
# Coordination Sequence:
#
# PCOD9103769 Si02
#       8
#     2   2   2   2   2   2   2   2
#     4  10  24  39  63 100 132 162 227 263 324 385
#     4  11  24  41  63  93 132 170 216 267 317 387
#     4  11  22  41  68 100 127 176 217 268 326 381
#     4  10  22  40  66  96 119 174 220 254 341 380
#     4  10  23  42  62  94 126 169 217 262 322 401
#     4  10  20  38  68  91 127 166 218 267 326 390
#     4  11  22  42  66  99 134 172 209 280 328 381
#     4  11  22  41  60  91 130 166 209 270 313 378
#
# _framework density 25.545963
#
# number of rings (size 3 to 8) (size 9 to 14) (size 15 to 20)
#    0.000    1.500    5.000    1.125    3.500    4.000 
#    0.000   10.625    0.000    0.000    0.000    0.000 
#    0.000    0.000    0.000    0.000    0.000    0.000 
#
# Total GULP energy -89259.482286 kJ/mol
# GULP energy per Si atom -5578.717643 kJ/mol
# Density = 2.548782 g / cm^3
# Si number density = 25.545963 Si / 1000 Ang^3
#
#
#
# Elastic Constant Matrix: (Units=GPa)
#
#
# Indices 1 2 3 4 5 6 
#
# 1 48.5550 15.5120 30.8813 7.0022 -9.4694 8.0746
# 2 15.5120 101.9106 34.9849 27.4335 -7.6269 10.5160
# 3 30.8813 34.9849 114.2397 20.4751 -3.7276 -4.0530
# 4 7.0022 27.4335 20.4751 42.7274 -0.5777 -2.1389
# 5 -9.4694 -7.6269 -3.7276 -0.5777 16.4196 8.8072
# 6 8.0746 10.5160 -4.0530 -2.1389 8.8072 38.0349
#
#
#
# Elastic Compliance Matrix: (Units=1/GPa)
#
#
# Indices 1 2 3 4 5 6 
#
# 1 0.033608 0.002299 -0.008903 -0.003112 0.026365 -0.014999
# 2 0.002299 0.014566 -0.003511 -0.008293 0.011277 -0.007967
# 3 -0.008903 -0.003511 0.012590 -0.002129 -0.007047 0.005714
# 4 -0.003112 -0.008293 -0.002129 0.030465 -0.008495 0.006407
# 5 0.026365 0.011277 -0.007047 -0.008495 0.096804 -0.032359
# 6 -0.014999 -0.007967 0.005714 0.006407 -0.032359 0.040141
#
#
# Mechanical properties :
#
#
# Convention : Reuss Voigt Hill
#
# Bulk Modulus (GPa) = 24.66996 47.49574 36.08285
# Shear Modulus (GPa) = 19.09018 31.65819 25.37418
#
# Velocity S-wave (km/s) = 2.73662 3.52414 3.15505
# Velocity P-wave (km/s) = 4.43436 5.93229 5.23715
#
# Compressibility (1/GPa) = 0.04053514
#
# Stress axis : x y z
#
# Youngs Moduli (GPa) = 29.75473 68.65199 79.42966
#
# Poissons Ratio (x) = -0.15786 0.70718
# Poissons Ratio (y) = -0.06842 0.27885
# Poissons Ratio (z) = 0.26491 0.24102
#
# Static dielectric constant tensor:
#      x y z
#    x 2.028580 -0.022790 0.003740 
#    y -0.022790 2.104780 0.008700 
#    z 0.003740 0.008700 2.084310 
# 
# From -- ./inp_files/469255.got.cif
#   From: 2010.05.17/outbox.cif.g08.bks.cpg/sg2_235_cif.got.tgz:469255.got - 2010.06.03 11:33:40.
