data_PCOD9103052
_publ_section_title
;
Structure prediction by ZEFSAII (Michael W. Deem and Ramdas Pophale) SiO2 
 PCOD9103052
Probable space group: P -1
;
_chemical_formula_sum "Si O2"
_cell_formula_units_Z 14
_cell_length_a 8.370089
_cell_length_b 7.054470
_cell_length_c 10.820489
_cell_angle_alpha 83.245735
_cell_angle_beta 84.120104
_cell_angle_gamma 124.038168
_cell_volume 514.659823
_symmetry_space_group_name_H-M "P -1"
_symmetry_group_IT_number 2
_symmetry_cell_setting 'triclinic'
loop_
_space_group_symop_operation_xyz
x,y,z
-x,-y,-z
loop_
_atom_site_type_symbol
_atom_site_label
_atom_site_fract_x
_atom_site_fract_y
_atom_site_fract_z
Si Si1 0.095059 0.878286 0.879181
Si Si2 0.867584 0.111145 0.395135
Si Si3 0.474370 0.665435 0.217743
Si Si4 0.068017 0.304247 0.611445
Si Si5 0.213458 0.795872 0.130894
Si Si6 0.462339 0.702174 0.493360
Si Si7 0.654724 0.722321 0.888064
O O1 0.113792 0.789378 0.750838
O O2 0.882543 0.836188 0.897094
O O3 0.294148 0.147393 0.844222
O O4 0.112413 0.763065 0.009307
O O5 0.007687 0.292396 0.474013
O O6 0.908058 0.911941 0.375943
O O7 0.655381 0.953132 0.491379
O O8 0.325600 0.675351 0.140196
O O9 0.437733 0.730963 0.348562
O O10 0.398457 0.396130 0.234124
O O11 0.263611 0.564724 0.595630
O O12 0.924083 0.259746 0.736140
O O13 0.375300 0.074824 0.112624
O O14 0.500000 0.500000 0.500000
O O15 0.500000 0.500000 0.000000
#
# Coordination Sequence:
#
# PCOD9103052 Si02
#       7
#     2   2   2   2   2   2   2
#     4  11  23  46  70 102 139 183 232 289 346 412
#     4   9  19  37  65  95 128 179 228 275 336 412
#     4  11  26  47  68 103 148 177 232 296 342 411
#     4  10  20  38  64  97 136 173 227 282 338 404
#     4  12  26  45  70 107 143 179 235 294 344 410
#     4   9  20  37  68  94 129 189 223 274 347 410
#     4  12  26  43  73 100 137 192 231 278 360 419
#
# _framework density 27.202435000000001
#
# number of rings (size 3 to 8) (size 9 to 14) (size 15 to 20)
#    0.000    1.429    2.857    1.714    4.000    1.143 
#    0.000    2.857    0.000    0.000    0.000    0.000 
#    0.000    0.000    0.000    0.000    0.000    0.000 
#
# Total GULP energy -78396.555628 kJ/mol
# GULP energy per Si atom -5599.753973 kJ/mol
# Density = 2.714052 g / cm^3
# Si number density = 27.202435 Si / 1000 Ang^3
#
#
#
# Elastic Constant Matrix: (Units=GPa)
#
#
# Indices 1 2 3 4 5 6 
#
# 1 86.1675 26.0937 38.7719 -0.8613 -14.7995 13.5403
# 2 26.0937 132.0205 21.2543 -1.6021 -16.0781 9.1351
# 3 38.7719 21.2543 159.9408 1.9088 -17.2539 14.0733
# 4 -0.8613 -1.6021 1.9088 44.6602 15.2909 -13.1549
# 5 -14.7995 -16.0781 -17.2539 15.2909 48.9304 -2.6485
# 6 13.5403 9.1351 14.0733 -13.1549 -2.6485 45.0056
#
#
#
# Elastic Compliance Matrix: (Units=1/GPa)
#
#
# Indices 1 2 3 4 5 6 
#
# 1 0.014399 -0.001819 -0.002571 -0.001814 0.003228 -0.003499
# 2 -0.001819 0.008331 -0.000308 -0.000846 0.002280 -0.001161
# 3 -0.002571 -0.000308 0.007323 -0.001630 0.002115 -0.001806
# 4 -0.001814 -0.000846 -0.001630 0.028382 -0.009786 0.008947
# 5 0.003228 0.002280 0.002115 -0.009786 0.025781 -0.003439
# 6 -0.003499 -0.001161 -0.001806 0.008947 -0.003439 0.026485
#
#
# Mechanical properties :
#
#
# Convention : Reuss Voigt Hill
#
# Bulk Modulus (GPa) = 48.40799 61.15206 54.78002
# Shear Modulus (GPa) = 39.37544 47.18649 43.28096
#
# Velocity S-wave (km/s) = 3.80873 4.16942 3.99315
# Velocity P-wave (km/s) = 6.09721 6.76076 6.43754
#
# Compressibility (1/GPa) = 0.02065775
#
# Stress axis : x y z
#
# Youngs Moduli (GPa) = 69.44856 120.02770 136.55613
#
# Poissons Ratio (x) = 0.21831 0.35110
# Poissons Ratio (y) = 0.12631 0.04207
# Poissons Ratio (z) = 0.17856 0.03697
#
# Static dielectric constant tensor:
#      x y z
#    x 2.228590 -0.026080 0.003850 
#    y -0.026080 2.140980 0.028110 
#    z 0.003850 0.028110 2.192060 
# 
# From -- ./inp_files/378742.got.cif
#   From: 2010.05.17/outbox.cif.g08.bks.cpg/sg2_190_cif.got.tgz:378742.got - 2010.06.03 11:33:40.
