data_PCOD9103014
_publ_section_title
;
Structure prediction by ZEFSAII (Michael W. Deem and Ramdas Pophale) SiO2 
 PCOD9103014
Probable space group: P -1
;
_chemical_formula_sum "Si O2"
_cell_formula_units_Z 16
_cell_length_a 14.143173
_cell_length_b 11.053221
_cell_length_c 11.108378
_cell_angle_alpha 103.638632
_cell_angle_beta 54.474360
_cell_angle_gamma 147.782997
_cell_volume 608.591419
_symmetry_space_group_name_H-M "P -1"
_symmetry_group_IT_number 2
_symmetry_cell_setting 'triclinic'
loop_
_space_group_symop_operation_xyz
x,y,z
-x,-y,-z
loop_
_atom_site_type_symbol
_atom_site_label
_atom_site_fract_x
_atom_site_fract_y
_atom_site_fract_z
Si Si1 0.591363 0.785105 0.786361
Si Si2 0.646864 0.502295 0.841763
Si Si3 0.061157 0.443896 0.311064
Si Si4 0.091593 0.037252 0.110139
Si Si5 0.765558 0.244665 0.283630
Si Si6 0.115154 0.360032 0.660292
Si Si7 0.449538 0.406326 0.652140
Si Si8 0.440772 0.987241 0.252608
O O1 0.562374 0.629781 0.698288
O O2 0.491155 0.808970 0.792593
O O3 0.444672 0.624685 0.984686
O O4 0.887749 0.103543 0.676531
O O5 0.830549 0.564961 0.691217
O O6 0.821880 0.792292 0.800659
O O7 0.383828 0.276567 0.907779
O O8 0.307170 0.774003 0.200356
O O9 0.949184 0.319623 0.229798
O O10 0.804671 0.240909 0.526259
O O11 0.955549 0.782525 0.199064
O O12 0.867405 0.900328 0.176235
O O13 0.888621 0.498564 0.276561
O O14 0.500000 0.000000 0.500000
O O15 0.677378 0.150361 0.188516
O O16 0.388450 0.566736 0.457224
O O17 0.500000 0.500000 0.500000
#
# Coordination Sequence:
#
# PCOD9103014 Si02
#       8
#     2   2   2   2   2   2   2   2
#     4  11  22  40  62  95 131 164 217 261 320 388
#     4  10  23  42  63  88 133 174 202 266 325 379
#     4  10  22  41  64  92 129 170 210 263 322 370
#     4   9  21  41  61  89 126 170 211 257 317 388
#     4  10  21  39  63  97 131 158 212 271 314 378
#     4  10  20  38  64  96 125 166 209 270 319 369
#     4  10  21  36  63  93 120 165 211 266 313 371
#     4  10  21  39  65  96 123 166 220 265 307 382
#
# _framework density 26.290219
#
# number of rings (size 3 to 8) (size 9 to 14) (size 15 to 20)
#    0.000    2.000    1.250    1.875    7.000    1.000 
#    4.500    0.625    0.000    0.000    0.000    0.000 
#    0.000    0.000    0.000    0.000    0.000    0.000 
#
# Total GULP energy -89457.482602 kJ/mol
# GULP energy per Si atom -5591.092663 kJ/mol
# Density = 2.623038 g / cm^3
# Si number density = 26.290219 Si / 1000 Ang^3
#
#
#
# Elastic Constant Matrix: (Units=GPa)
#
#
# Indices 1 2 3 4 5 6 
#
# 1 107.9998 21.2791 -4.1743 -19.2192 -8.8322 24.6804
# 2 21.2791 86.3051 13.3376 -24.0741 -4.4696 20.6274
# 3 -4.1743 13.3376 74.4179 -8.1220 0.3760 6.6150
# 4 -19.2192 -24.0741 -8.1220 25.2512 5.6998 -1.7112
# 5 -8.8322 -4.4696 0.3760 5.6998 46.7802 -17.1594
# 6 24.6804 20.6274 6.6150 -1.7112 -17.1594 57.6954
#
#
#
# Elastic Compliance Matrix: (Units=1/GPa)
#
#
# Indices 1 2 3 4 5 6 
#
# 1 0.012351 0.001012 0.002234 0.010929 -0.001085 -0.005900
# 2 0.001012 0.017965 -0.000564 0.017883 -0.002877 -0.007116
# 3 0.002234 -0.000564 0.014564 0.005996 -0.001463 -0.002681
# 4 0.010929 0.017883 0.005996 0.068119 -0.009145 -0.012456
# 5 -0.001085 -0.002877 -0.001463 -0.009145 0.025292 0.008911
# 6 -0.005900 -0.007116 -0.002681 -0.012456 0.008911 0.024989
#
#
# Mechanical properties :
#
#
# Convention : Reuss Voigt Hill
#
# Bulk Modulus (GPa) = 19.90306 36.62307 28.26307
# Shear Modulus (GPa) = 28.62667 41.83071 35.22869
#
# Velocity S-wave (km/s) = 3.30339 3.99320 3.66456
# Velocity P-wave (km/s) = 4.70497 5.93477 5.35529
#
# Compressibility (1/GPa) = 0.05024352
#
# Stress axis : x y z
#
# Youngs Moduli (GPa) = 80.96787 55.66467 68.66178
#
# Poissons Ratio (x) = -0.05633 -0.15340
# Poissons Ratio (y) = -0.08194 0.03873
# Poissons Ratio (z) = -0.18089 0.03140
#
# Static dielectric constant tensor:
#      x y z
#    x 2.129750 0.046470 0.002950 
#    y 0.046470 2.040560 0.038740 
#    z 0.002950 0.038740 2.136190 
# 
# From -- ./inp_files/320096.got.cif
#   From: 2010.05.17/outbox.cif.g08.bks.cpg/sg2_161_cif.got.tgz:320096.got - 2010.06.03 11:33:40.
