data_PCOD9103695
_publ_section_title
;
Structure prediction by ZEFSAII (Michael W. Deem and Ramdas Pophale) SiO2 
 PCOD9103695
Probable space group: P -1
;
_chemical_formula_sum "Si O2"
_cell_formula_units_Z 16
_cell_length_a 9.080515
_cell_length_b 9.428851
_cell_length_c 17.470366
_cell_angle_alpha 138.984226
_cell_angle_beta 83.410978
_cell_angle_gamma 122.559965
_cell_volume 703.294006
_symmetry_space_group_name_H-M "P -1"
_symmetry_group_IT_number 2
_symmetry_cell_setting 'triclinic'
loop_
_space_group_symop_operation_xyz
x,y,z
-x,-y,-z
loop_
_atom_site_type_symbol
_atom_site_label
_atom_site_fract_x
_atom_site_fract_y
_atom_site_fract_z
Si Si1 0.871800 0.417537 0.295497
Si Si2 0.656789 0.959976 0.352099
Si Si3 0.729150 0.448586 0.472957
Si Si4 0.921001 0.065948 0.920809
Si Si5 0.280251 0.171567 0.869266
Si Si6 0.758493 0.731442 0.386118
Si Si7 0.389693 0.261103 0.319042
Si Si8 0.822725 0.518216 0.788657
O O1 0.870981 0.529920 0.425389
O O2 0.751652 0.463827 0.267013
O O3 0.091293 0.578420 0.312392
O O4 0.756578 0.073745 0.174157
O O5 0.733965 0.930233 0.256965
O O6 0.705511 0.840994 0.367083
O O7 0.410707 0.742606 0.279069
O O8 0.744894 0.291818 0.475675
O O9 0.502486 0.212735 0.350327
O O10 0.744221 0.701289 0.610347
O O11 0.108257 0.170104 0.900538
O O12 0.019920 0.315183 0.081395
O O13 0.744684 0.971239 0.835980
O O14 0.837136 0.765952 0.846569
O O15 0.500000 0.500000 0.000000
O O16 0.584284 0.587107 0.402954
O O17 0.000000 0.000000 0.500000
#
# Coordination Sequence:
#
# PCOD9103695 Si02
#       8
#     2   2   2   2   2   2   2   2
#     4   9  22  42  63  95 134 168 212 271 324 384
#     4  11  22  40  67  94 126 171 220 269 319 388
#     4   9  22  41  66  92 130 170 218 266 325 386
#     4  10  20  38  68  94 131 172 208 267 330 383
#     4  10  20  39  65  96 130 169 218 263 319 392
#     4  11  25  42  63  96 134 169 218 272 325 385
#     4  10  21  43  66  93 133 171 214 272 326 386
#     4  10  20  38  67  97 128 165 218 263 326 391
#
# _framework density 22.750087000000001
#
# number of rings (size 3 to 8) (size 9 to 14) (size 15 to 20)
#    0.000    2.000    2.500    0.000    1.750    5.500 
#    0.000   13.750    0.000    0.000    0.000    0.000 
#    0.000    0.000    0.000    0.000    0.000    0.000 
#
# Total GULP energy -89375.806823 kJ/mol
# GULP energy per Si atom -5585.987926 kJ/mol
# Density = 2.269831 g / cm^3
# Si number density = 22.750087 Si / 1000 Ang^3
#
#
#
# Elastic Constant Matrix: (Units=GPa)
#
#
# Indices 1 2 3 4 5 6 
#
# 1 107.1541 54.9592 39.0738 -16.3210 8.5739 -7.4972
# 2 54.9592 104.5806 18.7959 -2.8451 3.7485 -3.1854
# 3 39.0738 18.7959 55.6788 -15.4359 17.1757 -0.6164
# 4 -16.3210 -2.8451 -15.4359 30.7186 4.1532 4.6705
# 5 8.5739 3.7485 17.1757 4.1532 36.4394 -10.6544
# 6 -7.4972 -3.1854 -0.6164 4.6705 -10.6544 55.6399
#
#
#
# Elastic Compliance Matrix: (Units=1/GPa)
#
#
# Indices 1 2 3 4 5 6 
#
# 1 0.016696 -0.007114 -0.008615 0.003507 0.000942 0.001633
# 2 -0.007114 0.013308 -0.000667 -0.003062 0.001042 0.000252
# 3 -0.008615 -0.000667 0.033751 0.015462 -0.017156 -0.005408
# 4 0.003507 -0.003062 0.015462 0.044818 -0.014692 -0.006107
# 5 0.000942 0.001042 -0.017156 -0.014692 0.039443 0.008783
# 6 0.001633 0.000252 -0.005408 -0.006107 0.008783 0.020342
#
#
# Mechanical properties :
#
#
# Convention : Reuss Voigt Hill
#
# Bulk Modulus (GPa) = 32.29984 54.78567 43.54276
# Shear Modulus (GPa) = 23.64398 34.86522 29.25460
#
# Velocity S-wave (km/s) = 3.22730 3.91900 3.58985
# Velocity P-wave (km/s) = 5.30243 6.67921 6.03025
#
# Compressibility (1/GPa) = 0.03095991
#
# Stress axis : x y z
#
# Youngs Moduli (GPa) = 59.89514 75.14476 29.62918
#
# Poissons Ratio (x) = 0.53460 0.25527
# Poissons Ratio (y) = 0.42611 0.01978
# Poissons Ratio (z) = 0.51602 0.05016
#
# Static dielectric constant tensor:
#      x y z
#    x 1.858650 0.001960 0.019920 
#    y 0.001960 1.858910 0.004430 
#    z 0.019920 0.004430 1.896150 
# 
# From -- ./inp_files/226543.got.cif
#   From: 2010.05.17/outbox.cif.g08.bks.cpg/sg2_114_cif.got.tgz:226543.got - 2010.06.03 11:33:40.
