data_PCOD9103947
_publ_section_title
;
Structure prediction by ZEFSAII (Michael W. Deem and Ramdas Pophale) SiO2 
 PCOD9103947
Probable space group: P -1
;
_chemical_formula_sum "Si O2"
_cell_formula_units_Z 15
_cell_length_a 6.930397
_cell_length_b 19.818531
_cell_length_c 7.360956
_cell_angle_alpha 119.630982
_cell_angle_beta 136.992518
_cell_angle_gamma 61.528656
_cell_volume 588.015512
_symmetry_space_group_name_H-M "P -1"
_symmetry_group_IT_number 2
_symmetry_cell_setting 'triclinic'
loop_
_space_group_symop_operation_xyz
x,y,z
-x,-y,-z
loop_
_atom_site_type_symbol
_atom_site_label
_atom_site_fract_x
_atom_site_fract_y
_atom_site_fract_z
Si Si1 0.000000 0.000000 0.000000
Si Si2 0.342624 0.523387 0.679457
Si Si3 0.392721 0.886712 0.620995
Si Si4 0.233468 0.037475 0.580034
Si Si5 0.392146 0.841932 0.969644
Si Si6 0.903060 0.604671 0.195582
Si Si7 0.491217 0.743942 0.233350
Si Si8 0.229663 0.616255 0.075613
O O1 0.833595 0.009854 0.703592
O O2 0.104517 0.904971 0.895382
O O3 0.841025 0.451117 0.592495
O O4 0.475072 0.432342 0.693916
O O5 0.173581 0.562309 0.794249
O O6 0.627848 0.563204 0.929132
O O7 0.451867 0.842801 0.796233
O O8 0.488703 0.823367 0.448977
O O9 0.050824 0.925070 0.450045
O O10 0.494089 0.971545 0.768248
O O11 0.361608 0.114066 0.727913
O O12 0.397517 0.764651 0.988293
O O13 0.003455 0.625246 0.093503
O O14 0.793801 0.683503 0.342591
O O15 0.279303 0.697707 0.133518
#
# Coordination Sequence:
#
# PCOD9103947 Si02
#       8
#     1   2   2   2   2   2   2   2
#     4  10  20  38  70  88 132 170 238 288 342 420
#     4  10  24  47  78 108 142 192 247 291 353 437
#     4  10  23  43  65  95 133 176 241 289 349 420
#     4  10  21  42  68  94 127 183 237 289 348 416
#     4  11  23  43  65  96 133 184 230 296 354 421
#     4  11  25  47  75 107 146 193 238 300 362 430
#     4  11  26  43  63 107 141 182 233 294 375 420
#     4  10  24  45  75 106 147 186 238 295 357 436
#
# _framework density 25.509529000000001
#
# number of rings (size 3 to 8) (size 9 to 14) (size 15 to 20)
#    0.000    1.600    1.333    1.600    1.867   10.133 
#    7.200    0.000    0.000    0.000    0.000    0.000 
#    0.000    0.000    0.000    0.000    0.000    0.000 
#
# Total GULP energy -83700.188340 kJ/mol
# GULP energy per Si atom -5580.012556 kJ/mol
# Density = 2.545147 g / cm^3
# Si number density = 25.509529 Si / 1000 Ang^3
#
#
#
# Elastic Constant Matrix: (Units=GPa)
#
#
# Indices 1 2 3 4 5 6 
#
# 1 123.4915 31.7625 43.0967 -1.7177 -28.7035 25.8376
# 2 31.7625 121.0805 21.7057 -1.8634 -5.3775 27.9419
# 3 43.0967 21.7057 81.0797 -12.1767 -17.5228 4.6644
# 4 -1.7177 -1.8634 -12.1767 36.3008 0.2771 -11.1187
# 5 -28.7035 -5.3775 -17.5228 0.2771 39.6744 -3.7132
# 6 25.8376 27.9419 4.6644 -11.1187 -3.7132 59.4134
#
#
#
# Elastic Compliance Matrix: (Units=1/GPa)
#
#
# Indices 1 2 3 4 5 6 
#
# 1 0.012569 -0.001053 -0.005183 -0.002677 0.006243 -0.004675
# 2 -0.001053 0.009887 -0.002257 -0.001632 -0.000816 -0.004371
# 3 -0.005183 -0.002257 0.017300 0.006456 0.003859 0.003407
# 4 -0.002677 -0.001632 0.006456 0.031774 0.001168 0.007444
# 5 0.006243 -0.000816 0.003859 0.001168 0.031264 -0.000461
# 6 -0.004675 -0.004371 0.003407 0.007444 -0.000461 0.022017
#
#
# Mechanical properties :
#
#
# Convention : Reuss Voigt Hill
#
# Bulk Modulus (GPa) = 43.91731 57.64238 50.77985
# Shear Modulus (GPa) = 33.46974 42.35017 37.90996
#
# Velocity S-wave (km/s) = 3.62615 4.07894 3.85919
# Velocity P-wave (km/s) = 5.89791 6.69546 6.30930
#
# Compressibility (1/GPa) = 0.02277006
#
# Stress axis : x y z
#
# Youngs Moduli (GPa) = 79.55890 101.14038 57.80222
#
# Poissons Ratio (x) = 0.10653 0.29959
# Poissons Ratio (y) = 0.08379 0.13047
# Poissons Ratio (z) = 0.41236 0.22829
#
# Static dielectric constant tensor:
#      x y z
#    x 3.078940 -0.299300 0.672280 
#    y -0.299300 2.179330 -0.299700 
#    z 0.672280 -0.299700 2.441390 
# 
# From -- ./inp_files/219940.got.cif
#   From: 2010.05.17/outbox.cif.g08.bks.cpg/sg2_110_cif.got.tgz:219940.got - 2010.06.03 11:33:40.
