data_PCOD9103026
_publ_section_title
;
Structure prediction by ZEFSAII (Michael W. Deem and Ramdas Pophale) SiO2 
 PCOD9103026
Probable space group: P -1
;
_chemical_formula_sum "Si O2"
_cell_formula_units_Z 16
_cell_length_a 9.585812
_cell_length_b 19.393195
_cell_length_c 13.327592
_cell_angle_alpha 152.112828
_cell_angle_beta 138.610384
_cell_angle_gamma 52.549528
_cell_volume 753.974365
_symmetry_space_group_name_H-M "P -1"
_symmetry_group_IT_number 2
_symmetry_cell_setting 'triclinic'
loop_
_space_group_symop_operation_xyz
x,y,z
-x,-y,-z
loop_
_atom_site_type_symbol
_atom_site_label
_atom_site_fract_x
_atom_site_fract_y
_atom_site_fract_z
Si Si1 0.892776 0.902257 0.725402
Si Si2 0.519111 0.285491 0.650899
Si Si3 0.488398 0.696026 0.964523
Si Si4 0.273253 0.002658 0.433461
Si Si5 0.247747 0.534484 0.805559
Si Si6 0.843906 0.358377 0.452066
Si Si7 0.837871 0.544319 0.885410
Si Si8 0.100693 0.850352 0.338590
O O1 0.647237 0.837759 0.537813
O O2 0.893850 0.990314 0.736239
O O3 0.011621 0.763016 0.597940
O O4 0.000000 0.000000 0.000000
O O5 0.363400 0.392307 0.659040
O O6 0.675849 0.196401 0.558167
O O7 0.662067 0.397165 0.950648
O O8 0.324192 0.654692 0.914988
O O9 0.357871 0.714407 0.816997
O O10 0.664673 0.839989 0.272141
O O11 0.620361 0.563449 0.847269
O O12 0.500000 0.000000 0.500000
O O13 0.172828 0.876860 0.295739
O O14 0.996821 0.476998 0.615212
O O15 0.794021 0.432089 0.623953
O O16 0.933354 0.704209 0.091137
O O17 0.000000 0.500000 0.000000
O O18 0.000000 0.000000 0.500000
#
# Coordination Sequence:
#
# PCOD9103026 Si02
#       8
#     2   2   2   2   2   2   2   2
#     4  11  23  41  67 100 133 172 227 286 343 403
#     4  10  20  38  64  96 130 172 225 279 334 400
#     4  12  23  42  66  98 136 177 222 283 344 401
#     4  12  23  41  69  96 132 179 223 278 343 403
#     4  10  20  40  70  95 130 171 236 285 337 397
#     4  11  25  41  67 100 133 175 231 289 338 403
#     4  12  26  46  71  95 138 187 232 273 339 418
#     4  12  24  41  68 101 135 177 232 274 339 414
#
# _framework density 21.220880000000001
#
# number of rings (size 3 to 8) (size 9 to 14) (size 15 to 20)
#    0.000    0.750    5.000    3.000    1.750    0.000 
#    4.500    0.000    0.000    2.250    0.000    0.000 
#    0.000    0.000    0.000    0.000    0.000    0.000 
#
# Total GULP energy -89283.576210 kJ/mol
# GULP energy per Si atom -5580.223513 kJ/mol
# Density = 2.117258 g / cm^3
# Si number density = 21.220880 Si / 1000 Ang^3
#
#
#
# Elastic Constant Matrix: (Units=GPa)
#
#
# Indices 1 2 3 4 5 6 
#
# 1 90.1566 16.4239 9.4990 5.7529 -16.7350 -3.4578
# 2 16.4239 64.5847 15.7478 -3.9983 -3.4854 7.7129
# 3 9.4990 15.7478 62.6743 -2.5612 -13.8092 7.9503
# 4 5.7529 -3.9983 -2.5612 37.4689 -0.5791 -0.6724
# 5 -16.7350 -3.4854 -13.8092 -0.5791 28.4754 13.0462
# 6 -3.4578 7.7129 7.9503 -0.6724 13.0462 49.6285
#
#
#
# Elastic Compliance Matrix: (Units=1/GPa)
#
#
# Indices 1 2 3 4 5 6 
#
# 1 0.013186 -0.003097 0.000546 -0.002209 0.007962 -0.000810
# 2 -0.003097 0.017534 -0.003655 0.002051 -0.000384 -0.002226
# 3 0.000546 -0.003655 0.020327 0.001002 0.012461 -0.005912
# 4 -0.002209 0.002051 0.001002 0.027312 0.000130 -0.000297
# 5 0.007962 -0.000384 0.012461 0.000130 0.052785 -0.015256
# 6 -0.000810 -0.002226 -0.005912 -0.000297 -0.015256 0.025393
#
#
# Mechanical properties :
#
#
# Convention : Reuss Voigt Hill
#
# Bulk Modulus (GPa) = 25.88161 33.41746 29.64953
# Shear Modulus (GPa) = 27.49854 34.83091 31.16472
#
# Velocity S-wave (km/s) = 3.60366 4.05575 3.83637
# Velocity P-wave (km/s) = 5.43488 6.14116 5.79878
#
# Compressibility (1/GPa) = 0.03863748
#
# Stress axis : x y z
#
# Youngs Moduli (GPa) = 75.83715 57.03098 49.19445
#
# Poissons Ratio (x) = 0.17661 -0.02688
# Poissons Ratio (y) = 0.23485 0.17980
# Poissons Ratio (z) = -0.04143 0.20844
#
# Static dielectric constant tensor:
#      x y z
#    x 3.704270 0.765080 -2.280930 
#    y 0.765080 2.181310 -0.929420 
#    z -2.280930 -0.929420 4.497320 
# 
# From -- ./inp_files/336830.got.cif
#   From: 2010.05.17/outbox.cif.g08.bks.cpg/sg2_169_cif.got.tgz:336830.got - 2010.06.03 11:33:40.
