data_PCOD9103159
_publ_section_title
;
Structure prediction by ZEFSAII (Michael W. Deem and Ramdas Pophale) SiO2 
 PCOD9103159
Probable space group: P -1
;
_chemical_formula_sum "Si O2"
_cell_formula_units_Z 11
_cell_length_a 10.213991
_cell_length_b 5.319027
_cell_length_c 10.031674
_cell_angle_alpha 100.041471
_cell_angle_beta 53.559612
_cell_angle_gamma 81.949453
_cell_volume 410.804557
_symmetry_space_group_name_H-M "P -1"
_symmetry_group_IT_number 2
_symmetry_cell_setting 'triclinic'
loop_
_space_group_symop_operation_xyz
x,y,z
-x,-y,-z
loop_
_atom_site_type_symbol
_atom_site_label
_atom_site_fract_x
_atom_site_fract_y
_atom_site_fract_z
Si Si1 0.698380 0.935402 0.344811
Si Si2 0.709597 0.319171 0.577112
Si Si3 0.619628 0.558513 0.047656
Si Si4 0.000000 0.000000 0.500000
Si Si5 0.176420 0.046984 0.122872
Si Si6 0.177452 0.630627 0.757224
O O1 0.780365 0.015470 0.439956
O O2 0.795060 0.641712 0.207456
O O3 0.500000 0.000000 0.500000
O O4 0.723239 0.158793 0.249944
O O5 0.729909 0.487885 0.452617
O O6 0.846269 0.293007 0.605671
O O7 0.518372 0.366425 0.741999
O O8 0.684572 0.803779 0.983414
O O9 0.762786 0.275208 0.963118
O O10 0.500000 0.500000 0.000000
O O11 0.111569 0.085511 0.318752
O O12 0.013066 0.198137 0.145199
#
# Coordination Sequence:
#
# PCOD9103159 Si02
#       6
#     2   2   2   1   2   2
#     4  10  20  38  65  91 112 148 204 257 293 342
#     4   9  23  35  62  87 121 154 200 237 301 347
#     4  12  24  38  56  89 126 165 195 241 301 352
#     4  10  20  42  56  94 114 168 196 246 282 362
#     4  11  24  39  60  85 128 159 199 243 293 362
#     4   9  21  38  62  88 112 156 199 247 294 350
#
# _framework density 26.776724999999999
#
# number of rings (size 3 to 8) (size 9 to 14) (size 15 to 20)
#    1.091    0.727    1.818    2.182    2.545    0.727 
#    0.000    0.000    0.000    6.545    0.000    0.000 
#    0.000    0.000    0.000    0.000    0.000    0.000 
#
# Total GULP energy -61236.984598 kJ/mol
# GULP energy per Si atom -5566.998600 kJ/mol
# Density = 2.671578 g / cm^3
# Si number density = 26.776725 Si / 1000 Ang^3
#
#
#
# Elastic Constant Matrix: (Units=GPa)
#
#
# Indices 1 2 3 4 5 6 
#
# 1 16.4224 13.5121 -0.7691 1.4207 1.6848 6.9147
# 2 13.5121 180.0928 36.5882 9.8735 4.0536 12.2316
# 3 -0.7691 36.5882 152.6431 -11.1219 1.5602 -2.6617
# 4 1.4207 9.8735 -11.1219 53.6655 -8.5064 -2.2669
# 5 1.6848 4.0536 1.5602 -8.5064 38.1681 -1.5274
# 6 6.9147 12.2316 -2.6617 -2.2669 -1.5274 42.6725
#
#
#
# Elastic Compliance Matrix: (Units=1/GPa)
#
#
# Indices 1 2 3 4 5 6 
#
# 1 0.069473 -0.004598 0.001187 -0.001714 -0.003412 -0.010079
# 2 -0.004598 0.006439 -0.001698 -0.001601 -0.000821 -0.001321
# 3 0.001187 -0.001698 0.007110 0.001834 0.000280 0.000845
# 4 -0.001714 -0.001601 0.001834 0.020196 0.004756 0.002094
# 5 -0.003412 -0.000821 0.000280 0.004756 0.027568 0.002045
# 6 -0.010079 -0.001321 0.000845 0.002094 0.002045 0.025683
#
#
# Mechanical properties :
#
#
# Convention : Reuss Voigt Hill
#
# Bulk Modulus (GPa) = 13.73579 49.75786 31.74683
# Shear Modulus (GPa) = 26.18414 46.88969 36.53692
#
# Velocity S-wave (km/s) = 3.13048 4.18920 3.69793
# Velocity P-wave (km/s) = 4.26702 6.48244 5.48769
#
# Compressibility (1/GPa) = 0.07280250
#
# Stress axis : x y z
#
# Youngs Moduli (GPa) = 14.39403 155.31451 140.65299
#
# Poissons Ratio (x) = 0.71417 -0.16689
# Poissons Ratio (y) = 0.06619 0.23879
# Poissons Ratio (z) = -0.01708 0.26368
#
# Static dielectric constant tensor:
#      x y z
#    x 3.762120 0.113600 0.730320 
#    y 0.113600 2.085080 0.057540 
#    z 0.730320 0.057540 2.394230 
# 
# From -- ./inp_files/139741.got.cif
#   From: 2010.05.17/outbox.cif.g08.bks.cpg/sg2_70_cif.got.tgz:139741.got - 2010.06.03 11:33:40.
