data_PCOD9103050
_publ_section_title
;
Structure prediction by ZEFSAII (Michael W. Deem and Ramdas Pophale) SiO2 
 PCOD9103050
Probable space group: P -1
;
_chemical_formula_sum "Si O2"
_cell_formula_units_Z 16
_cell_length_a 12.536951
_cell_length_b 10.199320
_cell_length_c 9.073470
_cell_angle_alpha 33.075787
_cell_angle_beta 101.840687
_cell_angle_gamma 103.599271
_cell_volume 615.357294
_symmetry_space_group_name_H-M "P -1"
_symmetry_group_IT_number 2
_symmetry_cell_setting 'triclinic'
loop_
_space_group_symop_operation_xyz
x,y,z
-x,-y,-z
loop_
_atom_site_type_symbol
_atom_site_label
_atom_site_fract_x
_atom_site_fract_y
_atom_site_fract_z
Si Si1 0.622921 0.943012 0.628729
Si Si2 0.272898 0.538842 0.772577
Si Si3 0.309202 0.285610 0.408772
Si Si4 0.677270 0.988155 0.029250
Si Si5 0.523790 0.338962 0.796644
Si Si6 0.872873 0.402927 0.041767
Si Si7 0.905313 0.071113 0.096177
Si Si8 0.910227 0.670508 0.285401
O O1 0.666297 0.191978 0.492704
O O2 0.500000 0.000000 0.500000
O O3 0.680393 0.934058 0.492374
O O4 0.657319 0.678404 0.945204
O O5 0.207665 0.429535 0.714619
O O6 0.414876 0.152653 0.971691
O O7 0.181783 0.600931 0.808183
O O8 0.418617 0.481838 0.233431
O O9 0.203444 0.417643 0.225371
O O10 0.311072 0.196510 0.659406
O O11 0.802271 0.102697 0.924915
O O12 0.616091 0.188471 0.902839
O O13 0.500000 0.500000 0.500000
O O14 0.876582 0.174223 0.147930
O O15 0.000000 0.500000 0.000000
O O16 0.905720 0.790488 0.330846
O O17 0.026234 0.168935 0.978601
O O18 0.000000 0.500000 0.500000
#
# Coordination Sequence:
#
# PCOD9103050 Si02
#       8
#     2   2   2   2   2   2   2   2
#     4  11  26  48  74 102 147 191 246 297 369 429
#     4  11  26  50  74 112 143 194 249 301 356 446
#     4  10  22  39  68 101 138 178 234 306 348 430
#     4  10  20  38  64  97 133 174 229 290 352 419
#     4   9  19  36  59  94 133 170 217 278 351 406
#     4  11  22  43  73 104 139 188 243 296 361 419
#     4  11  24  43  69 100 137 184 238 287 368 417
#     4  11  28  46  69  98 148 185 236 296 362 447
#
# _framework density 26.001154
#
# number of rings (size 3 to 8) (size 9 to 14) (size 15 to 20)
#    0.000    1.500    2.500    1.125    7.000    1.000 
#    6.750    2.500    0.000    0.000    0.000    0.000 
#    0.000    0.000    0.000    0.000    0.000    0.000 
#
# Total GULP energy -89257.845317 kJ/mol
# GULP energy per Si atom -5578.615332 kJ/mol
# Density = 2.594197 g / cm^3
# Si number density = 26.001154 Si / 1000 Ang^3
#
#
#
# Elastic Constant Matrix: (Units=GPa)
#
#
# Indices 1 2 3 4 5 6 
#
# 1 130.4870 38.5743 36.3426 -19.0218 12.8114 21.2625
# 2 38.5743 149.7467 18.6200 -34.2782 4.1351 8.4252
# 3 36.3426 18.6200 87.0721 -15.9678 14.2070 8.8689
# 4 -19.0218 -34.2782 -15.9678 29.0091 -7.1040 2.7493
# 5 12.8114 4.1351 14.2070 -7.1040 43.5518 -0.3628
# 6 21.2625 8.4252 8.8689 2.7493 -0.3628 66.9004
#
#
#
# Elastic Compliance Matrix: (Units=1/GPa)
#
#
# Indices 1 2 3 4 5 6 
#
# 1 0.009872 -0.001217 -0.002720 0.003468 -0.001359 -0.002773
# 2 -0.001217 0.009519 0.000463 0.011100 0.001103 -0.001323
# 3 -0.002720 0.000463 0.014237 0.006013 -0.002918 -0.001344
# 4 0.003468 0.011100 0.006013 0.054888 0.004872 -0.005526
# 5 -0.001359 0.001103 -0.002918 0.004872 0.025008 0.000615
# 6 -0.002773 -0.001323 -0.001344 -0.005526 0.000615 0.016404
#
#
# Mechanical properties :
#
#
# Convention : Reuss Voigt Hill
#
# Bulk Modulus (GPa) = 37.48314 61.59772 49.54043
# Shear Modulus (GPa) = 34.30071 46.14351 40.22211
#
# Velocity S-wave (km/s) = 3.63602 4.21726 3.93738
# Velocity P-wave (km/s) = 5.66346 6.88879 6.30596
#
# Compressibility (1/GPa) = 0.02667866
#
# Stress axis : x y z
#
# Youngs Moduli (GPa) = 101.29813 105.05492 70.24077
#
# Poissons Ratio (x) = 0.12790 0.19105
# Poissons Ratio (y) = 0.12332 -0.03252
# Poissons Ratio (z) = 0.27552 -0.04864
#
# Static dielectric constant tensor:
#      x y z
#    x 1.551840 0.124860 -1.070300 
#    y 0.124860 2.139750 0.248780 
#    z -1.070300 0.248780 1.644730 
# 
# From -- ./inp_files/297494.got.cif
#   From: 2010.05.17/outbox.cif.g08.bks.cpg/sg2_149_cif.got.tgz:297494.got - 2010.06.03 11:33:40.
