data_PCOD9103781
_publ_section_title
;
Structure prediction by ZEFSAII (Michael W. Deem and Ramdas Pophale) SiO2 
 PCOD9103781
Probable space group: P -1
;
_chemical_formula_sum "Si O2"
_cell_formula_units_Z 16
_cell_length_a 11.633629
_cell_length_b 11.242351
_cell_length_c 12.096265
_cell_angle_alpha 84.435560
_cell_angle_beta 111.228648
_cell_angle_gamma 39.829706
_cell_volume 734.957268
_symmetry_space_group_name_H-M "P -1"
_symmetry_group_IT_number 2
_symmetry_cell_setting 'triclinic'
loop_
_space_group_symop_operation_xyz
x,y,z
-x,-y,-z
loop_
_atom_site_type_symbol
_atom_site_label
_atom_site_fract_x
_atom_site_fract_y
_atom_site_fract_z
Si Si1 0.281262 0.561352 0.018528
Si Si2 0.870976 0.779394 0.143214
Si Si3 0.645033 0.891312 0.446105
Si Si4 0.447315 0.114081 0.815643
Si Si5 0.908493 0.015863 0.577625
Si Si6 0.815234 0.103570 0.127394
Si Si7 0.402299 0.336091 0.306416
Si Si8 0.126949 0.581588 0.749162
O O1 0.192581 0.773624 0.965765
O O2 0.120806 0.610205 0.876678
O O3 0.554051 0.328288 0.080669
O O4 0.304835 0.491872 0.154852
O O5 0.723579 0.843260 0.188350
O O6 0.158489 0.506355 0.273719
O O7 0.856722 0.934551 0.118865
O O8 0.725014 0.855233 0.976741
O O9 0.600176 0.837603 0.336040
O O10 0.919746 0.680181 0.603992
O O11 0.500000 0.000000 0.500000
O O12 0.540046 0.101097 0.336548
O O13 0.369547 0.305581 0.826752
O O14 0.622343 0.220151 0.455402
O O15 0.000000 0.000000 0.500000
O O16 0.968798 0.049674 0.697242
O O17 0.080911 0.754081 0.675146
#
# Coordination Sequence:
#
# PCOD9103781 Si02
#       8
#     2   2   2   2   2   2   2   2
#     4  10  20  38  68  93 125 170 219 260 316 381
#     4  11  25  40  65 100 129 168 218 265 321 371
#     4  11  25  43  64  94 130 168 214 265 327 383
#     4  11  24  43  66  94 128 172 215 266 318 383
#     4  10  21  39  66  95 126 173 212 259 328 383
#     4  10  20  40  64  92 131 168 213 261 316 390
#     4  11  24  40  64  96 129 170 215 271 317 380
#     4  10  22  40  65  94 125 167 218 263 317 383
#
# _framework density 21.769973
#
# number of rings (size 3 to 8) (size 9 to 14) (size 15 to 20)
#    0.000    1.500    2.500    1.875    5.250    1.500 
#    0.000    0.000    0.000    0.000    0.000    0.000 
#    0.000    0.000    0.000    0.000    0.000    0.000 
#
# Total GULP energy -89290.192473 kJ/mol
# GULP energy per Si atom -5580.637030 kJ/mol
# Density = 2.172042 g / cm^3
# Si number density = 21.769973 Si / 1000 Ang^3
#
#
#
# Elastic Constant Matrix: (Units=GPa)
#
#
# Indices 1 2 3 4 5 6 
#
# 1 56.7669 20.5946 39.6161 7.3045 -0.3893 6.4750
# 2 20.5946 48.1851 30.2533 -1.7323 9.4855 11.5527
# 3 39.6161 30.2533 98.6446 -0.5786 5.4410 5.5705
# 4 7.3045 -1.7323 -0.5786 35.1295 -6.9845 4.4585
# 5 -0.3893 9.4855 5.4410 -6.9845 40.5154 -3.2567
# 6 6.4750 11.5527 5.5705 4.4585 -3.2567 27.1873
#
#
#
# Elastic Compliance Matrix: (Units=1/GPa)
#
#
# Indices 1 2 3 4 5 6 
#
# 1 0.027005 -0.006274 -0.009016 -0.005595 0.001913 -0.000772
# 2 -0.006274 0.031655 -0.006099 0.002876 -0.007124 -0.012032
# 3 -0.009016 -0.006099 0.015589 0.001599 -0.000377 0.001238
# 4 -0.005595 0.002876 0.001599 0.031219 0.004050 -0.004852
# 5 0.001913 -0.007124 -0.000377 0.004050 0.027542 0.005284
# 6 -0.000772 -0.012032 0.001238 -0.004852 0.005284 0.043253
#
#
# Mechanical properties :
#
#
# Convention : Reuss Voigt Hill
#
# Bulk Modulus (GPa) = 31.77581 42.72496 37.25038
# Shear Modulus (GPa) = 21.78351 28.10861 24.94606
#
# Velocity S-wave (km/s) = 3.16669 3.59718 3.38878
# Velocity P-wave (km/s) = 5.29136 6.07628 5.69735
#
# Compressibility (1/GPa) = 0.03147048
#
# Stress axis : x y z
#
# Youngs Moduli (GPa) = 37.03003 31.59076 64.14749
#
# Poissons Ratio (x) = 0.19821 0.57835
# Poissons Ratio (y) = 0.23233 0.39125
# Poissons Ratio (z) = 0.33386 0.19268
#
# Static dielectric constant tensor:
#      x y z
#    x 1.909960 0.005830 0.067190 
#    y 0.005830 1.798020 -0.013500 
#    z 0.067190 -0.013500 1.837220 
# 
# From -- ./inp_files/417015.got.cif
#   From: 2010.05.17/outbox.cif.g08.bks.cpg/sg2_209_cif.got.tgz:417015.got - 2010.06.03 11:33:40.
