data_PCOD9103274
_publ_section_title
;
Structure prediction by ZEFSAII (Michael W. Deem and Ramdas Pophale) SiO2 
 PCOD9103274
Probable space group: P -1
;
_chemical_formula_sum "Si O2"
_cell_formula_units_Z 14
_cell_length_a 27.676895
_cell_length_b 11.855264
_cell_length_c 12.383703
_cell_angle_alpha 41.011907
_cell_angle_beta 28.675373
_cell_angle_gamma 21.663363
_cell_volume 676.016733
_symmetry_space_group_name_H-M "P -1"
_symmetry_group_IT_number 2
_symmetry_cell_setting 'triclinic'
loop_
_space_group_symop_operation_xyz
x,y,z
-x,-y,-z
loop_
_atom_site_type_symbol
_atom_site_label
_atom_site_fract_x
_atom_site_fract_y
_atom_site_fract_z
Si Si1 0.308254 0.961987 0.773257
Si Si2 0.360530 0.260921 0.368605
Si Si3 0.755535 0.774497 0.059624
Si Si4 0.446551 0.660427 0.375663
Si Si5 0.083521 0.389664 0.534484
Si Si6 0.739452 0.505953 0.847083
Si Si7 0.957887 0.227970 0.203967
O O1 0.472401 0.585181 0.697864
O O2 0.339132 0.084955 0.549054
O O3 0.298371 0.043063 0.857271
O O4 0.110050 0.155249 0.992492
O O5 0.316309 0.395876 0.240007
O O6 0.199647 0.565938 0.544031
O O7 0.567873 0.012251 0.185588
O O8 0.846325 0.463838 0.149059
O O9 0.917259 0.631976 0.774748
O O10 0.500000 0.500000 0.500000
O O11 0.225528 0.024913 0.539335
O O12 0.564685 0.665682 0.131774
O O13 0.204082 0.388507 0.302754
O O14 0.000000 0.500000 0.500000
O O15 0.918955 0.121324 0.794798
#
# Coordination Sequence:
#
# PCOD9103274 Si02
#       7
#     2   2   2   2   2   2   2
#     4  10  21  40  68  94 123 167 213 257 306 370
#     4  11  21  38  65  96 127 162 206 262 312 363
#     4  11  23  41  63  94 129 166 210 255 307 374
#     4  11  24  44  67  92 124 168 211 253 311 377
#     4  12  26  43  63  93 129 165 206 261 316 368
#     4  11  23  42  63  90 124 165 208 258 314 372
#     4  10  20  38  65  95 124 163 207 256 311 368
#
# _framework density 20.709546
#
# number of rings (size 3 to 8) (size 9 to 14) (size 15 to 20)
#    0.000    1.143    0.000    9.429    0.000    4.571 
#    0.000    6.429    0.000    0.000    0.000    0.000 
#    0.000    0.000    0.000    0.000    0.000    0.000 
#
# Total GULP energy -78323.561400 kJ/mol
# GULP energy per Si atom -5594.540100 kJ/mol
# Density = 2.066241 g / cm^3
# Si number density = 20.709546 Si / 1000 Ang^3
#
#
#
# Elastic Constant Matrix: (Units=GPa)
#
#
# Indices 1 2 3 4 5 6 
#
# 1 54.6724 51.2062 13.5876 -2.3806 19.9369 -5.0527
# 2 51.2062 112.8127 26.7608 14.2081 -9.8267 11.4279
# 3 13.5876 26.7608 105.5475 -1.5656 19.3328 9.1231
# 4 -2.3806 14.2081 -1.5656 33.2595 -11.6816 4.9203
# 5 19.9369 -9.8267 19.3328 -11.6816 13.6315 -3.6084
# 6 -5.0527 11.4279 9.1231 4.9203 -3.6084 24.1516
#
#
#
# Elastic Compliance Matrix: (Units=1/GPa)
#
#
# Indices 1 2 3 4 5 6 
#
# 1 -0.016867 0.014963 -0.014431 0.016093 0.070258 0.002061
# 2 0.014963 -0.001404 0.006538 -0.013129 -0.044106 -0.002589
# 3 -0.014431 0.006538 0.007340 0.003323 0.016373 -0.007116
# 4 0.016093 -0.013129 0.003323 0.033948 -0.008589 0.000124
# 5 0.070258 -0.044106 0.016373 -0.008589 -0.086971 0.018139
# 6 0.002061 -0.002589 -0.007116 0.000124 0.018139 0.048434
#
#
# Mechanical properties :
#
#
# Convention : Reuss Voigt Hill
#
# Bulk Modulus (GPa) = 311.61350 50.68242 181.14796
# Shear Modulus (GPa) = -174.88540 26.30707 -74.28917
#
# Velocity S-wave (km/s) = -9.19946 3.56798 -5.99582
# Velocity P-wave (km/s) = 6.16077 6.44205 6.30298
#
# Compressibility (1/GPa) = 0.00320910
#
# Stress axis : x y z
#
# Youngs Moduli (GPa) = -59.28901 -712.00845 136.24049
#
# Poissons Ratio (x) = 10.65401 1.96606
# Poissons Ratio (y) = 0.88716 -0.89068
# Poissons Ratio (z) = -0.85559 4.65478
#
# Static dielectric constant tensor:
#      x y z
#    x 1.716130 0.016340 0.000470 
#    y 0.016340 1.735140 -0.000250 
#    z 0.000470 -0.000250 1.723600 
# 
# From -- ./inp_files/439521.got.cif
#   From: 2010.05.17/outbox.cif.g08.bks.cpg/sg2_220_cif.got.tgz:439521.got - 2010.06.03 11:33:40.
