data_PCOD9103149
_publ_section_title
;
Structure prediction by ZEFSAII (Michael W. Deem and Ramdas Pophale) SiO2 
 PCOD9103149
Probable space group: P -1
;
_chemical_formula_sum "Si O2"
_cell_formula_units_Z 12
_cell_length_a 7.844275
_cell_length_b 6.270760
_cell_length_c 18.470474
_cell_angle_alpha 60.264718
_cell_angle_beta 45.050030
_cell_angle_gamma 82.339717
_cell_volume 522.331823
_symmetry_space_group_name_H-M "P -1"
_symmetry_group_IT_number 2
_symmetry_cell_setting 'triclinic'
loop_
_space_group_symop_operation_xyz
x,y,z
-x,-y,-z
loop_
_atom_site_type_symbol
_atom_site_label
_atom_site_fract_x
_atom_site_fract_y
_atom_site_fract_z
Si Si1 0.855401 0.543868 0.108407
Si Si2 0.000168 0.307136 0.376483
Si Si3 0.457958 0.793360 0.212316
Si Si4 0.080072 0.721074 0.167779
Si Si5 0.398375 0.202533 0.053183
Si Si6 0.615201 0.981305 0.663249
O O1 0.698548 0.740525 0.113752
O O2 0.015540 0.651998 0.115230
O O3 0.627931 0.272052 0.240328
O O4 0.000000 0.500000 0.000000
O O5 0.755121 0.145184 0.524417
O O6 0.199063 0.543712 0.323119
O O7 0.935830 0.465371 0.302302
O O8 0.167873 0.117560 0.346587
O O9 0.488036 0.852155 0.278384
O O10 0.427789 0.043468 0.141507
O O11 0.118054 0.015856 0.136515
O O12 0.380911 0.755483 0.080707
O O13 0.500000 0.500000 0.000000
#
# Coordination Sequence:
#
# PCOD9103149 Si02
#       6
#     2   2   2   2   2   2
#     4  11  25  41  60  91 131 170 208 258 316 371
#     4   9  20  39  63  92 120 162 213 261 308 369
#     4  10  21  40  63  89 123 163 211 262 314 370
#     4  10  22  38  58  88 127 162 207 259 309 369
#     4  10  21  38  62  89 120 162 209 260 315 371
#     4  10  20  38  65  90 123 166 209 254 314 378
#
# _framework density 22.973898999999999
#
# number of rings (size 3 to 8) (size 9 to 14) (size 15 to 20)
#    0.000    2.000    0.000    2.500    0.000   10.000 
#    0.000    1.667    0.000    0.000    0.000    0.000 
#    0.000    0.000    0.000    0.000    0.000    0.000 
#
# Total GULP energy -66881.684798 kJ/mol
# GULP energy per Si atom -5573.473733 kJ/mol
# Density = 2.292161 g / cm^3
# Si number density = 22.973899 Si / 1000 Ang^3
#
#
#
# Elastic Constant Matrix: (Units=GPa)
#
#
# Indices 1 2 3 4 5 6 
#
# 1 112.2456 39.4709 50.9057 -3.5602 7.8268 24.9749
# 2 39.4709 117.4371 69.7623 -3.0044 10.6122 14.4429
# 3 50.9057 69.7623 190.2154 -16.0092 16.6497 6.7854
# 4 -3.5602 -3.0044 -16.0092 28.2339 -4.7624 4.0650
# 5 7.8268 10.6122 16.6497 -4.7624 24.4800 0.7889
# 6 24.9749 14.4429 6.7854 4.0650 0.7889 28.2614
#
#
#
# Elastic Compliance Matrix: (Units=1/GPa)
#
#
# Indices 1 2 3 4 5 6 
#
# 1 0.012906 -0.001573 -0.002280 0.001422 -0.001288 -0.010222
# 2 -0.001573 0.011846 -0.003677 -0.000874 -0.002185 -0.003593
# 3 -0.002280 -0.003677 0.007611 0.003000 -0.002325 0.001700
# 4 0.001422 -0.000874 0.003000 0.039232 0.005752 -0.007333
# 5 -0.001288 -0.002185 -0.002325 0.005752 0.044885 0.000732
# 6 -0.010222 -0.003593 0.001700 -0.007333 0.000732 0.046880
#
#
# Mechanical properties :
#
#
# Convention : Reuss Voigt Hill
#
# Bulk Modulus (GPa) = 57.79947 82.24177 70.02062
# Shear Modulus (GPa) = 27.14618 33.51233 30.32925
#
# Velocity S-wave (km/s) = 3.44118 3.82345 3.63734
# Velocity P-wave (km/s) = 6.40331 7.44092 6.94153
#
# Compressibility (1/GPa) = 0.01730120
#
# Stress axis : x y z
#
# Youngs Moduli (GPa) = 77.48633 84.41914 131.38218
#
# Poissons Ratio (x) = 0.13283 0.29951
# Poissons Ratio (y) = 0.12192 0.48315
# Poissons Ratio (z) = 0.17665 0.31045
#
# Static dielectric constant tensor:
#      x y z
#    x 1.937080 -0.058390 0.012030 
#    y -0.058390 2.291950 -0.018120 
#    z 0.012030 -0.018120 1.820090 
# 
# From -- ./inp_files/517561.got.cif
#   From: 2010.05.17/outbox.cif.g08.bks.cpg/sg2_259_cif.got.tgz:517561.got - 2010.06.03 11:33:40.
