data_PCOD9103128
_publ_section_title
;
Structure prediction by ZEFSAII (Michael W. Deem and Ramdas Pophale) SiO2 
 PCOD9103128
Probable space group: P -1
;
_chemical_formula_sum "Si O2"
_cell_formula_units_Z 16
_cell_length_a 9.991108
_cell_length_b 20.954385
_cell_length_c 8.992448
_cell_angle_alpha 42.706218
_cell_angle_beta 107.508259
_cell_angle_gamma 138.090865
_cell_volume 716.161075
_symmetry_space_group_name_H-M "P -1"
_symmetry_group_IT_number 2
_symmetry_cell_setting 'triclinic'
loop_
_space_group_symop_operation_xyz
x,y,z
-x,-y,-z
loop_
_atom_site_type_symbol
_atom_site_label
_atom_site_fract_x
_atom_site_fract_y
_atom_site_fract_z
Si Si1 0.981713 0.931941 0.762006
Si Si2 0.978069 0.395721 0.774183
Si Si3 0.549083 0.115919 0.917408
Si Si4 0.287718 0.112124 0.018428
Si Si5 0.502934 0.220862 0.465557
Si Si6 0.297866 0.650426 0.010234
Si Si7 0.482377 0.550657 0.255599
Si Si8 0.506598 0.623971 0.595271
O O1 0.941778 0.977534 0.815194
O O2 0.746266 0.739899 0.001958
O O3 0.000000 0.000000 0.500000
O O4 0.243913 0.030793 0.694369
O O5 0.759719 0.219584 0.930219
O O6 0.911914 0.400489 0.906068
O O7 0.000000 0.500000 0.500000
O O8 0.223687 0.473553 0.724583
O O9 0.317201 0.034375 0.063414
O O10 0.627824 0.238511 0.615390
O O11 0.500000 0.000000 0.000000
O O12 0.480741 0.204428 0.056134
O O13 0.371342 0.242905 0.716361
O O14 0.460682 0.305872 0.357043
O O15 0.639171 0.291172 0.236916
O O16 0.294644 0.535203 0.224357
O O17 0.500000 0.500000 0.500000
O O18 0.415750 0.440469 0.293628
#
# Coordination Sequence:
#
# PCOD9103128 Si02
#       8
#     2   2   2   2   2   2   2   2
#     4  11  21  39  65  91 126 169 203 253 336 375
#     4  11  19  42  64  83 119 176 205 249 324 383
#     4  10  23  40  60  89 123 159 219 262 303 381
#     4   9  18  40  62  85 125 164 202 249 321 376
#     4  11  23  40  62  91 129 162 207 268 322 369
#     4  10  20  38  65  88 125 164 207 259 318 375
#     4  11  20  40  65  95 119 165 222 254 299 388
#     4  11  22  38  64  93 125 163 217 263 308 376
#
# _framework density 22.341341
#
# number of rings (size 3 to 8) (size 9 to 14) (size 15 to 20)
#    0.000    1.500    8.750    0.000    1.750    3.000 
#    0.000    3.750    0.000    0.000    0.000    0.000 
#    0.000    0.000    0.000    0.000    0.000    0.000 
#
# Total GULP energy -89331.202452 kJ/mol
# GULP energy per Si atom -5583.200153 kJ/mol
# Density = 2.229049 g / cm^3
# Si number density = 22.341341 Si / 1000 Ang^3
#
#
#
# Elastic Constant Matrix: (Units=GPa)
#
#
# Indices 1 2 3 4 5 6 
#
# 1 105.4705 30.6325 30.5853 1.3010 -5.6970 -38.8367
# 2 30.6325 79.7116 28.5752 4.5528 -7.9474 -26.1497
# 3 30.5853 28.5752 92.6727 14.7935 -20.1664 -19.0099
# 4 1.3010 4.5528 14.7935 40.2648 -12.1570 -4.6063
# 5 -5.6970 -7.9474 -20.1664 -12.1570 31.9117 0.1092
# 6 -38.8367 -26.1497 -19.0099 -4.6063 0.1092 54.3274
#
#
#
# Elastic Compliance Matrix: (Units=1/GPa)
#
#
# Indices 1 2 3 4 5 6 
#
# 1 0.013783 -0.001692 -0.002342 0.001950 0.001273 0.008382
# 2 -0.001692 0.016275 -0.002939 0.000571 0.002092 0.005640
# 3 -0.002342 -0.002939 0.014846 -0.002655 0.007214 0.001867
# 4 0.001950 0.000571 -0.002655 0.029024 0.009859 0.003181
# 5 0.001273 0.002092 0.007214 0.009859 0.040382 0.005196
# 6 0.008382 0.005640 0.001867 0.003181 0.005196 0.028026
#
#
# Mechanical properties :
#
#
# Convention : Reuss Voigt Hill
#
# Bulk Modulus (GPa) = 32.30066 50.82675 41.56371
# Shear Modulus (GPa) = 30.01174 37.83823 33.92499
#
# Velocity S-wave (km/s) = 3.66912 4.11985 3.90100
# Velocity P-wave (km/s) = 5.69553 6.74021 6.23977
#
# Compressibility (1/GPa) = 0.03095912
#
# Stress axis : x y z
#
# Youngs Moduli (GPa) = 72.55326 61.44303 67.35645
#
# Poissons Ratio (x) = 0.10395 0.15775
# Poissons Ratio (y) = 0.12275 0.19796
# Poissons Ratio (z) = 0.16992 0.18058
#
# Static dielectric constant tensor:
#      x y z
#    x 1.877430 -0.002320 -0.018770 
#    y -0.002320 1.894690 -0.041780 
#    z -0.018770 -0.041780 1.829740 
# 
# From -- ./inp_files/282908.got.cif
#   From: 2010.05.17/outbox.cif.g08.bks.cpg/sg2_142_cif.got.tgz:282908.got - 2010.06.03 11:33:40.
