data_PCOD9103470
_publ_section_title
;
Structure prediction by ZEFSAII (Michael W. Deem and Ramdas Pophale) SiO2 
 PCOD9103470
Probable space group: P -1
;
_chemical_formula_sum "Si O2"
_cell_formula_units_Z 14
_cell_length_a 24.716288
_cell_length_b 8.336796
_cell_length_c 10.637686
_cell_angle_alpha 59.676041
_cell_angle_beta 148.278018
_cell_angle_gamma 141.064204
_cell_volume 637.609529
_symmetry_space_group_name_H-M "P -1"
_symmetry_group_IT_number 2
_symmetry_cell_setting 'triclinic'
loop_
_space_group_symop_operation_xyz
x,y,z
-x,-y,-z
loop_
_atom_site_type_symbol
_atom_site_label
_atom_site_fract_x
_atom_site_fract_y
_atom_site_fract_z
Si Si1 0.975164 0.004070 0.151877
Si Si2 0.668530 0.076500 0.237550
Si Si3 0.354563 0.421593 0.193738
Si Si4 0.974899 0.353240 0.636910
Si Si5 0.828683 0.702145 0.337125
Si Si6 0.570591 0.033080 0.331289
Si Si7 0.911691 0.491851 0.940134
O O1 0.128810 0.237871 0.456246
O O2 0.009909 0.194247 0.033369
O O3 0.959739 0.763598 0.200049
O O4 0.809034 0.840553 0.951338
O O5 0.786437 0.092299 0.403499
O O6 0.769122 0.411344 0.302534
O O7 0.623997 0.989116 0.329918
O O8 0.507076 0.890692 0.913380
O O9 0.500000 0.500000 0.500000
O O10 0.425593 0.726432 0.233900
O O11 0.300054 0.344391 0.969385
O O12 0.000000 0.500000 0.500000
O O13 0.058561 0.555258 0.846423
O O14 0.000000 0.000000 0.500000
O O15 0.725108 0.255305 0.634770
O O16 0.000000 0.500000 0.000000
#
# Coordination Sequence:
#
# PCOD9103470 Si02
#       7
#     2   2   2   2   2   2   2
#     4  11  23  41  63  97 130 170 214 275 320 388
#     4  10  20  39  65  90 124 169 214 261 321 381
#     4  10  21  35  61  97 129 162 213 267 319 383
#     4  12  25  42  64  97 137 174 210 270 338 382
#     4   9  17  35  61  88 118 162 215 254 301 384
#     4  10  20  38  66  93 121 163 223 266 308 376
#     4  12  23  43  70  97 125 175 227 264 315 394
#
# _framework density 21.957011000000001
#
# number of rings (size 3 to 8) (size 9 to 14) (size 15 to 20)
#    0.000    1.429    2.857    3.857    0.000    3.429 
#    0.000    5.000    0.000    0.000    0.000    0.000 
#    0.000    0.000    0.000    0.000    0.000    0.000 
#
# Total GULP energy -78101.917026 kJ/mol
# GULP energy per Si atom -5578.708359 kJ/mol
# Density = 2.190704 g / cm^3
# Si number density = 21.957011 Si / 1000 Ang^3
#
#
#
# Elastic Constant Matrix: (Units=GPa)
#
#
# Indices 1 2 3 4 5 6 
#
# 1 55.6931 10.3386 46.1871 -9.7881 -10.6928 9.8957
# 2 10.3386 71.1780 12.5809 4.7328 -10.5143 15.6781
# 3 46.1871 12.5809 186.0541 -1.6716 -12.8644 14.2805
# 4 -9.7881 4.7328 -1.6716 37.9559 8.5410 3.7774
# 5 -10.6928 -10.5143 -12.8644 8.5410 32.0930 -8.8844
# 6 9.8957 15.6781 14.2805 3.7774 -8.8844 29.5542
#
#
#
# Elastic Compliance Matrix: (Units=1/GPa)
#
#
# Indices 1 2 3 4 5 6 
#
# 1 0.025395 -0.001651 -0.005573 0.006419 0.002601 -0.004973
# 2 -0.001651 0.016494 0.000046 -0.002639 0.003701 -0.006770
# 3 -0.005573 0.000046 0.006890 -0.001254 0.000967 -0.001037
# 4 0.006419 -0.002639 -0.001254 0.031088 -0.009426 -0.006950
# 5 0.002601 0.003701 0.000967 -0.009426 0.038782 0.009562
# 6 -0.004973 -0.006770 -0.001037 -0.006950 0.009562 0.043356
#
#
# Mechanical properties :
#
#
# Convention : Reuss Voigt Hill
#
# Bulk Modulus (GPa) = 29.04950 50.12649 39.58800
# Shear Modulus (GPa) = 26.61886 36.17520 31.39703
#
# Velocity S-wave (km/s) = 3.48561 4.06340 3.78555
# Velocity P-wave (km/s) = 5.42754 6.70029 6.09722
#
# Compressibility (1/GPa) = 0.03442400
#
# Stress axis : x y z
#
# Youngs Moduli (GPa) = 39.37742 60.62750 145.12948
#
# Poissons Ratio (x) = 0.10008 0.80887
# Poissons Ratio (y) = 0.06500 -0.00671
# Poissons Ratio (z) = 0.21947 -0.00280
#
# Static dielectric constant tensor:
#      x y z
#    x 1.858040 -0.006490 -0.022610 
#    y -0.006490 1.862550 -0.031940 
#    z -0.022610 -0.031940 1.837240 
# 
# From -- ./inp_files/476219.got.cif
#   From: 2010.05.17/outbox.cif.g08.bks.cpg/sg2_239_cif.got.tgz:476219.got - 2010.06.03 11:33:40.
