data_PCOD9103954
_publ_section_title
;
Structure prediction by ZEFSAII (Michael W. Deem and Ramdas Pophale) SiO2 
 PCOD9103954
Probable space group: P -1
;
_chemical_formula_sum "Si O2"
_cell_formula_units_Z 15
_cell_length_a 20.150623
_cell_length_b 5.932692
_cell_length_c 8.771998
_cell_angle_alpha 91.510065
_cell_angle_beta 37.483418
_cell_angle_gamma 97.159615
_cell_volume 628.585943
_symmetry_space_group_name_H-M "P -1"
_symmetry_group_IT_number 2
_symmetry_cell_setting 'triclinic'
loop_
_space_group_symop_operation_xyz
x,y,z
-x,-y,-z
loop_
_atom_site_type_symbol
_atom_site_label
_atom_site_fract_x
_atom_site_fract_y
_atom_site_fract_z
Si Si1 0.761063 0.659091 0.752869
Si Si2 0.550520 0.018514 0.658010
Si Si3 0.090335 0.857302 0.038237
Si Si4 0.865584 0.017379 0.347911
Si Si5 0.411351 0.666022 0.136047
Si Si6 0.410154 0.273223 0.688402
Si Si7 0.035167 0.574190 0.640754
Si Si8 0.000000 0.000000 0.500000
O O1 0.693652 0.474263 0.759748
O O2 0.880701 0.594114 0.569207
O O3 0.778529 0.895063 0.628205
O O4 0.694621 0.669308 0.028896
O O5 0.613275 0.871141 0.426779
O O6 0.613128 0.214202 0.659178
O O7 0.470239 0.130150 0.696042
O O8 0.472290 0.851062 0.910311
O O9 0.075676 0.588752 0.101301
O O10 0.168657 0.978341 0.765177
O O11 0.969590 0.886248 0.186170
O O12 0.092778 0.980945 0.197180
O O13 0.908585 0.279237 0.317389
O O14 0.500000 0.500000 0.000000
O O15 0.500000 0.500000 0.500000
O O16 0.029994 0.769530 0.530055
#
# Coordination Sequence:
#
# PCOD9103954 Si02
#       8
#     2   2   2   2   2   2   2   1
#     4  11  23  37  66  92 135 164 226 271 319 374
#     4  10  22  36  68  90 118 177 229 260 330 387
#     4   9  18  38  65  90 122 162 207 252 331 392
#     4   9  20  36  63  94 119 163 209 265 313 391
#     4  11  21  40  64  93 125 173 221 271 321 388
#     4  11  21  40  64  95 123 176 225 272 322 389
#     4  10  21  37  65  97 122 170 209 266 316 390
#     4  10  20  38  70  90 128 162 210 254 332 392
#
# _framework density 23.863084000000001
#
# number of rings (size 3 to 8) (size 9 to 14) (size 15 to 20)
#    0.000    1.867    2.667    0.800    1.867    1.067 
#    0.000    0.000   38.133    0.000    0.000    0.000 
#    0.000    0.000    0.000    0.000    0.000    0.000 
#
# Total GULP energy -83543.782654 kJ/mol
# GULP energy per Si atom -5569.585510 kJ/mol
# Density = 2.380877 g / cm^3
# Si number density = 23.863084 Si / 1000 Ang^3
#
#
#
# Elastic Constant Matrix: (Units=GPa)
#
#
# Indices 1 2 3 4 5 6 
#
# 1 83.9139 17.4468 28.4784 6.9171 18.4519 13.6263
# 2 17.4468 86.6284 46.4263 -3.2899 18.7063 -14.4398
# 3 28.4784 46.4263 101.0742 7.8053 29.3389 -4.3789
# 4 6.9171 -3.2899 7.8053 35.9205 0.9745 15.1213
# 5 18.4519 18.7063 29.3389 0.9745 41.2422 2.7767
# 6 13.6263 -14.4398 -4.3789 15.1213 2.7767 57.3915
#
#
#
# Elastic Compliance Matrix: (Units=1/GPa)
#
#
# Indices 1 2 3 4 5 6 
#
# 1 0.014534 -0.001429 -0.002407 -0.000786 -0.003881 -0.003599
# 2 -0.001429 0.016494 -0.006397 0.001697 -0.002579 0.003679
# 3 -0.002407 -0.006397 0.016063 -0.004095 -0.007461 0.001628
# 4 -0.000786 0.001697 -0.004095 0.032498 0.002291 -0.008372
# 5 -0.003881 -0.002579 -0.007461 0.002291 0.032574 -0.002476
# 6 -0.003599 0.003679 0.001628 -0.008372 -0.002476 0.021654
#
#
# Mechanical properties :
#
#
# Convention : Reuss Voigt Hill
#
# Bulk Modulus (GPa) = 37.55854 50.70217 44.13036
# Shear Modulus (GPa) = 30.64538 38.86181 34.75359
#
# Velocity S-wave (km/s) = 3.58749 4.03989 3.82039
# Velocity P-wave (km/s) = 5.73876 6.56157 6.16391
#
# Compressibility (1/GPa) = 0.02662510
#
# Stress axis : x y z
#
# Youngs Moduli (GPa) = 68.80596 60.62809 62.25581
#
# Poissons Ratio (x) = 0.08661 0.14988
# Poissons Ratio (y) = 0.09829 0.39823
# Poissons Ratio (z) = 0.16565 0.38782
#
# Static dielectric constant tensor:
#      x y z
#    x 2.379400 0.198450 0.202310 
#    y 0.198450 2.019150 0.084430 
#    z 0.202310 0.084430 2.048470 
# 
# From -- ./inp_files/339778.got.cif
#   From: 2010.05.17/outbox.cif.g08.bks.cpg/sg2_170_cif.got.tgz:339778.got - 2010.06.03 11:33:40.
