data_PCOD9103544
_publ_section_title
;
Structure prediction by ZEFSAII (Michael W. Deem and Ramdas Pophale) SiO2 
 PCOD9103544
Probable space group: P -1
;
_chemical_formula_sum "Si O2"
_cell_formula_units_Z 13
_cell_length_a 9.149702
_cell_length_b 18.890060
_cell_length_c 11.958285
_cell_angle_alpha 23.579422
_cell_angle_beta 36.576408
_cell_angle_gamma 38.998539
_cell_volume 485.277753
_symmetry_space_group_name_H-M "P -1"
_symmetry_group_IT_number 2
_symmetry_cell_setting 'triclinic'
loop_
_space_group_symop_operation_xyz
x,y,z
-x,-y,-z
loop_
_atom_site_type_symbol
_atom_site_label
_atom_site_fract_x
_atom_site_fract_y
_atom_site_fract_z
Si Si1 0.915381 0.271555 0.949951
Si Si2 0.298988 0.762502 0.494699
Si Si3 0.648578 0.639451 0.899750
Si Si4 0.462530 0.233057 0.991196
Si Si5 0.000000 0.000000 0.500000
Si Si6 0.708288 0.951855 0.090868
Si Si7 0.122415 0.523966 0.621448
O O1 0.992457 0.116067 0.219634
O O2 0.618241 0.321334 0.053079
O O3 0.034190 0.181657 0.891660
O O4 0.035219 0.435079 0.690672
O O5 0.339958 0.550873 0.767857
O O6 0.257470 0.862470 0.258427
O O7 0.094045 0.818720 0.632787
O O8 0.528760 0.843050 0.289958
O O9 0.657099 0.775097 0.800803
O O10 0.876911 0.613682 0.711239
O O11 0.549941 0.031241 0.181240
O O12 0.287880 0.362194 0.825179
O O13 0.699870 0.330943 0.715276
#
# Coordination Sequence:
#
# PCOD9103544 Si02
#       7
#     2   2   2   2   1   2   2
#     4  11  24  45  70 102 134 175 243 283 343 402
#     4  10  20  38  68  97 130 177 236 277 332 395
#     4  12  25  43  71 108 134 181 231 293 339 406
#     4  11  24  43  68 100 148 181 224 276 352 414
#     4  10  20  38  66  98 130 166 218 296 328 396
#     4  10  22  41  65  98 137 187 223 278 340 416
#     4  11  23  44  70 103 136 184 230 281 341 421
#
# _framework density 26.788779999999999
#
# number of rings (size 3 to 8) (size 9 to 14) (size 15 to 20)
#    0.000    1.231    1.538    6.462    0.000    3.077 
#    2.769    0.769    0.000    0.000    0.000    0.000 
#    0.000    0.000    0.000    0.000    0.000    0.000 
#
# Total GULP energy -72638.936426 kJ/mol
# GULP energy per Si atom -5587.610494 kJ/mol
# Density = 2.672781 g / cm^3
# Si number density = 26.788780 Si / 1000 Ang^3
#
#
#
# Elastic Constant Matrix: (Units=GPa)
#
#
# Indices 1 2 3 4 5 6 
#
# 1 102.4124 26.1183 -13.6647 -18.7195 -10.9114 11.8142
# 2 26.1183 120.2997 -17.9089 -100.5026 -42.0445 112.5043
# 3 -13.6647 -17.9089 40.8021 -20.3487 -8.1698 4.8347
# 4 -18.7195 -100.5026 -20.3487 -86.9718 -42.8529 92.3061
# 5 -10.9114 -42.0445 -8.1698 -42.8529 13.6461 36.0823
# 6 11.8142 112.5043 4.8347 92.3061 36.0823 -22.7705
#
#
#
# Elastic Compliance Matrix: (Units=1/GPa)
#
#
# Indices 1 2 3 4 5 6 
#
# 1 0.010953 -0.002394 0.003305 0.001324 0.001487 0.002282
# 2 -0.002394 0.004818 -0.001438 -0.005229 -0.001379 -0.001123
# 3 0.003305 -0.001438 0.025026 0.001223 0.000794 0.006143
# 4 0.001324 -0.005229 0.001223 0.013182 -0.009328 0.013768
# 5 0.001487 -0.001379 0.000794 -0.009328 0.030236 0.004223
# 6 0.002282 -0.001123 0.006143 0.013768 0.004223 0.015527
#
#
# Mechanical properties :
#
#
# Convention : Reuss Voigt Hill
#
# Bulk Modulus (GPa) = 25.16036 28.06708 26.61372
# Shear Modulus (GPa) = 43.84287 -1.28795 21.27746
#
# Velocity S-wave (km/s) = 4.04990 -0.69413 2.82133
# Velocity P-wave (km/s) = 5.59298 3.13966 4.53535
#
# Compressibility (1/GPa) = 0.03974506
#
# Stress axis : x y z
#
# Youngs Moduli (GPa) = 91.29744 207.54199 39.95890
#
# Poissons Ratio (x) = 0.49681 -0.13208
# Poissons Ratio (y) = 0.21855 0.05745
# Poissons Ratio (z) = -0.30177 0.29837
#
# Static dielectric constant tensor:
#      x y z
#    x 2.103770 0.024280 0.012550 
#    y 0.024280 2.138470 0.051230 
#    z 0.012550 0.051230 2.049920 
# 
# From -- ./inp_files/401608.got.cif
#   From: 2010.05.17/outbox.cif.g08.bks.cpg/sg2_201_cif.got.tgz:401608.got - 2010.06.03 11:33:40.
