data_PCOD9103818
_publ_section_title
;
Structure prediction by ZEFSAII (Michael W. Deem and Ramdas Pophale) SiO2 
 PCOD9103818
Probable space group: P -1
;
_chemical_formula_sum "Si O2"
_cell_formula_units_Z 15
_cell_length_a 8.464332
_cell_length_b 12.373918
_cell_length_c 9.281294
_cell_angle_alpha 130.648599
_cell_angle_beta 84.291652
_cell_angle_gamma 102.270100
_cell_volume 719.701925
_symmetry_space_group_name_H-M "P -1"
_symmetry_group_IT_number 2
_symmetry_cell_setting 'triclinic'
loop_
_space_group_symop_operation_xyz
x,y,z
-x,-y,-z
loop_
_atom_site_type_symbol
_atom_site_label
_atom_site_fract_x
_atom_site_fract_y
_atom_site_fract_z
Si Si1 0.500000 0.500000 0.500000
Si Si2 0.319712 0.006406 0.965567
Si Si3 0.219389 0.189995 0.886819
Si Si4 0.145472 0.372343 0.518276
Si Si5 0.889313 0.957429 0.703500
Si Si6 0.099968 0.449815 0.263535
Si Si7 0.393958 0.105887 0.532819
Si Si8 0.645809 0.269978 0.424287
O O1 0.337337 0.420846 0.533921
O O2 0.570321 0.348291 0.370181
O O3 0.268750 0.856212 0.751709
O O4 0.311687 0.137302 0.970023
O O5 0.500000 0.000000 0.000000
O O6 0.198799 0.016712 0.116163
O O7 0.332633 0.197813 0.744644
O O8 0.160305 0.337901 0.056078
O O9 0.059963 0.065327 0.770614
O O10 0.096970 0.211676 0.446794
O O11 0.087036 0.375303 0.358697
O O12 0.062071 0.492512 0.706933
O O13 0.765383 0.979031 0.607652
O O14 0.235697 0.595784 0.395308
O O15 0.507480 0.198471 0.484676
O O16 0.500000 0.000000 0.500000
#
# Coordination Sequence:
#
# PCOD9103818 Si02
#       8
#     1   2   2   2   2   2   2   2
#     4  10  20  38  68  96 132 170 224 280 340 398
#     4  12  22  41  71 107 131 174 238 290 336 401
#     4  12  26  43  68 104 139 182 234 281 349 420
#     4  10  20  39  65  98 137 169 219 286 350 391
#     4  12  24  43  71 102 135 180 233 294 340 407
#     4  10  24  40  65 101 137 178 222 284 354 404
#     4  12  25  48  69  99 139 189 228 285 351 417
#     4  11  23  42  70  99 139 179 225 289 346 406
#
# _framework density 20.841963
#
# number of rings (size 3 to 8) (size 9 to 14) (size 15 to 20)
#    0.000    0.800    5.333    1.600    7.467    0.533 
#    0.000    0.667    0.000    0.000    0.000    0.000 
#    0.000    0.000    0.000    0.000    0.000    0.000 
#
# Total GULP energy -83601.210889 kJ/mol
# GULP energy per Si atom -5573.414059 kJ/mol
# Density = 2.079453 g / cm^3
# Si number density = 20.841963 Si / 1000 Ang^3
#
#
#
# Elastic Constant Matrix: (Units=GPa)
#
#
# Indices 1 2 3 4 5 6 
#
# 1 82.2715 17.3924 21.2804 15.0999 2.7438 -13.7224
# 2 17.3924 57.1350 23.2977 17.5757 1.2154 -6.5156
# 3 21.2804 23.2977 103.7171 10.4554 -31.8674 -6.9364
# 4 15.0999 17.5757 10.4554 36.5763 -4.3407 -3.5077
# 5 2.7438 1.2154 -31.8674 -4.3407 41.2319 9.1402
# 6 -13.7224 -6.5156 -6.9364 -3.5077 9.1402 28.7011
#
#
#
# Elastic Compliance Matrix: (Units=1/GPa)
#
#
# Indices 1 2 3 4 5 6 
#
# 1 0.015785 -0.000545 -0.004058 -0.005106 -0.006454 0.007874
# 2 -0.000545 0.024030 -0.006317 -0.009959 -0.007689 0.004900
# 3 -0.004058 -0.006317 0.015654 0.001486 0.013536 -0.003720
# 4 -0.005106 -0.009959 0.001486 0.034309 0.005839 -0.002009
# 5 -0.006454 -0.007689 0.013536 0.005839 0.038921 -0.013241
# 6 0.007874 0.004900 -0.003720 -0.002009 -0.013241 0.042791
#
#
# Mechanical properties :
#
#
# Convention : Reuss Voigt Hill
#
# Bulk Modulus (GPa) = 29.73567 40.78494 35.26030
# Shear Modulus (GPa) = 24.44526 33.37872 28.91199
#
# Velocity S-wave (km/s) = 3.42846 4.00624 3.72856
# Velocity P-wave (km/s) = 5.47454 6.40399 5.95742
#
# Compressibility (1/GPa) = 0.03362965
#
# Stress axis : x y z
#
# Youngs Moduli (GPa) = 63.34969 41.61491 63.88346
#
# Poissons Ratio (x) = 0.02266 0.25925
# Poissons Ratio (y) = 0.03450 0.40354
# Poissons Ratio (z) = 0.25708 0.26288
#
# Static dielectric constant tensor:
#      x y z
#    x 1.803200 -0.028460 0.029540 
#    y -0.028460 1.733060 -0.001230 
#    z 0.029540 -0.001230 1.757410 
# 
# From -- ./inp_files/154056.got.cif
#   From: 2010.05.17/outbox.cif.g08.bks.cpg/sg2_78_cif.got.tgz:154056.got - 2010.06.03 11:33:40.
