data_PCOD9103721
_publ_section_title
;
Structure prediction by ZEFSAII (Michael W. Deem and Ramdas Pophale) SiO2 
 PCOD9103721
Probable space group: P -1
;
_chemical_formula_sum "Si O2"
_cell_formula_units_Z 16
_cell_length_a 21.892961
_cell_length_b 9.297073
_cell_length_c 12.689206
_cell_angle_alpha 136.224437
_cell_angle_beta 37.550760
_cell_angle_gamma 151.957389
_cell_volume 737.781633
_symmetry_space_group_name_H-M "P -1"
_symmetry_group_IT_number 2
_symmetry_cell_setting 'triclinic'
loop_
_space_group_symop_operation_xyz
x,y,z
-x,-y,-z
loop_
_atom_site_type_symbol
_atom_site_label
_atom_site_fract_x
_atom_site_fract_y
_atom_site_fract_z
Si Si1 0.822212 0.263969 0.717311
Si Si2 0.732828 0.529428 0.230681
Si Si3 0.828678 0.362561 0.331014
Si Si4 0.356493 0.221338 0.874619
Si Si5 0.621860 0.367171 0.533564
Si Si6 0.628693 0.341503 0.048913
Si Si7 0.821204 0.181685 0.904340
Si Si8 0.164698 0.863284 0.588779
O O1 0.771738 0.082167 0.798274
O O2 0.763028 0.075304 0.590809
O O3 0.998357 0.528574 0.624662
O O4 0.775947 0.432341 0.876129
O O5 0.666619 0.469740 0.405153
O O6 0.619407 0.358329 0.196593
O O7 0.832629 0.886001 0.260617
O O8 0.804612 0.407187 0.069267
O O9 0.761843 0.489731 0.470518
O O10 0.777120 0.181103 0.416042
O O11 0.006413 0.618874 0.214619
O O12 0.753140 0.104418 0.209135
O O13 0.523875 0.394243 0.735245
O O14 0.358874 0.433717 0.916776
O O15 0.284566 0.109988 0.029173
O O16 0.500000 0.000000 0.500000
O O17 0.500000 0.000000 0.000000
#
# Coordination Sequence:
#
# PCOD9103721 Si02
#       8
#     2   2   2   2   2   2   2   2
#     4   9  23  43  61  98 134 164 211 271 325 370
#     4  11  22  39  68  97 125 168 220 268 319 381
#     4  10  20  38  68 100 123 165 218 265 317 382
#     4  11  22  41  63  95 129 170 210 266 325 383
#     4  10  22  38  58  97 130 161 213 264 315 378
#     4  11  26  42  62  94 131 171 217 261 321 386
#     4  10  21  39  69  97 130 163 214 271 321 385
#     4  10  21  41  70  94 129 167 215 274 316 381
#
# _framework density 21.686634000000002
#
# number of rings (size 3 to 8) (size 9 to 14) (size 15 to 20)
#    0.000    1.750    3.750    0.375    3.500    4.000 
#    0.000    5.000    0.000    4.500    0.000    0.000 
#    0.000    0.000    0.000    0.000    0.000    0.000 
#
# Total GULP energy -89283.191721 kJ/mol
# GULP energy per Si atom -5580.199483 kJ/mol
# Density = 2.163727 g / cm^3
# Si number density = 21.686634 Si / 1000 Ang^3
#
#
#
# Elastic Constant Matrix: (Units=GPa)
#
#
# Indices 1 2 3 4 5 6 
#
# 1 159.8547 46.3518 69.4646 -22.4801 4.9470 -29.6179
# 2 46.3518 50.4876 26.8869 -2.8441 1.6016 -6.6281
# 3 69.4646 26.8869 77.2986 -34.3212 2.0883 -6.1000
# 4 -22.4801 -2.8441 -34.3212 11.8454 -3.9305 6.0305
# 5 4.9470 1.6016 2.0883 -3.9305 39.3619 5.6335
# 6 -29.6179 -6.6281 -6.1000 6.0305 5.6335 20.3864
#
#
#
# Elastic Compliance Matrix: (Units=1/GPa)
#
#
# Indices 1 2 3 4 5 6 
#
# 1 0.013946 -0.010406 0.000462 0.018961 -0.001138 0.011721
# 2 -0.010406 0.023578 0.010011 0.022338 0.003781 -0.012110
# 3 0.000462 0.010011 -0.021355 -0.072922 -0.009734 0.021797
# 4 0.018961 0.022338 -0.072922 -0.119010 -0.018954 0.053433
# 5 -0.001138 0.003781 -0.009734 -0.018954 0.024669 -0.004546
# 6 0.011721 -0.012110 0.021797 0.053433 -0.004546 0.054116
#
#
# Mechanical properties :
#
#
# Convention : Reuss Voigt Hill
#
# Bulk Modulus (GPa) = 61.34393 63.67193 62.50793
# Shear Modulus (GPa) = -266.58359 23.98125 -121.30117
#
# Velocity S-wave (km/s) = -11.09920 3.32898 -7.48699
# Velocity P-wave (km/s) = 11.65797 6.64830 6.77157
#
# Compressibility (1/GPa) = 0.01630153
#
# Stress axis : x y z
#
# Youngs Moduli (GPa) = 71.70613 42.41219 -46.82636
#
# Poissons Ratio (x) = 0.44136 0.02164
# Poissons Ratio (y) = 0.74620 0.46878
# Poissons Ratio (z) = -0.03313 -0.42459
#
# Static dielectric constant tensor:
#      x y z
#    x 1.835750 -0.009950 0.005150 
#    y -0.009950 1.776650 -0.006430 
#    z 0.005150 -0.006430 1.860480 
# 
# From -- ./inp_files/345919.got.cif
#   From: 2010.05.17/outbox.cif.g08.bks.cpg/sg2_173_cif.got.tgz:345919.got - 2010.06.03 11:33:40.
