data_PCOD9103652
_publ_section_title
;
Structure prediction by ZEFSAII (Michael W. Deem and Ramdas Pophale) SiO2 
 PCOD9103652
Probable space group: P -1
;
_chemical_formula_sum "Si O2"
_cell_formula_units_Z 14
_cell_length_a 21.118023
_cell_length_b 7.193140
_cell_length_c 9.347943
_cell_angle_alpha 71.747410
_cell_angle_beta 145.289589
_cell_angle_gamma 129.416066
_cell_volume 549.872944
_symmetry_space_group_name_H-M "P -1"
_symmetry_group_IT_number 2
_symmetry_cell_setting 'triclinic'
loop_
_space_group_symop_operation_xyz
x,y,z
-x,-y,-z
loop_
_atom_site_type_symbol
_atom_site_label
_atom_site_fract_x
_atom_site_fract_y
_atom_site_fract_z
Si Si1 0.467340 0.665184 0.489819
Si Si2 0.226651 0.803289 0.177969
Si Si3 0.367882 0.373432 0.670367
Si Si4 0.329345 0.869915 0.666085
Si Si5 0.924514 0.370956 0.544732
Si Si6 0.190213 0.210850 0.942821
Si Si7 0.168965 0.145328 0.596316
O O1 0.500000 0.500000 0.500000
O O2 0.431869 0.574896 0.608956
O O3 0.610511 0.985323 0.656700
O O4 0.300606 0.505724 0.149640
O O5 0.271128 0.766874 0.421115
O O6 0.190889 0.994672 0.065650
O O7 0.072067 0.522296 0.887463
O O8 0.237196 0.321351 0.536374
O O9 0.331338 0.111206 0.608126
O O10 0.500000 0.500000 0.000000
O O11 0.195637 0.639412 0.587609
O O12 0.500000 0.000000 0.000000
O O13 0.000000 0.500000 0.500000
O O14 0.814095 0.057776 0.370623
O O15 0.012778 0.052191 0.668429
O O16 0.240249 0.259908 0.857525
#
# Coordination Sequence:
#
# PCOD9103652 Si02
#       7
#     2   2   2   2   2   2   2
#     4  10  20  38  67  93 127 170 214 266 334 386
#     4  11  22  45  70  92 136 180 217 272 335 398
#     4  11  22  40  66  94 133 163 220 277 325 385
#     4  11  26  46  68  96 132 184 227 269 335 404
#     4  11  24  45  67  97 140 174 220 275 336 395
#     4  10  20  41  67  96 128 173 221 268 338 398
#     4  10  23  39  66 100 130 173 219 275 332 397
#
# _framework density 25.460425999999998
#
# number of rings (size 3 to 8) (size 9 to 14) (size 15 to 20)
#    0.000    1.429    4.286    2.143    2.000    2.857 
#    2.571    1.429    0.000    0.000    0.000    0.000 
#    0.000    0.000    0.000    0.000    0.000    0.000 
#
# Total GULP energy -78152.642589 kJ/mol
# GULP energy per Si atom -5582.331613 kJ/mol
# Density = 2.540248 g / cm^3
# Si number density = 25.460426 Si / 1000 Ang^3
#
#
#
# Elastic Constant Matrix: (Units=GPa)
#
#
# Indices 1 2 3 4 5 6 
#
# 1 168.9619 52.7631 73.1459 -12.3164 -2.7941 57.7613
# 2 52.7631 97.8282 20.0085 -4.3617 -18.7120 25.3100
# 3 73.1459 20.0085 160.6884 10.4549 -24.3500 33.8843
# 4 -12.3164 -4.3617 10.4549 34.6079 5.7948 -0.8207
# 5 -2.7941 -18.7120 -24.3500 5.7948 52.4954 -2.8299
# 6 57.7613 25.3100 33.8843 -0.8207 -2.8299 53.8445
#
#
#
# Elastic Compliance Matrix: (Units=1/GPa)
#
#
# Indices 1 2 3 4 5 6 
#
# 1 0.012353 -0.003994 -0.004202 0.005590 -0.003809 -0.008845
# 2 -0.003994 0.013795 0.001619 -0.001150 0.005424 -0.002951
# 3 -0.004202 0.001619 0.009479 -0.005074 0.005202 -0.002023
# 4 0.005590 -0.001150 -0.005074 0.033269 -0.006251 -0.002085
# 5 -0.003809 0.005424 0.005202 -0.006251 0.023851 -0.000578
# 6 -0.008845 -0.002951 -0.002023 -0.002085 -0.000578 0.030659
#
#
# Mechanical properties :
#
#
# Convention : Reuss Voigt Hill
#
# Bulk Modulus (GPa) = 44.49514 79.92374 62.20944
# Shear Modulus (GPa) = 34.71021 46.96029 40.83525
#
# Velocity S-wave (km/s) = 3.69630 4.29936 4.00918
# Velocity P-wave (km/s) = 5.97754 7.49036 6.77630
#
# Compressibility (1/GPa) = 0.02247437
#
# Stress axis : x y z
#
# Youngs Moduli (GPa) = 80.95262 72.49206 105.49554
#
# Poissons Ratio (x) = 0.28954 0.44324
# Poissons Ratio (y) = 0.32333 -0.17085
# Poissons Ratio (z) = 0.34012 -0.11740
#
# Static dielectric constant tensor:
#      x y z
#    x 2.171710 0.070490 0.072690 
#    y 0.070490 2.297490 0.030300 
#    z 0.072690 0.030300 2.062700 
# 
# From -- ./inp_files/343587.got.cif
#   From: 2010.05.17/outbox.cif.g08.bks.cpg/sg2_172_cif.got.tgz:343587.got - 2010.06.03 11:33:40.
