data_PCOD9103668
_publ_section_title
;
Structure prediction by ZEFSAII (Michael W. Deem and Ramdas Pophale) SiO2 
 PCOD9103668
Probable space group: P -1
;
_chemical_formula_sum "Si O2"
_cell_formula_units_Z 15
_cell_length_a 12.108798
_cell_length_b 7.573222
_cell_length_c 10.052401
_cell_angle_alpha 109.431906
_cell_angle_beta 71.365153
_cell_angle_gamma 60.271692
_cell_volume 608.605131
_symmetry_space_group_name_H-M "P -1"
_symmetry_group_IT_number 2
_symmetry_cell_setting 'triclinic'
loop_
_space_group_symop_operation_xyz
x,y,z
-x,-y,-z
loop_
_atom_site_type_symbol
_atom_site_label
_atom_site_fract_x
_atom_site_fract_y
_atom_site_fract_z
Si Si1 0.870578 0.554556 0.664357
Si Si2 0.689182 0.367189 0.696256
Si Si3 0.429458 0.987528 0.219074
Si Si4 0.597027 0.199474 0.461552
Si Si5 0.033185 0.373053 0.098700
Si Si6 0.500000 0.500000 0.000000
Si Si7 0.702965 0.702662 0.376345
Si Si8 0.372438 0.858975 0.858974
O O1 0.797383 0.426625 0.637036
O O2 0.714639 0.851957 0.789030
O O3 0.940307 0.491852 0.768946
O O4 0.000000 0.500000 0.500000
O O5 0.689159 0.225332 0.538653
O O6 0.493321 0.625391 0.858385
O O7 0.698458 0.284076 0.819905
O O8 0.342959 0.157859 0.428375
O O9 0.552823 0.015150 0.142571
O O10 0.513929 0.699722 0.115510
O O11 0.427789 0.309840 0.604932
O O12 0.581727 0.283623 0.337035
O O13 0.686698 0.901712 0.339013
O O14 0.876634 0.438820 0.227066
O O15 0.000000 0.500000 0.000000
O O16 0.185781 0.076114 0.980836
#
# Coordination Sequence:
#
# PCOD9103668 Si02
#       8
#     2   2   2   2   2   1   2   2
#     4  11  24  45  70  96 137 184 225 277 340 407
#     4  11  24  41  70 101 133 175 232 279 337 399
#     4  10  21  42  67  94 129 178 229 274 334 401
#     4  10  20  40  68  95 129 177 227 273 330 409
#     4  12  23  39  67  99 130 175 225 275 335 400
#     4  12  22  36  64 100 132 160 224 288 320 394
#     4  10  20  38  67  94 133 179 217 272 341 411
#     4  10  22  41  67  96 130 175 229 278 332 396
#
# _framework density 24.646521
#
# number of rings (size 3 to 8) (size 9 to 14) (size 15 to 20)
#    0.000    1.333    4.000    2.000    0.000    3.200 
#    0.000    4.667    2.933    0.000    0.000    0.000 
#    0.000    0.000    0.000    0.000    0.000    0.000 
#
# Total GULP energy -83598.168240 kJ/mol
# GULP energy per Si atom -5573.211216 kJ/mol
# Density = 2.459042 g / cm^3
# Si number density = 24.646521 Si / 1000 Ang^3
#
#
#
# Elastic Constant Matrix: (Units=GPa)
#
#
# Indices 1 2 3 4 5 6 
#
# 1 158.5311 53.8429 73.3741 2.2434 -2.8981 14.7394
# 2 53.8429 82.5035 28.9684 -10.2480 8.3585 11.6215
# 3 73.3741 28.9684 131.5393 -15.1950 -10.2019 -8.7296
# 4 2.2434 -10.2480 -15.1950 39.4403 -16.3211 6.5509
# 5 -2.8981 8.3585 -10.2019 -16.3211 50.5929 3.9794
# 6 14.7394 11.6215 -8.7296 6.5509 3.9794 56.9082
#
#
#
# Elastic Compliance Matrix: (Units=1/GPa)
#
#
# Indices 1 2 3 4 5 6 
#
# 1 0.010951 -0.005316 -0.005618 -0.004157 -0.000805 -0.002078
# 2 -0.005316 0.016825 -0.000549 0.004200 -0.001642 -0.002512
# 3 -0.005618 -0.000549 0.012023 0.006038 0.003949 0.002440
# 4 -0.004157 0.004200 0.006038 0.034448 0.011684 -0.003637
# 5 -0.000805 -0.001642 0.003949 0.011684 0.024708 -0.001923
# 6 -0.002078 -0.002512 0.002440 -0.003637 -0.001923 0.019551
#
#
# Mechanical properties :
#
#
# Convention : Reuss Voigt Hill
#
# Bulk Modulus (GPa) = 59.41024 76.10497 67.75760
# Shear Modulus (GPa) = 33.99446 43.81419 38.90432
#
# Velocity S-wave (km/s) = 3.71790 4.22086 3.97733
# Velocity P-wave (km/s) = 6.52592 7.39593 6.97450
#
# Compressibility (1/GPa) = 0.01683212
#
# Stress axis : x y z
#
# Youngs Moduli (GPa) = 91.31402 59.43636 83.17507
#
# Poissons Ratio (x) = 0.31598 0.46731
# Poissons Ratio (y) = 0.48545 0.04563
# Poissons Ratio (z) = 0.51304 0.03261
#
# Static dielectric constant tensor:
#      x y z
#    x 1.973060 -0.065840 0.026110 
#    y -0.065840 2.386740 -0.199070 
#    z 0.026110 -0.199070 2.168770 
# 
# From -- ./inp_files/418103.got.cif
#   From: 2010.05.17/outbox.cif.g08.bks.cpg/sg2_210_cif.got.tgz:418103.got - 2010.06.03 11:33:40.
