data_PCOD9103816
_publ_section_title
;
Structure prediction by ZEFSAII (Michael W. Deem and Ramdas Pophale) SiO2 
 PCOD9103816
Probable space group: P -1
;
_chemical_formula_sum "Si O2"
_cell_formula_units_Z 15
_cell_length_a 9.563866
_cell_length_b 7.944093
_cell_length_c 20.151977
_cell_angle_alpha 110.985373
_cell_angle_beta 66.450244
_cell_angle_gamma 149.671291
_cell_volume 708.447722
_symmetry_space_group_name_H-M "P -1"
_symmetry_group_IT_number 2
_symmetry_cell_setting 'triclinic'
loop_
_space_group_symop_operation_xyz
x,y,z
-x,-y,-z
loop_
_atom_site_type_symbol
_atom_site_label
_atom_site_fract_x
_atom_site_fract_y
_atom_site_fract_z
Si Si1 0.873213 0.415778 0.786207
Si Si2 0.089340 0.508544 0.553454
Si Si3 0.414422 0.536369 0.110260
Si Si4 0.172079 0.927161 0.691934
Si Si5 0.656191 0.624975 0.744120
Si Si6 0.398912 0.698776 0.725502
Si Si7 0.544836 0.739959 0.556907
Si Si8 0.000000 0.000000 0.000000
O O1 0.691567 0.360251 0.862069
O O2 0.065540 0.750641 0.758201
O O3 0.098856 0.486839 0.773674
O O4 0.637795 0.092215 0.738071
O O5 0.000000 0.500000 0.500000
O O6 0.106032 0.694123 0.625480
O O7 0.393672 0.721233 0.530793
O O8 0.863425 0.127289 0.560392
O O9 0.394839 0.454129 0.179161
O O10 0.732541 0.824328 0.066874
O O11 0.203172 0.214387 0.058549
O O12 0.984027 0.914916 0.708501
O O13 0.492317 0.304096 0.690465
O O14 0.522598 0.674862 0.749426
O O15 0.395227 0.617845 0.639846
O O16 0.500000 0.500000 0.500000
#
# Coordination Sequence:
#
# PCOD9103816 Si02
#       8
#     2   2   2   2   2   2   2   1
#     4  11  21  40  65  89 125 162 215 251 310 364
#     4  12  26  42  63  86 120 168 213 274 317 384
#     4  10  21  39  66  98 122 168 204 251 296 377
#     4  11  21  40  60  87 119 160 218 267 306 368
#     4  11  24  37  65  93 127 159 209 263 312 362
#     4  12  23  40  62  92 127 168 204 272 316 371
#     4  12  26  44  61  89 127 170 215 264 332 385
#     4  10  20  38  68  96 132 156 206 246 302 362
#
# _framework density 21.173051999999998
#
# number of rings (size 3 to 8) (size 9 to 14) (size 15 to 20)
#    0.000    0.800    2.667    6.400    3.733    0.000 
#    0.000    0.000    0.000   16.000    0.000    0.000 
#    0.000    0.000    0.000    0.000    0.000    0.000 
#
# Total GULP energy -83514.466150 kJ/mol
# GULP energy per Si atom -5567.631077 kJ/mol
# Density = 2.112486 g / cm^3
# Si number density = 21.173052 Si / 1000 Ang^3
#
#
#
# Elastic Constant Matrix: (Units=GPa)
#
#
# Indices 1 2 3 4 5 6 
#
# 1 115.4143 8.0104 15.4033 -3.0997 -4.4848 19.9468
# 2 8.0104 80.5468 -2.8834 4.4153 5.8891 18.2396
# 3 15.4033 -2.8834 40.3839 9.0130 16.7073 -8.6982
# 4 -3.0997 4.4153 9.0130 18.6436 18.7434 -1.4683
# 5 -4.4848 5.8891 16.7073 18.7434 11.6954 0.9243
# 6 19.9468 18.2396 -8.6982 -1.4683 0.9243 30.3987
#
#
#
# Elastic Compliance Matrix: (Units=1/GPa)
#
#
# Indices 1 2 3 4 5 6 
#
# 1 0.010534 0.000507 -0.004575 0.012661 -0.009369 -0.007629
# 2 0.000507 0.014710 -0.000172 -0.003608 -0.000444 -0.009369
# 3 -0.004575 -0.000172 0.025103 -0.042588 0.030147 0.007314
# 4 0.012661 -0.003608 -0.042588 -0.009705 0.084753 -0.021375
# 5 -0.009369 -0.000444 0.030147 0.084753 -0.098510 0.022129
# 6 -0.007629 -0.009369 0.007314 -0.021375 0.022129 0.043912
#
#
# Mechanical properties :
#
#
# Convention : Reuss Voigt Hill
#
# Bulk Modulus (GPa) = 23.88472 30.82282 27.35377
# Shear Modulus (GPa) = 589.61487 26.53518 308.07502
#
# Velocity S-wave (km/s) = 16.70565 3.54397 12.07556
# Velocity P-wave (km/s) = 19.58086 5.59781 14.40045
#
# Compressibility (1/GPa) = 0.04186777
#
# Stress axis : x y z
#
# Youngs Moduli (GPa) = 94.92807 67.97901 39.83602
#
# Poissons Ratio (x) = -0.03448 0.18224
# Poissons Ratio (y) = -0.04814 0.00687
# Poissons Ratio (z) = 0.43427 0.01172
#
# Static dielectric constant tensor:
#      x y z
#    x 1.860670 -0.042140 0.019160 
#    y -0.042140 1.798980 -0.051690 
#    z 0.019160 -0.051690 1.981860 
# 
# From -- ./inp_files/587471.got.cif
#   From: 2010.05.17/outbox.cif.g08.bks.cpg/sg2_294_cif.got.tgz:587471.got - 2010.06.03 11:33:40.
