data_PCOD9103670
_publ_section_title
;
Structure prediction by ZEFSAII (Michael W. Deem and Ramdas Pophale) SiO2 
 PCOD9103670
Probable space group: P -1
;
_chemical_formula_sum "Si O2"
_cell_formula_units_Z 14
_cell_length_a 8.044134
_cell_length_b 5.511292
_cell_length_c 16.220428
_cell_angle_alpha 115.750208
_cell_angle_beta 127.274393
_cell_angle_gamma 64.837106
_cell_volume 502.052062
_symmetry_space_group_name_H-M "P -1"
_symmetry_group_IT_number 2
_symmetry_cell_setting 'triclinic'
loop_
_space_group_symop_operation_xyz
x,y,z
-x,-y,-z
loop_
_atom_site_type_symbol
_atom_site_label
_atom_site_fract_x
_atom_site_fract_y
_atom_site_fract_z
Si Si1 0.143254 0.416460 0.366532
Si Si2 0.397322 0.355452 0.267330
Si Si3 0.956245 0.390624 0.084078
Si Si4 0.848919 0.055437 0.161556
Si Si5 0.384333 0.221338 0.563521
Si Si6 0.241621 0.130116 0.680907
Si Si7 0.470158 0.498755 0.090274
O O1 0.315445 0.326388 0.332074
O O2 0.239281 0.431776 0.487493
O O3 0.988744 0.200159 0.286621
O O4 0.995579 0.713919 0.342930
O O5 0.429709 0.663421 0.319039
O O6 0.213031 0.304268 0.144346
O O7 0.633520 0.170710 0.299600
O O8 0.908055 0.186717 0.111792
O O9 0.901079 0.724498 0.134593
O O10 0.785146 0.384784 0.959842
O O11 0.594205 0.193704 0.112119
O O12 0.251171 0.140081 0.586171
O O13 0.500000 0.000000 0.500000
O O14 0.395313 0.310481 0.795837
O O15 0.500000 0.500000 0.000000
#
# Coordination Sequence:
#
# PCOD9103670 Si02
#       7
#     2   2   2   2   2   2   2
#     4  10  22  45  70  99 140 187 233 293 361 417
#     4  11  25  44  69 101 143 185 234 296 354 431
#     4  10  20  38  67  94 137 185 226 285 358 411
#     4   9  19  38  66 101 131 180 235 283 347 425
#     4  12  24  45  71  99 144 184 233 301 359 420
#     4  11  25  46  68 106 136 180 250 287 350 440
#     4   9  20  43  69 101 140 183 234 296 356 422
#
# _framework density 27.885556000000001
#
# number of rings (size 3 to 8) (size 9 to 14) (size 15 to 20)
#    0.000    1.714    1.429    3.000    2.000    1.143 
#   28.286    0.714    0.000    0.000    0.000    0.000 
#    0.000    0.000    0.000    0.000    0.000    0.000 
#
# Total GULP energy -78361.778429 kJ/mol
# GULP energy per Si atom -5597.269888 kJ/mol
# Density = 2.782209 g / cm^3
# Si number density = 27.885556 Si / 1000 Ang^3
#
#
#
# Elastic Constant Matrix: (Units=GPa)
#
#
# Indices 1 2 3 4 5 6 
#
# 1 89.5293 46.9759 30.2436 -22.9770 -21.7072 9.7145
# 2 46.9759 137.4465 16.4063 -4.2939 -2.0877 -16.1399
# 3 30.2436 16.4063 116.6807 -15.5556 -5.4854 5.7825
# 4 -22.9770 -4.2939 -15.5556 54.5757 7.3062 1.2779
# 5 -21.7072 -2.0877 -5.4854 7.3062 55.1483 -18.6651
# 6 9.7145 -16.1399 5.7825 1.2779 -18.6651 43.3701
#
#
#
# Elastic Compliance Matrix: (Units=1/GPa)
#
#
# Indices 1 2 3 4 5 6 
#
# 1 0.018453 -0.006241 -0.002677 0.006015 0.004494 -0.004342
# 2 -0.006241 0.009990 -0.000320 -0.002043 -0.000086 0.005182
# 3 -0.002677 -0.000320 0.009559 0.001697 -0.000732 -0.001159
# 4 0.006015 -0.002043 0.001697 0.021482 -0.001628 -0.003667
# 5 0.004494 -0.000086 -0.000732 -0.001628 0.023105 0.009051
# 6 -0.004342 0.005182 -0.001159 -0.003667 0.009051 0.030116
#
#
# Mechanical properties :
#
#
# Convention : Reuss Voigt Hill
#
# Bulk Modulus (GPa) = 51.21571 58.98978 55.10274
# Shear Modulus (GPa) = 36.31354 47.28753 41.80054
#
# Velocity S-wave (km/s) = 3.61256 4.12244 3.87590
# Velocity P-wave (km/s) = 5.98390 6.62265 6.31136
#
# Compressibility (1/GPa) = 0.01952526
#
# Stress axis : x y z
#
# Youngs Moduli (GPa) = 54.19191 100.09899 104.61737
#
# Poissons Ratio (x) = 0.62471 0.28007
# Poissons Ratio (y) = 0.33821 0.03350
# Poissons Ratio (z) = 0.14508 0.03205
#
# Static dielectric constant tensor:
#      x y z
#    x 2.293980 -0.008280 0.016540 
#    y -0.008280 2.266640 -0.006340 
#    z 0.016540 -0.006340 2.134960 
# 
# From -- ./inp_files/107737.got.cif
#   From: 2010.05.17/outbox.cif.g08.bks.cpg/sg2_54_cif.got.tgz:107737.got - 2010.06.03 11:33:40.
