data_PCOD9103919
_publ_section_title
;
Structure prediction by ZEFSAII (Michael W. Deem and Ramdas Pophale) SiO2 
 PCOD9103919
Probable space group: P -1
;
_chemical_formula_sum "Si O2"
_cell_formula_units_Z 15
_cell_length_a 9.936224
_cell_length_b 9.670861
_cell_length_c 15.172301
_cell_angle_alpha 96.394275
_cell_angle_beta 67.843355
_cell_angle_gamma 44.705595
_cell_volume 772.182027
_symmetry_space_group_name_H-M "P -1"
_symmetry_group_IT_number 2
_symmetry_cell_setting 'triclinic'
loop_
_space_group_symop_operation_xyz
x,y,z
-x,-y,-z
loop_
_atom_site_type_symbol
_atom_site_label
_atom_site_fract_x
_atom_site_fract_y
_atom_site_fract_z
Si Si1 0.500000 0.500000 0.500000
Si Si2 0.301466 0.232234 0.131423
Si Si3 0.701907 0.459384 0.780090
Si Si4 0.882400 0.520304 0.116293
Si Si5 0.701998 0.980571 0.725904
Si Si6 0.994163 0.992478 0.749707
Si Si7 0.905871 0.234256 0.527417
Si Si8 0.160750 0.770932 0.885764
O O1 0.238794 0.785803 0.613015
O O2 0.645566 0.436454 0.551101
O O3 0.373223 0.332453 0.147830
O O4 0.040298 0.440997 0.157013
O O5 0.269439 0.169521 0.224406
O O6 0.500000 0.000000 0.000000
O O7 0.861628 0.337261 0.641210
O O8 0.451599 0.571331 0.822661
O O9 0.867620 0.242338 0.793612
O O10 0.587302 0.785493 0.215152
O O11 0.905161 0.336936 0.088433
O O12 0.000000 0.500000 0.000000
O O13 0.784926 0.050094 0.767329
O O14 0.888580 0.842545 0.586611
O O15 0.085096 0.867603 0.812124
O O16 0.000000 0.000000 0.500000
O O17 0.000000 0.000000 0.000000
#
# Coordination Sequence:
#
# PCOD9103919 Si02
#       8
#     1   2   2   2   2   2   2   2
#     4  10  20  38  70 100 136 168 220 278 354 402
#     4  12  27  47  67  98 143 188 230 287 352 416
#     4  12  26  44  71 104 140 177 237 293 346 416
#     4  12  25  44  67  93 136 189 223 278 355 414
#     4  11  24  42  70  98 137 183 228 284 351 418
#     4  11  23  41  71 104 131 181 227 287 344 414
#     4  11  21  42  71 104 137 177 230 293 347 409
#     4  12  26  41  69 103 132 176 238 292 341 418
#
# _framework density 19.425471999999999
#
# number of rings (size 3 to 8) (size 9 to 14) (size 15 to 20)
#    0.000    0.533    8.000    0.800    1.867    1.067 
#    0.000    0.667    0.000    0.000    0.000    0.000 
#    0.000    0.000    0.000    0.000    0.000    0.000 
#
# Total GULP energy -83546.018094 kJ/mol
# GULP energy per Si atom -5569.734540 kJ/mol
# Density = 1.938126 g / cm^3
# Si number density = 19.425472 Si / 1000 Ang^3
#
#
#
# Elastic Constant Matrix: (Units=GPa)
#
#
# Indices 1 2 3 4 5 6 
#
# 1 87.7283 45.0389 22.5055 -2.0692 -0.0143 -7.4307
# 2 45.0389 133.3560 42.5579 -11.7627 -11.0344 -10.0160
# 3 22.5055 42.5579 89.5190 -4.9024 -6.4406 9.3980
# 4 -2.0692 -11.7627 -4.9024 19.3527 2.8637 -11.6932
# 5 -0.0143 -11.0344 -6.4406 2.8637 29.1063 10.9360
# 6 -7.4307 -10.0160 9.3980 -11.6932 10.9360 47.5876
#
#
#
# Elastic Compliance Matrix: (Units=1/GPa)
#
#
# Indices 1 2 3 4 5 6 
#
# 1 0.014310 -0.004190 -0.002070 0.000469 -0.003055 0.002579
# 2 -0.004190 0.011383 -0.004310 0.007827 0.000977 0.004291
# 3 -0.002070 -0.004310 0.014466 -0.003309 0.004086 -0.005839
# 4 0.000469 0.007827 -0.003309 0.071564 -0.013467 0.023054
# 5 -0.003055 0.000977 0.004086 -0.013467 0.042251 -0.014097
# 6 0.002579 0.004291 -0.005839 0.023054 -0.014097 0.032377
#
#
# Mechanical properties :
#
#
# Convention : Reuss Voigt Hill
#
# Bulk Modulus (GPa) = 52.58019 58.97865 55.77942
# Shear Modulus (GPa) = 23.38299 32.57608 27.97953
#
# Velocity S-wave (km/s) = 3.47324 4.09953 3.79932
# Velocity P-wave (km/s) = 6.57350 7.26881 6.92989
#
# Compressibility (1/GPa) = 0.01901857
#
# Stress axis : x y z
#
# Youngs Moduli (GPa) = 69.88103 87.85270 69.12798
#
# Poissons Ratio (x) = 0.36810 0.14313
# Poissons Ratio (y) = 0.29280 0.29792
# Poissons Ratio (z) = 0.14469 0.37861
#
# Static dielectric constant tensor:
#      x y z
#    x 1.706640 -0.038210 0.024270 
#    y -0.038210 1.701850 -0.035580 
#    z 0.024270 -0.035580 1.708070 
# 
# From -- ./inp_files/178584.got.cif
#   From: 2010.05.17/outbox.cif.g08.bks.cpg/sg2_90_cif.got.tgz:178584.got - 2010.06.03 11:33:40.
