data_PCOD9103502
_publ_section_title
;
Structure prediction by ZEFSAII (Michael W. Deem and Ramdas Pophale) SiO2 
 PCOD9103502
Probable space group: P -1
;
_chemical_formula_sum "Si O2"
_cell_formula_units_Z 16
_cell_length_a 12.867468
_cell_length_b 14.717922
_cell_length_c 8.536173
_cell_angle_alpha 105.375074
_cell_angle_beta 54.508005
_cell_angle_gamma 142.844532
_cell_volume 727.979282
_symmetry_space_group_name_H-M "P -1"
_symmetry_group_IT_number 2
_symmetry_cell_setting 'triclinic'
loop_
_space_group_symop_operation_xyz
x,y,z
-x,-y,-z
loop_
_atom_site_type_symbol
_atom_site_label
_atom_site_fract_x
_atom_site_fract_y
_atom_site_fract_z
Si Si1 0.290548 0.948538 0.008724
Si Si2 0.807030 0.627559 0.909968
Si Si3 0.247880 0.821631 0.670996
Si Si4 0.782809 0.261810 0.795732
Si Si5 0.743749 0.397676 0.454241
Si Si6 0.575172 0.669266 0.109663
Si Si7 0.325960 0.623472 0.858520
Si Si8 0.793116 0.905814 0.738946
O O1 0.251078 0.860716 0.155204
O O2 0.166100 0.970299 0.154945
O O3 0.209782 0.836149 0.886457
O O4 0.553222 0.134283 0.841914
O O5 0.648665 0.513232 0.847994
O O6 0.066000 0.770359 0.708921
O O7 0.725655 0.680512 0.065629
O O8 0.757462 0.514414 0.026572
O O9 0.231250 0.699797 0.611288
O O10 0.500000 0.000000 0.500000
O O11 0.028582 0.424198 0.586930
O O12 0.772950 0.338801 0.970134
O O13 0.524175 0.305246 0.689657
O O14 0.726847 0.418967 0.296998
O O15 0.714488 0.789251 0.893042
O O16 0.586759 0.790566 0.746638
O O17 0.000000 0.000000 0.500000
#
# Coordination Sequence:
#
# PCOD9103502 Si02
#       8
#     2   2   2   2   2   2   2   2
#     4  10  22  39  61 102 129 168 223 272 332 401
#     4  10  23  45  64  90 146 175 226 281 326 409
#     4  12  25  39  65 101 139 172 221 284 345 390
#     4  10  20  38  66  94 136 167 218 274 333 401
#     4  12  23  40  72 102 133 177 224 283 340 398
#     4  10  25  44  66  99 131 184 234 270 337 406
#     4  10  20  40  67  99 130 175 225 272 335 404
#     4  10  23  44  67  90 135 182 224 275 339 405
#
# _framework density 21.978646999999999
#
# number of rings (size 3 to 8) (size 9 to 14) (size 15 to 20)
#    0.000    1.500    2.500    1.875    1.750    6.000 
#    0.000    1.875    0.000    0.000    0.000    0.000 
#    0.000    0.000    0.000    0.000    0.000    0.000 
#
# Total GULP energy -89381.246943 kJ/mol
# GULP energy per Si atom -5586.327934 kJ/mol
# Density = 2.192862 g / cm^3
# Si number density = 21.978647 Si / 1000 Ang^3
#
#
#
# Elastic Constant Matrix: (Units=GPa)
#
#
# Indices 1 2 3 4 5 6 
#
# 1 84.0378 29.0300 33.0821 -1.3009 -25.8126 -8.4864
# 2 29.0300 86.4177 45.2890 -5.9788 -18.6560 -7.6528
# 3 33.0821 45.2890 110.7571 -6.4867 -34.8655 -1.0771
# 4 -1.3009 -5.9788 -6.4867 38.6486 5.2282 -2.4336
# 5 -25.8126 -18.6560 -34.8655 5.2282 34.4633 7.6200
# 6 -8.4864 -7.6528 -1.0771 -2.4336 7.6200 29.9582
#
#
#
# Elastic Compliance Matrix: (Units=1/GPa)
#
#
# Indices 1 2 3 4 5 6 
#
# 1 0.016323 -0.003018 -0.000576 -0.001283 0.009938 0.001200
# 2 -0.003018 0.015821 -0.005511 0.001652 -0.000225 0.003180
# 3 -0.000576 -0.005511 0.015615 -0.000347 0.013419 -0.004451
# 4 -0.001283 0.001652 -0.000347 0.026971 -0.005302 0.003586
# 5 0.009938 -0.000225 0.013419 -0.005302 0.053082 -0.010692
# 6 0.001200 0.003180 -0.004451 0.003586 -0.010692 0.037383
#
#
# Mechanical properties :
#
#
# Convention : Reuss Voigt Hill
#
# Bulk Modulus (GPa) = 33.84386 55.11276 44.47831
# Shear Modulus (GPa) = 25.87258 32.20146 29.03702
#
# Velocity S-wave (km/s) = 3.43471 3.83185 3.63870
# Velocity P-wave (km/s) = 5.58226 6.68636 6.15910
#
# Compressibility (1/GPa) = 0.02954746
#
# Stress axis : x y z
#
# Youngs Moduli (GPa) = 61.26430 63.20712 64.04118
#
# Poissons Ratio (x) = 0.19078 0.03691
# Poissons Ratio (y) = 0.18491 0.35293
# Poissons Ratio (z) = 0.03531 0.34833
#
# Static dielectric constant tensor:
#      x y z
#    x 1.816780 0.023430 0.001090 
#    y 0.023430 1.825880 -0.009770 
#    z 0.001090 -0.009770 1.849470 
# 
# From -- ./inp_files/273587.got.cif
#   From: 2010.05.17/outbox.cif.g08.bks.cpg/sg2_137_cif.got.tgz:273587.got - 2010.06.03 11:33:40.
