data_PCOD9103906
_publ_section_title
;
Structure prediction by ZEFSAII (Michael W. Deem and Ramdas Pophale) SiO2 
 PCOD9103906
Probable space group: P -1
;
_chemical_formula_sum "Si O2"
_cell_formula_units_Z 16
_cell_length_a 7.892463
_cell_length_b 8.303329
_cell_length_c 15.267856
_cell_angle_alpha 65.095388
_cell_angle_beta 76.229971
_cell_angle_gamma 116.879724
_cell_volume 686.651759
_symmetry_space_group_name_H-M "P -1"
_symmetry_group_IT_number 2
_symmetry_cell_setting 'triclinic'
loop_
_space_group_symop_operation_xyz
x,y,z
-x,-y,-z
loop_
_atom_site_type_symbol
_atom_site_label
_atom_site_fract_x
_atom_site_fract_y
_atom_site_fract_z
Si Si1 0.438599 0.648331 0.709188
Si Si2 0.605174 0.423109 0.071941
Si Si3 0.628559 0.021880 0.892709
Si Si4 0.974142 0.925446 0.919428
Si Si5 0.813191 0.567833 0.466476
Si Si6 0.976957 0.479167 0.293795
Si Si7 0.125806 0.895175 0.501904
Si Si8 0.379184 0.281485 0.672412
O O1 0.492370 0.627677 0.806365
O O2 0.182526 0.554689 0.756565
O O3 0.453600 0.489727 0.679617
O O4 0.613192 0.903666 0.592881
O O5 0.550834 0.190739 0.098549
O O6 0.500000 0.500000 0.000000
O O7 0.855756 0.658966 0.991847
O O8 0.816876 0.986226 0.888332
O O9 0.772282 0.287507 0.790482
O O10 0.500000 0.000000 0.000000
O O11 0.198487 0.064281 0.802447
O O12 0.000000 0.000000 0.000000
O O13 0.869722 0.496982 0.389459
O O14 0.609255 0.347318 0.594436
O O15 0.734178 0.706361 0.403381
O O16 0.016867 0.728967 0.469448
O O17 0.940208 0.250443 0.368519
O O18 0.000000 0.000000 0.500000
#
# Coordination Sequence:
#
# PCOD9103906 Si02
#       8
#     2   2   2   2   2   2   2   2
#     4  11  21  43  66  97 141 179 232 286 343 412
#     4  10  23  39  70 101 130 180 232 282 338 404
#     4  11  24  44  65  97 139 178 230 284 341 412
#     4  11  20  42  70  99 133 182 225 281 346 406
#     4  10  21  41  65  97 135 180 224 276 344 417
#     4  11  24  46  66  93 142 191 222 289 356 407
#     4  12  25  39  67 100 133 175 239 287 343 413
#     4  10  20  38  69  96 139 178 222 278 344 413
#
# _framework density 23.301476000000001
#
# number of rings (size 3 to 8) (size 9 to 14) (size 15 to 20)
#    0.000    1.250    5.000    1.500    1.750    3.000 
#    0.000    2.500    0.000    0.000    0.000    0.000 
#    0.000    0.000    0.000    0.000    0.000    0.000 
#
# Total GULP energy -89404.155745 kJ/mol
# GULP energy per Si atom -5587.759734 kJ/mol
# Density = 2.324844 g / cm^3
# Si number density = 23.301476 Si / 1000 Ang^3
#
#
#
# Elastic Constant Matrix: (Units=GPa)
#
#
# Indices 1 2 3 4 5 6 
#
# 1 32.9475 22.2893 26.8638 -5.1028 -1.1332 0.6729
# 2 22.2893 77.0577 48.2894 -15.5045 -12.8426 24.7346
# 3 26.8638 48.2894 176.8357 -25.8691 -26.8144 11.3795
# 4 -5.1028 -15.5045 -25.8691 50.7139 11.0293 -3.3191
# 5 -1.1332 -12.8426 -26.8144 11.0293 44.5636 0.2250
# 6 0.6729 24.7346 11.3795 -3.3191 0.2250 27.5766
#
#
#
# Elastic Compliance Matrix: (Units=1/GPa)
#
#
# Indices 1 2 3 4 5 6 
#
# 1 0.044064 -0.015966 -0.004264 -0.000326 -0.006042 0.015015
# 2 -0.015966 0.028281 -0.002484 0.003002 0.005626 -0.023636
# 3 -0.004264 -0.002484 0.007836 0.002026 0.003393 -0.000685
# 4 -0.000326 0.003002 0.002026 0.022334 -0.003448 -0.000804
# 5 -0.006042 0.005626 0.003393 -0.003448 0.026837 -0.006932
# 6 0.015015 -0.023636 -0.000685 -0.000804 -0.006932 0.057339
#
#
# Mechanical properties :
#
#
# Convention : Reuss Voigt Hill
#
# Bulk Modulus (GPa) = 28.77439 53.52510 41.14974
# Shear Modulus (GPa) = 20.51679 37.19736 28.85708
#
# Velocity S-wave (km/s) = 2.97053 3.99977 3.52294
# Velocity P-wave (km/s) = 4.91334 6.65969 5.85203
#
# Compressibility (1/GPa) = 0.03475313
#
# Stress axis : x y z
#
# Youngs Moduli (GPa) = 22.69427 35.35985 127.61578
#
# Poissons Ratio (x) = 0.56454 0.54417
# Poissons Ratio (y) = 0.36233 0.31702
# Poissons Ratio (z) = 0.09677 0.08784
#
# Static dielectric constant tensor:
#      x y z
#    x 1.953970 0.038210 0.016900 
#    y 0.038210 1.852460 -0.019570 
#    z 0.016900 -0.019570 1.847800 
# 
# From -- ./inp_files/494491.got.cif
#   From: 2010.05.17/outbox.cif.g08.bks.cpg/sg2_248_cif.got.tgz:494491.got - 2010.06.03 11:33:40.
