data_PCOD9103139
_publ_section_title
;
Structure prediction by ZEFSAII (Michael W. Deem and Ramdas Pophale) SiO2 
 PCOD9103139
Probable space group: P -1
;
_chemical_formula_sum "Si O2"
_cell_formula_units_Z 16
_cell_length_a 11.825296
_cell_length_b 14.216244
_cell_length_c 9.086233
_cell_angle_alpha 42.418475
_cell_angle_beta 50.573863
_cell_angle_gamma 74.654235
_cell_volume 732.228611
_symmetry_space_group_name_H-M "P -1"
_symmetry_group_IT_number 2
_symmetry_cell_setting 'triclinic'
loop_
_space_group_symop_operation_xyz
x,y,z
-x,-y,-z
loop_
_atom_site_type_symbol
_atom_site_label
_atom_site_fract_x
_atom_site_fract_y
_atom_site_fract_z
Si Si1 0.821330 0.145255 0.204695
Si Si2 0.538483 0.703714 0.342535
Si Si3 0.091767 0.088472 0.178807
Si Si4 0.229995 0.021544 0.868302
Si Si5 0.549957 0.387335 0.793647
Si Si6 0.466466 0.944071 0.260509
Si Si7 0.183665 0.553450 0.252381
Si Si8 0.658096 0.649984 0.739045
O O1 0.684793 0.046669 0.545802
O O2 0.992412 0.184309 0.092275
O O3 0.823685 0.064034 0.141940
O O4 0.775599 0.286870 0.044329
O O5 0.535660 0.544883 0.582842
O O6 0.457955 0.690909 0.264966
O O7 0.450304 0.771130 0.451010
O O8 0.724511 0.812710 0.051745
O O9 0.103815 0.987229 0.145687
O O10 0.000000 0.000000 0.500000
O O11 0.378153 0.986099 0.846462
O O12 0.288750 0.202823 0.578434
O O13 0.705786 0.417875 0.726886
O O14 0.395564 0.300239 0.121960
O O15 0.500000 0.000000 0.000000
O O16 0.211646 0.422662 0.287612
O O17 0.000000 0.500000 0.500000
O O18 0.500000 0.500000 0.000000
#
# Coordination Sequence:
#
# PCOD9103139 Si02
#       8
#     2   2   2   2   2   2   2   2
#     4  12  24  40  65  97 127 162 217 272 315 375
#     4  10  22  42  62  89 127 169 217 247 322 387
#     4  11  24  44  63  90 132 175 208 257 325 383
#     4  11  24  41  65  94 126 169 224 258 308 394
#     4  10  21  39  67  89 121 169 215 261 299 399
#     4  11  23  37  62  92 132 165 201 264 326 368
#     4  11  22  39  63  95 129 159 208 271 332 358
#     4  10  20  38  65  89 125 167 216 252 319 373
#
# _framework density 21.851099999999999
#
# number of rings (size 3 to 8) (size 9 to 14) (size 15 to 20)
#    0.000    1.250    0.000    9.000    5.250    0.000 
#    0.000    0.000    0.000    4.500    0.000    0.000 
#    0.000    0.000    0.000    0.000    0.000    0.000 
#
# Total GULP energy -89386.925670 kJ/mol
# GULP energy per Si atom -5586.682854 kJ/mol
# Density = 2.180137 g / cm^3
# Si number density = 21.851100 Si / 1000 Ang^3
#
#
#
# Elastic Constant Matrix: (Units=GPa)
#
#
# Indices 1 2 3 4 5 6 
#
# 1 125.1182 30.3435 20.6703 13.1128 10.2976 -7.4813
# 2 30.3435 90.3580 37.0041 20.4820 -0.7630 1.8344
# 3 20.6703 37.0041 102.0055 24.4390 14.3342 3.8941
# 4 13.1128 20.4820 24.4390 44.8388 -10.1572 3.6424
# 5 10.2976 -0.7630 14.3342 -10.1572 27.7620 7.8963
# 6 -7.4813 1.8344 3.8941 3.6424 7.8963 35.2678
#
#
#
# Elastic Compliance Matrix: (Units=1/GPa)
#
#
# Indices 1 2 3 4 5 6 
#
# 1 0.009738 -0.002856 0.000736 -0.003760 -0.006583 0.003995
# 2 -0.002856 0.014481 -0.004480 -0.002497 0.003236 -0.001331
# 3 0.000736 -0.004480 0.015195 -0.009461 -0.012405 0.002466
# 4 -0.003760 -0.002497 -0.009461 0.035194 0.021376 -0.008044
# 5 -0.006583 0.003236 -0.012405 0.021376 0.057096 -0.015186
# 6 0.003995 -0.001331 0.002466 -0.008044 -0.015186 0.033230
#
#
# Mechanical properties :
#
#
# Convention : Reuss Voigt Hill
#
# Bulk Modulus (GPa) = 38.14698 54.83530 46.49114
# Shear Modulus (GPa) = 26.75599 36.87129 31.81364
#
# Velocity S-wave (km/s) = 3.50304 4.11224 3.81980
# Velocity P-wave (km/s) = 5.81870 6.90629 6.38569
#
# Compressibility (1/GPa) = 0.02621439
#
# Stress axis : x y z
#
# Youngs Moduli (GPa) = 102.68793 69.05466 65.80967
#
# Poissons Ratio (x) = 0.19722 -0.04845
# Poissons Ratio (y) = 0.29328 0.29485
# Poissons Ratio (z) = -0.07560 0.30939
#
# Static dielectric constant tensor:
#      x y z
#    x 1.805600 0.030270 0.014330 
#    y 0.030270 1.886230 -0.075820 
#    z 0.014330 -0.075820 1.933440 
# 
# From -- ./inp_files/271465.got.cif
#   From: 2010.05.17/outbox.cif.g08.bks.cpg/sg2_136_cif.got.tgz:271465.got - 2010.06.03 11:33:40.
