data_PCOD9103845
_publ_section_title
;
Structure prediction by ZEFSAII (Michael W. Deem and Ramdas Pophale) SiO2 
 PCOD9103845
Probable space group: P -1
;
_chemical_formula_sum "Si O2"
_cell_formula_units_Z 13
_cell_length_a 9.000149
_cell_length_b 6.934045
_cell_length_c 11.382139
_cell_angle_alpha 100.270609
_cell_angle_beta 108.519454
_cell_angle_gamma 56.934279
_cell_volume 564.451132
_symmetry_space_group_name_H-M "P -1"
_symmetry_group_IT_number 2
_symmetry_cell_setting 'triclinic'
loop_
_space_group_symop_operation_xyz
x,y,z
-x,-y,-z
loop_
_atom_site_type_symbol
_atom_site_label
_atom_site_fract_x
_atom_site_fract_y
_atom_site_fract_z
Si Si1 0.183596 0.998873 0.079647
Si Si2 0.674064 0.715665 0.772124
Si Si3 0.000000 0.500000 0.500000
Si Si4 0.337243 0.983383 0.554821
Si Si5 0.746297 0.229577 0.691287
Si Si6 0.861121 0.182542 0.336882
Si Si7 0.570995 0.293799 0.086607
O O1 0.286105 0.807805 0.186031
O O2 0.168786 0.226777 0.155820
O O3 0.307489 0.931476 0.987317
O O4 0.000000 0.000000 0.000000
O O5 0.520327 0.906021 0.667312
O O6 0.735830 0.470304 0.703644
O O7 0.577338 0.717850 0.870798
O O8 0.096146 0.643072 0.572140
O O9 0.207444 0.250134 0.520159
O O10 0.374589 0.816670 0.434780
O O11 0.217125 0.924084 0.604194
O O12 0.953602 0.024667 0.694881
O O13 0.710067 0.306745 0.212370
O O14 0.500000 0.500000 0.000000
#
# Coordination Sequence:
#
# PCOD9103845 Si02
#       7
#     2   2   1   2   2   2   2
#     4  12  26  46  65 103 139 181 236 278 341 411
#     4  11  26  44  73  99 140 183 226 288 348 399
#     4  10  20  38  68  98 132 176 218 274 346 396
#     4  10  24  43  68 104 135 178 232 279 347 403
#     4  11  22  43  67 100 140 178 226 288 333 412
#     4  10  23  43  67  99 140 176 229 281 337 412
#     4  11  23  47  69  98 138 181 231 287 334 409
#
# _framework density 23.031222
#
# number of rings (size 3 to 8) (size 9 to 14) (size 15 to 20)
#    0.000    1.231    3.077    2.769    2.154    6.154 
#    0.000    0.000    0.000    0.000    0.000    0.000 
#    0.000    0.000    0.000    0.000    0.000    0.000 
#
# Total GULP energy -72467.044228 kJ/mol
# GULP energy per Si atom -5574.388018 kJ/mol
# Density = 2.297880 g / cm^3
# Si number density = 23.031222 Si / 1000 Ang^3
#
#
#
# Elastic Constant Matrix: (Units=GPa)
#
#
# Indices 1 2 3 4 5 6 
#
# 1 98.5071 40.3924 49.2504 12.7547 13.1161 13.5876
# 2 40.3924 150.4739 38.6473 22.9942 23.8043 12.8892
# 3 49.2504 38.6473 111.2618 -7.0990 6.5677 8.3351
# 4 12.7547 22.9942 -7.0990 34.9118 0.1238 2.8945
# 5 13.1161 23.8043 6.5677 0.1238 32.4085 9.6791
# 6 13.5876 12.8892 8.3351 2.8945 9.6791 17.7538
#
#
#
# Elastic Compliance Matrix: (Units=1/GPa)
#
#
# Indices 1 2 3 4 5 6 
#
# 1 0.015632 -0.000662 -0.006470 -0.006086 -0.002723 -0.005969
# 2 -0.000662 0.009629 -0.003071 -0.006644 -0.005942 -0.000719
# 3 -0.006470 -0.003071 0.013352 0.007234 0.002652 -0.001713
# 4 -0.006086 -0.006644 0.007234 0.036994 0.006832 -0.003671
# 5 -0.002723 -0.005942 0.002652 0.006832 0.041273 -0.018463
# 6 -0.005969 -0.000719 -0.001713 -0.003671 -0.018463 0.072884
#
#
# Mechanical properties :
#
#
# Convention : Reuss Voigt Hill
#
# Bulk Modulus (GPa) = 54.92561 68.53589 61.73075
# Shear Modulus (GPa) = 23.12268 32.47833 27.80050
#
# Velocity S-wave (km/s) = 3.17199 3.75932 3.47807
# Velocity P-wave (km/s) = 6.10864 6.97608 6.55672
#
# Compressibility (1/GPa) = 0.01820644
#
# Stress axis : x y z
#
# Youngs Moduli (GPa) = 63.97285 103.85288 74.89762
#
# Poissons Ratio (x) = 0.06880 0.48457
# Poissons Ratio (y) = 0.04238 0.22999
# Poissons Ratio (z) = 0.41389 0.31890
#
# Static dielectric constant tensor:
#      x y z
#    x 1.878590 -0.029740 -0.041850 
#    y -0.029740 1.860510 0.004830 
#    z -0.041850 0.004830 1.899430 
# 
# From -- ./inp_files/36669.got.cif
#   From: 2010.05.17/outbox.cif.g08.bks.cpg/sg2_19_cif.got.tgz:36669.got - 2010.06.03 11:33:40.
