data_PCOD9103255
_publ_section_title
;
Structure prediction by ZEFSAII (Michael W. Deem and Ramdas Pophale) SiO2 
 PCOD9103255
Probable space group: P -1
;
_chemical_formula_sum "Si O2"
_cell_formula_units_Z 16
_cell_length_a 5.376755
_cell_length_b 14.425842
_cell_length_c 12.453009
_cell_angle_alpha 132.448837
_cell_angle_beta 109.617081
_cell_angle_gamma 81.736983
_cell_volume 666.566132
_symmetry_space_group_name_H-M "P -1"
_symmetry_group_IT_number 2
_symmetry_cell_setting 'triclinic'
loop_
_space_group_symop_operation_xyz
x,y,z
-x,-y,-z
loop_
_atom_site_type_symbol
_atom_site_label
_atom_site_fract_x
_atom_site_fract_y
_atom_site_fract_z
Si Si1 0.422043 0.429761 0.822384
Si Si2 0.169507 0.211294 0.757416
Si Si3 0.391229 0.704562 0.442574
Si Si4 0.220371 0.487198 0.383636
Si Si5 0.112559 0.265871 0.328706
Si Si6 0.670990 0.035360 0.448031
Si Si7 0.534501 0.148626 0.139370
Si Si8 0.595759 0.661313 0.905093
O O1 0.233167 0.308056 0.743398
O O2 0.637808 0.362038 0.731015
O O3 0.378638 0.551325 0.837538
O O4 0.500000 0.500000 0.000000
O O5 0.927618 0.113995 0.603740
O O6 0.358003 0.101109 0.720086
O O7 0.197241 0.290996 0.932831
O O8 0.202861 0.625701 0.440240
O O9 0.692848 0.690337 0.510957
O O10 0.396180 0.854353 0.554043
O O11 0.500000 0.500000 0.500000
O O12 0.034490 0.392674 0.358124
O O13 0.258906 0.408708 0.220504
O O14 0.308433 0.196499 0.222698
O O15 0.838023 0.183121 0.249870
O O16 0.500000 0.000000 0.500000
O O17 0.513088 0.223681 0.082504
O O18 0.500000 0.000000 0.000000
#
# Coordination Sequence:
#
# PCOD9103255 Si02
#       8
#     2   2   2   2   2   2   2   2
#     4   9  18  39  64  91 125 159 213 269 319 382
#     4  10  22  40  61  90 127 164 212 265 315 382
#     4  10  20  38  65  94 126 171 210 264 330 383
#     4   8  17  39  64  94 126 159 215 268 320 388
#     4  10  23  42  66  96 129 170 218 267 322 386
#     4  11  23  39  59  90 127 166 213 260 313 387
#     4  11  24  43  63  96 134 169 217 267 319 392
#     4   9  20  39  64  91 126 167 206 266 330 377
#
# _framework density 24.003616000000001
#
# number of rings (size 3 to 8) (size 9 to 14) (size 15 to 20)
#    0.000    2.250    1.250    0.375    1.750    3.000 
#    4.500   26.875    0.000    0.000    0.000    0.000 
#    0.000    0.000    0.000    0.000    0.000    0.000 
#
# Total GULP energy -89111.139706 kJ/mol
# GULP energy per Si atom -5569.446232 kJ/mol
# Density = 2.394898 g / cm^3
# Si number density = 24.003616 Si / 1000 Ang^3
#
#
#
# Elastic Constant Matrix: (Units=GPa)
#
#
# Indices 1 2 3 4 5 6 
#
# 1 58.1992 5.2760 36.7917 21.7133 -3.8420 4.9423
# 2 5.2760 144.6287 42.8706 39.7227 -8.0898 -0.1432
# 3 36.7917 42.8706 128.9061 21.2613 -11.4992 8.9242
# 4 21.7133 39.7227 21.2613 48.8187 4.2505 14.3868
# 5 -3.8420 -8.0898 -11.4992 4.2505 31.6114 8.3296
# 6 4.9423 -0.1432 8.9242 14.3868 8.3296 22.9274
#
#
#
# Elastic Compliance Matrix: (Units=1/GPa)
#
#
# Indices 1 2 3 4 5 6 
#
# 1 0.026378 0.005347 -0.007002 -0.014869 0.002587 0.005463
# 2 0.005347 0.011285 -0.003578 -0.012336 0.001961 0.007338
# 3 -0.007002 -0.003578 0.011240 0.002517 0.003495 -0.005737
# 4 -0.014869 -0.012336 0.002517 0.043349 -0.003623 -0.023736
# 5 0.002587 0.001961 0.003495 -0.003623 0.037724 -0.013338
# 6 0.005463 0.007338 -0.005737 -0.023736 -0.013338 0.064457
#
#
# Mechanical properties :
#
#
# Convention : Reuss Voigt Hill
#
# Bulk Modulus (GPa) = 26.01608 55.73452 40.87530
# Shear Modulus (GPa) = 22.96633 37.12456 30.04545
#
# Velocity S-wave (km/s) = 3.09655 3.93698 3.54178
# Velocity P-wave (km/s) = 4.86279 6.62843 5.81304
#
# Compressibility (1/GPa) = 0.03843776
#
# Stress axis : x y z
#
# Youngs Moduli (GPa) = 37.90992 88.61606 88.96968
#
# Poissons Ratio (x) = -0.47384 0.62297
# Poissons Ratio (y) = -0.20271 0.31830
# Poissons Ratio (z) = 0.26545 0.31703
#
# Static dielectric constant tensor:
#      x y z
#    x 2.161640 -0.163690 0.019690 
#    y -0.163690 2.090850 0.014710 
#    z 0.019690 0.014710 1.920540 
# 
# From -- ./inp_files/368104.got.cif
#   From: 2010.05.17/outbox.cif.g08.bks.cpg/sg2_185_cif.got.tgz:368104.got - 2010.06.03 11:33:40.
