data_PCOD9103527
_publ_section_title
;
Structure prediction by ZEFSAII (Michael W. Deem and Ramdas Pophale) SiO2 
 PCOD9103527
Probable space group: P -1
;
_chemical_formula_sum "Si O2"
_cell_formula_units_Z 15
_cell_length_a 7.074031
_cell_length_b 11.879362
_cell_length_c 21.092854
_cell_angle_alpha 30.347360
_cell_angle_beta 129.508239
_cell_angle_gamma 120.136051
_cell_volume 685.920623
_symmetry_space_group_name_H-M "P -1"
_symmetry_group_IT_number 2
_symmetry_cell_setting 'triclinic'
loop_
_space_group_symop_operation_xyz
x,y,z
-x,-y,-z
loop_
_atom_site_type_symbol
_atom_site_label
_atom_site_fract_x
_atom_site_fract_y
_atom_site_fract_z
Si Si1 0.506035 0.214862 0.992137
Si Si2 0.689444 0.409899 0.530685
Si Si3 0.401078 0.641962 0.847723
Si Si4 0.470118 0.975621 0.395604
Si Si5 0.000000 0.000000 0.000000
Si Si6 0.348174 0.642912 0.178347
Si Si7 0.170017 0.167566 0.354283
Si Si8 0.200046 0.214523 0.716887
O O1 0.256613 0.102075 0.986562
O O2 0.690869 0.035405 0.157806
O O3 0.439561 0.455017 0.892127
O O4 0.648765 0.234347 0.947842
O O5 0.500000 0.500000 0.500000
O O6 0.549697 0.268606 0.519255
O O7 0.797244 0.627877 0.420216
O O8 0.065527 0.759376 0.318880
O O9 0.118238 0.747150 0.745817
O O10 0.537014 0.847611 0.749676
O O11 0.500000 0.500000 0.000000
O O12 0.718243 0.973714 0.492104
O O13 0.252094 0.039302 0.369083
O O14 0.125970 0.752749 0.121083
O O15 0.314268 0.387179 0.281066
O O16 0.605930 0.684162 0.245072
#
# Coordination Sequence:
#
# PCOD9103527 Si02
#       8
#     2   2   2   2   1   2   2   2
#     4  11  24  42  67 103 135 180 226 284 354 406
#     4  11  26  44  68  98 133 180 225 282 349 412
#     4  12  28  44  70 105 142 182 232 289 353 424
#     4  11  26  49  71 100 134 193 238 286 349 414
#     4  10  20  38  66  96 136 172 222 276 342 412
#     4  11  21  43  68 101 132 176 228 285 344 409
#     4  11  24  48  74  97 138 186 242 290 337 420
#     4  10  24  42  65  99 137 170 222 287 340 414
#
# _framework density 21.868418999999999
#
# number of rings (size 3 to 8) (size 9 to 14) (size 15 to 20)
#    0.000    1.067    4.000    2.000    3.733    8.000 
#    0.000    0.000    0.000    0.000    0.000    0.000 
#    0.000    0.000    0.000    0.000    0.000    0.000 
#
# Total GULP energy -83519.160990 kJ/mol
# GULP energy per Si atom -5567.944066 kJ/mol
# Density = 2.181865 g / cm^3
# Si number density = 21.868419 Si / 1000 Ang^3
#
#
#
# Elastic Constant Matrix: (Units=GPa)
#
#
# Indices 1 2 3 4 5 6 
#
# 1 123.4068 29.0401 48.3242 5.8320 37.6792 -10.6022
# 2 29.0401 49.6721 3.1444 -10.8289 15.8379 -13.4560
# 3 48.3242 3.1444 91.2139 -1.1753 7.4666 -7.2819
# 4 5.8320 -10.8289 -1.1753 34.7447 -1.7230 2.5329
# 5 37.6792 15.8379 7.4666 -1.7230 39.2047 -15.3811
# 6 -10.6022 -13.4560 -7.2819 2.5329 -15.3811 23.9876
#
#
#
# Elastic Compliance Matrix: (Units=1/GPa)
#
#
# Indices 1 2 3 4 5 6 
#
# 1 0.017907 -0.008654 -0.008694 -0.006120 -0.015911 -0.009136
# 2 -0.008654 0.030663 0.004720 0.010171 0.001158 0.014477
# 3 -0.008694 0.004720 0.015501 0.003242 0.006523 0.007351
# 4 -0.006120 0.010171 0.003242 0.033063 0.003744 0.002894
# 5 -0.015911 0.001158 0.006523 0.003744 0.049932 0.027219
# 6 -0.009136 0.014477 0.007351 0.002894 0.027219 0.065150
#
#
# Mechanical properties :
#
#
# Convention : Reuss Voigt Hill
#
# Bulk Modulus (GPa) = 25.76430 47.25669 36.51049
# Shear Modulus (GPa) = 19.96716 31.83969 25.90343
#
# Velocity S-wave (km/s) = 3.02497 3.81985 3.44541
# Velocity P-wave (km/s) = 4.89976 6.41183 5.70610
#
# Compressibility (1/GPa) = 0.03881340
#
# Stress axis : x y z
#
# Youngs Moduli (GPa) = 55.84487 32.61296 64.51089
#
# Poissons Ratio (x) = 0.28224 0.56087
# Poissons Ratio (y) = 0.48330 -0.30449
# Poissons Ratio (z) = 0.48553 -0.15393
#
# Static dielectric constant tensor:
#      x y z
#    x 1.872820 -0.090860 0.015520 
#    y -0.090860 1.861470 0.006980 
#    z 0.015520 0.006980 1.893640 
# 
# From -- ./inp_files/123562.got.cif
#   From: 2010.05.17/outbox.cif.g08.bks.cpg/sg2_62_cif.got.tgz:123562.got - 2010.06.03 11:33:40.
