data_PCOD9103104
_publ_section_title
;
Structure prediction by ZEFSAII (Michael W. Deem and Ramdas Pophale) SiO2 
 PCOD9103104
Probable space group: P -1
;
_chemical_formula_sum "Si O2"
_cell_formula_units_Z 12
_cell_length_a 9.567758
_cell_length_b 16.694320
_cell_length_c 19.161561
_cell_angle_alpha 14.988680
_cell_angle_beta 39.329588
_cell_angle_gamma 48.237758
_cell_volume 435.873377
_symmetry_space_group_name_H-M "P -1"
_symmetry_group_IT_number 2
_symmetry_cell_setting 'triclinic'
loop_
_space_group_symop_operation_xyz
x,y,z
-x,-y,-z
loop_
_atom_site_type_symbol
_atom_site_label
_atom_site_fract_x
_atom_site_fract_y
_atom_site_fract_z
Si Si1 0.131555 0.831967 0.455603
Si Si2 0.924996 0.874263 0.227153
Si Si3 0.560608 0.079511 0.621941
Si Si4 0.690443 0.931200 0.556954
Si Si5 0.750603 0.687295 0.609313
Si Si6 0.388462 0.893532 0.056045
O O1 0.972260 0.001476 0.408160
O O2 0.934892 0.616877 0.650116
O O3 0.218569 0.669267 0.621896
O O4 0.392677 0.059987 0.120776
O O5 0.876765 0.805728 0.386538
O O6 0.824157 0.520519 0.516628
O O7 0.230811 0.086130 0.928497
O O8 0.709725 0.971117 0.209477
O O9 0.618259 0.133948 0.471731
O O10 0.510078 0.679381 0.989409
O O11 0.713754 0.975225 0.426553
O O12 0.500000 0.500000 0.000000
O O13 0.500000 0.000000 0.000000
#
# Coordination Sequence:
#
# PCOD9103104 Si02
#       6
#     2   2   2   2   2   2
#     4  10  20  38  65  85 119 166 194 239 306 350
#     4  11  24  39  64  90 119 160 201 250 298 346
#     4  11  21  39  63  94 119 155 206 241 292 367
#     4   8  18  37  64  85 126 159 188 244 302 349
#     4   9  20  40  60  89 122 158 191 245 299 345
#     4  11  22  43  62  82 125 160 199 252 302 350
#
# _framework density 27.530932
#
# number of rings (size 3 to 8) (size 9 to 14) (size 15 to 20)
#    1.000    1.000    3.333    0.500    0.000    2.667 
#    0.000    2.500    0.000    0.000    0.000    0.000 
#    0.000    0.000    0.000    0.000    0.000    0.000 
#
# Total GULP energy -66922.386055 kJ/mol
# GULP energy per Si atom -5576.865505 kJ/mol
# Density = 2.746827 g / cm^3
# Si number density = 27.530932 Si / 1000 Ang^3
#
#
#
# Elastic Constant Matrix: (Units=GPa)
#
#
# Indices 1 2 3 4 5 6 
#
# 1 175.9006 57.2972 30.9534 0.1517 -29.7146 28.1160
# 2 57.2972 135.1012 16.4730 30.9132 -14.4484 -3.5745
# 3 30.9534 16.4730 71.0366 15.4803 -24.6705 -8.3039
# 4 0.1517 30.9132 15.4803 38.6367 -4.2048 -6.1329
# 5 -29.7146 -14.4484 -24.6705 -4.2048 40.6703 8.4608
# 6 28.1160 -3.5745 -8.3039 -6.1329 8.4608 54.5142
#
#
#
# Elastic Compliance Matrix: (Units=1/GPa)
#
#
# Indices 1 2 3 4 5 6 
#
# 1 0.009373 -0.004148 -0.002863 0.004067 0.005287 -0.005906
# 2 -0.004148 0.011182 0.001657 -0.009214 0.000579 0.001998
# 3 -0.002863 0.001657 0.020249 -0.008032 0.009472 0.002296
# 4 0.004067 -0.009214 -0.008032 0.036356 -0.001498 0.000398
# 5 0.005287 0.000579 0.009472 -0.001498 0.035694 -0.006955
# 6 -0.005906 0.001998 0.002296 0.000398 -0.006955 0.022995
#
#
# Mechanical properties :
#
#
# Convention : Reuss Voigt Hill
#
# Bulk Modulus (GPa) = 33.22628 65.72062 49.47345
# Shear Modulus (GPa) = 31.93079 45.25190 38.59135
#
# Velocity S-wave (km/s) = 3.40930 4.05862 3.74805
# Velocity P-wave (km/s) = 5.25287 6.77397 6.06132
#
# Compressibility (1/GPa) = 0.03009666
#
# Stress axis : x y z
#
# Youngs Moduli (GPa) = 106.68427 89.43007 49.38597
#
# Poissons Ratio (x) = 0.37092 0.14138
# Poissons Ratio (y) = 0.44248 -0.08182
# Poissons Ratio (z) = 0.30542 -0.14816
#
# Static dielectric constant tensor:
#      x y z
#    x 2.240980 -0.105380 0.070630 
#    y -0.105380 2.271590 -0.065420 
#    z 0.070630 -0.065420 2.122790 
# 
# From -- ./inp_files/313942.got.cif
#   From: 2010.05.17/outbox.cif.g08.bks.cpg/sg2_157_cif.got.tgz:313942.got - 2010.06.03 11:33:40.
