data_PCOD9103013
_publ_section_title
;
Structure prediction by ZEFSAII (Michael W. Deem and Ramdas Pophale) SiO2 
 PCOD9103013
Probable space group: P -1
;
_chemical_formula_sum "Si O2"
_cell_formula_units_Z 12
_cell_length_a 11.040855
_cell_length_b 10.872273
_cell_length_c 11.665474
_cell_angle_alpha 46.407666
_cell_angle_beta 143.933531
_cell_angle_gamma 116.160128
_cell_volume 574.369579
_symmetry_space_group_name_H-M "P -1"
_symmetry_group_IT_number 2
_symmetry_cell_setting 'triclinic'
loop_
_space_group_symop_operation_xyz
x,y,z
-x,-y,-z
loop_
_atom_site_type_symbol
_atom_site_label
_atom_site_fract_x
_atom_site_fract_y
_atom_site_fract_z
Si Si1 0.520282 0.965393 0.349794
Si Si2 0.729851 0.314805 0.636393
Si Si3 0.510513 0.471967 0.159731
Si Si4 0.775379 0.757831 0.886263
Si Si5 0.228979 0.015317 0.702460
Si Si6 0.428042 0.292206 0.758795
O O1 0.382408 0.826396 0.310834
O O2 0.698642 0.870778 0.640593
O O3 0.632451 0.997457 0.299294
O O4 0.367171 0.134167 0.188179
O O5 0.687719 0.319440 0.461931
O O6 0.616057 0.517167 0.457674
O O7 0.977503 0.270843 0.881722
O O8 0.292826 0.424486 0.060103
O O9 0.557239 0.642060 0.142632
O O10 0.500000 0.500000 0.000000
O O11 0.242750 0.199450 0.650612
O O12 0.000000 0.000000 0.500000
O O13 0.350467 0.860850 0.982380
#
# Coordination Sequence:
#
# PCOD9103013 Si02
#       6
#     2   2   2   2   2   2
#     4  10  22  40  62  94 128 161 213 257 302 386
#     4   9  21  39  64  92 128 157 207 264 314 367
#     4   9  19  37  58  91 127 155 205 254 303 375
#     4  10  20  38  64  96 125 163 203 258 324 367
#     4  11  24  43  65  85 128 174 208 258 312 365
#     4   9  23  41  59  94 123 155 223 255 299 385
#
# _framework density 20.892472000000001
#
# number of rings (size 3 to 8) (size 9 to 14) (size 15 to 20)
#    1.000    1.333    0.000    1.500    2.333    4.000 
#    0.000    5.000    0.000    0.000    0.000    0.000 
#    0.000    0.000    0.000    0.000    0.000    0.000 
#
# Total GULP energy -66820.185711 kJ/mol
# GULP energy per Si atom -5568.348809 kJ/mol
# Density = 2.084492 g / cm^3
# Si number density = 20.892472 Si / 1000 Ang^3
#
#
#
# Elastic Constant Matrix: (Units=GPa)
#
#
# Indices 1 2 3 4 5 6 
#
# 1 80.7300 42.3579 57.5159 6.1747 -9.1243 8.6479
# 2 42.3579 129.2064 51.4557 28.8152 5.7354 2.6458
# 3 57.5159 51.4557 138.6992 33.0107 12.1082 25.3715
# 4 6.1747 28.8152 33.0107 39.3674 9.5053 4.2583
# 5 -9.1243 5.7354 12.1082 9.5053 20.0533 8.8081
# 6 8.6479 2.6458 25.3715 4.2583 8.8081 22.8871
#
#
#
# Elastic Compliance Matrix: (Units=1/GPa)
#
#
# Indices 1 2 3 4 5 6 
#
# 1 0.025155 -0.006125 -0.009842 0.004722 0.019687 -0.006342
# 2 -0.006125 0.011538 -0.000708 -0.006250 -0.004793 0.004772
# 3 -0.009842 -0.000708 0.016040 -0.009029 -0.005148 -0.010319
# 4 0.004722 -0.006250 -0.009029 0.038989 -0.011837 0.006248
# 5 0.019687 -0.004793 -0.005148 -0.011837 0.082393 -0.030684
# 6 -0.006342 0.004772 -0.010319 0.006248 -0.030684 0.067623
#
#
# Mechanical properties :
#
#
# Convention : Reuss Voigt Hill
#
# Bulk Modulus (GPa) = 51.58684 72.36607 61.97645
# Shear Modulus (GPa) = 17.75899 29.61528 23.68714
#
# Velocity S-wave (km/s) = 2.91867 3.76907 3.37079
# Velocity P-wave (km/s) = 6.00861 7.32487 6.69915
#
# Compressibility (1/GPa) = 0.01938479
#
# Stress axis : x y z
#
# Youngs Moduli (GPa) = 39.75277 86.66870 62.34603
#
# Poissons Ratio (x) = 0.53080 0.61360
# Poissons Ratio (y) = 0.24347 0.04413
# Poissons Ratio (z) = 0.39124 0.06135
#
# Static dielectric constant tensor:
#      x y z
#    x 1.748940 -0.038080 -0.036570 
#    y -0.038080 1.833490 -0.027360 
#    z -0.036570 -0.027360 1.755610 
# 
# From -- ./inp_files/266992.got.cif
#   From: 2010.05.17/outbox.cif.g08.bks.cpg/sg2_134_cif.got.tgz:266992.got - 2010.06.03 11:33:40.
