data_PCOD9103119
_publ_section_title
;
Structure prediction by ZEFSAII (Michael W. Deem and Ramdas Pophale) SiO2 
 PCOD9103119
Probable space group: P -1
;
_chemical_formula_sum "Si O2"
_cell_formula_units_Z 16
_cell_length_a 18.702106
_cell_length_b 5.143901
_cell_length_c 24.882676
_cell_angle_alpha 80.968038
_cell_angle_beta 21.746562
_cell_angle_gamma 94.940513
_cell_volume 677.458606
_symmetry_space_group_name_H-M "P -1"
_symmetry_group_IT_number 2
_symmetry_cell_setting 'triclinic'
loop_
_space_group_symop_operation_xyz
x,y,z
-x,-y,-z
loop_
_atom_site_type_symbol
_atom_site_label
_atom_site_fract_x
_atom_site_fract_y
_atom_site_fract_z
Si Si1 0.161804 0.354755 0.076214
Si Si2 0.561663 0.234529 0.021916
Si Si3 0.564565 0.619925 0.695847
Si Si4 0.781948 0.324687 0.276624
Si Si5 0.891234 0.857279 0.698740
Si Si6 0.592661 0.183275 0.606417
Si Si7 0.811269 0.912467 0.182514
Si Si8 0.931385 0.161758 0.773935
O O1 0.979649 0.427930 0.181989
O O2 0.002852 0.966159 0.218569
O O3 0.323409 0.554614 0.010023
O O4 0.350391 0.439593 0.895145
O O5 0.281304 0.086873 0.214499
O O6 0.709732 0.462753 0.857176
O O7 0.644443 0.005680 0.978637
O O8 0.568579 0.341067 0.672110
O O9 0.511593 0.814922 0.685310
O O10 0.832966 0.936056 0.524532
O O11 0.783142 0.626517 0.247035
O O12 0.500000 0.000000 0.500000
O O13 0.874369 0.212658 0.167302
O O14 0.964859 0.039576 0.699064
O O15 0.435677 0.201621 0.671333
O O16 0.877095 0.432807 0.379052
O O17 0.000000 0.000000 0.000000
#
# Coordination Sequence:
#
# PCOD9103119 Si02
#       8
#     2   2   2   2   2   2   2   2
#     4  11  26  39  62  94 131 166 207 264 333 375
#     4  10  20  38  65  87 128 163 217 255 316 379
#     4  11  23  42  64  97 130 167 207 268 319 378
#     4  12  27  44  66  98 136 171 217 275 329 390
#     4   9  20  39  61  95 119 168 215 262 303 377
#     4  11  23  42  69  90 125 170 220 257 313 383
#     4  12  25  44  69  96 129 174 223 272 323 390
#     4  10  21  38  64  91 121 170 212 260 309 384
#
# _framework density 23.61768
#
# number of rings (size 3 to 8) (size 9 to 14) (size 15 to 20)
#    0.000    1.250    1.250    4.125    5.250    0.500 
#    0.000    0.625    0.000    0.000    0.000    0.000 
#    0.000    0.000    0.000    0.000    0.000    0.000 
#
# Total GULP energy -89415.360860 kJ/mol
# GULP energy per Si atom -5588.460054 kJ/mol
# Density = 2.356392 g / cm^3
# Si number density = 23.617680 Si / 1000 Ang^3
#
#
#
# Elastic Constant Matrix: (Units=GPa)
#
#
# Indices 1 2 3 4 5 6 
#
# 1 85.7615 3.1044 40.0113 9.9070 -16.8206 -12.0298
# 2 3.1044 61.4342 -8.7682 23.4784 -0.5994 -6.2606
# 3 40.0113 -8.7682 88.4098 14.0729 -23.4498 -4.4539
# 4 9.9070 23.4784 14.0729 28.8519 -6.5472 -4.7336
# 5 -16.8206 -0.5994 -23.4498 -6.5472 36.7629 12.1353
# 6 -12.0298 -6.2606 -4.4539 -4.7336 12.1353 36.3484
#
#
#
# Elastic Compliance Matrix: (Units=1/GPa)
#
#
# Indices 1 2 3 4 5 6 
#
# 1 0.015609 -0.001283 -0.006520 -0.000155 0.001767 0.003536
# 2 -0.001283 0.027089 0.007147 -0.024906 -0.000720 0.002114
# 3 -0.006520 0.007147 0.018760 -0.011370 0.007992 -0.002777
# 4 -0.000155 -0.024906 -0.011370 0.061372 0.002759 0.001337
# 5 0.001767 -0.000720 0.007992 0.002759 0.037080 -0.010580
# 6 0.003536 0.002114 -0.002777 0.001337 -0.010580 0.032412
#
#
# Mechanical properties :
#
#
# Convention : Reuss Voigt Hill
#
# Bulk Modulus (GPa) = 16.62554 33.81117 25.21835
# Shear Modulus (GPa) = 23.39931 33.80982 28.60457
#
# Velocity S-wave (km/s) = 3.15104 3.78768 3.48393
# Velocity P-wave (km/s) = 4.50483 5.78583 5.18504
#
# Compressibility (1/GPa) = 0.06014842
#
# Stress axis : x y z
#
# Youngs Moduli (GPa) = 64.06608 36.91478 53.30472
#
# Poissons Ratio (x) = 0.04734 0.34753
# Poissons Ratio (y) = 0.08217 -0.38098
# Poissons Ratio (z) = 0.41769 -0.26384
#
# Static dielectric constant tensor:
#      x y z
#    x 2.142340 0.203050 -0.171520 
#    y 0.203050 2.093640 -0.122830 
#    z -0.171520 -0.122830 2.053980 
# 
# From -- ./inp_files/104887.got.cif
#   From: 2010.05.17/outbox.cif.g08.bks.cpg/sg2_53_cif.got.tgz:104887.got - 2010.06.03 11:33:40.
