data_PCOD9103089
_publ_section_title
;
Structure prediction by ZEFSAII (Michael W. Deem and Ramdas Pophale) SiO2 
 PCOD9103089
Probable space group: P -1
;
_chemical_formula_sum "Si O2"
_cell_formula_units_Z 16
_cell_length_a 5.388398
_cell_length_b 20.509610
_cell_length_c 8.027026
_cell_angle_alpha 114.926518
_cell_angle_beta 111.517134
_cell_angle_gamma 50.563539
_cell_volume 615.065447
_symmetry_space_group_name_H-M "P -1"
_symmetry_group_IT_number 2
_symmetry_cell_setting 'triclinic'
loop_
_space_group_symop_operation_xyz
x,y,z
-x,-y,-z
loop_
_atom_site_type_symbol
_atom_site_label
_atom_site_fract_x
_atom_site_fract_y
_atom_site_fract_z
Si Si1 0.452940 0.177025 0.515769
Si Si2 0.785070 0.160124 0.132134
Si Si3 0.775966 0.528794 0.310327
Si Si4 0.490068 0.965048 0.780923
Si Si5 0.251388 0.743197 0.117468
Si Si6 0.579223 0.566654 0.826735
Si Si7 0.389017 0.121542 0.785123
Si Si8 0.685728 0.312806 0.433202
O O1 0.604270 0.104257 0.329007
O O2 0.616351 0.223010 0.674923
O O3 0.487879 0.117856 0.617932
O O4 0.073888 0.252326 0.475754
O O5 0.579814 0.247414 0.289198
O O6 0.128713 0.096457 0.235822
O O7 0.821109 0.202220 0.014499
O O8 0.654220 0.106430 0.966967
O O9 0.589885 0.481230 0.210664
O O10 0.497487 0.629810 0.388234
O O11 0.000000 0.500000 0.500000
O O12 0.040020 0.497072 0.194715
O O13 0.299715 0.052634 0.719683
O O14 0.500000 0.000000 0.000000
O O15 0.898228 0.777669 0.137000
O O16 0.483348 0.643002 0.016265
O O17 0.409912 0.619789 0.669929
#
# Coordination Sequence:
#
# PCOD9103089 Si02
#       8
#     2   2   2   2   2   2   2   2
#     4  10  24  43  58  91 131 163 216 258 329 399
#     4   9  20  39  62  89 120 159 217 265 313 384
#     4  10  20  38  65 102 128 169 219 284 328 380
#     4  11  21  42  64  93 122 160 215 273 321 381
#     4  10  22  40  60  89 125 173 206 262 324 392
#     4  10  22  39  68  96 130 172 227 272 328 388
#     4  11  22  40  64  86 124 173 208 262 330 389
#     4   9  19  40  61  92 126 163 214 274 321 387
#
# _framework density 26.013493
#
# number of rings (size 3 to 8) (size 9 to 14) (size 15 to 20)
#    0.000    2.000    1.250    2.250    7.000    0.500 
#   13.500    1.250    0.000    0.000    0.000    0.000 
#    0.000    0.000    0.000    0.000    0.000    0.000 
#
# Total GULP energy -89524.901492 kJ/mol
# GULP energy per Si atom -5595.306343 kJ/mol
# Density = 2.595429 g / cm^3
# Si number density = 26.013493 Si / 1000 Ang^3
#
#
#
# Elastic Constant Matrix: (Units=GPa)
#
#
# Indices 1 2 3 4 5 6 
#
# 1 93.4457 30.0917 34.4196 16.6994 8.1316 -2.5661
# 2 30.0917 114.8517 43.1892 19.2826 7.7952 -3.1592
# 3 34.4196 43.1892 149.2623 29.5809 -1.4707 -2.6090
# 4 16.6994 19.2826 29.5809 47.4790 -0.3276 -6.1834
# 5 8.1316 7.7952 -1.4707 -0.3276 34.7686 5.8028
# 6 -2.5661 -3.1592 -2.6090 -6.1834 5.8028 38.0966
#
#
#
# Elastic Compliance Matrix: (Units=1/GPa)
#
#
# Indices 1 2 3 4 5 6 
#
# 1 0.012733 -0.002018 -0.001888 -0.002426 -0.002726 0.000582
# 2 -0.002018 0.010577 -0.002176 -0.002172 -0.002105 0.000560
# 3 -0.001888 -0.002176 0.008527 -0.003827 0.001346 -0.000550
# 4 -0.002426 -0.002172 -0.003827 0.025637 0.000555 0.003471
# 5 -0.002726 -0.002105 0.001346 0.000555 0.030744 -0.004859
# 6 0.000582 0.000560 -0.000550 0.003471 -0.004859 0.027601
#
#
# Mechanical properties :
#
#
# Convention : Reuss Voigt Hill
#
# Bulk Modulus (GPa) = 50.83107 63.66231 57.24669
# Shear Modulus (GPa) = 37.16364 40.72611 38.94487
#
# Velocity S-wave (km/s) = 3.78382 3.96103 3.87344
# Velocity P-wave (km/s) = 6.21872 6.74134 6.48529
#
# Compressibility (1/GPa) = 0.01967301
#
# Stress axis : x y z
#
# Youngs Moduli (GPa) = 78.53350 94.54814 117.27928
#
# Poissons Ratio (x) = 0.19078 0.22147
# Poissons Ratio (y) = 0.15847 0.25515
# Poissons Ratio (z) = 0.14830 0.20570
#
# Static dielectric constant tensor:
#      x y z
#    x 2.067010 0.032740 -0.036310 
#    y 0.032740 2.047710 -0.007560 
#    z -0.036310 -0.007560 2.107270 
# 
# From -- ./inp_files/112829.got.cif
#   From: 2010.05.17/outbox.cif.g08.bks.cpg/sg2_57_cif.got.tgz:112829.got - 2010.06.03 11:33:40.
