data_PCOD9103227
_publ_section_title
;
Structure prediction by ZEFSAII (Michael W. Deem and Ramdas Pophale) SiO2 
 PCOD9103227
Probable space group: P -1
;
_chemical_formula_sum "Si O2"
_cell_formula_units_Z 15
_cell_length_a 11.866023
_cell_length_b 14.211795
_cell_length_c 14.674608
_cell_angle_alpha 30.687339
_cell_angle_beta 139.379244
_cell_angle_gamma 120.041461
_cell_volume 731.019166
_symmetry_space_group_name_H-M "P -1"
_symmetry_group_IT_number 2
_symmetry_cell_setting 'triclinic'
loop_
_space_group_symop_operation_xyz
x,y,z
-x,-y,-z
loop_
_atom_site_type_symbol
_atom_site_label
_atom_site_fract_x
_atom_site_fract_y
_atom_site_fract_z
Si Si1 0.317287 0.997450 0.939856
Si Si2 0.428372 0.224277 0.562782
Si Si3 0.960058 0.802242 0.652718
Si Si4 0.082412 0.633632 0.669690
Si Si5 0.500000 0.500000 0.000000
Si Si6 0.816604 0.813281 0.868960
Si Si7 0.511791 0.226807 0.407852
Si Si8 0.177907 0.672751 0.080844
O O1 0.382439 0.936616 0.134366
O O2 0.280988 0.818506 0.019374
O O3 0.118365 0.206777 0.631637
O O4 0.500000 0.000000 0.000000
O O5 0.266548 0.142024 0.524892
O O6 0.475335 0.283992 0.443190
O O7 0.327326 0.434003 0.385652
O O8 0.042527 0.661529 0.730576
O O9 0.000000 0.000000 0.500000
O O10 0.068407 0.687536 0.906217
O O11 0.266986 0.668127 0.728965
O O12 0.147486 0.395173 0.881334
O O13 0.496174 0.401596 0.181541
O O14 0.656442 0.834947 0.676264
O O15 0.715606 0.020742 0.692296
O O16 0.016786 0.764962 0.983637
#
# Coordination Sequence:
#
# PCOD9103227 Si02
#       8
#     2   2   2   2   1   2   2   2
#     4  12  24  42  63  99 141 180 218 275 349 414
#     4  12  24  42  64 101 140 173 225 280 343 405
#     4  12  22  37  67 100 132 167 231 289 325 388
#     4  11  22  41  63  97 135 178 226 277 339 399
#     4  10  22  40  64  92 128 172 224 278 328 392
#     4  10  20  38  65  93 126 174 224 279 333 397
#     4  10  22  39  65  97 134 172 222 284 340 390
#     4  12  21  39  67  95 130 179 227 279 339 393
#
# _framework density 20.519297999999999
#
# number of rings (size 3 to 8) (size 9 to 14) (size 15 to 20)
#    0.000    0.800    5.333    3.200    0.000    1.067 
#    0.000    6.000    0.000    0.000    0.000    0.000 
#    0.000    0.000    0.000    0.000    0.000    0.000 
#
# Total GULP energy -83568.728105 kJ/mol
# GULP energy per Si atom -5571.248540 kJ/mol
# Density = 2.047259 g / cm^3
# Si number density = 20.519298 Si / 1000 Ang^3
#
#
#
# Elastic Constant Matrix: (Units=GPa)
#
#
# Indices 1 2 3 4 5 6 
#
# 1 105.8669 11.7819 19.9025 9.5713 9.2126 -10.3666
# 2 11.7819 51.1146 24.8537 3.8089 0.8773 6.1434
# 3 19.9025 24.8537 119.1551 3.6913 14.2229 -7.7671
# 4 9.5713 3.8089 3.6913 35.7453 -2.2633 -2.9580
# 5 9.2126 0.8773 14.2229 -2.2633 35.0049 -2.0931
# 6 -10.3666 6.1434 -7.7671 -2.9580 -2.0931 12.4342
#
#
#
# Elastic Compliance Matrix: (Units=1/GPa)
#
#
# Indices 1 2 3 4 5 6 
#
# 1 0.011244 -0.003573 -0.000130 -0.001919 -0.002331 0.010209
# 2 -0.003573 0.026016 -0.006229 -0.002748 0.001437 -0.020135
# 3 -0.000130 -0.006229 0.010735 0.000113 -0.003620 0.009092
# 4 -0.001919 -0.002748 0.000113 0.029561 0.002879 0.007345
# 5 -0.002331 0.001437 -0.003620 0.002879 0.030860 0.000965
# 6 0.010209 -0.020135 0.009092 0.007345 0.000965 0.106472
#
#
# Mechanical properties :
#
#
# Convention : Reuss Voigt Hill
#
# Bulk Modulus (GPa) = 35.54630 43.24586 39.39608
# Shear Modulus (GPa) = 20.48116 31.27679 25.87898
#
# Velocity S-wave (km/s) = 3.16277 3.90842 3.55519
# Velocity P-wave (km/s) = 5.54061 6.44120 6.00781
#
# Compressibility (1/GPa) = 0.02813232
#
# Stress axis : x y z
#
# Youngs Moduli (GPa) = 88.93750 38.43777 93.15679
#
# Poissons Ratio (x) = 0.13733 0.01209
# Poissons Ratio (y) = 0.31774 0.58025
# Poissons Ratio (z) = 0.01154 0.23942
#
# Static dielectric constant tensor:
#      x y z
#    x 1.684600 0.058550 -0.077040 
#    y 0.058550 1.735600 0.022420 
#    z -0.077040 0.022420 1.664570 
# 
# From -- ./inp_files/522196.got.cif
#   From: 2010.05.17/outbox.cif.g08.bks.cpg/sg2_262_cif.got.tgz:522196.got - 2010.06.03 11:33:40.
