data_PCOD9103407
_publ_section_title
;
Structure prediction by ZEFSAII (Michael W. Deem and Ramdas Pophale) SiO2 
 PCOD9103407
Probable space group: P -1
;
_chemical_formula_sum "Si O2"
_cell_formula_units_Z 16
_cell_length_a 11.943859
_cell_length_b 8.785830
_cell_length_c 12.792264
_cell_angle_alpha 77.143110
_cell_angle_beta 147.663534
_cell_angle_gamma 102.586896
_cell_volume 698.870798
_symmetry_space_group_name_H-M "P -1"
_symmetry_group_IT_number 2
_symmetry_cell_setting 'triclinic'
loop_
_space_group_symop_operation_xyz
x,y,z
-x,-y,-z
loop_
_atom_site_type_symbol
_atom_site_label
_atom_site_fract_x
_atom_site_fract_y
_atom_site_fract_z
Si Si1 0.236755 0.304958 0.290585
Si Si2 0.744122 0.007708 0.527969
Si Si3 0.818809 0.783091 0.181787
Si Si4 0.645278 0.427593 0.504067
Si Si5 0.017681 0.481904 0.394034
Si Si6 0.148455 0.150980 0.567299
Si Si7 0.308670 0.087185 0.143854
Si Si8 0.900848 0.234531 0.901346
O O1 0.239550 0.121182 0.348434
O O2 0.404081 0.373349 0.327749
O O3 0.313606 0.401644 0.437468
O O4 0.003097 0.332220 0.063644
O O5 0.715985 0.909765 0.412384
O O6 0.541708 0.105239 0.372010
O O7 0.955462 0.118441 0.667832
O O8 0.851281 0.602529 0.203282
O O9 0.754298 0.796629 0.251052
O O10 0.675322 0.862047 0.972086
O O11 0.759123 0.445723 0.481333
O O12 0.769840 0.320658 0.698933
O O13 0.000000 0.500000 0.500000
O O14 0.016240 0.296517 0.400856
O O15 0.000000 0.000000 0.500000
O O16 0.109738 0.172676 0.020559
O O17 0.240185 0.906738 0.139493
#
# Coordination Sequence:
#
# PCOD9103407 Si02
#       8
#     2   2   2   2   2   2   2   2
#     4  11  23  37  62  88 123 163 203 251 304 360
#     4  11  21  38  61  89 123 161 206 248 299 365
#     4  10  21  39  63  87 123 162 199 255 302 353
#     4  11  22  40  62  89 122 162 203 251 306 361
#     4  10  20  38  66  90 116 158 201 248 305 359
#     4   9  20  39  65  90 116 158 205 250 308 361
#     4  11  23  35  59  88 122 162 204 242 302 362
#     4  11  23  38  55  89 126 160 201 247 299 362
#
# _framework density 22.894072999999999
#
# number of rings (size 3 to 8) (size 9 to 14) (size 15 to 20)
#    0.000    1.500    5.000    0.375    1.750    1.000 
#    0.000    0.000    0.000   18.750    0.000    0.000 
#    0.000    0.000    0.000    0.000    0.000    0.000 
#
# Total GULP energy -89307.660315 kJ/mol
# GULP energy per Si atom -5581.728770 kJ/mol
# Density = 2.284197 g / cm^3
# Si number density = 22.894073 Si / 1000 Ang^3
#
#
#
# Elastic Constant Matrix: (Units=GPa)
#
#
# Indices 1 2 3 4 5 6 
#
# 1 92.0381 9.6513 -8.3210 -2.7865 -2.1080 11.9863
# 2 9.6513 115.8008 18.6546 -19.0508 -3.3635 12.8645
# 3 -8.3210 18.6546 72.2892 -3.8860 -5.7673 15.3347
# 4 -2.7865 -19.0508 -3.8860 33.3640 5.2361 -2.0641
# 5 -2.1080 -3.3635 -5.7673 5.2361 22.6276 -7.0800
# 6 11.9863 12.8645 15.3347 -2.0641 -7.0800 37.2790
#
#
#
# Elastic Compliance Matrix: (Units=1/GPa)
#
#
# Indices 1 2 3 4 5 6 
#
# 1 0.011787 -0.000803 0.002558 0.000530 0.000095 -0.004518
# 2 -0.000803 0.010162 -0.002012 0.005528 -0.001082 -0.002321
# 3 0.002558 -0.002012 0.016175 0.000239 0.002008 -0.006387
# 4 0.000530 0.005528 0.000239 0.034277 -0.007535 -0.001709
# 5 0.000095 -0.001082 0.002008 -0.007535 0.048923 0.008391
# 6 -0.004518 -0.002321 -0.006387 -0.001709 0.008391 0.033205
#
#
# Mechanical properties :
#
#
# Convention : Reuss Voigt Hill
#
# Bulk Modulus (GPa) = 26.58720 35.56646 31.07683
# Shear Modulus (GPa) = 29.83675 35.99701 32.91688
#
# Velocity S-wave (km/s) = 3.61397 3.96956 3.79593
# Velocity P-wave (km/s) = 5.39006 6.04804 5.72851
#
# Compressibility (1/GPa) = 0.03761208
#
# Stress axis : x y z
#
# Youngs Moduli (GPa) = 84.83835 98.40360 61.82411
#
# Poissons Ratio (x) = 0.07899 -0.15817
# Poissons Ratio (y) = 0.06810 0.12437
# Poissons Ratio (z) = -0.21705 0.19796
#
# Static dielectric constant tensor:
#      x y z
#    x 1.921210 -0.091930 -0.034190 
#    y -0.091930 1.913700 -0.018120 
#    z -0.034190 -0.018120 1.834620 
# 
# From -- ./inp_files/272646.got.cif
#   From: 2010.05.17/outbox.cif.g08.bks.cpg/sg2_137_cif.got.tgz:272646.got - 2010.06.03 11:33:40.
