data_PCOD9103791
_publ_section_title
;
Structure prediction by ZEFSAII (Michael W. Deem and Ramdas Pophale) SiO2 
 PCOD9103791
Probable space group: P -1
;
_chemical_formula_sum "Si O2"
_cell_formula_units_Z 14
_cell_length_a 9.226242
_cell_length_b 15.184890
_cell_length_c 9.019770
_cell_angle_alpha 80.376985
_cell_angle_beta 126.982662
_cell_angle_gamma 59.870192
_cell_volume 640.921894
_symmetry_space_group_name_H-M "P -1"
_symmetry_group_IT_number 2
_symmetry_cell_setting 'triclinic'
loop_
_space_group_symop_operation_xyz
x,y,z
-x,-y,-z
loop_
_atom_site_type_symbol
_atom_site_label
_atom_site_fract_x
_atom_site_fract_y
_atom_site_fract_z
Si Si1 0.054243 0.335763 0.595838
Si Si2 0.748160 0.793735 0.708731
Si Si3 0.124917 0.108528 0.778192
Si Si4 0.213531 0.639459 0.862688
Si Si5 0.529441 0.665371 0.201176
Si Si6 0.732585 0.153836 0.724515
Si Si7 0.565323 0.998413 0.294363
O O1 0.006164 0.316487 0.405271
O O2 0.783692 0.498017 0.424639
O O3 0.077572 0.233068 0.721542
O O4 0.322218 0.300208 0.775864
O O5 0.526007 0.808424 0.500932
O O6 0.717137 0.893745 0.556115
O O7 0.078989 0.648484 0.927925
O O8 0.644400 0.855299 0.791798
O O9 0.226728 0.044244 0.693765
O O10 0.855074 0.160005 0.657050
O O11 0.377439 0.999694 0.082351
O O12 0.500000 0.500000 0.000000
O O13 0.303274 0.706744 0.939448
O O14 0.379957 0.741424 0.242838
O O15 0.000000 0.000000 0.000000
#
# Coordination Sequence:
#
# PCOD9103791 Si02
#       7
#     2   2   2   2   2   2   2
#     4  10  21  42  66  92 125 167 217 269 313 376
#     4  11  21  42  62  92 133 169 214 257 319 391
#     4  11  22  40  61  97 130 162 216 270 314 371
#     4  10  20  38  68  94 122 167 217 261 310 385
#     4  10  22  40  67  92 124 172 215 256 325 382
#     4  12  24  38  63  96 130 174 212 257 325 387
#     4  10  22  37  64  90 127 171 205 270 319 373
#
# _framework density 21.843533999999998
#
# number of rings (size 3 to 8) (size 9 to 14) (size 15 to 20)
#    0.000    1.429    4.286    0.857    4.000    1.143 
#    2.571    0.000    0.000    2.571    0.000    0.000 
#    0.000    0.000    0.000    0.000    0.000    0.000 
#
# Total GULP energy -78004.669691 kJ/mol
# GULP energy per Si atom -5571.762121 kJ/mol
# Density = 2.179382 g / cm^3
# Si number density = 21.843534 Si / 1000 Ang^3
#
#
#
# Elastic Constant Matrix: (Units=GPa)
#
#
# Indices 1 2 3 4 5 6 
#
# 1 166.1095 67.8283 48.3066 3.8748 32.3309 -20.7120
# 2 67.8283 136.4988 35.5544 16.3746 5.8597 -38.1717
# 3 48.3066 35.5544 62.6182 19.3046 25.8582 -0.0072
# 4 3.8748 16.3746 19.3046 38.2264 0.0044 1.0945
# 5 32.3309 5.8597 25.8582 0.0044 43.3486 4.7800
# 6 -20.7120 -38.1717 -0.0072 1.0945 4.7800 40.1563
#
#
#
# Elastic Compliance Matrix: (Units=1/GPa)
#
#
# Indices 1 2 3 4 5 6 
#
# 1 0.009752 -0.002968 -0.004923 0.002694 -0.004227 0.002638
# 2 -0.002968 0.013641 -0.005498 -0.003088 0.002411 0.011232
# 3 -0.004923 -0.005498 0.033244 -0.013771 -0.014794 -0.005623
# 4 0.002694 -0.003088 -0.013771 0.034258 0.006985 -0.003313
# 5 -0.004227 0.002411 -0.014794 0.006985 0.035191 -0.004270
# 6 0.002638 0.011232 -0.005623 -0.003313 -0.004270 0.037538
#
#
# Mechanical properties :
#
#
# Convention : Reuss Voigt Hill
#
# Bulk Modulus (GPa) = 33.49097 74.28943 53.89020
# Shear Modulus (GPa) = 24.95571 38.58207 31.76889
#
# Velocity S-wave (km/s) = 3.38372 4.20729 3.81778
# Velocity P-wave (km/s) = 5.53458 7.59509 6.64518
#
# Compressibility (1/GPa) = 0.02985880
#
# Stress axis : x y z
#
# Youngs Moduli (GPa) = 102.53795 73.30877 30.08092
#
# Poissons Ratio (x) = 0.21757 0.14809
# Poissons Ratio (y) = 0.30432 0.16539
# Poissons Ratio (z) = 0.50480 0.40307
#
# Static dielectric constant tensor:
#      x y z
#    x 1.812650 -0.035520 0.000330 
#    y -0.035520 1.905700 -0.120100 
#    z 0.000330 -0.120100 1.926590 
# 
# From -- ./inp_files/202218.got.cif
#   From: 2010.05.17/outbox.cif.g08.bks.cpg/sg2_102_cif.got.tgz:202218.got - 2010.06.03 11:33:40.
