data_PCOD9103244
_publ_section_title
;
Structure prediction by ZEFSAII (Michael W. Deem and Ramdas Pophale) SiO2 
 PCOD9103244
Probable space group: P -1
;
_chemical_formula_sum "Si O2"
_cell_formula_units_Z 16
_cell_length_a 30.503906
_cell_length_b 18.035365
_cell_length_c 5.337356
_cell_angle_alpha 95.756814
_cell_angle_beta 95.574816
_cell_angle_gamma 15.833976
_cell_volume 797.140147
_symmetry_space_group_name_H-M "P -1"
_symmetry_group_IT_number 2
_symmetry_cell_setting 'triclinic'
loop_
_space_group_symop_operation_xyz
x,y,z
-x,-y,-z
loop_
_atom_site_type_symbol
_atom_site_label
_atom_site_fract_x
_atom_site_fract_y
_atom_site_fract_z
Si Si1 0.315454 0.275199 0.956457
Si Si2 0.998015 0.627509 0.462186
Si Si3 0.300399 0.139852 0.115398
Si Si4 0.994307 0.798105 0.686830
Si Si5 0.350677 0.434403 0.731740
Si Si6 0.145700 0.268815 0.805571
Si Si7 0.206556 0.595951 0.212191
Si Si8 0.116271 0.939959 0.789670
O O1 0.187825 0.495162 0.732992
O O2 0.315454 0.186868 0.962487
O O3 0.236089 0.458694 0.180661
O O4 0.500000 0.000000 0.000000
O O5 0.131250 0.427594 0.257493
O O6 0.961574 0.763684 0.623561
O O7 0.087392 0.423175 0.620802
O O8 0.847781 0.824439 0.337829
O O9 0.457715 0.884581 0.286282
O O10 0.291036 0.074688 0.954126
O O11 0.924828 0.952917 0.458058
O O12 0.911521 0.963664 0.949787
O O13 0.276059 0.519333 0.472151
O O14 0.287859 0.621064 0.773356
O O15 0.289940 0.492729 0.973211
O O16 0.000000 0.500000 0.000000
O O17 0.014543 0.914109 0.205669
#
# Coordination Sequence:
#
# PCOD9103244 Si02
#       8
#     2   2   2   2   2   2   2   2
#     4  11  22  38  57  92 132 163 204 250 322 364
#     4  10  20  38  65  94 122 154 202 252 331 373
#     4  11  23  37  61  93 134 158 203 254 325 375
#     4  11  23  41  64  89 122 165 208 260 297 374
#     4  12  25  40  61  86 125 172 214 262 296 361
#     4   9  20  38  62  95 121 155 191 257 321 394
#     4  11  23  39  59  85 121 173 218 260 296 353
#     4  11  24  42  61  85 121 172 228 250 295 349
#
# _framework density 20.071753000000001
#
# number of rings (size 3 to 8) (size 9 to 14) (size 15 to 20)
#    0.000    1.250    2.500    4.500    5.250    0.500 
#    0.000    0.000    0.000    1.500    0.000    0.000 
#    0.000    0.000    0.000    0.000    0.000    0.000 
#
# Total GULP energy -89221.511713 kJ/mol
# GULP energy per Si atom -5576.344482 kJ/mol
# Density = 2.002607 g / cm^3
# Si number density = 20.071753 Si / 1000 Ang^3
#
#
#
# Elastic Constant Matrix: (Units=GPa)
#
#
# Indices 1 2 3 4 5 6 
#
# 1 103.0371 17.2506 48.3539 -2.2315 23.9818 5.7623
# 2 17.2506 58.9156 14.3863 -3.8554 7.3010 20.4191
# 3 48.3539 14.3863 123.3736 -0.7823 22.0513 14.6658
# 4 -2.2315 -3.8554 -0.7823 12.3982 6.1010 -1.5597
# 5 23.9818 7.3010 22.0513 6.1010 38.1404 3.9120
# 6 5.7623 20.4191 14.6658 -1.5597 3.9120 16.9833
#
#
#
# Elastic Compliance Matrix: (Units=1/GPa)
#
#
# Indices 1 2 3 4 5 6 
#
# 1 0.013765 -0.003741 -0.004382 0.005094 -0.006799 0.005646
# 2 -0.003741 0.030964 0.002718 0.005520 -0.002204 -0.037291
# 3 -0.004382 0.002718 0.011403 0.001116 -0.003435 -0.010734
# 4 0.005094 0.005520 0.001116 0.093863 -0.020327 0.003974
# 5 -0.006799 -0.002204 -0.003435 -0.020327 0.036392 -0.002326
# 6 0.005646 -0.037291 -0.010734 0.003974 -0.002326 0.111970
#
#
# Mechanical properties :
#
#
# Convention : Reuss Voigt Hill
#
# Bulk Modulus (GPa) = 22.06520 49.47866 35.77193
# Shear Modulus (GPa) = 15.41891 27.19341 21.30616
#
# Velocity S-wave (km/s) = 2.77463 3.68477 3.26160
# Velocity P-wave (km/s) = 4.61322 6.54276 5.66081
#
# Compressibility (1/GPa) = 0.04532023
#
# Stress axis : x y z
#
# Youngs Moduli (GPa) = 72.64646 32.29561 87.69492
#
# Poissons Ratio (x) = 0.12083 0.38431
# Poissons Ratio (y) = 0.27179 -0.23831
# Poissons Ratio (z) = 0.31836 -0.08776
#
# Static dielectric constant tensor:
#      x y z
#    x 1.716090 0.005500 0.023610 
#    y 0.005500 1.724370 -0.011170 
#    z 0.023610 -0.011170 1.758500 
# 
# From -- ./inp_files/70685.got.cif
#   From: 2010.05.17/outbox.cif.g08.bks.cpg/sg2_36_cif.got.tgz:70685.got - 2010.06.03 11:33:40.
