data_PCOD9103355
_publ_section_title
;
Structure prediction by ZEFSAII (Michael W. Deem and Ramdas Pophale) SiO2 
 PCOD9103355
Probable space group: P -1
;
_chemical_formula_sum "Si O2"
_cell_formula_units_Z 16
_cell_length_a 12.106148
_cell_length_b 11.998668
_cell_length_c 12.235523
_cell_angle_alpha 60.239918
_cell_angle_beta 134.050395
_cell_angle_gamma 83.747106
_cell_volume 760.607282
_symmetry_space_group_name_H-M "P -1"
_symmetry_group_IT_number 2
_symmetry_cell_setting 'triclinic'
loop_
_space_group_symop_operation_xyz
x,y,z
-x,-y,-z
loop_
_atom_site_type_symbol
_atom_site_label
_atom_site_fract_x
_atom_site_fract_y
_atom_site_fract_z
Si Si1 0.590619 0.957634 0.325996
Si Si2 0.265047 0.445478 0.126790
Si Si3 0.505554 0.471588 0.887565
Si Si4 0.040034 0.877919 0.304628
Si Si5 0.117672 0.202958 0.945615
Si Si6 0.824503 0.561479 0.690037
Si Si7 0.288333 0.989628 0.393174
Si Si8 0.206610 0.947662 0.728701
O O1 0.636271 0.779715 0.424524
O O2 0.324872 0.145346 0.055392
O O3 0.688442 0.932596 0.525171
O O4 0.717770 0.972928 0.323412
O O5 0.323940 0.537315 0.055044
O O6 0.240149 0.475928 0.225664
O O7 0.473454 0.223254 0.359212
O O8 0.042900 0.513432 0.895204
O O9 0.260319 0.658542 0.585981
O O10 0.500000 0.500000 0.000000
O O11 0.590186 0.276836 0.021131
O O12 0.117577 0.978061 0.305119
O O13 0.872888 0.966639 0.247406
O O14 0.941612 0.886985 0.119562
O O15 0.211144 0.109280 0.174380
O O16 0.902982 0.421387 0.715308
O O17 0.000000 0.000000 0.500000
#
# Coordination Sequence:
#
# PCOD9103355 Si02
#       8
#     2   2   2   2   2   2   2   2
#     4  12  24  42  72  99 130 171 230 270 317 393
#     4  10  20  38  66 103 124 166 225 274 314 382
#     4  11  23  42  69  96 129 167 225 272 316 385
#     4  11  27  44  66  99 135 175 218 269 338 384
#     4  12  26  43  63  99 143 173 208 275 340 389
#     4  11  23  37  66  98 134 168 213 271 332 378
#     4  11  20  44  68  98 132 174 221 274 316 395
#     4  12  23  43  73  97 125 174 229 273 315 388
#
# _framework density 21.035823000000001
#
# number of rings (size 3 to 8) (size 9 to 14) (size 15 to 20)
#    0.000    0.750    5.000    3.750    1.750    1.500 
#    0.000    2.500    0.000    0.000    0.000    0.000 
#    0.000    0.000    0.000    0.000    0.000    0.000 
#
# Total GULP energy -89539.967486 kJ/mol
# GULP energy per Si atom -5596.247968 kJ/mol
# Density = 2.098794 g / cm^3
# Si number density = 21.035823 Si / 1000 Ang^3
#
#
#
# Elastic Constant Matrix: (Units=GPa)
#
#
# Indices 1 2 3 4 5 6 
#
# 1 128.8396 18.6034 21.2342 -7.4785 -3.7657 -15.3056
# 2 18.6034 83.5786 15.2113 -13.3909 -1.2835 -15.4763
# 3 21.2342 15.2113 21.7355 -13.9277 2.7480 2.7474
# 4 -7.4785 -13.3909 -13.9277 21.9139 1.4153 5.8122
# 5 -3.7657 -1.2835 2.7480 1.4153 18.3844 -9.6847
# 6 -15.3056 -15.4763 2.7474 5.8122 -9.6847 23.2393
#
#
#
# Elastic Compliance Matrix: (Units=1/GPa)
#
#
# Indices 1 2 3 4 5 6 
#
# 1 -0.176303 -0.160035 0.841780 0.608270 -0.601967 -0.725199
# 2 -0.160035 -0.122519 0.725508 0.529772 -0.517706 -0.621008
# 3 0.841780 0.725508 -3.824527 -2.762248 2.762571 3.331812
# 4 0.608270 0.529772 -2.762248 -1.941336 1.984221 2.392406
# 5 -0.601967 -0.517706 2.762571 1.984221 -1.915124 -2.362187
# 6 -0.725199 -0.621008 3.331812 2.392406 -2.362187 -2.824806
#
#
# Mechanical properties :
#
#
# Convention : Reuss Voigt Hill
#
# Bulk Modulus (GPa) = -0.76403 38.25015 18.74306
# Shear Modulus (GPa) = -0.35574 24.64785 12.14606
#
# Velocity S-wave (km/s) = -0.41168 3.42674 2.40552
# Velocity P-wave (km/s) = 0.76809 5.82061 4.07980
#
# Compressibility (1/GPa) = -1.30884268
#
# Stress axis : x y z
#
# Youngs Moduli (GPa) = -5.67207 -8.16197 -0.26147
#
# Poissons Ratio (x) = -1.30620 0.22010
# Poissons Ratio (y) = -0.90773 0.18970
# Poissons Ratio (z) = 4.77463 5.92158
#
# Static dielectric constant tensor:
#      x y z
#    x 1.758830 -0.000640 0.025440 
#    y -0.000640 1.740820 -0.017120 
#    z 0.025440 -0.017120 1.778240 
# 
# From -- ./inp_files/272846.got.cif
#   From: 2010.05.17/outbox.cif.g08.bks.cpg/sg2_137_cif.got.tgz:272846.got - 2010.06.03 11:33:40.
