data_PCOD9103310
_publ_section_title
;
Structure prediction by ZEFSAII (Michael W. Deem and Ramdas Pophale) SiO2 
 PCOD9103310
Probable space group: P -1
;
_chemical_formula_sum "Si O2"
_cell_formula_units_Z 16
_cell_length_a 9.003991
_cell_length_b 12.590609
_cell_length_c 8.085840
_cell_angle_alpha 52.618764
_cell_angle_beta 112.017997
_cell_angle_gamma 115.420108
_cell_volume 649.473321
_symmetry_space_group_name_H-M "P -1"
_symmetry_group_IT_number 2
_symmetry_cell_setting 'triclinic'
loop_
_space_group_symop_operation_xyz
x,y,z
-x,-y,-z
loop_
_atom_site_type_symbol
_atom_site_label
_atom_site_fract_x
_atom_site_fract_y
_atom_site_fract_z
Si Si1 0.467448 0.724999 0.206018
Si Si2 0.174614 0.419168 0.710724
Si Si3 0.644708 0.805893 0.890494
Si Si4 0.005214 0.025951 0.222809
Si Si5 0.296213 0.716360 0.654896
Si Si6 0.701304 0.581936 0.613738
Si Si7 0.822637 0.199130 0.796864
Si Si8 0.008113 0.779359 0.662554
O O1 0.578017 0.679957 0.439418
O O2 0.396173 0.574135 0.230687
O O3 0.316052 0.778774 0.156202
O O4 0.578122 0.830659 0.021463
O O5 0.235293 0.563996 0.693545
O O6 0.219598 0.432038 0.521677
O O7 0.980400 0.337519 0.728716
O O8 0.274779 0.319953 0.924884
O O9 0.796889 0.921207 0.767862
O O10 0.484564 0.761340 0.750125
O O11 0.964247 0.115888 0.273441
O O12 0.960289 0.865667 0.406046
O O13 0.903839 0.074900 0.989149
O O14 0.267324 0.814508 0.402851
O O15 0.169715 0.731462 0.731867
O O16 0.847200 0.650066 0.736371
#
# Coordination Sequence:
#
# PCOD9103310 Si02
#       8
#     2   2   2   2   2   2   2   2
#     4  10  21  37  64  97 136 155 199 257 321 380
#     4  10  20  40  60  98 135 160 199 259 316 380
#     4  10  24  41  63  94 131 171 201 256 313 372
#     4  10  26  47  63  86 128 167 221 262 302 360
#     4  12  22  37  68  97 125 161 213 252 320 374
#     4  10  20  38  65  97 126 165 200 256 320 371
#     4  11  21  39  64  94 130 162 207 262 307 374
#     4  11  24  44  69  87 120 173 219 258 307 365
#
# _framework density 24.635344
#
# number of rings (size 3 to 8) (size 9 to 14) (size 15 to 20)
#    0.000    1.500    2.500    2.250    1.750    3.000 
#    0.000    5.000    0.000    0.000    0.000    0.000 
#    0.000    0.000    0.000    0.000    0.000    0.000 
#
# Total GULP energy -89675.523411 kJ/mol
# GULP energy per Si atom -5604.720213 kJ/mol
# Density = 2.457927 g / cm^3
# Si number density = 24.635344 Si / 1000 Ang^3
#
#
#
# Elastic Constant Matrix: (Units=GPa)
#
#
# Indices 1 2 3 4 5 6 
#
# 1 162.9914 31.7230 18.0787 4.1836 17.3876 3.9476
# 2 31.7230 70.2052 4.0928 3.2033 9.4360 -3.0499
# 3 18.0787 4.0928 60.0191 11.3375 15.6446 11.6021
# 4 4.1836 3.2033 11.3375 27.2727 10.7474 5.0227
# 5 17.3876 9.4360 15.6446 10.7474 43.5870 5.1583
# 6 3.9476 -3.0499 11.6021 5.0227 5.1583 39.3260
#
#
#
# Elastic Compliance Matrix: (Units=1/GPa)
#
#
# Indices 1 2 3 4 5 6 
#
# 1 0.007048 -0.002904 -0.001525 0.000647 -0.001756 -0.000335
# 2 -0.002904 0.015988 0.000213 -0.000935 -0.002373 0.001899
# 3 -0.001525 0.000213 0.020267 -0.005489 -0.004829 -0.004475
# 4 0.000647 -0.000935 -0.005489 0.042757 -0.008286 -0.002892
# 5 -0.001756 -0.002373 -0.004829 -0.008286 0.028076 -0.001208
# 6 -0.000335 0.001899 -0.004475 -0.002892 -0.001208 0.027458
#
#
# Mechanical properties :
#
#
# Convention : Reuss Voigt Hill
#
# Bulk Modulus (GPa) = 28.67760 44.55607 36.61683
# Shear Modulus (GPa) = 30.93097 37.99188 34.46142
#
# Velocity S-wave (km/s) = 3.54722 3.93131 3.74419
# Velocity P-wave (km/s) = 5.33321 6.22354 5.79550
#
# Compressibility (1/GPa) = 0.03487043
#
# Stress axis : x y z
#
# Youngs Moduli (GPa) = 141.87482 62.54691 49.34167
#
# Poissons Ratio (x) = 0.18165 0.07524
# Poissons Ratio (y) = 0.41203 -0.01049
# Poissons Ratio (z) = 0.21635 -0.01330
#
# Static dielectric constant tensor:
#      x y z
#    x 1.946440 -0.027380 -0.038390 
#    y -0.027380 1.917780 0.026970 
#    z -0.038390 0.026970 1.999760 
# 
# From -- ./inp_files/205762.got.cif
#   From: 2010.05.17/outbox.cif.g08.bks.cpg/sg2_103_cif.got.tgz:205762.got - 2010.06.03 11:33:40.
