data_PCOD9103929
_publ_section_title
;
Structure prediction by ZEFSAII (Michael W. Deem and Ramdas Pophale) SiO2 
 PCOD9103929
Probable space group: P -1
;
_chemical_formula_sum "Si O2"
_cell_formula_units_Z 15
_cell_length_a 20.584270
_cell_length_b 20.085505
_cell_length_c 8.475746
_cell_angle_alpha 137.538844
_cell_angle_beta 128.584084
_cell_angle_gamma 18.248511
_cell_volume 689.941987
_symmetry_space_group_name_H-M "P -1"
_symmetry_group_IT_number 2
_symmetry_cell_setting 'triclinic'
loop_
_space_group_symop_operation_xyz
x,y,z
-x,-y,-z
loop_
_atom_site_type_symbol
_atom_site_label
_atom_site_fract_x
_atom_site_fract_y
_atom_site_fract_z
Si Si1 0.941649 0.284709 0.545727
Si Si2 0.354321 0.558560 0.536832
Si Si3 0.143896 0.063932 0.810035
Si Si4 0.022762 0.372441 0.401993
Si Si5 0.382503 0.227421 0.280176
Si Si6 0.659716 0.059565 0.625637
Si Si7 0.000000 0.000000 0.500000
Si Si8 0.608748 0.469719 0.825847
O O1 0.820049 0.313057 0.406963
O O2 0.754234 0.569963 0.712037
O O3 0.032353 0.202920 0.714971
O O4 0.147068 0.079008 0.381648
O O5 0.418042 0.597532 0.758188
O O6 0.282617 0.647038 0.395873
O O7 0.588146 0.242048 0.330702
O O8 0.059628 0.052678 0.727534
O O9 0.073791 0.228622 0.106455
O O10 0.000000 0.500000 0.500000
O O11 0.797340 0.600178 0.555582
O O12 0.226026 0.141622 0.431318
O O13 0.555736 0.113810 0.419055
O O14 0.500000 0.000000 0.000000
O O15 0.475856 0.332389 0.904043
O O16 0.830980 0.178922 0.722828
#
# Coordination Sequence:
#
# PCOD9103929 Si02
#       8
#     2   2   2   2   2   2   1   2
#     4  11  25  42  68  97 137 183 223 278 339 402
#     4  10  21  39  68 101 132 179 218 279 333 404
#     4  11  22  41  71 101 136 175 232 278 337 405
#     4  11  27  43  72 104 131 175 233 288 336 410
#     4  11  28  47  66  95 137 183 224 282 346 402
#     4  11  25  47  67  99 140 178 222 286 337 409
#     4  10  20  38  70 102 136 178 216 282 334 398
#     4  10  20  40  67 100 138 173 227 271 339 400
#
# _framework density 21.740959
#
# number of rings (size 3 to 8) (size 9 to 14) (size 15 to 20)
#    0.000    1.333    2.667    1.600    5.600    2.133 
#    0.000    7.333    0.000    0.000    0.000    0.000 
#    0.000    0.000    0.000    0.000    0.000    0.000 
#
# Total GULP energy -83695.480033 kJ/mol
# GULP energy per Si atom -5579.698669 kJ/mol
# Density = 2.169148 g / cm^3
# Si number density = 21.740959 Si / 1000 Ang^3
#
#
#
# Elastic Constant Matrix: (Units=GPa)
#
#
# Indices 1 2 3 4 5 6 
#
# 1 104.8204 52.9601 31.2828 3.0613 20.9674 5.4705
# 2 52.9601 130.9516 54.4947 11.2911 11.3987 4.7147
# 3 31.2828 54.4947 123.3185 14.1144 28.7938 5.3842
# 4 3.0613 11.2911 14.1144 22.4866 3.2347 -0.4664
# 5 20.9674 11.3987 28.7938 3.2347 23.2562 -3.2303
# 6 5.4705 4.7147 5.3842 -0.4664 -3.2303 34.7196
#
#
#
# Elastic Compliance Matrix: (Units=1/GPa)
#
#
# Indices 1 2 3 4 5 6 
#
# 1 0.014554 -0.005499 0.001802 0.001497 -0.013288 -0.003042
# 2 -0.005499 0.011566 -0.004714 -0.002895 0.005599 0.000509
# 3 0.001802 -0.004714 0.014367 -0.004529 -0.016959 -0.003510
# 4 0.001497 -0.002895 -0.004529 0.048723 -0.000901 0.001430
# 5 -0.013288 0.005599 -0.016959 -0.000901 0.074875 0.010918
# 6 -0.003042 0.000509 -0.003510 0.001430 0.010918 0.030792
#
#
# Mechanical properties :
#
#
# Convention : Reuss Voigt Hill
#
# Bulk Modulus (GPa) = 42.25713 70.72951 56.49332
# Shear Modulus (GPa) = 22.77012 30.78267 26.77640
#
# Velocity S-wave (km/s) = 3.23977 3.76691 3.51324
# Velocity P-wave (km/s) = 5.78564 7.17795 6.51907
#
# Compressibility (1/GPa) = 0.02366465
#
# Stress axis : x y z
#
# Youngs Moduli (GPa) = 68.71161 86.46060 69.60534
#
# Poissons Ratio (x) = 0.47542 -0.12544
# Poissons Ratio (y) = 0.37782 0.32814
# Poissons Ratio (z) = -0.12383 0.40760
#
# Static dielectric constant tensor:
#      x y z
#    x 1.823030 0.014550 -0.026360 
#    y 0.014550 1.969800 0.029150 
#    z -0.026360 0.029150 1.753580 
# 
# From -- ./inp_files/342188.got.cif
#   From: 2010.05.17/outbox.cif.g08.bks.cpg/sg2_172_cif.got.tgz:342188.got - 2010.06.03 11:33:40.
