data_PCOD9103867
_publ_section_title
;
Structure prediction by ZEFSAII (Michael W. Deem and Ramdas Pophale) SiO2 
 PCOD9103867
Probable space group: P -1
;
_chemical_formula_sum "Si O2"
_cell_formula_units_Z 16
_cell_length_a 8.201035
_cell_length_b 14.032106
_cell_length_c 9.026996
_cell_angle_alpha 70.594070
_cell_angle_beta 83.834442
_cell_angle_gamma 41.785159
_cell_volume 636.386211
_symmetry_space_group_name_H-M "P -1"
_symmetry_group_IT_number 2
_symmetry_cell_setting 'triclinic'
loop_
_space_group_symop_operation_xyz
x,y,z
-x,-y,-z
loop_
_atom_site_type_symbol
_atom_site_label
_atom_site_fract_x
_atom_site_fract_y
_atom_site_fract_z
Si Si1 0.084382 0.814703 0.986492
Si Si2 0.204247 0.866804 0.230503
Si Si3 0.654297 0.522881 0.407862
Si Si4 0.652160 0.802573 0.503311
Si Si5 0.142170 0.511108 0.296058
Si Si6 0.283348 0.164926 0.853893
Si Si7 0.337859 0.629500 0.770383
Si Si8 0.885329 0.909636 0.485524
O O1 0.252957 0.677456 0.923696
O O2 0.219782 0.829570 0.074620
O O3 0.950629 0.801386 0.118820
O O4 0.876949 0.979427 0.838442
O O5 0.991641 0.905258 0.323801
O O6 0.471882 0.704206 0.345415
O O7 0.500000 0.500000 0.500000
O O8 0.861692 0.446141 0.554006
O O9 0.689269 0.465047 0.266602
O O10 0.798110 0.634581 0.626704
O O11 0.629831 0.847590 0.311420
O O12 0.791080 0.837150 0.536279
O O13 0.368049 0.917636 0.529766
O O14 0.386577 0.451982 0.235495
O O15 0.872018 0.661617 0.170393
O O16 0.500000 0.000000 0.000000
O O17 0.131062 0.796416 0.622113
#
# Coordination Sequence:
#
# PCOD9103867 Si02
#       8
#     2   2   2   2   2   2   2   2
#     4  11  25  42  67 102 147 183 222 284 368 418
#     4  11  22  42  69 103 138 183 233 291 346 414
#     4  10  20  38  69 103 134 167 235 299 340 387
#     4  11  25  43  71 103 142 190 237 285 344 426
#     4  11  24  44  74 104 135 182 249 296 339 417
#     4  12  26  44  64  97 144 190 223 279 366 432
#     4  11  23  41  74 106 137 179 235 303 346 403
#     4  11  22  43  72 105 142 178 243 294 341 406
#
# _framework density 25.141964999999999
#
# number of rings (size 3 to 8) (size 9 to 14) (size 15 to 20)
#    0.000    1.000    3.750    4.125    3.500    3.000 
#    0.000    0.000    0.000    4.500    0.000    0.000 
#    0.000    0.000    0.000    0.000    0.000    0.000 
#
# Total GULP energy -89344.337973 kJ/mol
# GULP energy per Si atom -5584.021123 kJ/mol
# Density = 2.508474 g / cm^3
# Si number density = 25.141965 Si / 1000 Ang^3
#
#
#
# Elastic Constant Matrix: (Units=GPa)
#
#
# Indices 1 2 3 4 5 6 
#
# 1 82.0979 38.3537 27.1885 -1.3535 -19.0454 -12.9419
# 2 38.3537 162.5960 76.8939 -8.4509 -11.2613 -6.9707
# 3 27.1885 76.8939 129.6126 -27.4785 -10.4715 -11.5376
# 4 -1.3535 -8.4509 -27.4785 65.5260 -1.4395 -2.1186
# 5 -19.0454 -11.2613 -10.4715 -1.4395 30.8898 -7.3554
# 6 -12.9419 -6.9707 -11.5376 -2.1186 -7.3554 42.7008
#
#
#
# Elastic Compliance Matrix: (Units=1/GPa)
#
#
# Indices 1 2 3 4 5 6 
#
# 1 0.017229 -0.002808 -0.000414 0.000275 0.011035 0.006566
# 2 -0.002808 0.009136 -0.005174 -0.001087 -0.000416 -0.000883
# 3 -0.000414 -0.005174 0.012388 0.004687 0.003022 0.003130
# 4 0.000275 -0.001087 0.004687 0.017234 0.002761 0.002503
# 5 0.011035 -0.000416 0.003022 0.002761 0.042947 0.011628
# 6 0.006566 -0.000883 0.003130 0.002503 0.011628 0.028238
#
#
# Mechanical properties :
#
#
# Convention : Reuss Voigt Hill
#
# Bulk Modulus (GPa) = 45.53399 73.24208 59.38803
# Shear Modulus (GPa) = 33.05049 43.28135 38.16592
#
# Velocity S-wave (km/s) = 3.62961 4.15357 3.90040
# Velocity P-wave (km/s) = 5.97625 7.22479 6.62997
#
# Compressibility (1/GPa) = 0.02196162
#
# Stress axis : x y z
#
# Youngs Moduli (GPa) = 58.04121 109.45435 80.72442
#
# Poissons Ratio (x) = 0.30739 0.03340
# Poissons Ratio (y) = 0.16300 0.41764
# Poissons Ratio (z) = 0.02401 0.56628
#
# Static dielectric constant tensor:
#      x y z
#    x 2.054580 0.023630 0.057230 
#    y 0.023630 2.117010 -0.053890 
#    z 0.057230 -0.053890 2.064500 
# 
# From -- ./inp_files/397174.got.cif
#   From: 2010.05.17/outbox.cif.g08.bks.cpg/sg2_199_cif.got.tgz:397174.got - 2010.06.03 11:33:40.
