data_PCOD9103384
_publ_section_title
;
Structure prediction by ZEFSAII (Michael W. Deem and Ramdas Pophale) SiO2 
 PCOD9103384
Probable space group: P -1
;
_chemical_formula_sum "Si O2"
_cell_formula_units_Z 16
_cell_length_a 5.598309
_cell_length_b 5.051858
_cell_length_c 21.393837
_cell_angle_alpha 94.830468
_cell_angle_beta 88.663792
_cell_angle_gamma 95.312941
_cell_volume 600.244840
_symmetry_space_group_name_H-M "P -1"
_symmetry_group_IT_number 2
_symmetry_cell_setting 'triclinic'
loop_
_space_group_symop_operation_xyz
x,y,z
-x,-y,-z
loop_
_atom_site_type_symbol
_atom_site_label
_atom_site_fract_x
_atom_site_fract_y
_atom_site_fract_z
Si Si1 0.120412 0.022117 0.372764
Si Si2 0.750750 0.985492 0.868286
Si Si3 0.982049 0.819886 0.746519
Si Si4 0.461784 0.558473 0.593842
Si Si5 0.445563 0.636405 0.288696
Si Si6 0.665622 0.463707 0.172579
Si Si7 0.795031 0.263838 0.508955
Si Si8 0.050857 0.493448 0.072372
O O1 0.305095 0.854282 0.329161
O O2 0.082239 0.898738 0.439839
O O3 0.934811 0.062674 0.318794
O O4 0.274732 0.296443 0.393251
O O5 0.886998 0.022673 0.801517
O O6 0.517153 0.782985 0.853633
O O7 0.896880 0.798771 0.909408
O O8 0.741691 0.275215 0.904614
O O9 0.752507 0.609270 0.730155
O O10 0.169151 0.665879 0.780047
O O11 0.376104 0.453348 0.659601
O O12 0.537896 0.321212 0.543854
O O13 0.302944 0.757597 0.562543
O O14 0.558150 0.689483 0.220767
O O15 0.821253 0.566670 0.114945
O O16 0.000000 0.500000 0.500000
O O17 0.000000 0.500000 0.000000
#
# Coordination Sequence:
#
# PCOD9103384 Si02
#       8
#     2   2   2   2   2   2   2   2
#     4  10  20  38  66  87 127 163 215 281 327 400
#     4  10  24  44  70 104 144 180 238 286 343 416
#     4   9  21  40  60  94 129 170 223 277 337 402
#     4   9  20  39  57  85 122 157 214 273 333 391
#     4   9  20  40  61  92 125 168 222 282 335 413
#     4  10  23  44  70  99 140 186 224 283 353 407
#     4  10  21  38  58  84 123 164 209 267 335 405
#     4  11  25  47  73 107 147 185 233 290 341 413
#
# _framework density 26.655788999999999
#
# number of rings (size 3 to 8) (size 9 to 14) (size 15 to 20)
#    0.000    2.250    0.000    0.750    5.250    6.500 
#    9.000    8.750    0.000    0.000    0.000    0.000 
#    0.000    0.000    0.000    0.000    0.000    0.000 
#
# Total GULP energy -89399.494310 kJ/mol
# GULP energy per Si atom -5587.468394 kJ/mol
# Density = 2.659512 g / cm^3
# Si number density = 26.655789 Si / 1000 Ang^3
#
#
#
# Elastic Constant Matrix: (Units=GPa)
#
#
# Indices 1 2 3 4 5 6 
#
# 1 46.0112 1.8306 47.2935 -10.9575 -2.9237 -4.0509
# 2 1.8306 72.6026 27.6289 -8.4460 -6.6677 1.2881
# 3 47.2935 27.6289 244.8518 -18.4356 -10.8294 1.8198
# 4 -10.9575 -8.4460 -18.4356 40.3198 1.1088 -0.6772
# 5 -2.9237 -6.6677 -10.8294 1.1088 36.2645 -5.0412
# 6 -4.0509 1.2881 1.8198 -0.6772 -5.0412 42.8242
#
#
#
# Elastic Compliance Matrix: (Units=1/GPa)
#
#
# Indices 1 2 3 4 5 6 
#
# 1 0.028895 0.002053 -0.005334 0.005859 0.001373 0.003153
# 2 0.002053 0.014933 -0.001768 0.002816 0.002316 0.000137
# 3 -0.005334 -0.001768 0.005398 0.000618 0.000757 -0.000582
# 4 0.005859 0.002816 0.000618 0.027269 0.000470 0.000930
# 5 0.001373 0.002316 0.000757 0.000470 0.028800 0.003426
# 6 0.003153 0.000137 -0.000582 0.000930 0.003426 0.024088
#
#
# Mechanical properties :
#
#
# Convention : Reuss Voigt Hill
#
# Bulk Modulus (GPa) = 25.55743 57.44129 41.49936
# Shear Modulus (GPa) = 32.78171 42.99588 37.88880
#
# Velocity S-wave (km/s) = 3.51068 4.02058 3.77425
# Velocity P-wave (km/s) = 5.10313 6.56882 5.88181
#
# Compressibility (1/GPa) = 0.03912756
#
# Stress axis : x y z
#
# Youngs Moduli (GPa) = 34.60761 66.96774 185.24432
#
# Poissons Ratio (x) = -0.13750 0.98817
# Poissons Ratio (y) = -0.07106 0.32753
# Poissons Ratio (z) = 0.18461 0.11841
#
# Static dielectric constant tensor:
#      x y z
#    x 2.247510 -0.118480 -0.020360 
#    y -0.118480 2.172700 0.012830 
#    z -0.020360 0.012830 2.090860 
# 
# From -- ./inp_files/13745.got.cif
#   From: 2010.05.17/outbox.cif.g08.bks.cpg/sg2_7_cif.got.tgz:13745.got - 2010.06.03 11:33:40.
