data_PCOD9103063
_publ_section_title
;
Structure prediction by ZEFSAII (Michael W. Deem and Ramdas Pophale) SiO2 
 PCOD9103063
Probable space group: P -1
;
_chemical_formula_sum "Si O2"
_cell_formula_units_Z 14
_cell_length_a 9.924535
_cell_length_b 6.322488
_cell_length_c 11.624031
_cell_angle_alpha 121.591771
_cell_angle_beta 91.733048
_cell_angle_gamma 112.627383
_cell_volume 547.978567
_symmetry_space_group_name_H-M "P -1"
_symmetry_group_IT_number 2
_symmetry_cell_setting 'triclinic'
loop_
_space_group_symop_operation_xyz
x,y,z
-x,-y,-z
loop_
_atom_site_type_symbol
_atom_site_label
_atom_site_fract_x
_atom_site_fract_y
_atom_site_fract_z
Si Si1 0.606941 0.489468 0.101934
Si Si2 0.775636 0.098608 0.398384
Si Si3 0.123969 0.409978 0.012309
Si Si4 0.610231 0.851996 0.532746
Si Si5 0.122310 0.322047 0.483316
Si Si6 0.577525 0.758662 0.751609
Si Si7 0.887629 0.781436 0.805605
O O1 0.731883 0.437713 0.022626
O O2 0.520771 0.283321 0.147865
O O3 0.697044 0.798341 0.248969
O O4 0.500000 0.500000 0.000000
O O5 0.800357 0.352074 0.385264
O O6 0.944300 0.158581 0.464393
O O7 0.662821 0.072586 0.493177
O O8 0.149248 0.441936 0.158119
O O9 0.046673 0.068945 0.901838
O O10 0.000000 0.500000 0.000000
O O11 0.760798 0.801254 0.532995
O O12 0.574427 0.917893 0.679213
O O13 0.483933 0.555439 0.393486
O O14 0.109558 0.343427 0.352001
O O15 0.750686 0.861837 0.823784
#
# Coordination Sequence:
#
# PCOD9103063 Si02
#       7
#     2   2   2   2   2   2   2
#     4  11  21  43  70  96 135 175 219 279 330 385
#     4  10  21  38  64  98 129 176 215 268 338 385
#     4  11  24  43  66  96 127 181 228 263 329 396
#     4   9  19  37  59  92 134 166 211 268 324 390
#     4  10  20  38  64  98 129 170 220 269 330 398
#     4   9  19  38  64  91 128 173 210 265 332 379
#     4  10  21  42  65  89 137 172 216 280 323 386
#
# _framework density 25.548442999999999
#
# number of rings (size 3 to 8) (size 9 to 14) (size 15 to 20)
#    0.000    2.000    2.857    0.429    0.000    2.286 
#   12.857   18.571    0.000    0.000    0.000    0.000 
#    0.000    0.000    0.000    0.000    0.000    0.000 
#
# Total GULP energy -78295.289350 kJ/mol
# GULP energy per Si atom -5592.520668 kJ/mol
# Density = 2.549029 g / cm^3
# Si number density = 25.548443 Si / 1000 Ang^3
#
#
#
# Elastic Constant Matrix: (Units=GPa)
#
#
# Indices 1 2 3 4 5 6 
#
# 1 122.9920 28.2644 28.0195 -26.3405 -11.3889 25.0988
# 2 28.2644 90.1484 39.2842 -23.1695 -7.0941 32.6954
# 3 28.0195 39.2842 66.1198 -24.7423 -1.6749 6.6793
# 4 -26.3405 -23.1695 -24.7423 50.7092 10.0585 -4.9072
# 5 -11.3889 -7.0941 -1.6749 10.0585 36.2858 -7.2106
# 6 25.0988 32.6954 6.6793 -4.9072 -7.2106 51.7148
#
#
#
# Elastic Compliance Matrix: (Units=1/GPa)
#
#
# Indices 1 2 3 4 5 6 
#
# 1 0.010496 0.000752 -0.003049 0.003584 0.001385 -0.004642
# 2 0.000752 0.020294 -0.009831 0.003664 0.000446 -0.011516
# 3 -0.003049 -0.009831 0.024224 0.006741 -0.002669 0.004834
# 4 0.003584 0.003664 0.006741 0.027445 -0.006086 -0.003170
# 5 0.001385 0.000446 -0.002669 -0.006086 0.030247 0.003031
# 6 -0.004642 -0.011516 0.004834 -0.003170 0.003031 0.028368
#
#
# Mechanical properties :
#
#
# Convention : Reuss Voigt Hill
#
# Bulk Modulus (GPa) = 32.51280 52.26628 42.38954
# Shear Modulus (GPa) = 28.47670 39.98809 34.23240
#
# Velocity S-wave (km/s) = 3.34221 3.96054 3.66444
# Velocity P-wave (km/s) = 5.25808 6.43557 5.87639
#
# Compressibility (1/GPa) = 0.03075712
#
# Stress axis : x y z
#
# Youngs Moduli (GPa) = 95.27853 49.27455 41.28215
#
# Poissons Ratio (x) = -0.03704 0.12588
# Poissons Ratio (y) = -0.07163 0.40583
# Poissons Ratio (z) = 0.29053 0.48440
#
# Static dielectric constant tensor:
#      x y z
#    x 2.010220 -0.006220 0.034420 
#    y -0.006220 2.127120 0.019010 
#    z 0.034420 0.019010 2.036970 
# 
# From -- ./inp_files/409497.got.cif
#   From: 2010.05.17/outbox.cif.g08.bks.cpg/sg2_205_cif.got.tgz:409497.got - 2010.06.03 11:33:40.
