data_PCOD9103497
_publ_section_title
;
Structure prediction by ZEFSAII (Michael W. Deem and Ramdas Pophale) SiO2 
 PCOD9103497
Probable space group: P -1
;
_chemical_formula_sum "Si O2"
_cell_formula_units_Z 16
_cell_length_a 13.429339
_cell_length_b 8.567008
_cell_length_c 11.849198
_cell_angle_alpha 39.835763
_cell_angle_beta 103.980381
_cell_angle_gamma 123.617145
_cell_volume 682.826980
_symmetry_space_group_name_H-M "P -1"
_symmetry_group_IT_number 2
_symmetry_cell_setting 'triclinic'
loop_
_space_group_symop_operation_xyz
x,y,z
-x,-y,-z
loop_
_atom_site_type_symbol
_atom_site_label
_atom_site_fract_x
_atom_site_fract_y
_atom_site_fract_z
Si Si1 0.523691 0.285347 0.286453
Si Si2 0.865212 0.982831 0.749531
Si Si3 0.773342 0.906064 0.006458
Si Si4 0.623484 0.432383 0.879895
Si Si5 0.984477 0.264815 0.036098
Si Si6 0.406771 0.931156 0.221528
Si Si7 0.796772 0.629515 0.603484
Si Si8 0.936777 0.286942 0.371689
O O1 0.674335 0.545047 0.177081
O O2 0.458449 0.435918 0.238354
O O3 0.500000 0.000000 0.500000
O O4 0.456969 0.143477 0.226721
O O5 0.727474 0.669555 0.866697
O O6 0.887207 0.211580 0.529574
O O7 0.868685 0.048272 0.845926
O O8 0.967176 0.914302 0.795971
O O9 0.846784 0.029983 0.074847
O O10 0.684167 0.009615 0.900705
O O11 0.708212 0.469779 0.778029
O O12 0.533778 0.092144 0.091555
O O13 0.065058 0.467021 0.836140
O O14 0.000000 0.500000 0.000000
O O15 0.308993 0.569444 0.412416
O O16 0.919780 0.625491 0.637139
O O17 0.853006 0.976959 0.447967
#
# Coordination Sequence:
#
# PCOD9103497 Si02
#       8
#     2   2   2   2   2   2   2   2
#     4  11  24  42  68  98 134 174 221 284 339 404
#     4  11  23  43  70  95 141 177 226 282 331 407
#     4  11  23  45  64 100 136 176 230 274 339 408
#     4  10  20  41  66  96 126 172 221 269 340 401
#     4  12  25  43  68  98 138 182 226 280 336 399
#     4  11  20  42  70  91 130 177 215 275 344 395
#     4  10  20  38  66  94 129 167 221 272 330 395
#     4  10  23  42  65  99 135 182 227 273 337 392
#
# _framework density 23.431999000000001
#
# number of rings (size 3 to 8) (size 9 to 14) (size 15 to 20)
#    0.000    1.250    3.750    3.750    0.000    4.500 
#    0.000    0.625    0.000    0.000    0.000    0.000 
#    0.000    0.000    0.000    0.000    0.000    0.000 
#
# Total GULP energy -89336.449832 kJ/mol
# GULP energy per Si atom -5583.528115 kJ/mol
# Density = 2.337867 g / cm^3
# Si number density = 23.431999 Si / 1000 Ang^3
#
#
#
# Elastic Constant Matrix: (Units=GPa)
#
#
# Indices 1 2 3 4 5 6 
#
# 1 56.2157 24.6706 11.0033 4.5657 -16.5053 -0.3525
# 2 24.6706 140.5531 36.1620 -20.2591 -16.1963 12.2508
# 3 11.0033 36.1620 100.3316 -9.2799 -10.1753 9.2942
# 4 4.5657 -20.2591 -9.2799 30.1369 8.7217 -7.6191
# 5 -16.5053 -16.1963 -10.1753 8.7217 32.8040 -1.3301
# 6 -0.3525 12.2508 9.2942 -7.6191 -1.3301 37.7818
#
#
#
# Elastic Compliance Matrix: (Units=1/GPa)
#
#
# Indices 1 2 3 4 5 6 
#
# 1 0.024323 -0.004082 -0.000876 -0.010344 0.012706 0.000127
# 2 -0.004082 0.009399 -0.002248 0.005820 0.000288 -0.001349
# 3 -0.000876 -0.002248 0.011307 0.001205 0.001565 -0.001763
# 4 -0.010344 0.005820 0.001205 0.044525 -0.013543 0.006222
# 5 0.012706 0.000288 0.001565 -0.013543 0.041039 -0.001646
# 6 0.000127 -0.001349 -0.001763 0.006222 -0.001646 0.028537
#
#
# Mechanical properties :
#
#
# Convention : Reuss Voigt Hill
#
# Bulk Modulus (GPa) = 32.66086 48.97470 40.81778
# Shear Modulus (GPa) = 27.21151 35.16215 31.18683
#
# Velocity S-wave (km/s) = 3.41148 3.87797 3.65218
# Velocity P-wave (km/s) = 5.43014 6.40294 5.93650
#
# Compressibility (1/GPa) = 0.03061768
#
# Stress axis : x y z
#
# Youngs Moduli (GPa) = 41.11342 106.39294 88.44430
#
# Poissons Ratio (x) = 0.43426 0.07750
# Poissons Ratio (y) = 0.16781 0.19878
# Poissons Ratio (z) = 0.03602 0.23913
#
# Static dielectric constant tensor:
#      x y z
#    x 1.892350 -0.073370 -0.047400 
#    y -0.073370 2.081440 -0.042880 
#    z -0.047400 -0.042880 1.945710 
# 
# From -- ./inp_files/446669.got.cif
#   From: 2010.05.17/outbox.cif.g08.bks.cpg/sg2_224_cif.got.tgz:446669.got - 2010.06.03 11:33:40.
