data_PCOD9103927
_publ_section_title
;
Structure prediction by ZEFSAII (Michael W. Deem and Ramdas Pophale) SiO2 
 PCOD9103927
Probable space group: P -1
;
_chemical_formula_sum "Si O2"
_cell_formula_units_Z 15
_cell_length_a 14.752384
_cell_length_b 13.076868
_cell_length_c 18.904200
_cell_angle_alpha 154.895848
_cell_angle_beta 29.083737
_cell_angle_gamma 134.608075
_cell_volume 678.274564
_symmetry_space_group_name_H-M "P -1"
_symmetry_group_IT_number 2
_symmetry_cell_setting 'triclinic'
loop_
_space_group_symop_operation_xyz
x,y,z
-x,-y,-z
loop_
_atom_site_type_symbol
_atom_site_label
_atom_site_fract_x
_atom_site_fract_y
_atom_site_fract_z
Si Si1 0.000000 0.500000 0.000000
Si Si2 0.428637 0.419179 0.267611
Si Si3 0.367823 0.734002 0.644003
Si Si4 0.127190 0.769948 0.324859
Si Si5 0.466423 0.276392 0.733649
Si Si6 0.606367 0.051669 0.647519
Si Si7 0.175685 0.710277 0.898768
Si Si8 0.812779 0.933439 0.766199
O O1 0.211935 0.228063 0.676793
O O2 0.034168 0.579821 0.944260
O O3 0.332101 0.636543 0.531298
O O4 0.439162 0.569207 0.283993
O O5 0.309058 0.234214 0.231678
O O6 0.660344 0.210840 0.004212
O O7 0.416861 0.988992 0.762305
O O8 0.193128 0.766051 0.840029
O O9 0.586508 0.493453 0.370109
O O10 0.985160 0.779861 0.494660
O O11 0.305678 0.838140 0.279877
O O12 0.229590 0.487324 0.039470
O O13 0.000000 0.000000 0.500000
O O14 0.500000 0.000000 0.500000
O O15 0.553101 0.225469 0.722105
O O16 0.114464 0.969163 0.152535
#
# Coordination Sequence:
#
# PCOD9103927 Si02
#       8
#     1   2   2   2   2   2   2   2
#     4  10  20  38  70 102 132 174 238 280 342 410
#     4  10  21  42  66 100 138 184 225 285 353 412
#     4   9  19  36  61  97 132 177 222 275 347 409
#     4  12  26  44  71 107 134 182 240 292 340 423
#     4  12  26  47  70 102 144 187 227 294 358 416
#     4  11  24  42  70 100 142 180 233 288 351 416
#     4   9  18  34  60  95 130 171 225 284 331 400
#     4  10  21  41  67 100 135 175 239 287 341 414
#
# _framework density 22.114937000000001
#
# number of rings (size 3 to 8) (size 9 to 14) (size 15 to 20)
#    0.000    1.600    4.000    0.400    3.733    3.200 
#    0.000    2.667    0.000    0.000    0.000    0.000 
#    0.000    0.000    0.000    0.000    0.000    0.000 
#
# Total GULP energy -83525.488971 kJ/mol
# GULP energy per Si atom -5568.365931 kJ/mol
# Density = 2.206460 g / cm^3
# Si number density = 22.114937 Si / 1000 Ang^3
#
#
#
# Elastic Constant Matrix: (Units=GPa)
#
#
# Indices 1 2 3 4 5 6 
#
# 1 102.4767 48.0680 24.3824 5.3578 13.0585 -24.1624
# 2 48.0680 135.0751 51.0267 -9.3358 25.4819 -38.9939
# 3 24.3824 51.0267 99.0150 -5.2585 13.1595 -21.3747
# 4 5.3578 -9.3358 -5.2585 33.5997 -18.2355 7.2932
# 5 13.0585 25.4819 13.1595 -18.2355 0.6812 -19.4138
# 6 -24.1624 -38.9939 -21.3747 7.2932 -19.4138 20.4221
#
#
#
# Elastic Compliance Matrix: (Units=1/GPa)
#
#
# Indices 1 2 3 4 5 6 
#
# 1 0.014587 -0.000500 0.000192 -0.007629 -0.003034 0.016346
# 2 -0.000500 0.016052 -0.002611 -0.004288 -0.006407 0.022766
# 3 0.000192 -0.002611 0.013202 -0.001680 -0.002655 0.007136
# 4 -0.007629 -0.004288 -0.001680 0.031892 -0.012554 -0.042295
# 5 -0.003034 -0.006407 -0.002655 -0.012554 -0.041341 -0.053419
# 6 0.016346 0.022766 0.007136 -0.042295 -0.053419 0.083568
#
#
# Mechanical properties :
#
#
# Convention : Reuss Voigt Hill
#
# Bulk Modulus (GPa) = 26.31312 64.83565 45.57439
# Shear Modulus (GPa) = 36.63974 25.14657 30.89315
#
# Velocity S-wave (km/s) = 4.07478 3.37573 3.74162
# Velocity P-wave (km/s) = 5.83632 6.67647 6.27048
#
# Compressibility (1/GPa) = 0.03800385
#
# Stress axis : x y z
#
# Youngs Moduli (GPa) = 68.55651 62.29759 75.74798
#
# Poissons Ratio (x) = 0.03112 -0.01456
# Poissons Ratio (y) = 0.03425 0.19776
# Poissons Ratio (z) = -0.01318 0.16265
#
# Static dielectric constant tensor:
#      x y z
#    x 1.838340 0.029150 -0.033430 
#    y 0.029150 1.807980 0.017710 
#    z -0.033430 0.017710 1.836730 
# 
# From -- ./inp_files/573494.got.cif
#   From: 2010.05.17/outbox.cif.g08.bks.cpg/sg2_287_cif.got.tgz:573494.got - 2010.06.03 11:33:40.
