data_PCOD9103114
_publ_section_title
;
Structure prediction by ZEFSAII (Michael W. Deem and Ramdas Pophale) SiO2 
 PCOD9103114
Probable space group: P -1
;
_chemical_formula_sum "Si O2"
_cell_formula_units_Z 16
_cell_length_a 12.996239
_cell_length_b 8.909862
_cell_length_c 11.724785
_cell_angle_alpha 60.448750
_cell_angle_beta 148.085272
_cell_angle_gamma 109.531928
_cell_volume 613.789398
_symmetry_space_group_name_H-M "P -1"
_symmetry_group_IT_number 2
_symmetry_cell_setting 'triclinic'
loop_
_space_group_symop_operation_xyz
x,y,z
-x,-y,-z
loop_
_atom_site_type_symbol
_atom_site_label
_atom_site_fract_x
_atom_site_fract_y
_atom_site_fract_z
Si Si1 0.571983 0.141503 0.392681
Si Si2 0.372327 0.616635 0.179603
Si Si3 0.238190 0.246117 0.877874
Si Si4 0.163240 0.098674 0.449746
Si Si5 0.038579 0.485169 0.227963
Si Si6 0.689848 0.279396 0.669984
Si Si7 0.274225 0.945324 0.856700
Si Si8 0.191239 0.577182 0.571636
O O1 0.626541 0.135821 0.580474
O O2 0.643387 0.321727 0.353734
O O3 0.715911 0.995411 0.508662
O O4 0.345928 0.178955 0.121790
O O5 0.545363 0.459323 0.431817
O O6 0.333166 0.737060 0.211508
O O7 0.407988 0.753005 0.065772
O O8 0.186458 0.527726 0.003938
O O9 0.263850 0.440174 0.790331
O O10 0.999468 0.272577 0.636918
O O11 0.325778 0.100251 0.923829
O O12 0.159476 0.306459 0.354302
O O13 0.934741 0.086962 0.271618
O O14 0.257969 0.011391 0.688052
O O15 0.097113 0.666411 0.172177
O O16 0.101037 0.475332 0.422869
#
# Coordination Sequence:
#
# PCOD9103114 Si02
#       8
#     2   2   2   2   2   2   2   2
#     4  11  23  37  59  88 122 152 198 247 291 346
#     4  10  22  41  65  84 120 157 205 244 290 351
#     4  11  21  35  59  85 122 161 189 236 308 348
#     4  10  21  38  60  93 125 150 193 246 303 360
#     4  10  20  38  65  87 116 158 196 246 299 349
#     4  10  23  42  62  89 114 158 209 248 283 345
#     4  10  21  38  61  89 122 162 190 241 304 358
#     4  10  21  37  56  87 122 152 197 242 287 364
#
# _framework density 26.067571999999998
#
# number of rings (size 3 to 8) (size 9 to 14) (size 15 to 20)
#    0.000    1.750    2.500    1.500    1.750    3.500 
#    0.000    3.125    2.750    0.000    0.000    0.000 
#    0.000    0.000    0.000    0.000    0.000    0.000 
#
# Total GULP energy -89500.343145 kJ/mol
# GULP energy per Si atom -5593.771447 kJ/mol
# Density = 2.600824 g / cm^3
# Si number density = 26.067572 Si / 1000 Ang^3
#
#
#
# Elastic Constant Matrix: (Units=GPa)
#
#
# Indices 1 2 3 4 5 6 
#
# 1 36.4920 6.2604 18.1644 0.4542 -1.3598 -13.9157
# 2 6.2604 84.6129 19.2189 8.1200 -2.8823 -19.6668
# 3 18.1644 19.2189 105.8749 0.9756 0.8451 8.1808
# 4 0.4542 8.1200 0.9756 24.6144 1.8251 -4.3996
# 5 -1.3598 -2.8823 0.8451 1.8251 31.7018 6.2439
# 6 -13.9157 -19.6668 8.1808 -4.3996 6.2439 43.4659
#
#
#
# Elastic Compliance Matrix: (Units=1/GPa)
#
#
# Indices 1 2 3 4 5 6 
#
# 1 0.036312 0.002239 -0.007755 0.001542 -0.000955 0.014392
# 2 0.002239 0.014567 -0.003587 -0.003359 0.000210 0.007613
# 3 -0.007755 -0.003587 0.011924 -0.000318 0.000307 -0.006426
# 4 0.001542 -0.003359 -0.000318 0.042662 -0.003445 0.003846
# 5 -0.000955 0.000210 0.000307 -0.003445 0.032761 -0.005323
# 6 0.014392 0.007613 -0.006426 0.003846 -0.005323 0.033422
#
#
# Mechanical properties :
#
#
# Convention : Reuss Voigt Hill
#
# Bulk Modulus (GPa) = 22.42308 34.91857 28.67082
# Shear Modulus (GPa) = 24.42367 32.17883 28.30125
#
# Velocity S-wave (km/s) = 3.06426 3.51727 3.29855
# Velocity P-wave (km/s) = 4.59785 5.46986 5.05270
#
# Compressibility (1/GPa) = 0.04459691
#
# Stress axis : x y z
#
# Youngs Moduli (GPa) = 27.53873 68.64980 83.86569
#
# Poissons Ratio (x) = -0.15373 0.65038
# Poissons Ratio (y) = -0.06167 0.30086
# Poissons Ratio (z) = 0.21356 0.24627
#
# Static dielectric constant tensor:
#      x y z
#    x 2.091620 -0.040990 0.063380 
#    y -0.040990 2.048060 0.026500 
#    z 0.063380 0.026500 2.051140 
# 
# From -- ./inp_files/328816.got.cif
#   From: 2010.05.17/outbox.cif.g08.bks.cpg/sg2_165_cif.got.tgz:328816.got - 2010.06.03 11:33:40.
