data_PCOD9103115
_publ_section_title
;
Structure prediction by ZEFSAII (Michael W. Deem and Ramdas Pophale) SiO2 
 PCOD9103115
Probable space group: P -1
;
_chemical_formula_sum "Si O2"
_cell_formula_units_Z 16
_cell_length_a 14.070026
_cell_length_b 12.256930
_cell_length_c 9.199085
_cell_angle_alpha 119.925060
_cell_angle_beta 104.050984
_cell_angle_gamma 30.635500
_cell_volume 635.125294
_symmetry_space_group_name_H-M "P -1"
_symmetry_group_IT_number 2
_symmetry_cell_setting 'triclinic'
loop_
_space_group_symop_operation_xyz
x,y,z
-x,-y,-z
loop_
_atom_site_type_symbol
_atom_site_label
_atom_site_fract_x
_atom_site_fract_y
_atom_site_fract_z
Si Si1 0.154371 0.965351 0.153451
Si Si2 0.061416 0.302474 0.967869
Si Si3 0.943018 0.181535 0.905450
Si Si4 0.320598 0.178570 0.166919
Si Si5 0.343857 0.920233 0.552811
Si Si6 0.717674 0.264214 0.507053
Si Si7 0.221988 0.554189 0.453794
Si Si8 0.221470 0.173842 0.387354
O O1 0.956315 0.211035 0.345671
O O2 0.255074 0.989261 0.226027
O O3 0.219614 0.747706 0.078984
O O4 0.083940 0.029906 0.002620
O O5 0.894034 0.384175 0.992796
O O6 0.227275 0.062869 0.756923
O O7 0.183083 0.215483 0.094516
O O8 0.000000 0.500000 0.000000
O O9 0.094218 0.973523 0.691014
O O10 0.191706 0.452869 0.305229
O O11 0.377515 0.081885 0.289242
O O12 0.500000 0.000000 0.000000
O O13 0.295651 0.827209 0.435336
O O14 0.578559 0.672127 0.519659
O O15 0.270106 0.102387 0.527816
O O16 0.500000 0.500000 0.500000
O O17 0.744291 0.382735 0.620547
O O18 0.000000 0.500000 0.500000
#
# Coordination Sequence:
#
# PCOD9103115 Si02
#       8
#     2   2   2   2   2   2   2   2
#     4  10  20  38  65  87 121 165 214 255 318 374
#     4  11  22  39  62  90 126 165 208 261 317 378
#     4   9  19  37  61  90 119 164 209 258 308 374
#     4  12  24  42  61  91 128 168 208 261 321 376
#     4  10  22  40  62  93 125 162 215 261 320 380
#     4   8  17  36  64  88 119 164 204 257 318 379
#     4  10  20  39  64  90 124 170 211 258 322 382
#     4  12  24  41  64  91 130 168 208 269 318 377
#
# _framework density 25.191879
#
# number of rings (size 3 to 8) (size 9 to 14) (size 15 to 20)
#    0.000    1.750    3.750    0.750    0.000    0.500 
#    4.500    1.875    0.000   12.750    0.000    0.000 
#    0.000    0.000    0.000    0.000    0.000    0.000 
#
# Total GULP energy -89228.181611 kJ/mol
# GULP energy per Si atom -5576.761351 kJ/mol
# Density = 2.513454 g / cm^3
# Si number density = 25.191879 Si / 1000 Ang^3
#
#
#
# Elastic Constant Matrix: (Units=GPa)
#
#
# Indices 1 2 3 4 5 6 
#
# 1 145.9080 35.9758 39.2602 3.3940 15.6498 52.1246
# 2 35.9758 101.9822 23.8057 -7.9309 -10.7727 25.1854
# 3 39.2602 23.8057 40.7902 -13.2243 13.3286 8.9780
# 4 3.3940 -7.9309 -13.2243 22.0339 5.5805 2.0881
# 5 15.6498 -10.7727 13.3286 5.5805 44.8168 -0.0958
# 6 52.1246 25.1854 8.9780 2.0881 -0.0958 51.4535
#
#
#
# Elastic Compliance Matrix: (Units=1/GPa)
#
#
# Indices 1 2 3 4 5 6 
#
# 1 0.016212 0.000815 -0.017241 -0.011559 0.001073 -0.013343
# 2 0.000815 0.013878 -0.010624 -0.002624 0.006525 -0.005646
# 3 -0.017241 -0.010624 0.066359 0.043258 -0.021635 0.009292
# 4 -0.011559 -0.002624 0.043258 0.076782 -0.019015 0.002295
# 5 0.001073 0.006525 -0.021635 -0.019015 0.032310 0.000326
# 6 -0.013343 -0.005646 0.009292 0.002295 0.000326 0.034002
#
#
# Mechanical properties :
#
#
# Convention : Reuss Voigt Hill
#
# Bulk Modulus (GPa) = 23.61327 54.08486 38.84907
# Shear Modulus (GPa) = 16.24647 36.30341 26.27494
#
# Velocity S-wave (km/s) = 2.54226 3.80027 3.23304
# Velocity P-wave (km/s) = 4.24396 6.38528 5.42139
#
# Compressibility (1/GPa) = 0.04234906
#
# Stress axis : x y z
#
# Youngs Moduli (GPa) = 61.68097 72.05844 15.06952
#
# Poissons Ratio (x) = -0.05873 0.25982
# Poissons Ratio (y) = -0.05028 0.16010
# Poissons Ratio (z) = 1.06345 0.76555
#
# Static dielectric constant tensor:
#      x y z
#    x 2.095100 0.025810 0.145480 
#    y 0.025810 2.147270 -0.004310 
#    z 0.145480 -0.004310 2.140440 
# 
# From -- ./inp_files/305747.got.cif
#   From: 2010.05.17/outbox.cif.g08.bks.cpg/sg2_153_cif.got.tgz:305747.got - 2010.06.03 11:33:40.
