data_PCOD9103482
_publ_section_title
;
Structure prediction by ZEFSAII (Michael W. Deem and Ramdas Pophale) SiO2 
 PCOD9103482
Probable space group: P -1
;
_chemical_formula_sum "Si O2"
_cell_formula_units_Z 12
_cell_length_a 9.234915
_cell_length_b 9.253987
_cell_length_c 11.677726
_cell_angle_alpha 68.588512
_cell_angle_beta 138.791244
_cell_angle_gamma 131.685241
_cell_volume 472.087690
_symmetry_space_group_name_H-M "P -1"
_symmetry_group_IT_number 2
_symmetry_cell_setting 'triclinic'
loop_
_space_group_symop_operation_xyz
x,y,z
-x,-y,-z
loop_
_atom_site_type_symbol
_atom_site_label
_atom_site_fract_x
_atom_site_fract_y
_atom_site_fract_z
Si Si1 0.314799 0.096513 0.626434
Si Si2 0.182001 0.590944 0.465938
Si Si3 0.178191 0.309535 0.902222
Si Si4 0.267844 0.558121 0.077071
Si Si5 0.819912 0.886164 0.707563
Si Si6 0.848927 0.221602 0.214188
O O1 0.494732 0.318329 0.721711
O O2 0.305892 0.078269 0.490756
O O3 0.360013 0.964017 0.769000
O O4 0.000000 0.000000 0.500000
O O5 0.521419 0.737933 0.641128
O O6 0.000000 0.500000 0.500000
O O7 0.053786 0.682686 0.298169
O O8 0.089041 0.408382 0.381494
O O9 0.500000 0.500000 0.000000
O O10 0.188466 0.363066 0.025458
O O11 0.059130 0.089380 0.859864
O O12 0.316510 0.710274 0.963771
O O13 0.000000 0.500000 0.000000
O O14 0.984708 0.814026 0.767356
#
# Coordination Sequence:
#
# PCOD9103482 Si02
#       6
#     2   2   2   2   2   2
#     4  10  20  38  66  94 122 165 215 262 314 379
#     4  11  24  41  64  96 132 171 217 267 320 384
#     4  11  24  43  64  93 131 170 212 266 325 382
#     4  11  24  42  64  93 131 170 210 262 325 386
#     4  11  23  44  69  96 128 172 219 268 321 384
#     4  10  22  40  67  96 127 168 218 267 321 385
#
# _framework density 25.419008000000002
#
# number of rings (size 3 to 8) (size 9 to 14) (size 15 to 20)
#    0.000    1.333    0.000    6.500    0.000    6.667 
#    0.000    1.667    0.000    0.000    0.000    0.000 
#    0.000    0.000    0.000    0.000    0.000    0.000 
#
# Total GULP energy -67093.414415 kJ/mol
# GULP energy per Si atom -5591.117868 kJ/mol
# Density = 2.536115 g / cm^3
# Si number density = 25.419008 Si / 1000 Ang^3
#
#
#
# Elastic Constant Matrix: (Units=GPa)
#
#
# Indices 1 2 3 4 5 6 
#
# 1 162.1400 46.8821 44.2670 44.3892 -5.6490 -8.8203
# 2 46.8821 86.5367 42.4458 24.4720 -10.6426 -26.4378
# 3 44.2670 42.4458 126.6064 45.6178 1.1362 -10.2253
# 4 44.3892 24.4720 45.6178 73.7231 -9.7639 -14.1896
# 5 -5.6490 -10.6426 1.1362 -9.7639 42.9776 6.7438
# 6 -8.8203 -26.4378 -10.2253 -14.1896 6.7438 45.6726
#
#
#
# Elastic Compliance Matrix: (Units=1/GPa)
#
#
# Indices 1 2 3 4 5 6 
#
# 1 0.008340 -0.003855 -0.000348 -0.003944 -0.000454 -0.001857
# 2 -0.003855 0.018715 -0.004630 0.001105 0.003099 0.008938
# 3 -0.000348 -0.004630 0.011677 -0.006146 -0.002638 -0.001653
# 4 -0.003944 0.001105 -0.006146 0.020737 0.003945 0.004362
# 5 -0.000454 0.003099 -0.002638 0.003945 0.025157 -0.001374
# 6 -0.001857 0.008938 -0.001653 0.004362 -0.001374 0.027898
#
#
# Mechanical properties :
#
#
# Convention : Reuss Voigt Hill
#
# Bulk Modulus (GPa) = 47.47397 71.38589 59.42993
# Shear Modulus (GPa) = 36.43919 48.58720 42.51319
#
# Velocity S-wave (km/s) = 3.79032 4.37676 4.09405
# Velocity P-wave (km/s) = 6.15406 7.32707 6.76603
#
# Compressibility (1/GPa) = 0.02106417
#
# Stress axis : x y z
#
# Youngs Moduli (GPa) = 119.89942 53.43344 85.63485
#
# Poissons Ratio (x) = 0.20601 0.02984
# Poissons Ratio (y) = 0.46227 0.39652
# Poissons Ratio (z) = 0.04178 0.24741
#
# Static dielectric constant tensor:
#      x y z
#    x 1.966110 0.050300 -0.058330 
#    y 0.050300 2.209270 -0.121930 
#    z -0.058330 -0.121930 1.997650 
# 
# From -- ./inp_files/155884.got.cif
#   From: 2010.05.17/outbox.cif.g08.bks.cpg/sg2_78_cif.got.tgz:155884.got - 2010.06.03 11:33:40.
