data_PCOD9103042
_publ_section_title
;
Structure prediction by ZEFSAII (Michael W. Deem and Ramdas Pophale) SiO2 
 PCOD9103042
Probable space group: P -1
;
_chemical_formula_sum "Si O2"
_cell_formula_units_Z 14
_cell_length_a 26.093834
_cell_length_b 16.085035
_cell_length_c 5.375420
_cell_angle_alpha 125.939009
_cell_angle_beta 57.866110
_cell_angle_gamma 162.234384
_cell_volume 554.019818
_symmetry_space_group_name_H-M "P -1"
_symmetry_group_IT_number 2
_symmetry_cell_setting 'triclinic'
loop_
_space_group_symop_operation_xyz
x,y,z
-x,-y,-z
loop_
_atom_site_type_symbol
_atom_site_label
_atom_site_fract_x
_atom_site_fract_y
_atom_site_fract_z
Si Si1 0.562996 0.498609 0.190408
Si Si2 0.196172 0.367446 0.503358
Si Si3 0.727709 0.714782 0.582769
Si Si4 0.648867 0.937844 0.407810
Si Si5 0.151839 0.937250 0.838262
Si Si6 0.435957 0.982906 0.329684
Si Si7 0.860087 0.601636 0.772883
O O1 0.500000 0.500000 0.500000
O O2 0.705777 0.661100 0.250281
O O3 0.672777 0.723352 0.080652
O O4 0.406634 0.185767 0.944505
O O5 0.177090 0.220214 0.386300
O O6 0.103225 0.268044 0.329683
O O7 0.391592 0.686139 0.467596
O O8 0.172243 0.391041 0.867126
O O9 0.522341 0.366704 0.541731
O O10 0.842607 0.001719 0.797074
O O11 0.804691 0.112374 0.382348
O O12 0.673701 0.097943 0.648617
O O13 0.002548 0.743874 0.720695
O O14 0.316480 0.740267 0.413799
O O15 0.500000 0.000000 0.000000
#
# Coordination Sequence:
#
# PCOD9103042 Si02
#       7
#     2   2   2   2   2   2   2
#     4  11  19  37  64  94 131 165 208 263 320 387
#     4  10  24  42  66  90 124 173 221 264 318 377
#     4  10  21  38  62  92 125 166 216 261 314 384
#     4  10  20  38  64  97 120 167 215 264 320 377
#     4  11  23  36  61  94 135 164 208 260 328 389
#     4   9  21  45  69  89 124 166 226 268 314 375
#     4  11  25  43  61  94 133 172 213 268 321 379
#
# _framework density 25.269852
#
# number of rings (size 3 to 8) (size 9 to 14) (size 15 to 20)
#    0.000    1.714    2.857    1.286    8.000    1.714 
#    5.143    0.000    0.000    5.143    0.000    0.000 
#    0.000    0.000    0.000    0.000    0.000    0.000 
#
# Total GULP energy -77987.932684 kJ/mol
# GULP energy per Si atom -5570.566620 kJ/mol
# Density = 2.521234 g / cm^3
# Si number density = 25.269852 Si / 1000 Ang^3
#
#
#
# Elastic Constant Matrix: (Units=GPa)
#
#
# Indices 1 2 3 4 5 6 
#
# 1 197.8470 21.0021 41.6797 -9.9987 -19.8558 19.0455
# 2 21.0021 59.8259 -2.4986 4.3816 0.7191 3.0819
# 3 41.6797 -2.4986 52.2613 -5.1106 -15.5357 4.9003
# 4 -9.9987 4.3816 -5.1106 20.1429 3.3091 -3.4077
# 5 -19.8558 0.7191 -15.5357 3.3091 52.6596 0.0186
# 6 19.0455 3.0819 4.9003 -3.4077 0.0186 41.7852
#
#
#
# Elastic Compliance Matrix: (Units=1/GPa)
#
#
# Indices 1 2 3 4 5 6 
#
# 1 0.006767 -0.002637 -0.004800 0.002181 0.001035 -0.002149
# 2 -0.002637 0.018137 0.002526 -0.004719 -0.000200 -0.000817
# 3 -0.004800 0.002526 0.024985 0.002399 0.005376 -0.000735
# 4 0.002181 -0.004719 0.002399 0.053228 -0.001751 0.003414
# 5 0.001035 -0.000200 0.005376 -0.001751 0.021079 -0.001240
# 6 -0.002149 -0.000817 -0.000735 0.003414 -0.001240 0.025337
#
#
# Mechanical properties :
#
#
# Convention : Reuss Voigt Hill
#
# Bulk Modulus (GPa) = 24.95892 47.81118 36.38505
# Shear Modulus (GPa) = 28.95001 39.56762 34.25882
#
# Velocity S-wave (km/s) = 3.38839 3.96132 3.68600
# Velocity P-wave (km/s) = 5.02063 6.31538 5.70485
#
# Compressibility (1/GPa) = 0.04006583
#
# Stress axis : x y z
#
# Youngs Moduli (GPa) = 147.78474 55.13716 40.02337
#
# Poissons Ratio (x) = 0.14542 0.19212
# Poissons Ratio (y) = 0.38976 -0.10110
# Poissons Ratio (z) = 0.70939 -0.13928
#
# Static dielectric constant tensor:
#      x y z
#    x 2.130350 -0.041650 0.203500 
#    y -0.041650 1.994120 0.152440 
#    z 0.203500 0.152440 1.416690 
# 
# From -- ./inp_files/85310.got.cif
#   From: 2010.05.17/outbox.cif.g08.bks.cpg/sg2_43_cif.got.tgz:85310.got - 2010.06.03 11:33:40.
