data_PCOD9103575
_publ_section_title
;
Structure prediction by ZEFSAII (Michael W. Deem and Ramdas Pophale) SiO2 
 PCOD9103575
Probable space group: P -1
;
_chemical_formula_sum "Si O2"
_cell_formula_units_Z 14
_cell_length_a 5.141203
_cell_length_b 15.374261
_cell_length_c 9.234407
_cell_angle_alpha 113.592362
_cell_angle_beta 69.458539
_cell_angle_gamma 124.708963
_cell_volume 542.494183
_symmetry_space_group_name_H-M "P -1"
_symmetry_group_IT_number 2
_symmetry_cell_setting 'triclinic'
loop_
_space_group_symop_operation_xyz
x,y,z
-x,-y,-z
loop_
_atom_site_type_symbol
_atom_site_label
_atom_site_fract_x
_atom_site_fract_y
_atom_site_fract_z
Si Si1 0.624170 0.542075 0.838227
Si Si2 0.036254 0.094639 0.166789
Si Si3 0.284193 0.787900 0.589773
Si Si4 0.069828 0.811034 0.194205
Si Si5 0.672007 0.669441 0.444365
Si Si6 0.323788 0.685063 0.877736
Si Si7 0.319061 0.079751 0.684097
O O1 0.483295 0.447631 0.679997
O O2 0.492359 0.623798 0.878751
O O3 0.009153 0.596042 0.793453
O O4 0.500000 0.500000 0.000000
O O5 0.385399 0.198376 0.153006
O O6 0.793627 0.142913 0.232618
O O7 0.962434 0.043775 0.311809
O O8 0.000000 0.000000 0.000000
O O9 0.430776 0.712855 0.557062
O O10 0.508898 0.871440 0.471086
O O11 0.931700 0.698587 0.537830
O O12 0.408564 0.907202 0.248825
O O13 0.882885 0.751660 0.333101
O O14 0.846162 0.849847 0.188077
O O15 0.138743 0.725770 0.046083
#
# Coordination Sequence:
#
# PCOD9103575 Si02
#       7
#     2   2   2   2   2   2   2
#     4  12  25  43  73 106 139 185 232 290 348 409
#     4  12  27  47  72 102 147 184 227 295 352 407
#     4  10  24  46  70 105 133 189 236 276 342 428
#     4  10  20  38  67 101 136 173 229 283 329 408
#     4  10  22  43  72  96 138 177 236 292 335 403
#     4  12  26  41  65 112 140 175 237 284 350 411
#     4  10  22  42  68  98 138 188 229 270 338 412
#
# _framework density 25.806730000000002
#
# number of rings (size 3 to 8) (size 9 to 14) (size 15 to 20)
#    0.000    1.143    2.857    2.571    4.000    4.000 
#    0.000    8.571    0.000    0.000    0.000    0.000 
#    0.000    0.000    0.000    0.000    0.000    0.000 
#
# Total GULP energy -78282.911552 kJ/mol
# GULP energy per Si atom -5591.636539 kJ/mol
# Density = 2.574799 g / cm^3
# Si number density = 25.806730 Si / 1000 Ang^3
#
#
#
# Elastic Constant Matrix: (Units=GPa)
#
#
# Indices 1 2 3 4 5 6 
#
# 1 163.0655 79.9643 51.3397 7.2489 -25.5581 4.8960
# 2 79.9643 156.7790 69.4179 8.7317 -2.1516 21.8240
# 3 51.3397 69.4179 146.3301 17.7623 -26.1956 -4.4482
# 4 7.2489 8.7317 17.7623 50.3188 0.8170 -13.7595
# 5 -25.5581 -2.1516 -26.1956 0.8170 41.5229 10.4587
# 6 4.8960 21.8240 -4.4482 -13.7595 10.4587 25.7805
#
#
#
# Elastic Compliance Matrix: (Units=1/GPa)
#
#
# Indices 1 2 3 4 5 6 
#
# 1 0.009298 -0.004509 -0.000030 -0.000828 0.005661 -0.000693
# 2 -0.004509 0.012435 -0.004714 -0.002838 -0.002257 -0.011083
# 3 -0.000030 -0.004714 0.010484 -0.002383 0.005854 0.002158
# 4 -0.000828 -0.002838 -0.002383 0.026791 -0.007607 0.019534
# 5 0.005661 -0.002257 0.005854 -0.007607 0.035476 -0.016607
# 6 -0.000693 -0.011083 0.002158 0.019534 -0.016607 0.065838
#
#
# Mechanical properties :
#
#
# Convention : Reuss Voigt Hill
#
# Bulk Modulus (GPa) = 72.93486 96.40205 84.66845
# Shear Modulus (GPa) = 27.26321 41.22129 34.24225
#
# Velocity S-wave (km/s) = 3.25382 4.00097 3.64658
# Velocity P-wave (km/s) = 6.51458 7.66682 7.11407
#
# Compressibility (1/GPa) = 0.01371087
#
# Stress axis : x y z
#
# Youngs Moduli (GPa) = 107.55103 80.41840 95.38755
#
# Poissons Ratio (x) = 0.36258 0.00291
# Poissons Ratio (y) = 0.48491 0.44962
# Poissons Ratio (z) = 0.00328 0.37906
#
# Static dielectric constant tensor:
#      x y z
#    x 2.089850 0.027750 0.036630 
#    y 0.027750 2.126040 0.011670 
#    z 0.036630 0.011670 2.088740 
# 
# From -- ./inp_files/368706.got.cif
#   From: 2010.05.17/outbox.cif.g08.bks.cpg/sg2_185_cif.got.tgz:368706.got - 2010.06.03 11:33:40.
