data_PCOD9103847
_publ_section_title
;
Structure prediction by ZEFSAII (Michael W. Deem and Ramdas Pophale) SiO2 
 PCOD9103847
Probable space group: P -1
;
_chemical_formula_sum "Si O2"
_cell_formula_units_Z 15
_cell_length_a 10.067509
_cell_length_b 7.759689
_cell_length_c 11.522556
_cell_angle_alpha 74.640180
_cell_angle_beta 88.940089
_cell_angle_gamma 132.706693
_cell_volume 612.388948
_symmetry_space_group_name_H-M "P -1"
_symmetry_group_IT_number 2
_symmetry_cell_setting 'triclinic'
loop_
_space_group_symop_operation_xyz
x,y,z
-x,-y,-z
loop_
_atom_site_type_symbol
_atom_site_label
_atom_site_fract_x
_atom_site_fract_y
_atom_site_fract_z
Si Si1 0.275234 0.341282 0.882424
Si Si2 0.494107 0.684144 0.254597
Si Si3 0.083546 0.349996 0.341695
Si Si4 0.911770 0.868969 0.849882
Si Si5 0.678856 0.931233 0.443211
Si Si6 0.426405 0.771938 0.664036
Si Si7 0.765220 0.120878 0.777257
Si Si8 0.500000 0.000000 0.000000
O O1 0.465310 0.435962 0.814455
O O2 0.272222 0.529930 0.788557
O O3 0.250033 0.338767 0.019018
O O4 0.105529 0.061322 0.884921
O O5 0.289156 0.481799 0.354426
O O6 0.639143 0.825237 0.333521
O O7 0.506783 0.870232 0.137821
O O8 0.076585 0.263206 0.227584
O O9 0.099930 0.579972 0.295675
O O10 0.892536 0.101263 0.449050
O O11 0.867039 0.027097 0.781563
O O12 0.509900 0.725411 0.569758
O O13 0.657352 0.125676 0.400945
O O14 0.605505 0.980726 0.705695
O O15 0.662502 0.036924 0.919623
#
# Coordination Sequence:
#
# PCOD9103847 Si02
#       8
#     2   2   2   2   2   2   2   1
#     4  11  24  43  67 102 142 183 227 289 348 416
#     4  11  22  44  68  99 140 176 226 285 346 408
#     4  11  24  42  72 103 136 183 227 288 345 411
#     4  11  24  43  68 107 144 175 233 290 352 418
#     4  11  24  48  67  99 139 184 241 276 342 416
#     4  11  25  44  71  96 138 190 229 289 340 411
#     4  11  23  42  66 107 135 179 229 283 355 406
#     4  10  20  38  68  98 136 172 220 278 342 414
#
# _framework density 24.494236999999998
#
# number of rings (size 3 to 8) (size 9 to 14) (size 15 to 20)
#    0.000    1.067    5.333    1.600    3.733    2.133 
#    2.400    6.000    0.000    0.000    0.000    0.000 
#    0.000    0.000    0.000    0.000    0.000    0.000 
#
# Total GULP energy -83639.563375 kJ/mol
# GULP energy per Si atom -5575.970892 kJ/mol
# Density = 2.443849 g / cm^3
# Si number density = 24.494237 Si / 1000 Ang^3
#
#
#
# Elastic Constant Matrix: (Units=GPa)
#
#
# Indices 1 2 3 4 5 6 
#
# 1 54.8340 -0.3775 6.2002 -7.0200 0.7957 9.8169
# 2 -0.3775 70.0596 27.1609 -0.3578 -3.9613 9.2762
# 3 6.2002 27.1609 52.5323 5.2867 -9.3789 -6.8946
# 4 -7.0200 -0.3578 5.2867 29.5692 -4.8466 -0.8955
# 5 0.7957 -3.9613 -9.3789 -4.8466 26.6274 -6.2898
# 6 9.8169 9.2762 -6.8946 -0.8955 -6.2898 39.8770
#
#
#
# Elastic Compliance Matrix: (Units=1/GPa)
#
#
# Indices 1 2 3 4 5 6 
#
# 1 0.021047 0.003400 -0.006321 0.005432 -0.003117 -0.007435
# 2 0.003400 0.020122 -0.012671 0.002574 -0.003022 -0.008127
# 3 -0.006321 -0.012671 0.030230 -0.004959 0.010721 0.011310
# 4 0.005432 0.002574 -0.004959 0.036791 0.004888 -0.001196
# 5 -0.003117 -0.003022 0.010721 0.004888 0.044327 0.010425
# 6 -0.007435 -0.008127 0.011310 -0.001196 0.010425 0.032371
#
#
# Mechanical properties :
#
#
# Convention : Reuss Voigt Hill
#
# Bulk Modulus (GPa) = 24.86549 27.04371 25.95460
# Shear Modulus (GPa) = 21.78863 28.84420 25.31642
#
# Velocity S-wave (km/s) = 2.98575 3.43533 3.21840
# Velocity P-wave (km/s) = 4.69680 5.17688 4.94267
#
# Compressibility (1/GPa) = 0.04021639
#
# Stress axis : x y z
#
# Youngs Moduli (GPa) = 47.51364 49.69594 33.07920
#
# Poissons Ratio (x) = -0.16895 0.20908
# Poissons Ratio (y) = -0.16153 0.41913
# Poissons Ratio (z) = 0.30032 0.62967
#
# Static dielectric constant tensor:
#      x y z
#    x 2.007590 0.007090 -0.040870 
#    y 0.007090 1.960140 -0.047240 
#    z -0.040870 -0.047240 1.918490 
# 
# From -- ./inp_files/417130.got.cif
#   From: 2010.05.17/outbox.cif.g08.bks.cpg/sg2_209_cif.got.tgz:417130.got - 2010.06.03 11:33:40.
