data_PCOD9103335
_publ_section_title
;
Structure prediction by ZEFSAII (Michael W. Deem and Ramdas Pophale) SiO2 
 PCOD9103335
Probable space group: P -1
;
_chemical_formula_sum "Si O2"
_cell_formula_units_Z 16
_cell_length_a 11.507867
_cell_length_b 7.778141
_cell_length_c 9.114203
_cell_angle_alpha 128.219460
_cell_angle_beta 84.468234
_cell_angle_gamma 94.542019
_cell_volume 637.754656
_symmetry_space_group_name_H-M "P -1"
_symmetry_group_IT_number 2
_symmetry_cell_setting 'triclinic'
loop_
_space_group_symop_operation_xyz
x,y,z
-x,-y,-z
loop_
_atom_site_type_symbol
_atom_site_label
_atom_site_fract_x
_atom_site_fract_y
_atom_site_fract_z
Si Si1 0.675248 0.277682 0.605290
Si Si2 0.225056 0.195094 0.637598
Si Si3 0.157843 0.652728 0.619304
Si Si4 0.212436 0.888209 0.020854
Si Si5 0.446306 0.318129 0.520478
Si Si6 0.291300 0.288486 0.004950
Si Si7 0.937806 0.828077 0.602457
Si Si8 0.460727 0.888312 0.097224
O O1 0.716668 0.304547 0.445477
O O2 0.536625 0.299425 0.633377
O O3 0.718226 0.041459 0.515108
O O4 0.729183 0.476904 0.796460
O O5 0.316289 0.347490 0.612547
O O6 0.230122 0.259299 0.840149
O O7 0.099584 0.178871 0.566595
O O8 0.153386 0.718914 0.824674
O O9 0.118060 0.405316 0.460168
O O10 0.071167 0.809137 0.622426
O O11 0.249450 0.096769 0.022014
O O12 0.329852 0.797648 0.033746
O O13 0.126103 0.980068 0.202381
O O14 0.500000 0.500000 0.500000
O O15 0.449444 0.089234 0.314768
O O16 0.431078 0.259786 0.952237
O O17 0.500000 0.000000 0.000000
#
# Coordination Sequence:
#
# PCOD9103335 Si02
#       8
#     2   2   2   2   2   2   2   2
#     4  12  24  44  67  96 143 182 217 280 339 394
#     4  12  26  45  66 102 140 173 226 279 342 402
#     4  11  24  45  74  99 130 182 233 280 334 395
#     4  11  20  44  70  99 134 177 228 279 335 394
#     4  12  23  42  68  98 139 179 216 279 335 402
#     4  11  24  42  66 101 140 181 218 274 338 407
#     4  11  25  44  73 102 132 175 237 282 329 404
#     4  10  20  38  65  99 135 175 224 266 330 410
#
# _framework density 25.088017000000001
#
# number of rings (size 3 to 8) (size 9 to 14) (size 15 to 20)
#    0.000    0.750    5.000    3.750    0.000    3.000 
#    2.250    0.625    0.000    0.000    0.000    0.000 
#    0.000    0.000    0.000    0.000    0.000    0.000 
#
# Total GULP energy -89637.971439 kJ/mol
# GULP energy per Si atom -5602.373215 kJ/mol
# Density = 2.503092 g / cm^3
# Si number density = 25.088017 Si / 1000 Ang^3
#
#
#
# Elastic Constant Matrix: (Units=GPa)
#
#
# Indices 1 2 3 4 5 6 
#
# 1 88.4463 -3.2626 13.3092 -7.2666 18.9107 -24.4054
# 2 -3.2626 62.1000 12.8787 -1.3631 4.6374 -0.8340
# 3 13.3092 12.8787 166.1738 5.0593 14.1722 -10.7924
# 4 -7.2666 -1.3631 5.0593 38.5355 -3.0985 4.9984
# 5 18.9107 4.6374 14.1722 -3.0985 31.5591 -8.3565
# 6 -24.4054 -0.8340 -10.7924 4.9984 -8.3565 43.0354
#
#
#
# Elastic Compliance Matrix: (Units=1/GPa)
#
#
# Indices 1 2 3 4 5 6 
#
# 1 0.014937 0.001501 -0.000307 0.001449 -0.007069 0.006882
# 2 0.001501 0.016648 -0.001190 0.000779 -0.002664 0.000268
# 3 -0.000307 -0.001190 0.006448 -0.001281 -0.002369 0.001109
# 4 0.001449 0.000779 -0.001281 0.026846 0.001623 -0.002287
# 5 -0.007069 -0.002664 -0.002369 0.001623 0.038220 0.002579
# 6 0.006882 0.000268 0.001109 -0.002287 0.002579 0.028189
#
#
# Mechanical properties :
#
#
# Convention : Reuss Voigt Hill
#
# Bulk Modulus (GPa) = 26.28738 40.28565 33.28652
# Shear Modulus (GPa) = 34.73177 42.21231 38.47204
#
# Velocity S-wave (km/s) = 3.72478 4.10636 3.92022
# Velocity P-wave (km/s) = 5.38512 6.21092 5.81270
#
# Compressibility (1/GPa) = 0.03804107
#
# Stress axis : x y z
#
# Youngs Moduli (GPa) = 66.94663 60.06642 155.09660
#
# Poissons Ratio (x) = -0.09013 0.04761
# Poissons Ratio (y) = -0.10045 0.18450
# Poissons Ratio (z) = 0.02055 0.07145
#
# Static dielectric constant tensor:
#      x y z
#    x 1.974150 0.017750 0.038310 
#    y 0.017750 2.088900 -0.067700 
#    z 0.038310 -0.067700 1.963300 
# 
# From -- ./inp_files/246069.got.cif
#   From: 2010.05.17/outbox.cif.g08.bks.cpg/sg2_124_cif.got.tgz:246069.got - 2010.06.03 11:33:40.
