data_PCOD9103697
_publ_section_title
;
Structure prediction by ZEFSAII (Michael W. Deem and Ramdas Pophale) SiO2 
 PCOD9103697
Probable space group: P -1
;
_chemical_formula_sum "Si O2"
_cell_formula_units_Z 16
_cell_length_a 9.058758
_cell_length_b 23.594931
_cell_length_c 5.270543
_cell_angle_alpha 96.495429
_cell_angle_beta 93.284660
_cell_angle_gamma 38.399554
_cell_volume 694.344949
_symmetry_space_group_name_H-M "P -1"
_symmetry_group_IT_number 2
_symmetry_cell_setting 'triclinic'
loop_
_space_group_symop_operation_xyz
x,y,z
-x,-y,-z
loop_
_atom_site_type_symbol
_atom_site_label
_atom_site_fract_x
_atom_site_fract_y
_atom_site_fract_z
Si Si1 0.915742 0.241534 0.186082
Si Si2 0.325212 0.954694 0.600480
Si Si3 0.215346 0.174534 0.690353
Si Si4 0.203308 0.867681 0.296139
Si Si5 0.554893 0.812772 0.948435
Si Si6 0.552766 0.259974 0.310094
Si Si7 0.853487 0.530076 0.751612
Si Si8 0.504597 0.537134 0.769204
O O1 0.061143 0.214649 0.441735
O O2 0.798231 0.215170 0.201946
O O3 0.717265 0.351163 0.186502
O O4 0.080900 0.189072 0.925535
O O5 0.515453 0.925368 0.415422
O O6 0.251295 0.914079 0.467037
O O7 0.464599 0.896318 0.840938
O O8 0.075413 0.060206 0.678842
O O9 0.273527 0.221080 0.826737
O O10 0.318792 0.848639 0.029378
O O11 0.361730 0.773384 0.406117
O O12 0.628288 0.741115 0.731291
O O13 0.376140 0.361218 0.247063
O O14 0.748612 0.498807 0.754075
O O15 0.000000 0.500000 0.500000
O O16 0.000000 0.500000 0.000000
O O17 0.500000 0.500000 0.500000
O O18 0.500000 0.500000 0.000000
#
# Coordination Sequence:
#
# PCOD9103697 Si02
#       8
#     2   2   2   2   2   2   2   2
#     4  11  25  43  66  90 138 171 208 269 328 389
#     4   9  18  38  61  97 132 169 216 276 313 370
#     4  11  22  41  64  96 127 173 215 265 315 374
#     4   9  19  36  65  94 130 172 217 266 322 386
#     4  10  20  38  67  97 129 165 230 264 320 377
#     4  10  25  42  64  97 130 175 213 260 338 394
#     4  11  26  46  69  98 136 167 214 284 331 383
#     4  11  24  46  68  97 127 177 220 261 335 407
#
# _framework density 23.043299999999999
#
# number of rings (size 3 to 8) (size 9 to 14) (size 15 to 20)
#    0.000    1.750    1.250    1.875    3.500    6.000 
#    4.500    1.250    0.000    0.000    0.000    0.000 
#    0.000    0.000    0.000    0.000    0.000    0.000 
#
# Total GULP energy -89119.898102 kJ/mol
# GULP energy per Si atom -5569.993631 kJ/mol
# Density = 2.299085 g / cm^3
# Si number density = 23.043300 Si / 1000 Ang^3
#
#
#
# Elastic Constant Matrix: (Units=GPa)
#
#
# Indices 1 2 3 4 5 6 
#
# 1 176.9613 16.8566 57.0063 -21.5439 13.4390 -14.2629
# 2 16.8566 38.5608 41.9733 1.6029 7.8359 -8.4780
# 3 57.0063 41.9733 193.0373 15.2304 -12.8956 -15.2549
# 4 -21.5439 1.6029 15.2304 29.7743 -8.9201 -10.6094
# 5 13.4390 7.8359 -12.8956 -8.9201 40.5026 9.5901
# 6 -14.2629 -8.4780 -15.2549 -10.6094 9.5901 34.3779
#
#
#
# Elastic Compliance Matrix: (Units=1/GPa)
#
#
# Indices 1 2 3 4 5 6 
#
# 1 0.008396 0.001647 -0.003288 0.008761 -0.003680 0.006161
# 2 0.001647 0.040775 -0.009657 0.004009 -0.013328 0.011409
# 3 -0.003288 -0.009657 0.008820 -0.005921 0.005200 -0.003110
# 4 0.008761 0.004009 -0.005921 0.049103 0.001270 0.016795
# 5 -0.003680 -0.013328 0.005200 0.001270 0.033113 -0.011352
# 6 0.006161 0.011409 -0.003110 0.016795 -0.011352 0.041428
#
#
# Mechanical properties :
#
#
# Convention : Reuss Voigt Hill
#
# Bulk Modulus (GPa) = 28.25310 71.13687 49.69499
# Shear Modulus (GPa) = 23.14498 40.44584 31.79541
#
# Velocity S-wave (km/s) = 3.17269 4.19407 3.71861
# Velocity P-wave (km/s) = 5.07038 7.37507 6.32852
#
# Compressibility (1/GPa) = 0.03539434
#
# Stress axis : x y z
#
# Youngs Moduli (GPa) = 119.10705 24.52459 113.38048
#
# Poissons Ratio (x) = -0.04038 0.37276
# Poissons Ratio (y) = -0.19613 1.09496
# Poissons Ratio (z) = 0.39158 0.23684
#
# Static dielectric constant tensor:
#      x y z
#    x 1.918560 0.013560 -0.004960 
#    y 0.013560 1.880020 0.077150 
#    z -0.004960 0.077150 1.894870 
# 
# From -- ./inp_files/54915.got.cif
#   From: 2010.05.17/outbox.cif.g08.bks.cpg/sg2_28_cif.got.tgz:54915.got - 2010.06.03 11:33:40.
