data_PCOD9103433
_publ_section_title
;
Structure prediction by ZEFSAII (Michael W. Deem and Ramdas Pophale) SiO2 
 PCOD9103433
Probable space group: P -1
;
_chemical_formula_sum "Si O2"
_cell_formula_units_Z 14
_cell_length_a 9.883380
_cell_length_b 9.389811
_cell_length_c 28.009055
_cell_angle_alpha 40.681735
_cell_angle_beta 25.851871
_cell_angle_gamma 50.813230
_cell_volume 727.029784
_symmetry_space_group_name_H-M "P -1"
_symmetry_group_IT_number 2
_symmetry_cell_setting 'triclinic'
loop_
_space_group_symop_operation_xyz
x,y,z
-x,-y,-z
loop_
_atom_site_type_symbol
_atom_site_label
_atom_site_fract_x
_atom_site_fract_y
_atom_site_fract_z
Si Si1 0.755812 0.828110 0.090379
Si Si2 0.499859 0.131818 0.015530
Si Si3 0.895901 0.372630 0.159978
Si Si4 0.109550 0.602046 0.388190
Si Si5 0.182358 0.171005 0.435584
Si Si6 0.856918 0.991755 0.401493
Si Si7 0.185142 0.447016 0.146636
O O1 0.915463 0.625837 0.069641
O O2 0.477481 0.704505 0.243848
O O3 0.579272 0.962843 0.074227
O O4 0.000000 0.000000 0.000000
O O5 0.175479 0.235093 0.094962
O O6 0.772841 0.348183 0.882501
O O7 0.500000 0.000000 0.000000
O O8 0.555929 0.232941 0.290838
O O9 0.916603 0.416546 0.199425
O O10 0.057952 0.405425 0.416350
O O11 0.000000 0.500000 0.500000
O O12 0.938789 0.809315 0.384950
O O13 0.134678 0.078945 0.528048
O O14 0.000000 0.000000 0.500000
O O15 0.112667 0.214640 0.255808
O O16 0.500000 0.000000 0.500000
O O17 0.500000 0.500000 0.000000
#
# Coordination Sequence:
#
# PCOD9103433 Si02
#       7
#     2   2   2   2   2   2   2
#     4  11  22  39  71  94 123 172 213 259 322 375
#     4  11  25  42  62 100 134 162 212 269 320 383
#     4  10  21  42  66  91 127 172 214 258 319 385
#     4   9  21  39  61  93 123 155 216 258 302 381
#     4  10  22  42  62  91 131 164 207 268 322 371
#     4  11  21  38  67  93 121 168 215 259 313 379
#     4  10  20  38  66  91 124 164 212 258 306 376
#
# _framework density 19.256433000000001
#
# number of rings (size 3 to 8) (size 9 to 14) (size 15 to 20)
#    0.000    1.714    2.857    1.714    2.000    2.857 
#    7.714    0.714    0.000    0.000    0.000    0.000 
#    0.000    0.000    0.000    0.000    0.000    0.000 
#
# Total GULP energy -77959.846246 kJ/mol
# GULP energy per Si atom -5568.560446 kJ/mol
# Density = 1.921260 g / cm^3
# Si number density = 19.256433 Si / 1000 Ang^3
#
#
#
# Elastic Constant Matrix: (Units=GPa)
#
#
# Indices 1 2 3 4 5 6 
#
# 1 95.8904 72.7431 46.5915 -5.3196 -27.3301 16.0527
# 2 72.7431 188.7879 63.3808 -6.4680 -16.2256 5.1283
# 3 46.5915 63.3808 107.7153 -22.3725 -12.7668 8.8192
# 4 -5.3196 -6.4680 -22.3725 32.5274 0.7879 -7.5826
# 5 -27.3301 -16.2256 -12.7668 0.7879 31.3393 -14.3903
# 6 16.0527 5.1283 8.8192 -7.5826 -14.3903 39.2702
#
#
#
# Elastic Compliance Matrix: (Units=1/GPa)
#
#
# Indices 1 2 3 4 5 6 
#
# 1 0.020384 -0.005332 -0.004373 -0.001617 0.012115 -0.002527
# 2 -0.005332 0.008180 -0.002925 -0.000951 -0.001028 0.001208
# 3 -0.004373 -0.002925 0.014815 0.009088 0.000906 0.000929
# 4 -0.001617 -0.000951 0.009088 0.038237 0.004391 0.007736
# 5 0.012115 -0.001028 0.000906 0.004391 0.048433 0.013574
# 6 -0.002527 0.001208 0.000929 0.007736 0.013574 0.032599
#
#
# Mechanical properties :
#
#
# Convention : Reuss Voigt Hill
#
# Bulk Modulus (GPa) = 55.18804 84.20272 69.69538
# Shear Modulus (GPa) = 25.78010 34.60594 30.19302
#
# Velocity S-wave (km/s) = 3.66290 4.24383 3.96402
# Velocity P-wave (km/s) = 6.82722 8.23623 7.56460
#
# Compressibility (1/GPa) = 0.01811987
#
# Stress axis : x y z
#
# Youngs Moduli (GPa) = 49.05741 122.25447 67.49929
#
# Poissons Ratio (x) = 0.65185 0.29516
# Poissons Ratio (y) = 0.26157 0.19743
# Poissons Ratio (z) = 0.21451 0.35758
#
# Static dielectric constant tensor:
#      x y z
#    x 1.663070 -0.041680 0.025350 
#    y -0.041680 1.770260 -0.007740 
#    z 0.025350 -0.007740 1.706060 
# 
# From -- ./inp_files/220733.got.cif
#   From: 2010.05.17/outbox.cif.g08.bks.cpg/sg2_111_cif.got.tgz:220733.got - 2010.06.03 11:33:40.
