data_PCOD9103354
_publ_section_title
;
Structure prediction by ZEFSAII (Michael W. Deem and Ramdas Pophale) SiO2 
 PCOD9103354
Probable space group: P -1
;
_chemical_formula_sum "Si O2"
_cell_formula_units_Z 12
_cell_length_a 9.302079
_cell_length_b 16.004361
_cell_length_c 8.966562
_cell_angle_alpha 144.239437
_cell_angle_beta 134.561648
_cell_angle_gamma 70.719116
_cell_volume 454.966323
_symmetry_space_group_name_H-M "P -1"
_symmetry_group_IT_number 2
_symmetry_cell_setting 'triclinic'
loop_
_space_group_symop_operation_xyz
x,y,z
-x,-y,-z
loop_
_atom_site_type_symbol
_atom_site_label
_atom_site_fract_x
_atom_site_fract_y
_atom_site_fract_z
Si Si1 0.113645 0.682053 0.431417
Si Si2 0.451788 0.784632 0.595287
Si Si3 0.561040 0.532593 0.413001
Si Si4 0.142090 0.847045 0.242982
Si Si5 0.236933 0.658960 0.818531
Si Si6 0.992861 0.045531 0.236426
O O1 0.397351 0.806267 0.757632
O O2 0.140508 0.658568 0.587354
O O3 0.966289 0.769550 0.438122
O O4 0.000000 0.500000 0.000000
O O5 0.424943 0.601399 0.319343
O O6 0.256519 0.810127 0.413033
O O7 0.709879 0.913585 0.892645
O O8 0.500000 0.500000 0.500000
O O9 0.555580 0.376205 0.101501
O O10 0.850235 0.695938 0.839561
O O11 0.288555 0.821207 0.182603
O O12 0.139630 0.006358 0.405247
O O13 0.000000 0.500000 0.500000
O O14 0.000000 0.000000 0.000000
#
# Coordination Sequence:
#
# PCOD9103354 Si02
#       6
#     2   2   2   2   2   2
#     4  12  24  45  75 107 143 190 239 297 364 432
#     4  11  25  44  72 108 144 191 241 296 364 429
#     4  10  20  38  66 102 148 185 232 298 358 414
#     4  10  23  44  69 103 142 191 244 292 357 435
#     4  10  20  40  66 100 148 180 230 300 354 413
#     4  11  25  50  74 101 148 191 239 302 362 427
#
# _framework density 26.375578999999998
#
# number of rings (size 3 to 8) (size 9 to 14) (size 15 to 20)
#    0.000    1.333    3.333    2.500    0.000    2.000 
#    3.000    1.667    0.000    0.000    0.000    0.000 
#    0.000    0.000    0.000    0.000    0.000    0.000 
#
# Total GULP energy -67057.091043 kJ/mol
# GULP energy per Si atom -5588.090920 kJ/mol
# Density = 2.631555 g / cm^3
# Si number density = 26.375579 Si / 1000 Ang^3
#
#
#
# Elastic Constant Matrix: (Units=GPa)
#
#
# Indices 1 2 3 4 5 6 
#
# 1 197.9593 75.5824 25.5889 16.0813 -0.0751 3.3588
# 2 75.5824 228.6363 43.5135 12.4059 -9.0071 -23.8482
# 3 25.5889 43.5135 36.0897 15.4149 -0.0976 -4.1024
# 4 16.0813 12.4059 15.4149 50.0801 -7.4803 -8.7767
# 5 -0.0751 -9.0071 -0.0976 -7.4803 47.3321 0.9829
# 6 3.3588 -23.8482 -4.1024 -8.7767 0.9829 71.7265
#
#
#
# Elastic Compliance Matrix: (Units=1/GPa)
#
#
# Indices 1 2 3 4 5 6 
#
# 1 0.006064 -0.001726 -0.001822 -0.001226 -0.000494 -0.001105
# 2 -0.001726 0.006463 -0.007059 0.001694 0.001438 0.002013
# 3 -0.001822 -0.007059 0.042201 -0.011316 -0.003023 -0.001191
# 4 -0.001226 0.001694 -0.011316 0.024552 0.004117 0.002921
# 5 -0.000494 0.001438 -0.003023 0.004117 0.022034 0.000530
# 6 -0.001105 0.002013 -0.001191 0.002921 0.000530 0.014945
#
#
# Mechanical properties :
#
#
# Convention : Reuss Voigt Hill
#
# Bulk Modulus (GPa) = 29.83761 83.56166 56.69963
# Shear Modulus (GPa) = 33.63751 55.02776 44.33264
#
# Velocity S-wave (km/s) = 3.57505 4.57257 4.10423
# Velocity P-wave (km/s) = 5.32714 7.72193 6.63350
#
# Compressibility (1/GPa) = 0.03351474
#
# Stress axis : x y z
#
# Youngs Moduli (GPa) = 164.89939 154.73696 23.69612
#
# Poissons Ratio (x) = 0.26711 0.04317
# Poissons Ratio (y) = 0.28466 0.16726
# Poissons Ratio (z) = 0.30038 1.09224
#
# Static dielectric constant tensor:
#      x y z
#    x 2.455730 0.286040 0.023360 
#    y 0.286040 2.343190 0.011840 
#    z 0.023360 0.011840 2.285520 
# 
# From -- ./inp_files/204897.got.cif
#   From: 2010.05.17/outbox.cif.g08.bks.cpg/sg2_103_cif.got.tgz:204897.got - 2010.06.03 11:33:40.
