data_PCOD9103353
_publ_section_title
;
Structure prediction by ZEFSAII (Michael W. Deem and Ramdas Pophale) SiO2 
 PCOD9103353
Probable space group: P -1
;
_chemical_formula_sum "Si O2"
_cell_formula_units_Z 13
_cell_length_a 8.867205
_cell_length_b 12.889749
_cell_length_c 5.174878
_cell_angle_alpha 87.360706
_cell_angle_beta 67.853049
_cell_angle_gamma 80.511941
_cell_volume 540.251412
_symmetry_space_group_name_H-M "P -1"
_symmetry_group_IT_number 2
_symmetry_cell_setting 'triclinic'
loop_
_space_group_symop_operation_xyz
x,y,z
-x,-y,-z
loop_
_atom_site_type_symbol
_atom_site_label
_atom_site_fract_x
_atom_site_fract_y
_atom_site_fract_z
Si Si1 0.956600 0.826707 0.981286
Si Si2 0.396097 0.475337 0.323421
Si Si3 0.122585 0.667426 0.522606
Si Si4 0.512875 0.928470 0.750011
Si Si5 0.000000 0.000000 0.500000
Si Si6 0.239107 0.269565 0.499678
Si Si7 0.778044 0.147537 0.826484
O O1 0.089984 0.726864 0.811712
O O2 0.939421 0.913502 0.763196
O O3 0.031304 0.879653 0.180790
O O4 0.804402 0.772835 0.183315
O O5 0.500000 0.500000 0.500000
O O6 0.218850 0.551030 0.456308
O O7 0.353679 0.358124 0.388420
O O8 0.500000 0.500000 0.000000
O O9 0.236888 0.736891 0.285507
O O10 0.939713 0.685828 0.513615
O O11 0.666452 0.835884 0.673800
O O12 0.500000 0.000000 0.500000
O O13 0.352738 0.870396 0.880717
O O14 0.500000 0.000000 0.000000
O O15 0.192759 0.937279 0.408898
#
# Coordination Sequence:
#
# PCOD9103353 Si02
#       7
#     2   2   2   2   1   2   2
#     4  10  23  40  74 101 149 196 252 311 372 454
#     4  12  30  51  84 114 153 200 254 323 395 457
#     4  10  25  47  78 108 147 196 258 313 385 460
#     4  12  30  44  71 107 155 202 252 312 381 449
#     4  10  20  38  66 102 138 198 248 304 370 442
#     4  11  27  49  74 111 155 201 262 316 387 457
#     4  10  23  41  67  98 149 190 259 299 383 437
#
# _framework density 24.062871999999999
#
# number of rings (size 3 to 8) (size 9 to 14) (size 15 to 20)
#    0.000    1.231    0.000    2.769   21.538    0.615 
#    0.000    0.000    0.000    0.000    0.000    0.000 
#    0.000    0.000    0.000    0.000    0.000    0.000 
#
# Total GULP energy -72472.652852 kJ/mol
# GULP energy per Si atom -5574.819450 kJ/mol
# Density = 2.400810 g / cm^3
# Si number density = 24.062872 Si / 1000 Ang^3
#
#
#
# Elastic Constant Matrix: (Units=GPa)
#
#
# Indices 1 2 3 4 5 6 
#
# 1 94.6126 43.5340 56.6737 -2.5485 -6.7765 -0.4046
# 2 43.5340 176.6067 66.4555 -2.5393 -10.4226 -5.3658
# 3 56.6737 66.4555 176.6767 -24.6021 -16.1277 13.6720
# 4 -2.5485 -2.5393 -24.6021 35.6994 7.3596 -14.6437
# 5 -6.7765 -10.4226 -16.1277 7.3596 38.4303 -8.2996
# 6 -0.4046 -5.3658 13.6720 -14.6437 -8.2996 34.9567
#
#
#
# Elastic Compliance Matrix: (Units=1/GPa)
#
#
# Indices 1 2 3 4 5 6 
#
# 1 0.013815 -0.001865 -0.003961 -0.001663 0.000784 0.000912
# 2 -0.001865 0.007065 -0.002181 -0.000579 0.001206 0.001960
# 3 -0.003961 -0.002181 0.008618 0.004639 0.001104 -0.001546
# 4 -0.001663 -0.000579 0.004639 0.036905 -0.002790 0.012875
# 5 0.000784 0.001206 0.001104 -0.002790 0.028649 0.005395
# 6 0.000912 0.001960 -0.001546 0.012875 0.005395 0.036197
#
#
# Mechanical properties :
#
#
# Convention : Reuss Voigt Hill
#
# Bulk Modulus (GPa) = 74.16433 86.80249 80.48341
# Shear Modulus (GPa) = 32.94695 40.56614 36.75654
#
# Velocity S-wave (km/s) = 3.70429 4.11035 3.91259
# Velocity P-wave (km/s) = 7.01310 7.66017 7.34377
#
# Compressibility (1/GPa) = 0.01348357
#
# Stress axis : x y z
#
# Youngs Moduli (GPa) = 72.38329 141.53669 116.04276
#
# Poissons Ratio (x) = 0.26398 0.45962
# Poissons Ratio (y) = 0.13500 0.25314
# Poissons Ratio (z) = 0.28669 0.30875
#
# Static dielectric constant tensor:
#      x y z
#    x 1.966430 -0.150450 -0.190340 
#    y -0.150450 1.322840 -0.482100 
#    z -0.190340 -0.482100 1.438590 
# 
# From -- ./inp_files/23889.got.cif
#   From: 2010.05.17/outbox.cif.g08.bks.cpg/sg2_12_cif.got.tgz:23889.got - 2010.06.03 11:33:40.
