data_PCOD9103538
_publ_section_title
;
Structure prediction by ZEFSAII (Michael W. Deem and Ramdas Pophale) SiO2 
 PCOD9103538
Probable space group: P -1
;
_chemical_formula_sum "Si O2"
_cell_formula_units_Z 14
_cell_length_a 12.289236
_cell_length_b 12.006563
_cell_length_c 7.044167
_cell_angle_alpha 44.035633
_cell_angle_beta 106.490480
_cell_angle_gamma 128.172200
_cell_volume 542.946164
_symmetry_space_group_name_H-M "P -1"
_symmetry_group_IT_number 2
_symmetry_cell_setting 'triclinic'
loop_
_space_group_symop_operation_xyz
x,y,z
-x,-y,-z
loop_
_atom_site_type_symbol
_atom_site_label
_atom_site_fract_x
_atom_site_fract_y
_atom_site_fract_z
Si Si1 0.089346 0.351672 0.607339
Si Si2 0.611502 0.196266 0.182759
Si Si3 0.102761 0.545935 0.747669
Si Si4 0.360211 0.074640 0.681000
Si Si5 0.946854 0.089563 0.211282
Si Si6 0.583951 0.698780 0.931559
Si Si7 0.618305 0.487308 0.485860
O O1 0.145381 0.531793 0.570966
O O2 0.970561 0.345186 0.437874
O O3 0.229473 0.434075 0.449133
O O4 0.018822 0.158906 0.951486
O O5 0.758499 0.340149 0.193263
O O6 0.500000 0.000000 0.500000
O O7 0.637461 0.114138 0.108565
O O8 0.661911 0.882547 0.598604
O O9 0.472199 0.708151 0.988484
O O10 0.993629 0.307399 0.045001
O O11 0.515092 0.267674 0.599478
O O12 0.225221 0.043719 0.749559
O O13 0.000000 0.000000 0.500000
O O14 0.500000 0.500000 0.000000
O O15 0.682075 0.667571 0.137891
O O16 0.500000 0.500000 0.500000
#
# Coordination Sequence:
#
# PCOD9103538 Si02
#       7
#     2   2   2   2   2   2   2
#     4   9  20  42  64  95 139 180 214 281 354 399
#     4  10  20  38  66  98 125 178 236 276 330 408
#     4   9  20  39  68  94 137 178 218 278 357 392
#     4  10  22  40  62  99 128 171 238 277 330 411
#     4  10  21  38  66  98 134 177 223 280 341 405
#     4   9  19  37  66  91 132 172 222 279 332 388
#     4  11  23  42  67  96 132 180 229 283 347 405
#
# _framework density 25.785246000000001
#
# number of rings (size 3 to 8) (size 9 to 14) (size 15 to 20)
#    0.857    1.429    0.000    3.429    4.000    1.714 
#    7.714    2.143    0.000    0.000    0.000    0.000 
#    0.000    0.000    0.000    0.000    0.000    0.000 
#
# Total GULP energy -78092.607150 kJ/mol
# GULP energy per Si atom -5578.043368 kJ/mol
# Density = 2.572656 g / cm^3
# Si number density = 25.785246 Si / 1000 Ang^3
#
#
#
# Elastic Constant Matrix: (Units=GPa)
#
#
# Indices 1 2 3 4 5 6 
#
# 1 157.3512 28.2143 53.6035 -5.1908 -10.1823 17.5022
# 2 28.2143 64.6488 10.2021 -1.8850 15.3124 2.2416
# 3 53.6035 10.2021 112.5609 2.9459 19.1308 21.6497
# 4 -5.1908 -1.8850 2.9459 16.5468 1.3407 4.2257
# 5 -10.1823 15.3124 19.1308 1.3407 49.8715 6.0834
# 6 17.5022 2.2416 21.6497 4.2257 6.0834 45.8465
#
#
#
# Elastic Compliance Matrix: (Units=1/GPa)
#
#
# Indices 1 2 3 4 5 6 
#
# 1 0.009434 -0.004452 -0.004648 0.003416 0.005253 -0.002201
# 2 -0.004452 0.018930 0.001452 0.000849 -0.007423 0.000995
# 3 -0.004648 0.001452 0.012640 -0.002234 -0.005782 -0.003292
# 4 0.003416 0.000849 -0.002234 0.063555 0.000341 -0.006194
# 5 0.005253 -0.007423 -0.005782 0.000341 0.025902 -0.002380
# 6 -0.002201 0.000995 -0.003292 -0.006194 -0.002380 0.025045
#
#
# Mechanical properties :
#
#
# Convention : Reuss Voigt Hill
#
# Bulk Modulus (GPa) = 38.89634 57.62232 48.25933
# Shear Modulus (GPa) = 27.87487 38.62235 33.24861
#
# Velocity S-wave (km/s) = 3.29148 3.87440 3.59478
# Velocity P-wave (km/s) = 5.43715 6.51231 5.99887
#
# Compressibility (1/GPa) = 0.02570936
#
# Stress axis : x y z
#
# Youngs Moduli (GPa) = 105.99525 52.82525 79.11106
#
# Poissons Ratio (x) = 0.23518 0.36772
# Poissons Ratio (y) = 0.47190 -0.11490
# Poissons Ratio (z) = 0.49268 -0.07672
#
# Static dielectric constant tensor:
#      x y z
#    x 2.024900 -0.104510 0.069540 
#    y -0.104510 2.043150 -0.012270 
#    z 0.069540 -0.012270 2.133400 
# 
# From -- ./inp_files/300220.got.cif
#   From: 2010.05.17/outbox.cif.g08.bks.cpg/sg2_151_cif.got.tgz:300220.got - 2010.06.03 11:33:40.
