data_PCOD9103281
_publ_section_title
;
Structure prediction by ZEFSAII (Michael W. Deem and Ramdas Pophale) SiO2 
 PCOD9103281
Probable space group: P -1
;
_chemical_formula_sum "Si O2"
_cell_formula_units_Z 16
_cell_length_a 10.873454
_cell_length_b 21.916114
_cell_length_c 12.069484
_cell_angle_alpha 137.909657
_cell_angle_beta 155.416268
_cell_angle_gamma 40.800762
_cell_volume 766.454265
_symmetry_space_group_name_H-M "P -1"
_symmetry_group_IT_number 2
_symmetry_cell_setting 'triclinic'
loop_
_space_group_symop_operation_xyz
x,y,z
-x,-y,-z
loop_
_atom_site_type_symbol
_atom_site_label
_atom_site_fract_x
_atom_site_fract_y
_atom_site_fract_z
Si Si1 0.890752 0.724606 0.166702
Si Si2 0.860017 0.948993 0.721898
Si Si3 0.124835 0.248468 0.431685
Si Si4 0.683167 0.478871 0.738144
Si Si5 0.204438 0.016739 0.898926
Si Si6 0.420575 0.852973 0.524786
Si Si7 0.400548 0.814909 0.700220
Si Si8 0.437091 0.341530 0.982192
O O1 0.191399 0.631325 0.274068
O O2 0.063634 0.803619 0.436630
O O3 0.664639 0.752932 0.914462
O O4 0.680999 0.705049 0.069316
O O5 0.897693 0.838746 0.626656
O O6 0.015508 0.971664 0.769709
O O7 0.500000 0.000000 0.500000
O O8 0.000000 0.000000 0.000000
O O9 0.389648 0.206806 0.501957
O O10 0.781801 0.285545 0.151525
O O11 0.205740 0.329505 0.680762
O O12 0.500000 0.500000 0.500000
O O13 0.548211 0.554879 0.826409
O O14 0.000000 0.500000 0.000000
O O15 0.381488 0.925795 0.848786
O O16 0.941374 0.099402 0.732877
O O17 0.426809 0.062540 0.211927
O O18 0.459881 0.793210 0.589784
#
# Coordination Sequence:
#
# PCOD9103281 Si02
#       8
#     2   2   2   2   2   2   2   2
#     4  11  22  41  63  94 122 151 196 255 315 363
#     4  12  21  36  55  85 118 156 194 248 308 347
#     4  12  23  38  60  89 126 161 201 245 304 370
#     4  10  20  38  65  95 127 152 185 248 322 375
#     4  12  22  41  60  85 120 160 219 256 302 349
#     4  12  25  42  58  84 122 173 211 249 296 348
#     4  12  25  40  63  86 120 164 214 256 289 358
#     4  11  22  38  64  96 121 151 195 248 312 378
#
# _framework density 20.875347000000001
#
# number of rings (size 3 to 8) (size 9 to 14) (size 15 to 20)
#    0.000    0.500    2.500    9.000    0.000    0.000 
#    0.000    0.000    0.000    4.500    0.000    0.000 
#    0.000    0.000    0.000    0.000    0.000    0.000 
#
# Total GULP energy -89399.579556 kJ/mol
# GULP energy per Si atom -5587.473722 kJ/mol
# Density = 2.082783 g / cm^3
# Si number density = 20.875347 Si / 1000 Ang^3
#
#
#
# Elastic Constant Matrix: (Units=GPa)
#
#
# Indices 1 2 3 4 5 6 
#
# 1 81.6386 15.2258 10.2550 -4.7549 -17.2022 -0.8632
# 2 15.2258 49.0591 18.2698 -1.6671 -9.0186 -9.5766
# 3 10.2550 18.2698 128.7215 -8.3747 -8.3712 -1.8686
# 4 -4.7549 -1.6671 -8.3747 40.1553 -3.2242 -2.3532
# 5 -17.2022 -9.0186 -8.3712 -3.2242 33.0814 -3.4561
# 6 -0.8632 -9.5766 -1.8686 -2.3532 -3.4561 22.9442
#
#
#
# Elastic Compliance Matrix: (Units=1/GPa)
#
#
# Indices 1 2 3 4 5 6 
#
# 1 0.014407 -0.002971 -0.000129 0.002143 0.006916 0.000553
# 2 -0.002971 0.025738 -0.002769 0.001300 0.006094 0.011457
# 3 -0.000129 -0.002769 0.008378 0.001729 0.001458 -0.000081
# 4 0.002143 0.001300 0.001729 0.026211 0.004899 0.004190
# 5 0.006916 0.006094 0.001458 0.004899 0.037277 0.009040
# 6 0.000553 0.011457 -0.000081 0.004190 0.009040 0.050171
#
#
# Mechanical properties :
#
#
# Convention : Reuss Voigt Hill
#
# Bulk Modulus (GPa) = 27.18506 38.54673 32.86589
# Shear Modulus (GPa) = 26.85531 33.61408 30.23469
#
# Velocity S-wave (km/s) = 3.59062 4.01712 3.80984
# Velocity P-wave (km/s) = 5.49917 6.32626 5.92716
#
# Compressibility (1/GPa) = 0.03678492
#
# Stress axis : x y z
#
# Youngs Moduli (GPa) = 69.40884 38.85322 119.35770
#
# Poissons Ratio (x) = 0.11545 0.01538
# Poissons Ratio (y) = 0.20624 0.33051
# Poissons Ratio (z) = 0.00894 0.10759
#
# Static dielectric constant tensor:
#      x y z
#    x 1.774870 -0.039080 -0.016470 
#    y -0.039080 1.890710 0.035760 
#    z -0.016470 0.035760 1.721070 
# 
# From -- ./inp_files/439294.got.cif
#   From: 2010.05.17/outbox.cif.g08.bks.cpg/sg2_220_cif.got.tgz:439294.got - 2010.06.03 11:33:40.
