data_PCOD9103860
_publ_section_title
;
Structure prediction by ZEFSAII (Michael W. Deem and Ramdas Pophale) SiO2 
 PCOD9103860
Probable space group: P -1
;
_chemical_formula_sum "Si O2"
_cell_formula_units_Z 15
_cell_length_a 9.587586
_cell_length_b 11.648333
_cell_length_c 8.227463
_cell_angle_alpha 62.434031
_cell_angle_beta 129.701412
_cell_angle_gamma 110.640906
_cell_volume 624.501883
_symmetry_space_group_name_H-M "P -1"
_symmetry_group_IT_number 2
_symmetry_cell_setting 'triclinic'
loop_
_space_group_symop_operation_xyz
x,y,z
-x,-y,-z
loop_
_atom_site_type_symbol
_atom_site_label
_atom_site_fract_x
_atom_site_fract_y
_atom_site_fract_z
Si Si1 0.398816 0.983871 0.265414
Si Si2 0.500000 0.000000 0.000000
Si Si3 0.074325 0.915399 0.753291
Si Si4 0.285419 0.455452 0.037797
Si Si5 0.831523 0.812111 0.911038
Si Si6 0.671113 0.546572 0.319394
Si Si7 0.025628 0.669203 0.664848
Si Si8 0.822095 0.271662 0.608848
O O1 0.549498 0.992032 0.232143
O O2 0.288628 0.846204 0.306814
O O3 0.500000 0.000000 0.500000
O O4 0.284445 0.111239 0.100187
O O5 0.715820 0.040500 0.080566
O O6 0.941900 0.916024 0.809336
O O7 0.053441 0.768623 0.767227
O O8 0.000000 0.000000 0.500000
O O9 0.318054 0.439850 0.877615
O O10 0.108918 0.535594 0.865918
O O11 0.276973 0.306224 0.189362
O O12 0.454926 0.540325 0.192395
O O13 0.979357 0.736215 0.165137
O O14 0.817825 0.643284 0.460760
O O15 0.736537 0.404914 0.496254
O O16 0.147910 0.726839 0.565025
#
# Coordination Sequence:
#
# PCOD9103860 Si02
#       8
#     2   1   2   2   2   2   2   2
#     4  12  26  45  71 107 143 190 244 298 361 430
#     4  12  28  48  72 106 144 184 240 302 348 434
#     4  12  29  47  69 103 143 188 237 298 364 425
#     4  10  21  39  67 105 133 185 233 283 357 421
#     4  12  23  45  71  98 142 187 231 291 358 427
#     4  10  20  38  69 100 140 176 235 291 345 429
#     4  11  22  42  67 101 140 181 233 293 349 429
#     4  11  20  41  69  99 134 186 232 285 359 420
#
# _framework density 24.019144000000001
#
# number of rings (size 3 to 8) (size 9 to 14) (size 15 to 20)
#    0.000    0.800    4.000    4.400    1.867    3.733 
#    0.000    0.667    0.000    0.000    0.000    0.000 
#    0.000    0.000    0.000    0.000    0.000    0.000 
#
# Total GULP energy -83604.784735 kJ/mol
# GULP energy per Si atom -5573.652316 kJ/mol
# Density = 2.396448 g / cm^3
# Si number density = 24.019144 Si / 1000 Ang^3
#
#
#
# Elastic Constant Matrix: (Units=GPa)
#
#
# Indices 1 2 3 4 5 6 
#
# 1 83.5238 30.9459 7.5741 -2.1337 -13.2652 20.6324
# 2 30.9459 73.4803 0.7931 -4.7124 10.8360 8.7869
# 3 7.5741 0.7931 62.1886 -3.8745 13.6195 12.0013
# 4 -2.1337 -4.7124 -3.8745 38.4815 14.7321 -1.7770
# 5 -13.2652 10.8360 13.6195 14.7321 32.9062 8.7255
# 6 20.6324 8.7869 12.0013 -1.7770 8.7255 28.8440
#
#
#
# Elastic Compliance Matrix: (Units=1/GPa)
#
#
# Indices 1 2 3 4 5 6 
#
# 1 0.028467 -0.014646 -0.006506 -0.014031 0.031530 -0.023597
# 2 -0.014646 0.022878 0.005653 0.011984 -0.023533 0.009012
# 3 -0.006506 0.005653 0.021168 0.009077 -0.017286 -0.000088
# 4 -0.014031 0.011984 0.009077 0.042376 -0.036655 0.016308
# 5 0.031530 -0.023533 -0.017286 -0.036655 0.083917 -0.035836
# 6 -0.023597 0.009012 -0.000088 0.016308 -0.035836 0.060685
#
#
# Mechanical properties :
#
#
# Convention : Reuss Voigt Hill
#
# Bulk Modulus (GPa) = 24.08771 33.09101 28.58936
# Shear Modulus (GPa) = 16.42968 32.03832 24.23400
#
# Velocity S-wave (km/s) = 2.61822 3.65618 3.17984
# Velocity P-wave (km/s) = 4.38069 5.62408 5.04087
#
# Compressibility (1/GPa) = 0.04151495
#
# Stress axis : x y z
#
# Youngs Moduli (GPa) = 35.12799 43.71103 47.24003
#
# Poissons Ratio (x) = 0.64021 0.30734
# Poissons Ratio (y) = 0.51450 -0.26706
# Poissons Ratio (z) = 0.22854 -0.24711
#
# Static dielectric constant tensor:
#      x y z
#    x 16.711510 3.977620 -9.401280 
#    y 3.977620 3.055580 -2.398290 
#    z -9.401280 -2.398290 7.931160 
# 
# From -- ./inp_files/185529.got.cif
#   From: 2010.05.17/outbox.cif.g08.bks.cpg/sg2_93_cif.got.tgz:185529.got - 2010.06.03 11:33:40.
