data_PCOD9103391
_publ_section_title
;
Structure prediction by ZEFSAII (Michael W. Deem and Ramdas Pophale) SiO2 
 PCOD9103391
Probable space group: P -1
;
_chemical_formula_sum "Si O2"
_cell_formula_units_Z 15
_cell_length_a 7.867144
_cell_length_b 10.821432
_cell_length_c 14.552869
_cell_angle_alpha 80.076935
_cell_angle_beta 45.239528
_cell_angle_gamma 110.698538
_cell_volume 636.313588
_symmetry_space_group_name_H-M "P -1"
_symmetry_group_IT_number 2
_symmetry_cell_setting 'triclinic'
loop_
_space_group_symop_operation_xyz
x,y,z
-x,-y,-z
loop_
_atom_site_type_symbol
_atom_site_label
_atom_site_fract_x
_atom_site_fract_y
_atom_site_fract_z
Si Si1 0.912142 0.418923 0.763982
Si Si2 0.500000 0.500000 0.000000
Si Si3 0.111085 0.104220 0.635655
Si Si4 0.328822 0.747274 0.455772
Si Si5 0.305741 0.063507 0.005858
Si Si6 0.820068 0.780666 0.679828
Si Si7 0.479427 0.577267 0.671790
Si Si8 0.237855 0.226951 0.860829
O O1 0.691671 0.453124 0.881535
O O2 0.111218 0.547102 0.586314
O O3 0.162303 0.478679 0.742497
O O4 0.687992 0.222210 0.847931
O O5 0.673164 0.662895 0.841093
O O6 0.426407 0.157690 0.561876
O O7 0.232816 0.279416 0.525562
O O8 0.839408 0.008272 0.829620
O O9 0.982477 0.968321 0.622594
O O10 0.549192 0.795562 0.277605
O O11 0.097783 0.785235 0.533867
O O12 0.200136 0.157628 0.985135
O O13 0.119472 0.896992 0.033916
O O14 0.537358 0.688504 0.722440
O O15 0.434808 0.425100 0.752732
#
# Coordination Sequence:
#
# PCOD9103391 Si02
#       8
#     2   1   2   2   2   2   2   2
#     4  10  21  39  60  97 125 172 201 259 328 374
#     4  10  20  38  66  88 124 162 208 260 306 380
#     4  10  21  41  63  95 128 166 207 265 318 384
#     4   9  21  38  67  94 122 171 217 251 316 373
#     4  10  21  41  68  89 127 167 219 257 317 368
#     4  11  21  39  67  94 127 166 210 267 309 386
#     4  11  25  39  62  96 134 166 208 260 330 366
#     4  10  22  43  65  96 124 167 219 268 298 386
#
# _framework density 23.573281999999999
#
# number of rings (size 3 to 8) (size 9 to 14) (size 15 to 20)
#    0.000    1.867    1.333    2.400    0.000    8.000 
#    0.000    4.000    0.000    0.000    0.000    0.000 
#    0.000    0.000    0.000    0.000    0.000    0.000 
#
# Total GULP energy -83558.822474 kJ/mol
# GULP energy per Si atom -5570.588165 kJ/mol
# Density = 2.351963 g / cm^3
# Si number density = 23.573282 Si / 1000 Ang^3
#
#
#
# Elastic Constant Matrix: (Units=GPa)
#
#
# Indices 1 2 3 4 5 6 
#
# 1 66.6454 44.4694 26.2247 -26.6775 6.9852 14.8190
# 2 44.4694 87.3288 57.1653 -42.1222 4.4392 15.8190
# 3 26.2247 57.1653 144.1031 -35.8071 14.0480 2.1632
# 4 -26.6775 -42.1222 -35.8071 32.5926 0.1953 -7.8126
# 5 6.9852 4.4392 14.0480 0.1953 32.6289 -15.9902
# 6 14.8190 15.8190 2.1632 -7.8126 -15.9902 33.7721
#
#
#
# Elastic Compliance Matrix: (Units=1/GPa)
#
#
# Indices 1 2 3 4 5 6 
#
# 1 0.027893 -0.005399 0.002309 0.015576 -0.012226 -0.012044
# 2 -0.005399 0.035778 -0.003498 0.035825 -0.006902 -0.009146
# 3 0.002309 -0.003498 0.010610 0.009000 -0.004748 -0.000220
# 4 0.015576 0.035825 0.009000 0.097330 -0.017563 -0.009992
# 5 -0.012226 -0.006902 -0.004748 -0.017563 0.050425 0.028714
# 6 -0.012044 -0.009146 -0.000220 -0.009992 0.028714 0.050477
#
#
# Mechanical properties :
#
#
# Convention : Reuss Voigt Hill
#
# Bulk Modulus (GPa) = 16.36555 61.53291 38.94923
# Shear Modulus (GPa) = 16.33684 31.14657 23.74170
#
# Velocity S-wave (km/s) = 2.63539 3.63887 3.17700
# Velocity P-wave (km/s) = 4.02714 6.61926 5.47871
#
# Compressibility (1/GPa) = 0.06110397
#
# Stress axis : x y z
#
# Youngs Moduli (GPa) = 35.85102 27.95044 94.25378
#
# Poissons Ratio (x) = 0.15089 -0.21760
# Poissons Ratio (y) = 0.19354 0.32973
# Poissons Ratio (z) = -0.08277 0.09778
#
# Static dielectric constant tensor:
#      x y z
#    x 1.928540 0.021960 -0.024710 
#    y 0.021960 1.871820 -0.028820 
#    z -0.024710 -0.028820 1.878330 
# 
# From -- ./inp_files/445101.got.cif
#   From: 2010.05.17/outbox.cif.g08.bks.cpg/sg2_223_cif.got.tgz:445101.got - 2010.06.03 11:33:40.
