data_PCOD9103466
_publ_section_title
;
Structure prediction by ZEFSAII (Michael W. Deem and Ramdas Pophale) SiO2 
 PCOD9103466
Probable space group: P -1
;
_chemical_formula_sum "Si O2"
_cell_formula_units_Z 14
_cell_length_a 8.799299
_cell_length_b 20.439988
_cell_length_c 19.737926
_cell_angle_alpha 159.121152
_cell_angle_beta 149.925492
_cell_angle_gamma 31.636418
_cell_volume 615.511945
_symmetry_space_group_name_H-M "P -1"
_symmetry_group_IT_number 2
_symmetry_cell_setting 'triclinic'
loop_
_space_group_symop_operation_xyz
x,y,z
-x,-y,-z
loop_
_atom_site_type_symbol
_atom_site_label
_atom_site_fract_x
_atom_site_fract_y
_atom_site_fract_z
Si Si1 0.677953 0.403265 0.206499
Si Si2 0.595817 0.662119 0.550153
Si Si3 0.499591 0.822235 0.875924
Si Si4 0.142943 0.762653 0.094302
Si Si5 0.484574 0.580220 0.166241
Si Si6 0.962684 0.214504 0.438976
Si Si7 0.628790 0.043360 0.891663
O O1 0.611180 0.486133 0.336646
O O2 0.505041 0.544192 0.218943
O O3 0.058156 0.360438 0.305009
O O4 0.559226 0.210404 0.972360
O O5 0.316242 0.703117 0.535799
O O6 0.541483 0.845523 0.657340
O O7 0.210901 0.749523 0.666499
O O8 0.481015 0.889515 0.010537
O O9 0.848685 0.698483 0.885694
O O10 0.500000 0.000000 0.000000
O O11 0.181981 0.703487 0.130840
O O12 0.434136 0.628827 0.038654
O O13 0.091331 0.987186 0.280857
O O14 0.750499 0.689731 0.355769
O O15 0.000000 0.000000 0.000000
#
# Coordination Sequence:
#
# PCOD9103466 Si02
#       7
#     2   2   2   2   2   2   2
#     4  10  24  37  58  92 129 158 201 243 316 368
#     4  10  21  39  59  92 124 155 201 262 300 353
#     4  10  20  38  66  93 116 156 213 253 298 353
#     4  10  23  43  63  88 128 158 211 252 300 365
#     4  11  25  41  63  91 124 169 199 250 311 368
#     4  11  23  38  70  94 117 156 213 261 301 348
#     4  10  21  37  58  89 129 158 193 257 306 359
#
# _framework density 22.745293
#
# number of rings (size 3 to 8) (size 9 to 14) (size 15 to 20)
#    0.000    1.714    2.857    1.286   14.000    1.143 
#    0.000    1.429    0.000    0.000    0.000    0.000 
#    0.000    0.000    0.000    0.000    0.000    0.000 
#
# Total GULP energy -78155.821136 kJ/mol
# GULP energy per Si atom -5582.558653 kJ/mol
# Density = 2.269352 g / cm^3
# Si number density = 22.745293 Si / 1000 Ang^3
#
#
#
# Elastic Constant Matrix: (Units=GPa)
#
#
# Indices 1 2 3 4 5 6 
#
# 1 38.5109 23.1928 4.4497 7.6815 2.6556 6.3388
# 2 23.1928 118.0046 30.3995 -0.2179 0.9748 26.0850
# 3 4.4497 30.3995 74.5287 13.0463 13.5859 7.7467
# 4 7.6815 -0.2179 13.0463 34.2924 6.1826 -5.0726
# 5 2.6556 0.9748 13.5859 6.1826 27.8577 5.3212
# 6 6.3388 26.0850 7.7467 -5.0726 5.3212 32.7457
#
#
#
# Elastic Compliance Matrix: (Units=1/GPa)
#
#
# Indices 1 2 3 4 5 6 
#
# 1 0.031683 -0.006332 0.002746 -0.008265 -0.001783 -0.002730
# 2 -0.006332 0.012765 -0.004931 0.001485 0.003791 -0.008162
# 3 0.002746 -0.004931 0.017727 -0.006167 -0.007256 -0.000573
# 4 -0.008265 0.001485 -0.006167 0.035639 -0.005758 0.008333
# 5 -0.001783 0.003791 -0.007256 -0.005758 0.042421 -0.008744
# 6 -0.002730 -0.008162 -0.000573 0.008333 -0.008744 0.040416
#
#
# Mechanical properties :
#
#
# Convention : Reuss Voigt Hill
#
# Bulk Modulus (GPa) = 22.15240 38.56982 30.36111
# Shear Modulus (GPa) = 23.50391 30.51265 27.00828
#
# Velocity S-wave (km/s) = 3.21807 3.66661 3.44964
# Velocity P-wave (km/s) = 4.85473 5.90927 5.40777
#
# Compressibility (1/GPa) = 0.04514185
#
# Stress axis : x y z
#
# Youngs Moduli (GPa) = 31.56246 78.34101 56.41123
#
# Poissons Ratio (x) = 0.49603 -0.15493
# Poissons Ratio (y) = 0.19985 0.27817
# Poissons Ratio (z) = -0.08668 0.38631
#
# Static dielectric constant tensor:
#      x y z
#    x 1.801290 0.087240 -0.007520 
#    y 0.087240 1.759440 0.050240 
#    z -0.007520 0.050240 1.868950 
# 
# From -- ./inp_files/261334.got.cif
#   From: 2010.05.17/outbox.cif.g08.bks.cpg/sg2_131_cif.got.tgz:261334.got - 2010.06.03 11:33:40.
