data_PCOD9103057
_publ_section_title
;
Structure prediction by ZEFSAII (Michael W. Deem and Ramdas Pophale) SiO2 
 PCOD9103057
Probable space group: P -1
;
_chemical_formula_sum "Si O2"
_cell_formula_units_Z 16
_cell_length_a 5.109760
_cell_length_b 10.790257
_cell_length_c 14.469672
_cell_angle_alpha 71.792168
_cell_angle_beta 122.460243
_cell_angle_gamma 114.638133
_cell_volume 607.758521
_symmetry_space_group_name_H-M "P -1"
_symmetry_group_IT_number 2
_symmetry_cell_setting 'triclinic'
loop_
_space_group_symop_operation_xyz
x,y,z
-x,-y,-z
loop_
_atom_site_type_symbol
_atom_site_label
_atom_site_fract_x
_atom_site_fract_y
_atom_site_fract_z
Si Si1 0.322983 0.795587 0.470011
Si Si2 0.515107 0.987872 0.298409
Si Si3 0.859510 0.806575 0.111134
Si Si4 0.532695 0.233670 0.129942
Si Si5 0.872744 0.433508 0.754715
Si Si6 0.277621 0.209134 0.720116
Si Si7 0.803302 0.635266 0.559061
Si Si8 0.164047 0.410540 0.113707
O O1 0.030699 0.736066 0.352469
O O2 0.079601 0.741011 0.523339
O O3 0.478965 0.941773 0.409795
O O4 0.607609 0.728030 0.547903
O O5 0.788903 0.933335 0.313915
O O6 0.192283 0.909360 0.193082
O O7 0.562782 0.142164 0.243863
O O8 0.617087 0.803585 0.152102
O O9 0.896005 0.653790 0.147874
O O10 0.732723 0.839714 0.981872
O O11 0.416542 0.358307 0.116389
O O12 0.871004 0.282465 0.127139
O O13 0.551731 0.314575 0.688789
O O14 0.991422 0.556558 0.677588
O O15 0.723440 0.497669 0.796030
O O16 0.500000 0.500000 0.500000
O O17 0.000000 0.500000 0.000000
#
# Coordination Sequence:
#
# PCOD9103057 Si02
#       8
#     2   2   2   2   2   2   2   2
#     4  11  22  39  60  97 134 164 207 269 334 387
#     4  10  23  42  66  99 132 171 223 268 335 383
#     4  10  22  39  65  99 135 167 213 283 327 384
#     4  12  27  44  71  92 130 182 223 267 321 390
#     4  11  24  39  66  97 139 168 222 262 331 399
#     4  10  20  38  64  97 138 168 202 280 328 386
#     4  12  22  36  64 100 132 172 206 269 343 391
#     4  12  27  47  67  94 134 180 220 267 317 387
#
# _framework density 26.326243000000002
#
# number of rings (size 3 to 8) (size 9 to 14) (size 15 to 20)
#    0.000    1.000    3.750    3.375    8.750    0.500 
#    0.000    0.000    0.000    4.500    0.000    0.000 
#    0.000    0.000    0.000    0.000    0.000    0.000 
#
# Total GULP energy -89264.878098 kJ/mol
# GULP energy per Si atom -5579.054881 kJ/mol
# Density = 2.626632 g / cm^3
# Si number density = 26.326243 Si / 1000 Ang^3
#
#
#
# Elastic Constant Matrix: (Units=GPa)
#
#
# Indices 1 2 3 4 5 6 
#
# 1 113.7879 2.2298 28.9855 -4.3583 -13.3279 -6.5899
# 2 2.2298 56.9077 32.2095 -20.8465 -0.3571 5.4387
# 3 28.9855 32.2095 131.4885 -38.0892 -11.2780 -3.7396
# 4 -4.3583 -20.8465 -38.0892 49.4509 1.6680 -6.1838
# 5 -13.3279 -0.3571 -11.2780 1.6680 34.4384 0.7162
# 6 -6.5899 5.4387 -3.7396 -6.1838 0.7162 24.3360
#
#
#
# Elastic Compliance Matrix: (Units=1/GPa)
#
#
# Indices 1 2 3 4 5 6 
#
# 1 0.009768 0.000467 -0.002053 -0.000372 0.003088 0.002040
# 2 0.000467 0.022397 -0.004101 0.005864 -0.001131 -0.003986
# 3 -0.002053 -0.004101 0.011525 0.007374 0.002498 0.003932
# 4 -0.000372 0.005864 0.007374 0.029206 0.000769 0.007121
# 5 0.003088 -0.001131 0.002498 0.000769 0.030986 0.000757
# 6 0.002040 -0.003986 0.003932 0.007121 0.000757 0.044926
#
#
# Mechanical properties :
#
#
# Convention : Reuss Voigt Hill
#
# Bulk Modulus (GPa) = 30.94440 47.67040 39.30740
# Shear Modulus (GPa) = 29.24796 37.56235 33.40515
#
# Velocity S-wave (km/s) = 3.33675 3.78140 3.56602
# Velocity P-wave (km/s) = 5.15994 6.10018 5.64965
#
# Compressibility (1/GPa) = 0.03231602
#
# Stress axis : x y z
#
# Youngs Moduli (GPa) = 102.37939 44.64866 86.77075
#
# Poissons Ratio (x) = -0.02085 0.17810
# Poissons Ratio (y) = -0.04782 0.35586
# Poissons Ratio (z) = 0.21014 0.18311
#
# Static dielectric constant tensor:
#      x y z
#    x 2.141700 0.032560 -0.023730 
#    y 0.032560 2.181950 0.054650 
#    z -0.023730 0.054650 2.089550 
# 
# From -- ./inp_files/482103.got.cif
#   From: 2010.05.17/outbox.cif.g08.bks.cpg/sg2_242_cif.got.tgz:482103.got - 2010.06.03 11:33:40.
