data_PCOD9103373
_publ_section_title
;
Structure prediction by ZEFSAII (Michael W. Deem and Ramdas Pophale) SiO2 
 PCOD9103373
Probable space group: P -1
;
_chemical_formula_sum "Si O2"
_cell_formula_units_Z 14
_cell_length_a 8.136964
_cell_length_b 8.277461
_cell_length_c 16.944610
_cell_angle_alpha 62.713902
_cell_angle_beta 143.926799
_cell_angle_gamma 102.805077
_cell_volume 572.542372
_symmetry_space_group_name_H-M "P -1"
_symmetry_group_IT_number 2
_symmetry_cell_setting 'triclinic'
loop_
_space_group_symop_operation_xyz
x,y,z
-x,-y,-z
loop_
_atom_site_type_symbol
_atom_site_label
_atom_site_fract_x
_atom_site_fract_y
_atom_site_fract_z
Si Si1 0.878649 0.333994 0.891464
Si Si2 0.615158 0.175745 0.103236
Si Si3 0.647312 0.991926 0.820530
Si Si4 0.294940 0.558876 0.591915
Si Si5 0.239004 0.910443 0.398686
Si Si6 0.152819 0.499106 0.816085
Si Si7 0.610204 0.706000 0.453471
O O1 0.571934 0.467035 0.776270
O O2 0.013808 0.453494 0.855348
O O3 0.810316 0.154445 0.860712
O O4 0.134205 0.210179 0.075684
O O5 0.484041 0.048163 0.138301
O O6 0.673929 0.345973 0.139236
O O7 0.369801 0.294687 0.921143
O O8 0.932320 0.056820 0.226078
O O9 0.392959 0.101553 0.637900
O O10 0.218213 0.779343 0.494520
O O11 0.426305 0.449273 0.587288
O O12 0.000000 0.500000 0.500000
O O13 0.345003 0.780016 0.393297
O O14 0.500000 0.000000 0.500000
O O15 0.900163 0.602815 0.635658
#
# Coordination Sequence:
#
# PCOD9103373 Si02
#       7
#     2   2   2   2   2   2   2
#     4   9  17  37  59  83 115 165 188 244 306 356
#     4  10  21  40  60  90 120 163 196 252 302 363
#     4   9  20  34  61  85 119 150 205 243 299 350
#     4  11  23  40  63  88 125 162 205 248 304 360
#     4  12  22  39  64  92 123 159 205 248 303 361
#     4  10  20  38  66  84 122 160 203 241 311 358
#     4  11  22  40  63  94 119 164 201 254 301 362
#
# _framework density 24.452337
#
# number of rings (size 3 to 8) (size 9 to 14) (size 15 to 20)
#    0.000    1.714    2.857    2.143    2.000    0.571 
#    5.143    0.714    0.000    3.429    0.000    0.000 
#    0.000    0.000    0.000    0.000    0.000    0.000 
#
# Total GULP energy -78108.494203 kJ/mol
# GULP energy per Si atom -5579.178157 kJ/mol
# Density = 2.439668 g / cm^3
# Si number density = 24.452337 Si / 1000 Ang^3
#
#
#
# Elastic Constant Matrix: (Units=GPa)
#
#
# Indices 1 2 3 4 5 6 
#
# 1 49.7603 23.3844 33.6948 -4.4290 17.9517 13.5774
# 2 23.3844 74.3709 23.2241 -3.5987 -2.9631 34.0022
# 3 33.6948 23.2241 218.0371 -52.5101 22.2959 8.8076
# 4 -4.4290 -3.5987 -52.5101 38.2109 8.6859 6.9556
# 5 17.9517 -2.9631 22.2959 8.6859 44.9351 -6.4819
# 6 13.5774 34.0022 8.8076 6.9556 -6.4819 35.0140
#
#
#
# Elastic Compliance Matrix: (Units=1/GPa)
#
#
# Indices 1 2 3 4 5 6 
#
# 1 0.033041 -0.004242 0.000160 0.010188 -0.017549 -0.014006
# 2 -0.004242 0.027486 0.001700 0.010330 -0.003395 -0.028155
# 3 0.000160 0.001700 0.010158 0.018155 -0.009901 -0.009707
# 4 0.010188 0.010330 0.018155 0.067114 -0.030791 -0.037581
# 5 -0.017549 -0.003395 -0.009901 -0.030791 0.043774 0.026812
# 6 -0.014006 -0.028155 -0.009707 -0.037581 0.026812 0.076204
#
#
# Mechanical properties :
#
#
# Convention : Reuss Voigt Hill
#
# Bulk Modulus (GPa) = 15.16975 55.86386 35.51681
# Shear Modulus (GPa) = 17.57393 41.08967 29.33180
#
# Velocity S-wave (km/s) = 2.68377 4.10371 3.46721
# Velocity P-wave (km/s) = 3.97753 6.73421 5.53039
#
# Compressibility (1/GPa) = 0.06592067
#
# Stress axis : x y z
#
# Youngs Moduli (GPa) = 30.26555 36.38233 98.44923
#
# Poissons Ratio (x) = 0.15432 -0.01572
# Poissons Ratio (y) = 0.12837 -0.16737
# Poissons Ratio (z) = -0.00483 -0.06185
#
# Static dielectric constant tensor:
#      x y z
#    x 1.994190 -0.001960 -0.005370 
#    y -0.001960 1.925620 0.022250 
#    z -0.005370 0.022250 2.302720 
# 
# From -- ./inp_files/587863.got.cif
#   From: 2010.05.17/outbox.cif.g08.bks.cpg/sg2_294_cif.got.tgz:587863.got - 2010.06.03 11:33:40.
