data_PCOD9103467
_publ_section_title
;
Structure prediction by ZEFSAII (Michael W. Deem and Ramdas Pophale) SiO2 
 PCOD9103467
Probable space group: P -1
;
_chemical_formula_sum "Si O2"
_cell_formula_units_Z 14
_cell_length_a 9.144121
_cell_length_b 9.509608
_cell_length_c 11.133693
_cell_angle_alpha 94.649529
_cell_angle_beta 109.755710
_cell_angle_gamma 47.537334
_cell_volume 656.918569
_symmetry_space_group_name_H-M "P -1"
_symmetry_group_IT_number 2
_symmetry_cell_setting 'triclinic'
loop_
_space_group_symop_operation_xyz
x,y,z
-x,-y,-z
loop_
_atom_site_type_symbol
_atom_site_label
_atom_site_fract_x
_atom_site_fract_y
_atom_site_fract_z
Si Si1 0.835037 0.906157 0.875834
Si Si2 0.112179 0.705218 0.723943
Si Si3 0.341252 0.831163 0.725043
Si Si4 0.114694 0.196060 0.843840
Si Si5 0.305917 0.079352 0.537553
Si Si6 0.640590 0.739461 0.219994
Si Si7 0.809330 0.602452 0.855886
O O1 0.779862 0.779003 0.811980
O O2 0.020303 0.831775 0.830383
O O3 0.612216 0.128641 0.825097
O O4 0.899575 0.853691 0.028843
O O5 0.267017 0.717942 0.701599
O O6 0.231986 0.484873 0.772397
O O7 0.910493 0.801108 0.589482
O O8 0.576195 0.700036 0.841320
O O9 0.165638 0.035397 0.760341
O O10 0.355458 0.899950 0.605601
O O11 0.307838 0.187649 0.872117
O O12 0.904327 0.424725 0.780785
O O13 0.284464 0.214395 0.642007
O O14 0.500000 0.000000 0.500000
O O15 0.000000 0.500000 0.000000
#
# Coordination Sequence:
#
# PCOD9103467 Si02
#       7
#     2   2   2   2   2   2   2
#     4  11  21  39  68  95 126 168 223 260 300 396
#     4  12  25  41  63  98 135 166 210 269 329 366
#     4  11  25  43  63  98 136 163 205 277 326 371
#     4  10  22  38  69  94 124 173 217 257 318 378
#     4  11  22  46  69  89 123 173 225 261 307 384
#     4  11  22  39  70  93 125 170 222 260 313 383
#     4  10  20  38  66  93 119 170 219 255 301 389
#
# _framework density 21.311622
#
# number of rings (size 3 to 8) (size 9 to 14) (size 15 to 20)
#    0.000    1.143    5.714    1.286    2.000    1.714 
#    0.000    5.714    0.000    0.000    0.000    0.000 
#    0.000    0.000    0.000    0.000    0.000    0.000 
#
# Total GULP energy -78184.439263 kJ/mol
# GULP energy per Si atom -5584.602805 kJ/mol
# Density = 2.126312 g / cm^3
# Si number density = 21.311622 Si / 1000 Ang^3
#
#
#
# Elastic Constant Matrix: (Units=GPa)
#
#
# Indices 1 2 3 4 5 6 
#
# 1 93.1288 14.9901 22.4080 -9.7101 -16.9113 5.0636
# 2 14.9901 75.0298 10.5079 -8.0627 -0.6214 -11.0195
# 3 22.4080 10.5079 68.8795 -8.7110 -19.7239 -5.6104
# 4 -9.7101 -8.0627 -8.7110 27.7414 -6.6799 -5.1035
# 5 -16.9113 -0.6214 -19.7239 -6.6799 28.7997 -1.2300
# 6 5.0636 -11.0195 -5.6104 -5.1035 -1.2300 29.7831
#
#
#
# Elastic Compliance Matrix: (Units=1/GPa)
#
#
# Indices 1 2 3 4 5 6 
#
# 1 0.013545 -0.002205 -0.001217 0.005310 0.008214 -0.002099
# 2 -0.002205 0.015350 -0.000403 0.004860 0.000179 0.006819
# 3 -0.001217 -0.000403 0.022023 0.011842 0.017403 0.006954
# 4 0.005310 0.004860 0.011842 0.051120 0.023739 0.012866
# 5 0.008214 0.000179 0.017403 0.023739 0.057333 0.008384
# 6 -0.002099 0.006819 0.006954 0.012866 0.008384 0.040317
#
#
# Mechanical properties :
#
#
# Convention : Reuss Voigt Hill
#
# Bulk Modulus (GPa) = 23.11230 36.98335 30.04782
# Shear Modulus (GPa) = 22.54668 29.87366 26.21017
#
# Velocity S-wave (km/s) = 3.25615 3.74806 3.51073
# Velocity P-wave (km/s) = 5.00051 6.01015 5.52843
#
# Compressibility (1/GPa) = 0.04326700
#
# Stress axis : x y z
#
# Youngs Moduli (GPa) = 73.82760 65.14530 45.40678
#
# Poissons Ratio (x) = 0.14367 0.05528
# Poissons Ratio (y) = 0.16281 0.01830
# Poissons Ratio (z) = 0.08987 0.02626
#
# Static dielectric constant tensor:
#      x y z
#    x 1.775590 -0.021750 -0.025510 
#    y -0.021750 1.779400 0.021020 
#    z -0.025510 0.021020 1.812980 
# 
# From -- ./inp_files/195440.got.cif
#   From: 2010.05.17/outbox.cif.g08.bks.cpg/sg2_98_cif.got.tgz:195440.got - 2010.06.03 11:33:40.
