data_PCOD9103345
_publ_section_title
;
Structure prediction by ZEFSAII (Michael W. Deem and Ramdas Pophale) SiO2 
 PCOD9103345
Probable space group: P -1
;
_chemical_formula_sum "Si O2"
_cell_formula_units_Z 16
_cell_length_a 11.808923
_cell_length_b 18.548498
_cell_length_c 5.223530
_cell_angle_alpha 60.513286
_cell_angle_beta 80.779433
_cell_angle_gamma 44.375576
_cell_volume 661.131790
_symmetry_space_group_name_H-M "P -1"
_symmetry_group_IT_number 2
_symmetry_cell_setting 'triclinic'
loop_
_space_group_symop_operation_xyz
x,y,z
-x,-y,-z
loop_
_atom_site_type_symbol
_atom_site_label
_atom_site_fract_x
_atom_site_fract_y
_atom_site_fract_z
Si Si1 0.456710 0.197670 0.525614
Si Si2 0.268913 0.832837 0.638420
Si Si3 0.749874 0.908779 0.870498
Si Si4 0.016993 0.077470 0.084609
Si Si5 0.281181 0.693174 0.511740
Si Si6 0.175480 0.236106 0.395216
Si Si7 0.599231 0.630363 0.381768
Si Si8 0.228461 0.531730 0.881482
O O1 0.564123 0.204784 0.301138
O O2 0.277978 0.265782 0.356125
O O3 0.436298 0.257549 0.696538
O O4 0.577118 0.052138 0.739793
O O5 0.126624 0.904779 0.776078
O O6 0.301483 0.722365 0.733365
O O7 0.179811 0.929904 0.260787
O O8 0.745120 0.855330 0.714502
O O9 0.901637 0.895601 0.809898
O O10 0.795860 0.831357 0.238181
O O11 0.911949 0.182163 0.725593
O O12 0.425309 0.668338 0.350243
O O13 0.298182 0.586461 0.695810
O O14 0.975412 0.355354 0.216421
O O15 0.717203 0.553603 0.228797
O O16 0.693317 0.540303 0.753902
#
# Coordination Sequence:
#
# PCOD9103345 Si02
#       8
#     2   2   2   2   2   2   2   2
#     4  10  25  47  70 102 142 183 224 287 338 415
#     4   9  21  39  62 103 139 174 221 268 358 411
#     4  11  24  45  73 109 136 174 228 284 353 408
#     4  10  20  38  66 100 138 178 213 283 344 422
#     4  11  22  39  67  94 135 173 226 284 340 399
#     4  12  25  46  74 102 137 182 230 284 343 406
#     4  11  28  45  67 100 136 186 231 281 337 401
#     4  12  26  45  69  98 138 183 237 278 333 401
#
# _framework density 24.200924000000001
#
# number of rings (size 3 to 8) (size 9 to 14) (size 15 to 20)
#    0.000    1.250    1.250    3.375    5.250    3.000 
#   11.250    0.000    0.000    0.000    0.000    0.000 
#    0.000    0.000    0.000    0.000    0.000    0.000 
#
# Total GULP energy -89477.724344 kJ/mol
# GULP energy per Si atom -5592.357772 kJ/mol
# Density = 2.414584 g / cm^3
# Si number density = 24.200924 Si / 1000 Ang^3
#
#
#
# Elastic Constant Matrix: (Units=GPa)
#
#
# Indices 1 2 3 4 5 6 
#
# 1 138.3548 47.6488 25.9106 -10.2890 15.9624 10.2709
# 2 47.6488 133.1649 53.2329 -13.1736 8.5007 24.8428
# 3 25.9106 53.2329 91.6947 7.3635 6.9711 3.0689
# 4 -10.2890 -13.1736 7.3635 28.0246 0.7433 12.7360
# 5 15.9624 8.5007 6.9711 0.7433 25.6138 -1.4920
# 6 10.2709 24.8428 3.0689 12.7360 -1.4920 34.1687
#
#
#
# Elastic Compliance Matrix: (Units=1/GPa)
#
#
# Indices 1 2 3 4 5 6 
#
# 1 0.009251 -0.000728 -0.002097 0.005770 -0.005380 -0.004449
# 2 -0.000728 0.018051 -0.010906 0.020109 -0.004295 -0.019609
# 3 -0.002097 -0.010906 0.018655 -0.016829 0.001107 0.013205
# 4 0.005770 0.020109 -0.016829 0.070905 -0.010177 -0.041717
# 5 -0.005380 -0.004295 0.001107 -0.010177 0.044418 0.010373
# 6 -0.004449 -0.019609 0.013205 -0.041717 0.010373 0.059678
#
#
# Mechanical properties :
#
#
# Convention : Reuss Voigt Hill
#
# Bulk Modulus (GPa) = 54.06607 68.53323 61.29965
# Shear Modulus (GPa) = 19.63979 33.32287 26.48133
#
# Velocity S-wave (km/s) = 2.85183 3.71472 3.31150
# Velocity P-wave (km/s) = 5.76480 6.83950 6.32502
#
# Compressibility (1/GPa) = 0.01849589
#
# Stress axis : x y z
#
# Youngs Moduli (GPa) = 108.09410 55.39747 53.60439
#
# Poissons Ratio (x) = 0.04031 0.11242
# Poissons Ratio (y) = 0.07865 0.58461
# Poissons Ratio (z) = 0.22670 0.60417
#
# Static dielectric constant tensor:
#      x y z
#    x 1.938300 -0.000870 -0.001740 
#    y -0.000870 1.919610 -0.004580 
#    z -0.001740 -0.004580 2.026480 
# 
# From -- ./inp_files/81221.got.cif
#   From: 2010.05.17/outbox.cif.g08.bks.cpg/sg2_41_cif.got.tgz:81221.got - 2010.06.03 11:33:40.
