data_PCOD9103763
_publ_section_title
;
Structure prediction by ZEFSAII (Michael W. Deem and Ramdas Pophale) SiO2 
 PCOD9103763
Probable space group: P -1
;
_chemical_formula_sum "Si O2"
_cell_formula_units_Z 14
_cell_length_a 8.414151
_cell_length_b 11.024764
_cell_length_c 12.556067
_cell_angle_alpha 32.666882
_cell_angle_beta 101.245170
_cell_angle_gamma 89.866461
_cell_volume 585.321521
_symmetry_space_group_name_H-M "P -1"
_symmetry_group_IT_number 2
_symmetry_cell_setting 'triclinic'
loop_
_space_group_symop_operation_xyz
x,y,z
-x,-y,-z
loop_
_atom_site_type_symbol
_atom_site_label
_atom_site_fract_x
_atom_site_fract_y
_atom_site_fract_z
Si Si1 0.618674 0.852063 0.192035
Si Si2 0.238379 0.988273 0.706928
Si Si3 0.859976 0.887243 0.027090
Si Si4 0.275623 0.496626 0.185816
Si Si5 0.385125 0.643352 0.315526
Si Si6 0.958681 0.405527 0.273191
Si Si7 0.607650 0.307400 0.239957
O O1 0.641454 0.935515 0.251972
O O2 0.792537 0.784620 0.197882
O O3 0.455140 0.846856 0.093146
O O4 0.595584 0.581669 0.426718
O O5 0.058427 0.194552 0.522377
O O6 0.326999 0.928754 0.647338
O O7 0.223571 0.745035 0.932246
O O8 0.910190 0.673070 0.111718
O O9 0.715139 0.126994 0.794494
O O10 0.000000 0.000000 0.000000
O O11 0.294178 0.554789 0.270830
O O12 0.116670 0.396823 0.221157
O O13 0.465922 0.338651 0.290275
O O14 0.781677 0.363232 0.251121
O O15 0.500000 0.500000 0.000000
#
# Coordination Sequence:
#
# PCOD9103763 Si02
#       7
#     2   2   2   2   2   2   2
#     4  10  20  38  68  90 135 176 216 282 343 389
#     4  11  23  45  71 103 140 185 238 287 341 422
#     4  11  22  41  62 100 138 169 225 276 342 418
#     4  11  23  49  67 104 143 179 235 291 342 418
#     4  11  22  41  66  99 136 178 228 280 341 421
#     4  12  25  45  72 101 145 183 229 293 351 408
#     4  10  26  46  74 100 137 187 242 288 343 411
#
# _framework density 23.918476999999999
#
# number of rings (size 3 to 8) (size 9 to 14) (size 15 to 20)
#    0.000    1.143    4.286    2.143    6.000    3.429 
#    7.714    0.000    0.000    0.000    0.000    0.000 
#    0.000    0.000    0.000    0.000    0.000    0.000 
#
# Total GULP energy -77958.977596 kJ/mol
# GULP energy per Si atom -5568.498400 kJ/mol
# Density = 2.386404 g / cm^3
# Si number density = 23.918477 Si / 1000 Ang^3
#
#
#
# Elastic Constant Matrix: (Units=GPa)
#
#
# Indices 1 2 3 4 5 6 
#
# 1 184.4444 48.4925 60.4759 -1.4809 -7.1472 21.5805
# 2 48.4925 89.4942 54.2698 -11.5701 25.5297 0.9597
# 3 60.4759 54.2698 186.5202 -4.1738 8.2050 1.2849
# 4 -1.4809 -11.5701 -4.1738 24.8471 -3.4611 11.8924
# 5 -7.1472 25.5297 8.2050 -3.4611 56.5669 -1.4944
# 6 21.5805 0.9597 1.2849 11.8924 -1.4944 33.3932
#
#
#
# Elastic Compliance Matrix: (Units=1/GPa)
#
#
# Indices 1 2 3 4 5 6 
#
# 1 0.007615 -0.003875 -0.001405 0.001237 0.002856 -0.005068
# 2 -0.003875 0.018707 -0.003670 0.007129 -0.007985 -0.000788
# 3 -0.001405 -0.003670 0.006831 -0.001147 0.000449 0.001179
# 4 0.001237 0.007129 -0.001147 0.052902 -0.000181 -0.019809
# 5 0.002856 -0.007985 0.000449 -0.000181 0.021550 -0.000605
# 6 -0.005068 -0.000788 0.001179 -0.019809 -0.000605 0.040226
#
#
# Mechanical properties :
#
#
# Convention : Reuss Voigt Hill
#
# Bulk Modulus (GPa) = 65.55987 87.43724 76.49856
# Shear Modulus (GPa) = 29.27130 42.77615 36.02373
#
# Velocity S-wave (km/s) = 3.50207 4.23355 3.88507
# Velocity P-wave (km/s) = 6.61981 7.78030 7.22340
#
# Compressibility (1/GPa) = 0.01525323
#
# Stress axis : x y z
#
# Youngs Moduli (GPa) = 131.32749 53.45584 146.38809
#
# Poissons Ratio (x) = 0.20713 0.20561
# Poissons Ratio (y) = 0.50886 0.53731
# Poissons Ratio (z) = 0.18446 0.19621
#
# Static dielectric constant tensor:
#      x y z
#    x 2.065250 -0.062930 -0.074040 
#    y -0.062930 1.869190 0.005550 
#    z -0.074040 0.005550 2.129390 
# 
# From -- ./inp_files/499733.got.cif
#   From: 2010.05.17/outbox.cif.g08.bks.cpg/sg2_250_cif.got.tgz:499733.got - 2010.06.03 11:33:40.
