data_PCOD9103411
_publ_section_title
;
Structure prediction by ZEFSAII (Michael W. Deem and Ramdas Pophale) SiO2 
 PCOD9103411
Probable space group: P -1
;
_chemical_formula_sum "Si O2"
_cell_formula_units_Z 14
_cell_length_a 12.096522
_cell_length_b 19.402699
_cell_length_c 13.184622
_cell_angle_alpha 153.614268
_cell_angle_beta 51.051485
_cell_angle_gamma 145.660822
_cell_volume 695.459082
_symmetry_space_group_name_H-M "P -1"
_symmetry_group_IT_number 2
_symmetry_cell_setting 'triclinic'
loop_
_space_group_symop_operation_xyz
x,y,z
-x,-y,-z
loop_
_atom_site_type_symbol
_atom_site_label
_atom_site_fract_x
_atom_site_fract_y
_atom_site_fract_z
Si Si1 0.632047 0.403811 0.576030
Si Si2 0.701133 0.845001 0.381844
Si Si3 0.440968 0.997166 0.835319
Si Si4 0.406471 0.290931 0.350763
Si Si5 0.980424 0.847738 0.095222
Si Si6 0.617883 0.185362 0.585935
Si Si7 0.080168 0.719621 0.050508
O O1 0.439378 0.302339 0.629839
O O2 0.569926 0.397896 0.491114
O O3 0.636847 0.221413 0.347628
O O4 0.851328 0.661450 0.832263
O O5 0.806053 0.788338 0.190022
O O6 0.535350 0.800591 0.345972
O O7 0.890730 0.119011 0.671497
O O8 0.705330 0.206188 0.959578
O O9 0.361132 0.905333 0.645350
O O10 0.376383 0.104452 0.062698
O O11 0.500000 0.500000 0.500000
O O12 0.165496 0.119671 0.310047
O O13 0.089503 0.807040 0.049456
O O14 0.500000 0.000000 0.500000
O O15 0.853012 0.442970 0.823022
#
# Coordination Sequence:
#
# PCOD9103411 Si02
#       7
#     2   2   2   2   2   2   2
#     4  10  22  41  68  94 121 164 220 257 304 385
#     4  10  22  37  65 100 124 155 214 258 309 384
#     4  10  23  44  63  92 123 165 223 248 300 396
#     4  12  28  43  61  93 131 168 209 265 319 361
#     4  12  22  39  68  95 125 167 211 260 315 365
#     4  10  22  39  63  96 127 164 204 263 319 366
#     4  10  20  38  66  90 121 170 205 253 318 362
#
# _framework density 20.130587999999999
#
# number of rings (size 3 to 8) (size 9 to 14) (size 15 to 20)
#    0.000    1.714    5.714    1.286    0.000    8.000 
#    0.000    0.000    0.000    0.000    0.000    0.000 
#    0.000    0.000    0.000    0.000    0.000    0.000 
#
# Total GULP energy -78233.155014 kJ/mol
# GULP energy per Si atom -5588.082501 kJ/mol
# Density = 2.008477 g / cm^3
# Si number density = 20.130588 Si / 1000 Ang^3
#
#
#
# Elastic Constant Matrix: (Units=GPa)
#
#
# Indices 1 2 3 4 5 6 
#
# 1 39.1268 21.9111 41.9418 1.1086 9.3274 -16.7816
# 2 21.9111 57.1128 35.3800 19.3071 -11.3437 -23.4405
# 3 41.9418 35.3800 107.9154 13.1392 23.6142 2.0210
# 4 1.1086 19.3071 13.1392 39.8771 11.1311 -3.8049
# 5 9.3274 -11.3437 23.6142 11.1311 30.2277 4.8250
# 6 -16.7816 -23.4405 2.0210 -3.8049 4.8250 31.7604
#
#
#
# Elastic Compliance Matrix: (Units=1/GPa)
#
#
# Indices 1 2 3 4 5 6 
#
# 1 0.088200 -0.001334 -0.033419 0.018966 -0.016990 0.052598
# 2 -0.001334 0.123622 -0.056089 -0.063196 0.102567 0.070949
# 3 -0.033419 -0.056089 0.049827 0.020283 -0.048769 -0.052386
# 4 0.018966 -0.063196 0.020283 0.065014 -0.066150 -0.020072
# 5 -0.016990 0.102567 -0.048769 -0.066150 0.132609 0.041755
# 6 0.052598 0.070949 -0.052386 -0.020072 0.041755 0.106227
#
#
# Mechanical properties :
#
#
# Convention : Reuss Voigt Hill
#
# Bulk Modulus (GPa) = 12.50543 44.73566 28.62054
# Shear Modulus (GPa) = 6.46132 27.36786 16.91459
#
# Velocity S-wave (km/s) = 1.79351 3.69116 2.90184
# Velocity P-wave (km/s) = 3.24261 6.35903 5.04736
#
# Compressibility (1/GPa) = 0.07996529
#
# Stress axis : x y z
#
# Youngs Moduli (GPa) = 11.33782 8.08920 20.06953
#
# Poissons Ratio (x) = 0.01079 0.67070
# Poissons Ratio (y) = 0.01513 1.12568
# Poissons Ratio (z) = 0.37889 0.45371
#
# Static dielectric constant tensor:
#      x y z
#    x 1.701040 0.032560 0.003860 
#    y 0.032560 1.741360 -0.008130 
#    z 0.003860 -0.008130 1.724040 
# 
# From -- ./inp_files/281581.got.cif
#   From: 2010.05.17/outbox.cif.g08.bks.cpg/sg2_141_cif.got.tgz:281581.got - 2010.06.03 11:33:40.
