data_PCOD9103443
_publ_section_title
;
Structure prediction by ZEFSAII (Michael W. Deem and Ramdas Pophale) SiO2 
 PCOD9103443
Probable space group: P -1
;
_chemical_formula_sum "Si O2"
_cell_formula_units_Z 15
_cell_length_a 12.873021
_cell_length_b 6.778725
_cell_length_c 10.786360
_cell_angle_alpha 116.884550
_cell_angle_beta 46.055202
_cell_angle_gamma 101.050464
_cell_volume 593.426812
_symmetry_space_group_name_H-M "P -1"
_symmetry_group_IT_number 2
_symmetry_cell_setting 'triclinic'
loop_
_space_group_symop_operation_xyz
x,y,z
-x,-y,-z
loop_
_atom_site_type_symbol
_atom_site_label
_atom_site_fract_x
_atom_site_fract_y
_atom_site_fract_z
Si Si1 0.611570 0.844921 0.626821
Si Si2 0.975505 0.798614 0.810395
Si Si3 0.173485 0.401914 0.448070
Si Si4 0.500000 0.000000 0.500000
Si Si5 0.233004 0.843532 0.790890
Si Si6 0.427912 0.644714 0.215519
Si Si7 0.896777 0.032451 0.713511
Si Si8 0.644111 0.378846 0.130445
O O1 0.761967 0.691830 0.499895
O O2 0.567319 0.847912 0.522229
O O3 0.486036 0.764641 0.791293
O O4 0.612342 0.102974 0.725608
O O5 0.013522 0.553057 0.646765
O O6 0.092565 0.791305 0.820819
O O7 0.996050 0.979004 0.738728
O O8 0.817848 0.915824 0.027078
O O9 0.282423 0.558576 0.353303
O O10 0.183141 0.182981 0.292757
O O11 0.348772 0.894011 0.610298
O O12 0.290497 0.655438 0.794108
O O13 0.555610 0.611788 0.209544
O O14 0.500000 0.500000 0.000000
O O15 0.000000 0.000000 0.500000
O O16 0.776485 0.256905 0.898390
#
# Coordination Sequence:
#
# PCOD9103443 Si02
#       8
#     2   2   2   1   2   2   2   2
#     4  10  22  40  64  95 127 160 207 269 314 374
#     4  10  22  42  64  90 128 172 207 258 324 374
#     4  11  24  40  62  94 129 166 211 261 316 376
#     4  10  20  38  66  92 120 160 210 258 316 368
#     4   9  20  41  69  90 128 166 208 266 315 373
#     4  11  22  37  67  93 126 166 210 258 322 376
#     4  11  24  40  63  89 130 169 213 259 309 381
#     4   9  21  42  61  95 127 163 208 264 316 369
#
# _framework density 25.276917999999998
#
# number of rings (size 3 to 8) (size 9 to 14) (size 15 to 20)
#    0.000    1.867    0.000    2.800    5.600    3.200 
#    7.200    4.667    0.000    0.000    0.000    0.000 
#    0.000    0.000    0.000    0.000    0.000    0.000 
#
# Total GULP energy -83675.176473 kJ/mol
# GULP energy per Si atom -5578.345098 kJ/mol
# Density = 2.521939 g / cm^3
# Si number density = 25.276918 Si / 1000 Ang^3
#
#
#
# Elastic Constant Matrix: (Units=GPa)
#
#
# Indices 1 2 3 4 5 6 
#
# 1 53.0895 2.7655 -1.1930 -6.4783 -6.5352 -16.8173
# 2 2.7655 69.7332 34.0144 1.5623 -18.1613 -21.8909
# 3 -1.1930 34.0144 124.9086 16.6779 -0.7901 -22.7224
# 4 -6.4783 1.5623 16.6779 41.4113 -10.2351 -4.3972
# 5 -6.5352 -18.1613 -0.7901 -10.2351 26.0091 10.5631
# 6 -16.8173 -21.8909 -22.7224 -4.3972 10.5631 38.8415
#
#
#
# Elastic Compliance Matrix: (Units=1/GPa)
#
#
# Indices 1 2 3 4 5 6 
#
# 1 0.023981 0.004124 0.000475 0.006290 0.006556 0.011914
# 2 0.004124 0.023812 -0.005847 0.007167 0.017076 0.007953
# 3 0.000475 -0.005847 0.011209 -0.005634 -0.007857 0.004966
# 4 0.006290 0.007167 -0.005634 0.031823 0.018060 0.002158
# 5 0.006556 0.017076 -0.007857 0.018060 0.061675 -0.006862
# 6 0.011914 0.007953 0.004966 0.002158 -0.006862 0.040402
#
#
# Mechanical properties :
#
#
# Convention : Reuss Voigt Hill
#
# Bulk Modulus (GPa) = 17.69750 35.43390 26.56570
# Shear Modulus (GPa) = 23.33906 35.39534 29.36720
#
# Velocity S-wave (km/s) = 3.04194 3.74612 3.41224
# Velocity P-wave (km/s) = 4.39938 5.72363 5.10463
#
# Compressibility (1/GPa) = 0.05650516
#
# Stress axis : x y z
#
# Youngs Moduli (GPa) = 41.70020 41.99505 89.21705
#
# Poissons Ratio (x) = -0.17319 -0.04237
# Poissons Ratio (y) = -0.17197 0.52167
# Poissons Ratio (z) = -0.01981 0.24555
#
# Static dielectric constant tensor:
#      x y z
#    x 2.080710 0.034620 0.041500 
#    y 0.034620 1.883670 -0.068920 
#    z 0.041500 -0.068920 1.842890 
# 
# From -- ./inp_files/442124.got.cif
#   From: 2010.05.17/outbox.cif.g08.bks.cpg/sg2_222_cif.got.tgz:442124.got - 2010.06.03 11:33:40.
