data_PCOD9103332
_publ_section_title
;
Structure prediction by ZEFSAII (Michael W. Deem and Ramdas Pophale) SiO2 
 PCOD9103332
Probable space group: P -1
;
_chemical_formula_sum "Si O2"
_cell_formula_units_Z 15
_cell_length_a 5.118445
_cell_length_b 20.988623
_cell_length_c 7.533485
_cell_angle_alpha 54.843900
_cell_angle_beta 99.329890
_cell_angle_gamma 111.001893
_cell_volume 616.689732
_symmetry_space_group_name_H-M "P -1"
_symmetry_group_IT_number 2
_symmetry_cell_setting 'triclinic'
loop_
_space_group_symop_operation_xyz
x,y,z
-x,-y,-z
loop_
_atom_site_type_symbol
_atom_site_label
_atom_site_fract_x
_atom_site_fract_y
_atom_site_fract_z
Si Si1 0.809144 0.328233 0.528131
Si Si2 0.249052 0.939082 0.687141
Si Si3 0.162307 0.229721 0.543908
Si Si4 0.756228 0.370920 0.854764
Si Si5 0.762894 0.913675 0.385735
Si Si6 0.724884 0.486115 0.177973
Si Si7 0.273563 0.793730 0.747090
Si Si8 0.500000 0.500000 0.500000
O O1 0.484892 0.278050 0.538193
O O2 0.864787 0.355794 0.694953
O O3 0.858449 0.412473 0.284660
O O4 0.988923 0.270238 0.587350
O O5 0.293006 0.850731 0.831580
O O6 0.973209 0.920759 0.564076
O O7 0.500000 0.000000 0.500000
O O8 0.239751 0.992442 0.774465
O O9 0.139834 0.132592 0.689345
O O10 0.035157 0.239643 0.320160
O O11 0.546067 0.422126 0.738034
O O12 0.022093 0.431326 0.888311
O O13 0.632520 0.283175 0.073457
O O14 0.466693 0.852230 0.523416
O O15 0.564752 0.460626 0.386955
O O16 0.500000 0.500000 0.000000
#
# Coordination Sequence:
#
# PCOD9103332 Si02
#       8
#     2   2   2   2   2   2   2   1
#     4  11  25  42  65  92 134 181 228 281 347 402
#     4   8  16  31  60  97 134 166 207 283 334 399
#     4  11  22  40  65  96 129 173 227 279 336 406
#     4  11  26  43  65  93 134 181 227 287 342 413
#     4   9  17  35  62 101 129 166 219 275 338 406
#     4  11  26  45  69  95 130 182 235 296 347 412
#     4  10  20  38  65  99 129 170 231 280 337 405
#     4  10  24  42  64  90 132 178 226 282 348 396
#
# _framework density 24.323415000000001
#
# number of rings (size 3 to 8) (size 9 to 14) (size 15 to 20)
#    0.000    1.867    1.333    2.400    9.333    2.667 
#    0.000    0.000    0.000    1.600    0.000    0.000 
#    0.000    0.000    0.000    0.000    0.000    0.000 
#
# Total GULP energy -83510.260234 kJ/mol
# GULP energy per Si atom -5567.350682 kJ/mol
# Density = 2.426805 g / cm^3
# Si number density = 24.323415 Si / 1000 Ang^3
#
#
#
# Elastic Constant Matrix: (Units=GPa)
#
#
# Indices 1 2 3 4 5 6 
#
# 1 116.1132 46.1673 -9.4291 11.3687 6.2777 1.8220
# 2 46.1673 -5.6477 -154.1379 144.9715 -24.3740 107.1212
# 3 -9.4291 -154.1379 -153.9186 168.2654 -29.9555 139.6922
# 4 11.3687 144.9715 168.2654 -132.2775 1.2380 -125.6858
# 5 6.2777 -24.3740 -29.9555 1.2380 -3.0244 9.9441
# 6 1.8220 107.1212 139.6922 -125.6858 9.9441 -49.7627
#
#
#
# Elastic Compliance Matrix: (Units=1/GPa)
#
#
# Indices 1 2 3 4 5 6 
#
# 1 0.009728 -0.003497 0.004300 0.002467 0.007050 0.000075
# 2 -0.003497 0.008597 -0.006350 -0.001214 -0.006547 0.002313
# 3 0.004300 -0.006350 0.009664 0.002170 -0.023256 0.003490
# 4 0.002467 -0.001214 0.002170 0.002163 -0.034789 -0.008848
# 5 0.007050 -0.006547 -0.023256 -0.034789 -0.053606 -0.001962
# 6 0.000075 0.002313 0.003490 -0.008848 -0.001962 0.016640
#
#
# Mechanical properties :
#
#
# Convention : Reuss Voigt Hill
#
# Bulk Modulus (GPa) = 59.19154 -30.91694 14.13730
# Shear Modulus (GPa) = 504.32027 -32.08314 236.11857
#
# Velocity S-wave (km/s) = 14.41491 -3.63578 9.86333
# Velocity P-wave (km/s) = 17.36205 5.51031 11.64211
#
# Compressibility (1/GPa) = 0.01689431
#
# Stress axis : x y z
#
# Youngs Moduli (GPa) = 102.79403 116.31385 103.47516
#
# Poissons Ratio (x) = 0.40681 -0.44491
# Poissons Ratio (y) = 0.35952 0.65706
# Poissons Ratio (z) = -0.44198 0.73859
#
# Static dielectric constant tensor:
#      x y z
#    x 2.072400 -0.024380 -0.047630 
#    y -0.024380 2.024320 -0.047330 
#    z -0.047630 -0.047330 1.973530 
# 
# From -- ./inp_files/141165.got.cif
#   From: 2010.05.17/outbox.cif.g08.bks.cpg/sg2_71_cif.got.tgz:141165.got - 2010.06.03 11:33:40.
