data_PCOD9103007
_publ_section_title
;
Structure prediction by ZEFSAII (Michael W. Deem and Ramdas Pophale) SiO2 
 PCOD9103007
Probable space group: P -1
;
_chemical_formula_sum "Si O2"
_cell_formula_units_Z 14
_cell_length_a 9.167332
_cell_length_b 19.738652
_cell_length_c 9.966207
_cell_angle_alpha 40.369581
_cell_angle_beta 150.617257
_cell_angle_gamma 129.505131
_cell_volume 570.925451
_symmetry_space_group_name_H-M "P -1"
_symmetry_group_IT_number 2
_symmetry_cell_setting 'triclinic'
loop_
_space_group_symop_operation_xyz
x,y,z
-x,-y,-z
loop_
_atom_site_type_symbol
_atom_site_label
_atom_site_fract_x
_atom_site_fract_y
_atom_site_fract_z
Si Si1 0.053456 0.922788 0.285328
Si Si2 0.769715 0.258979 0.924982
Si Si3 0.198890 0.880206 0.087746
Si Si4 0.106572 0.278063 0.431776
Si Si5 0.608306 0.413590 0.975699
Si Si6 0.582717 0.807333 0.752255
Si Si7 0.987271 0.469286 0.691501
O O1 0.936778 0.999314 0.196114
O O2 0.396159 0.877015 0.610192
O O3 0.881846 0.818007 0.309185
O O4 0.000000 0.000000 0.000000
O O5 0.436704 0.305882 0.624532
O O6 0.944379 0.347704 0.858583
O O7 0.735549 0.163253 0.941749
O O8 0.953523 0.232900 0.245922
O O9 0.931895 0.815936 0.028948
O O10 0.471878 0.854938 0.447326
O O11 0.877303 0.372432 0.156273
O O12 0.509501 0.310054 0.127778
O O13 0.733790 0.494495 0.058429
O O14 0.312316 0.466246 0.589784
O O15 0.000000 0.500000 0.500000
#
# Coordination Sequence:
#
# PCOD9103007 Si02
#       7
#     2   2   2   2   2   2   2
#     4   9  22  42  69  95 123 163 213 259 310 377
#     4  12  26  42  62  93 133 167 208 258 310 375
#     4  11  22  39  63  91 129 166 203 259 317 365
#     4  11  26  44  64  95 128 167 210 254 313 374
#     4  11  23  41  66  91 127 165 208 261 310 366
#     4  10  20  38  64  96 123 158 210 265 313 366
#     4  12  25  42  67  96 124 165 213 258 312 371
#
# _framework density 24.521591000000001
#
# number of rings (size 3 to 8) (size 9 to 14) (size 15 to 20)
#    0.000    1.143    0.000    6.000    0.000   12.571 
#    0.000    0.000    0.000    0.000    0.000    0.000 
#    0.000    0.000    0.000    0.000    0.000    0.000 
#
# Total GULP energy -78427.039019 kJ/mol
# GULP energy per Si atom -5601.931359 kJ/mol
# Density = 2.446578 g / cm^3
# Si number density = 24.521591 Si / 1000 Ang^3
#
#
#
# Elastic Constant Matrix: (Units=GPa)
#
#
# Indices 1 2 3 4 5 6 
#
# 1 68.4601 8.0960 8.3625 -4.1299 5.5900 -4.6238
# 2 8.0960 51.8533 1.7407 -1.8045 7.4082 -9.4566
# 3 8.3625 1.7407 81.8278 9.8044 -5.0366 -5.9790
# 4 -4.1299 -1.8045 9.8044 35.0939 0.1150 6.7014
# 5 5.5900 7.4082 -5.0366 0.1150 33.4461 4.9872
# 6 -4.6238 -9.4566 -5.9790 6.7014 4.9872 33.8456
#
#
#
# Elastic Compliance Matrix: (Units=1/GPa)
#
#
# Indices 1 2 3 4 5 6 
#
# 1 0.015460 -0.001655 -0.001855 0.002009 -0.002701 0.001322
# 2 -0.001655 0.021533 -0.000105 -0.000309 -0.005498 0.006643
# 3 -0.001855 -0.000105 0.013258 -0.004440 0.001950 0.002651
# 4 0.002009 -0.000309 -0.004440 0.031251 -0.000033 -0.006779
# 5 -0.002701 -0.005498 0.001950 -0.000033 0.032815 -0.006390
# 6 0.001322 0.006643 0.002651 -0.006779 -0.006390 0.034335
#
#
# Mechanical properties :
#
#
# Convention : Reuss Voigt Hill
#
# Bulk Modulus (GPa) = 23.24361 26.50439 24.87400
# Shear Modulus (GPa) = 29.37327 32.73991 31.05659
#
# Velocity S-wave (km/s) = 3.46476 3.65793 3.56265
# Velocity P-wave (km/s) = 5.05029 5.35469 5.20472
#
# Compressibility (1/GPa) = 0.04302258
#
# Stress axis : x y z
#
# Youngs Moduli (GPa) = 64.68146 46.43947 75.42393
#
# Poissons Ratio (x) = 0.07684 0.13992
# Poissons Ratio (y) = 0.10703 0.00792
# Poissons Ratio (z) = 0.11999 0.00488
#
# Static dielectric constant tensor:
#      x y z
#    x 2.018700 -0.037910 -0.005990 
#    y -0.037910 1.932840 -0.012820 
#    z -0.005990 -0.012820 1.895820 
# 
# From -- ./inp_files/226026.got.cif
#   From: 2010.05.17/outbox.cif.g08.bks.cpg/sg2_114_cif.got.tgz:226026.got - 2010.06.03 11:33:40.
