data_PCOD9103672
_publ_section_title
;
Structure prediction by ZEFSAII (Michael W. Deem and Ramdas Pophale) SiO2 
 PCOD9103672
Probable space group: P -1
;
_chemical_formula_sum "Si O2"
_cell_formula_units_Z 14
_cell_length_a 9.369185
_cell_length_b 14.279959
_cell_length_c 10.701721
_cell_angle_alpha 151.055682
_cell_angle_beta 125.835443
_cell_angle_gamma 71.144342
_cell_volume 492.173398
_symmetry_space_group_name_H-M "P -1"
_symmetry_group_IT_number 2
_symmetry_cell_setting 'triclinic'
loop_
_space_group_symop_operation_xyz
x,y,z
-x,-y,-z
loop_
_atom_site_type_symbol
_atom_site_label
_atom_site_fract_x
_atom_site_fract_y
_atom_site_fract_z
Si Si1 0.856971 0.177827 0.238088
Si Si2 0.989523 0.377544 0.015404
Si Si3 0.825714 0.187962 0.954492
Si Si4 0.677306 0.432517 0.792505
Si Si5 0.465203 0.270020 0.820422
Si Si6 0.280064 0.254692 0.220011
Si Si7 0.486675 0.222045 0.055137
O O1 0.953318 0.376328 0.618224
O O2 0.623932 0.116736 0.040127
O O3 0.923638 0.255774 0.220053
O O4 0.876804 0.966618 0.043999
O O5 0.147646 0.401753 0.019062
O O6 0.975536 0.242500 0.977022
O O7 0.775839 0.296209 0.744588
O O8 0.693030 0.307819 0.987845
O O9 0.666473 0.928176 0.571531
O O10 0.486468 0.308066 0.463547
O O11 0.601077 0.541195 0.987679
O O12 0.402248 0.173232 0.816056
O O13 0.316434 0.180123 0.016837
O O14 0.342487 0.515567 0.550194
#
# Coordination Sequence:
#
# PCOD9103672 Si02
#       7
#     2   2   2   2   2   2   2
#     4  11  22  41  64  93 132 172 209 268 318 389
#     4  11  24  40  63  96 138 165 205 269 340 368
#     4  10  23  42  65  91 129 176 212 259 327 385
#     4  10  23  41  64  99 123 167 217 271 316 380
#     4   9  21  42  65  95 119 169 225 259 310 382
#     4  10  20  38  67  95 123 165 224 260 313 380
#     4   9  19  36  64  97 118 160 219 269 307 365
#
# _framework density 28.445260000000001
#
# number of rings (size 3 to 8) (size 9 to 14) (size 15 to 20)
#    0.000    2.000    1.429    0.857    6.000    2.286 
#    7.714    0.714    0.000    0.000    0.000    0.000 
#    0.000    0.000    0.000    0.000    0.000    0.000 
#
# Total GULP energy -78347.657462 kJ/mol
# GULP energy per Si atom -5596.261247 kJ/mol
# Density = 2.838052 g / cm^3
# Si number density = 28.445260 Si / 1000 Ang^3
#
#
#
# Elastic Constant Matrix: (Units=GPa)
#
#
# Indices 1 2 3 4 5 6 
#
# 1 122.3627 -5.7662 6.4132 22.9968 -23.0973 36.6531
# 2 -5.7662 62.2630 4.5850 30.8098 -22.4575 21.5647
# 3 6.4132 4.5850 51.2563 4.3254 12.0544 -3.2899
# 4 22.9968 30.8098 4.3254 56.3230 5.0921 -17.3463
# 5 -23.0973 -22.4575 12.0544 5.0921 22.5800 5.3110
# 6 36.6531 21.5647 -3.2899 -17.3463 5.3110 47.8572
#
#
#
# Elastic Compliance Matrix: (Units=1/GPa)
#
#
# Indices 1 2 3 4 5 6 
#
# 1 0.002582 -0.009102 0.002856 0.006488 -0.010780 0.005869
# 2 -0.009102 -0.000351 0.005350 0.008996 -0.017533 0.012704
# 3 0.002856 0.005350 0.018558 -0.007575 0.001510 -0.006235
# 4 0.006488 0.008996 -0.007575 0.005927 0.020566 -0.009677
# 5 -0.010780 -0.017533 0.001510 0.020566 0.004928 0.023168
# 6 0.005869 0.012704 -0.006235 -0.009677 0.023168 0.004169
#
#
# Mechanical properties :
#
#
# Convention : Reuss Voigt Hill
#
# Bulk Modulus (GPa) = 52.64608 27.37178 40.00893
# Shear Modulus (GPa) = 113.79743 40.72873 77.26308
#
# Velocity S-wave (km/s) = 6.33187 3.78806 5.21737
# Velocity P-wave (km/s) = 8.48557 5.36433 7.09862
#
# Compressibility (1/GPa) = 0.01899477
#
# Stress axis : x y z
#
# Youngs Moduli (GPa) = 387.34172 -2846.78917 53.88558
#
# Poissons Ratio (x) = -25.91287 -0.15388
# Poissons Ratio (y) = 3.52577 -0.28829
# Poissons Ratio (z) = -1.10613 15.23046
#
# Static dielectric constant tensor:
#      x y z
#    x 2.341920 -0.161720 0.130980 
#    y -0.161720 2.394360 -0.052480 
#    z 0.130980 -0.052480 2.264780 
# 
# From -- ./inp_files/434380.got.cif
#   From: 2010.05.17/outbox.cif.g08.bks.cpg/sg2_218_cif.got.tgz:434380.got - 2010.06.03 11:33:40.
