data_PCOD9103475
_publ_section_title
;
Structure prediction by ZEFSAII (Michael W. Deem and Ramdas Pophale) SiO2 
 PCOD9103475
Probable space group: P -1
;
_chemical_formula_sum "Si O2"
_cell_formula_units_Z 15
_cell_length_a 17.627671
_cell_length_b 8.469872
_cell_length_c 5.777805
_cell_angle_alpha 124.446468
_cell_angle_beta 83.694495
_cell_angle_gamma 124.323101
_cell_volume 559.137203
_symmetry_space_group_name_H-M "P -1"
_symmetry_group_IT_number 2
_symmetry_cell_setting 'triclinic'
loop_
_space_group_symop_operation_xyz
x,y,z
-x,-y,-z
loop_
_atom_site_type_symbol
_atom_site_label
_atom_site_fract_x
_atom_site_fract_y
_atom_site_fract_z
Si Si1 0.560090 0.427185 0.136445
Si Si2 0.641481 0.853079 0.782948
Si Si3 0.105320 0.776518 0.923496
Si Si4 0.690619 0.583234 0.841518
Si Si5 0.889639 0.341797 0.676619
Si Si6 0.134598 0.266375 0.802554
Si Si7 0.286984 0.628801 0.737062
Si Si8 0.000000 0.000000 0.000000
O O1 0.601487 0.693949 0.432931
O O2 0.452032 0.243468 0.107895
O O3 0.626623 0.364834 0.176623
O O4 0.585815 0.446062 0.876290
O O5 0.700862 0.772620 0.816414
O O6 0.697357 0.135369 0.982614
O O7 0.149797 0.766860 0.656966
O O8 0.005800 0.498805 0.748152
O O9 0.070833 0.938391 0.018338
O O10 0.143628 0.820484 0.213695
O O11 0.774672 0.712652 0.107230
O O12 0.698577 0.393079 0.553765
O O13 0.872706 0.541388 0.897178
O O14 0.179322 0.395367 0.648863
O O15 0.040097 0.021441 0.731805
#
# Coordination Sequence:
#
# PCOD9103475 Si02
#       8
#     2   2   2   2   2   2   2   1
#     4   9  20  39  62  96 132 165 218 260 322 399
#     4  10  20  38  66  93 129 174 209 266 327 400
#     4   9  19  37  60  92 111 158 206 273 331 399
#     4  10  22  39  59  94 131 165 220 272 329 395
#     4   9  19  37  61  84 122 153 213 261 333 403
#     4  10  23  42  58  86 125 167 217 285 329 407
#     4  10  22  39  60  93 130 172 213 272 334 398
#     4  10  22  44  64  86 122 166 220 284 340 392
#
# _framework density 26.827044000000001
#
# number of rings (size 3 to 8) (size 9 to 14) (size 15 to 20)
#    0.000    2.400    0.000    0.800    1.867    4.267 
#   12.000    0.000    0.000    0.000    0.000    0.000 
#    0.000    0.000    0.000    0.000    0.000    0.000 
#
# Total GULP energy -83602.174772 kJ/mol
# GULP energy per Si atom -5573.478318 kJ/mol
# Density = 2.676598 g / cm^3
# Si number density = 26.827044 Si / 1000 Ang^3
#
#
#
# Elastic Constant Matrix: (Units=GPa)
#
#
# Indices 1 2 3 4 5 6 
#
# 1 99.4046 23.1464 26.9002 -3.1984 -19.7349 -5.4730
# 2 23.1464 89.5540 52.8859 -3.4565 -8.5112 5.6907
# 3 26.9002 52.8859 117.6583 -18.8851 -15.7597 3.0279
# 4 -3.1984 -3.4565 -18.8851 50.2729 0.7723 -13.5130
# 5 -19.7349 -8.5112 -15.7597 0.7723 40.7845 -13.5975
# 6 -5.4730 5.6907 3.0279 -13.5130 -13.5975 44.9330
#
#
#
# Elastic Compliance Matrix: (Units=1/GPa)
#
#
# Indices 1 2 3 4 5 6 
#
# 1 0.012409 -0.002329 -0.000793 0.001379 0.006611 0.004275
# 2 -0.002329 0.015955 -0.007175 -0.002543 -0.001539 -0.003051
# 3 -0.000793 -0.007175 0.013186 0.005062 0.004004 0.002658
# 4 0.001379 -0.002543 0.005062 0.023985 0.004552 0.008740
# 5 0.006611 -0.001539 0.004004 0.004552 0.032875 0.012048
# 6 0.004275 -0.003051 0.002658 0.008740 0.012048 0.029258
#
#
# Mechanical properties :
#
#
# Convention : Reuss Voigt Hill
#
# Bulk Modulus (GPa) = 47.71931 56.94242 52.33087
# Shear Modulus (GPa) = 32.20655 40.77704 36.49179
#
# Velocity S-wave (km/s) = 3.46862 3.90294 3.69217
# Velocity P-wave (km/s) = 5.81963 6.44845 6.14209
#
# Compressibility (1/GPa) = 0.02095588
#
# Stress axis : x y z
#
# Youngs Moduli (GPa) = 80.58551 62.67643 75.83722
#
# Poissons Ratio (x) = 0.14596 0.06018
# Poissons Ratio (y) = 0.18767 0.54412
# Poissons Ratio (z) = 0.06394 0.44970
#
# Static dielectric constant tensor:
#      x y z
#    x 2.095490 -0.002680 0.056690 
#    y -0.002680 2.223240 -0.033840 
#    z 0.056690 -0.033840 2.150270 
# 
# From -- ./inp_files/117348.got.cif
#   From: 2010.05.17/outbox.cif.g08.bks.cpg/sg2_59_cif.got.tgz:117348.got - 2010.06.03 11:33:40.
