data_PCOD9103072
_publ_section_title
;
Structure prediction by ZEFSAII (Michael W. Deem and Ramdas Pophale) SiO2 
 PCOD9103072
Probable space group: P -1
;
_chemical_formula_sum "Si O2"
_cell_formula_units_Z 16
_cell_length_a 9.111566
_cell_length_b 5.049902
_cell_length_c 27.467854
_cell_angle_alpha 109.466920
_cell_angle_beta 36.413905
_cell_angle_gamma 104.457266
_cell_volume 706.971596
_symmetry_space_group_name_H-M "P -1"
_symmetry_group_IT_number 2
_symmetry_cell_setting 'triclinic'
loop_
_space_group_symop_operation_xyz
x,y,z
-x,-y,-z
loop_
_atom_site_type_symbol
_atom_site_label
_atom_site_fract_x
_atom_site_fract_y
_atom_site_fract_z
Si Si1 0.699399 0.175648 0.286603
Si Si2 0.938976 0.689390 0.980736
Si Si3 0.297289 0.773260 0.540824
Si Si4 0.362052 0.654845 0.127712
Si Si5 0.977634 0.707712 0.380643
Si Si6 0.834123 0.740264 0.764811
Si Si7 0.804373 0.658565 0.528697
Si Si8 0.096562 0.424085 0.823540
O O1 0.415341 0.156603 0.378177
O O2 0.745447 0.419909 0.250321
O O3 0.888981 0.224611 0.284014
O O4 0.787307 0.886256 0.220490
O O5 0.085650 0.586791 0.887204
O O6 0.650642 0.673889 0.042264
O O7 0.000000 0.500000 0.000000
O O8 0.000000 0.000000 0.000000
O O9 0.057725 0.991339 0.617101
O O10 0.500000 0.000000 0.500000
O O11 0.247599 0.517123 0.574626
O O12 0.339136 0.607114 0.469947
O O13 0.317800 0.393501 0.158806
O O14 0.178090 0.613255 0.128606
O O15 0.270492 0.945392 0.196273
O O16 0.954546 0.773394 0.448781
O O17 0.176036 0.496027 0.289625
O O18 0.000000 0.500000 0.500000
#
# Coordination Sequence:
#
# PCOD9103072 Si02
#       8
#     2   2   2   2   2   2   2   2
#     4  10  22  39  66  91 128 162 220 270 306 380
#     4  12  25  45  69 103 136 166 203 255 327 397
#     4  10  21  35  60  84 111 160 213 268 312 352
#     4  10  22  42  69  96 131 168 213 262 310 391
#     4  10  22  37  59  89 124 161 217 263 312 363
#     4  10  20  38  64  99 122 165 220 270 315 349
#     4  10  25  42  58  89 128 175 216 255 328 374
#     4  10  23  45  68  97 123 173 214 261 319 371
#
# _framework density 22.631743
#
# number of rings (size 3 to 8) (size 9 to 14) (size 15 to 20)
#    0.750    1.000    0.000    3.750    3.500    1.500 
#    6.750    5.000    0.000    0.000    0.000    0.000 
#    0.000    0.000    0.000    0.000    0.000    0.000 
#
# Total GULP energy -89160.404162 kJ/mol
# GULP energy per Si atom -5572.525260 kJ/mol
# Density = 2.258023 g / cm^3
# Si number density = 22.631743 Si / 1000 Ang^3
#
#
#
# Elastic Constant Matrix: (Units=GPa)
#
#
# Indices 1 2 3 4 5 6 
#
# 1 42.9842 9.8670 26.9074 1.4561 1.6944 0.6992
# 2 9.8670 89.7151 -4.4289 3.8095 -11.0948 -7.1684
# 3 26.9074 -4.4289 88.7928 10.0629 11.7841 14.7007
# 4 1.4561 3.8095 10.0629 18.1775 4.4366 -4.8084
# 5 1.6944 -11.0948 11.7841 4.4366 18.3492 1.3234
# 6 0.6992 -7.1684 14.7007 -4.8084 1.3234 26.2081
#
#
#
# Elastic Compliance Matrix: (Units=1/GPa)
#
#
# Indices 1 2 3 4 5 6 
#
# 1 0.030775 -0.003716 -0.011109 0.005848 0.000238 0.005455
# 2 -0.003716 0.013007 0.000815 -0.004470 0.008625 0.001944
# 3 -0.011109 0.000815 0.018793 -0.011062 -0.007032 -0.011696
# 4 0.005848 -0.004470 -0.011062 0.069982 -0.014386 0.018392
# 5 0.000238 0.008625 -0.007032 -0.014386 0.067669 0.000241
# 6 0.005455 0.001944 -0.011696 0.018392 0.000241 0.048465
#
#
# Mechanical properties :
#
#
# Convention : Reuss Voigt Hill
#
# Bulk Modulus (GPa) = 28.93936 31.79812 30.36874
# Shear Modulus (GPa) = 17.34733 25.15672 21.25203
#
# Velocity S-wave (km/s) = 2.77159 3.33764 3.06769
# Velocity P-wave (km/s) = 4.80178 5.37902 5.09857
#
# Compressibility (1/GPa) = 0.03455501
#
# Stress axis : x y z
#
# Youngs Moduli (GPa) = 32.49380 76.88080 53.21262
#
# Poissons Ratio (x) = 0.28570 0.59113
# Poissons Ratio (y) = 0.12075 -0.04337
# Poissons Ratio (z) = 0.36097 -0.06266
#
# Static dielectric constant tensor:
#      x y z
#    x 1.878670 -0.022070 -0.048600 
#    y -0.022070 1.904330 0.091630 
#    z -0.048600 0.091630 1.946570 
# 
# From -- ./inp_files/616210.got.cif
#   From: 2010.05.17/outbox.cif.g08.bks.cpg/sg2_309_cif.got.tgz:616210.got - 2010.06.03 11:33:40.
