data_PCOD9103555
_publ_section_title
;
Structure prediction by ZEFSAII (Michael W. Deem and Ramdas Pophale) SiO2 
 PCOD9103555
Probable space group: P -1
;
_chemical_formula_sum "Si O2"
_cell_formula_units_Z 16
_cell_length_a 8.986587
_cell_length_b 9.243100
_cell_length_c 9.045676
_cell_angle_alpha 81.251195
_cell_angle_beta 64.626104
_cell_angle_gamma 66.456042
_cell_volume 622.205640
_symmetry_space_group_name_H-M "P -1"
_symmetry_group_IT_number 2
_symmetry_cell_setting 'triclinic'
loop_
_space_group_symop_operation_xyz
x,y,z
-x,-y,-z
loop_
_atom_site_type_symbol
_atom_site_label
_atom_site_fract_x
_atom_site_fract_y
_atom_site_fract_z
Si Si1 0.273032 0.604371 0.251569
Si Si2 0.085409 0.433190 0.658045
Si Si3 0.339940 0.583069 0.888678
Si Si4 0.540181 0.817609 0.561428
Si Si5 0.217582 0.296917 0.926764
Si Si6 0.522472 0.983692 0.815822
Si Si7 0.247287 0.871521 0.448055
Si Si8 0.055365 0.754773 0.743391
O O1 0.100686 0.557750 0.330660
O O2 0.457771 0.469722 0.244805
O O3 0.243826 0.756533 0.336975
O O4 0.313227 0.637682 0.060333
O O5 0.258229 0.300745 0.533662
O O6 0.103951 0.601700 0.639984
O O7 0.083040 0.382279 0.839550
O O8 0.195544 0.704082 0.825970
O O9 0.302881 0.419418 0.925817
O O10 0.407144 0.780162 0.510848
O O11 0.500000 0.000000 0.500000
O O12 0.497400 0.845529 0.752061
O O13 0.126725 0.235027 0.104907
O O14 0.366807 0.147754 0.813557
O O15 0.703505 0.992240 0.671134
O O16 0.500000 0.000000 0.000000
O O17 0.078075 0.897294 0.621151
#
# Coordination Sequence:
#
# PCOD9103555 Si02
#       8
#     2   2   2   2   2   2   2   2
#     4  11  21  36  63 108 143 174 225 278 338 404
#     4  11  20  40  73 101 148 181 224 282 342 413
#     4  10  20  38  66  98 146 178 223 270 342 422
#     4  10  22  46  71  93 132 190 235 277 335 405
#     4  11  19  45  70 100 134 188 233 269 344 421
#     4  11  25  49  77  93 127 187 241 285 339 407
#     4  11  24  44  65 101 142 171 233 283 343 415
#     4  11  23  40  69 107 140 185 220 282 358 405
#
# _framework density 25.714970000000001
#
# number of rings (size 3 to 8) (size 9 to 14) (size 15 to 20)
#    0.000    1.250    6.250    1.500    0.000    4.500 
#    2.250    6.250    0.000    0.000    0.000    0.000 
#    0.000    0.000    0.000    0.000    0.000    0.000 
#
# Total GULP energy -89536.996534 kJ/mol
# GULP energy per Si atom -5596.062283 kJ/mol
# Density = 2.565644 g / cm^3
# Si number density = 25.714970 Si / 1000 Ang^3
#
#
#
# Elastic Constant Matrix: (Units=GPa)
#
#
# Indices 1 2 3 4 5 6 
#
# 1 148.1841 21.4753 39.4778 8.4370 -0.7810 8.4379
# 2 21.4753 64.5995 35.3839 5.4607 -1.6224 7.8586
# 3 39.4778 35.3839 157.7519 4.1141 1.3881 11.4054
# 4 8.4370 5.4607 4.1141 52.4976 10.6092 1.3655
# 5 -0.7810 -1.6224 1.3881 10.6092 57.1812 10.0602
# 6 8.4379 7.8586 11.4054 1.3655 10.0602 31.7152
#
#
#
# Elastic Compliance Matrix: (Units=1/GPa)
#
#
# Indices 1 2 3 4 5 6 
#
# 1 0.007470 -0.001451 -0.001433 -0.001006 0.000498 -0.001227
# 2 -0.001451 0.018463 -0.003508 -0.001624 0.001476 -0.003325
# 3 -0.001433 -0.003508 0.007590 0.000050 -0.000055 -0.001463
# 4 -0.001006 -0.001624 0.000050 0.020153 -0.003985 0.001048
# 5 0.000498 0.001476 -0.000055 -0.003985 0.019415 -0.006465
# 6 -0.001227 -0.003325 -0.001463 0.001048 -0.006465 0.035213
#
#
# Mechanical properties :
#
#
# Convention : Reuss Voigt Hill
#
# Bulk Modulus (GPa) = 48.22333 62.57883 55.40108
# Shear Modulus (GPa) = 39.06171 46.55871 42.81021
#
# Velocity S-wave (km/s) = 3.90170 4.25969 4.08462
# Velocity P-wave (km/s) = 6.25231 6.97006 6.62092
#
# Compressibility (1/GPa) = 0.02073685
#
# Stress axis : x y z
#
# Youngs Moduli (GPa) = 133.86256 54.16238 131.75830
#
# Poissons Ratio (x) = 0.07862 0.18885
# Poissons Ratio (y) = 0.19430 0.46224
# Poissons Ratio (z) = 0.19187 0.19002
#
# Static dielectric constant tensor:
#      x y z
#    x 2.077370 -0.010040 0.002350 
#    y -0.010040 2.013140 -0.110640 
#    z 0.002350 -0.110640 2.113580 
# 
# From -- ./inp_files/238890.got.cif
#   From: 2010.05.17/outbox.cif.g08.bks.cpg/sg2_120_cif.got.tgz:238890.got - 2010.06.03 11:33:40.
