data_PCOD9103594
_publ_section_title
;
Structure prediction by ZEFSAII (Michael W. Deem and Ramdas Pophale) SiO2 
 PCOD9103594
Probable space group: P -1
;
_chemical_formula_sum "Si O2"
_cell_formula_units_Z 16
_cell_length_a 8.629133
_cell_length_b 18.336218
_cell_length_c 5.199327
_cell_angle_alpha 123.258632
_cell_angle_beta 81.251256
_cell_angle_gamma 93.291113
_cell_volume 679.576320
_symmetry_space_group_name_H-M "P -1"
_symmetry_group_IT_number 2
_symmetry_cell_setting 'triclinic'
loop_
_space_group_symop_operation_xyz
x,y,z
-x,-y,-z
loop_
_atom_site_type_symbol
_atom_site_label
_atom_site_fract_x
_atom_site_fract_y
_atom_site_fract_z
Si Si1 0.633428 0.029191 0.827349
Si Si2 0.009447 0.278956 0.161346
Si Si3 0.168987 0.134057 0.475097
Si Si4 0.575017 0.742024 0.495548
Si Si5 0.203809 0.403876 0.678696
Si Si6 0.135990 0.851618 0.668313
Si Si7 0.916440 0.435630 0.198840
Si Si8 0.593896 0.190563 0.844058
O O1 0.564006 0.090009 0.736227
O O2 0.738000 0.944553 0.562335
O O3 0.749828 0.091280 0.078800
O O4 0.500000 0.000000 0.000000
O O5 0.150267 0.338997 0.341628
O O6 0.921975 0.231010 0.318493
O O7 0.889005 0.346631 0.181396
O O8 0.092624 0.205890 0.822522
O O9 0.288260 0.187293 0.370411
O O10 0.023897 0.099395 0.283387
O O11 0.654847 0.646050 0.309318
O O12 0.503171 0.767924 0.288124
O O13 0.451504 0.756908 0.785439
O O14 0.221415 0.503105 0.768970
O O15 0.048307 0.410573 0.907062
O O16 0.231254 0.819192 0.330738
O O17 0.000000 0.500000 0.500000
#
# Coordination Sequence:
#
# PCOD9103594 Si02
#       8
#     2   2   2   2   2   2   2   2
#     4  12  27  50  69 106 142 195 245 307 363 429
#     4  11  21  41  68 107 146 184 234 302 364 425
#     4  12  25  42  74 104 139 188 247 307 358 421
#     4  12  24  45  74 102 144 190 243 294 359 433
#     4  10  20  38  67 111 139 186 233 302 352 432
#     4  12  26  45  71 102 146 193 246 302 364 426
#     4   9  19  35  65 108 148 175 230 298 362 418
#     4  12  27  49  67 101 142 197 236 293 362 434
#
# _framework density 23.544079
#
# number of rings (size 3 to 8) (size 9 to 14) (size 15 to 20)
#    0.000    0.750    5.000    1.875    1.750    5.000 
#    0.000    0.000    0.000    1.500    0.000    0.000 
#    0.000    0.000    0.000    0.000    0.000    0.000 
#
# Total GULP energy -89510.302323 kJ/mol
# GULP energy per Si atom -5594.393895 kJ/mol
# Density = 2.349049 g / cm^3
# Si number density = 23.544079 Si / 1000 Ang^3
#
#
#
# Elastic Constant Matrix: (Units=GPa)
#
#
# Indices 1 2 3 4 5 6 
#
# 1 96.8900 47.2053 17.9333 0.1875 -11.0157 -30.7466
# 2 47.2053 176.0955 46.0447 0.1264 -33.0197 -47.1637
# 3 17.9333 46.0447 98.9648 6.1670 -14.5887 -11.8473
# 4 0.1875 0.1264 6.1670 37.3775 -6.3024 -14.0011
# 5 -11.0157 -33.0197 -14.5887 -6.3024 36.4433 4.1057
# 6 -30.7466 -47.1637 -11.8473 -14.0011 4.1057 59.2802
#
#
#
# Elastic Compliance Matrix: (Units=1/GPa)
#
#
# Indices 1 2 3 4 5 6 
#
# 1 0.013336 -0.001214 -0.000932 0.002835 0.002341 0.006272
# 2 -0.001214 0.010150 -0.002764 0.004502 0.007665 0.007425
# 3 -0.000932 -0.002764 0.011826 -0.001989 0.001706 -0.000907
# 4 0.002835 0.004502 -0.001989 0.032921 0.008499 0.011841
# 5 0.002341 0.007665 0.001706 0.008499 0.036441 0.007137
# 6 0.006272 0.007425 -0.000907 0.011841 0.007137 0.028151
#
#
# Mechanical properties :
#
#
# Convention : Reuss Voigt Hill
#
# Bulk Modulus (GPa) = 39.22961 66.03519 52.63240
# Shear Modulus (GPa) = 33.08108 44.00468 38.54288
#
# Velocity S-wave (km/s) = 3.75249 4.32792 4.05044
# Velocity P-wave (km/s) = 5.95595 7.28580 6.65418
#
# Compressibility (1/GPa) = 0.02549095
#
# Stress axis : x y z
#
# Youngs Moduli (GPa) = 74.98368 98.52568 84.55642
#
# Poissons Ratio (x) = 0.11965 0.07883
# Poissons Ratio (y) = 0.09106 0.23371
# Poissons Ratio (z) = 0.06991 0.27232
#
# Static dielectric constant tensor:
#      x y z
#    x 1.939600 -0.052560 0.061590 
#    y -0.052560 1.913350 -0.019520 
#    z 0.061590 -0.019520 1.953300 
# 
# From -- ./inp_files/49284.got.cif
#   From: 2010.05.17/outbox.cif.g08.bks.cpg/sg2_25_cif.got.tgz:49284.got - 2010.06.03 11:33:40.
