data_PCOD9103532
_publ_section_title
;
Structure prediction by ZEFSAII (Michael W. Deem and Ramdas Pophale) SiO2 
 PCOD9103532
Probable space group: P -1
;
_chemical_formula_sum "Si O2"
_cell_formula_units_Z 16
_cell_length_a 11.551041
_cell_length_b 10.547003
_cell_length_c 14.581791
_cell_angle_alpha 42.440680
_cell_angle_beta 146.376070
_cell_angle_gamma 122.092650
_cell_volume 647.162818
_symmetry_space_group_name_H-M "P -1"
_symmetry_group_IT_number 2
_symmetry_cell_setting 'triclinic'
loop_
_space_group_symop_operation_xyz
x,y,z
-x,-y,-z
loop_
_atom_site_type_symbol
_atom_site_label
_atom_site_fract_x
_atom_site_fract_y
_atom_site_fract_z
Si Si1 0.519207 0.350825 0.007206
Si Si2 0.724413 0.391022 0.661391
Si Si3 0.358268 0.010592 0.624741
Si Si4 0.005160 0.151454 0.623185
Si Si5 0.141215 0.756988 0.995880
Si Si6 0.981572 0.696305 0.641603
Si Si7 0.292086 0.620749 0.562782
Si Si8 0.671053 0.683893 0.703347
O O1 0.771690 0.313031 0.167599
O O2 0.476873 0.151322 0.125159
O O3 0.500000 0.500000 0.000000
O O4 0.369830 0.436030 0.778112
O O5 0.500000 0.500000 0.500000
O O6 0.904666 0.516340 0.729062
O O7 0.717277 0.389483 0.547915
O O8 0.797176 0.215098 0.873026
O O9 0.179659 0.123294 0.516778
O O10 0.426602 0.173697 0.521533
O O11 0.221048 0.894186 0.534851
O O12 0.933048 0.264318 0.608415
O O13 0.057118 0.280712 0.505497
O O14 0.162252 0.944038 0.852166
O O15 0.893663 0.743862 0.836182
O O16 0.267749 0.547415 0.153993
O O17 0.499957 0.718726 0.653585
#
# Coordination Sequence:
#
# PCOD9103532 Si02
#       8
#     2   2   2   2   2   2   2   2
#     4  11  22  42  65 100 130 164 213 264 324 377
#     4  12  25  43  66  92 131 174 217 259 317 385
#     4  10  20  38  66  97 125 159 218 270 312 369
#     4  10  23  39  61  98 127 164 212 262 323 377
#     4  10  21  41  65  93 122 166 218 262 321 369
#     4  11  22  42  68  93 128 168 213 270 316 374
#     4  12  24  41  63  94 137 168 207 263 316 389
#     4  10  21  39  68  96 120 166 220 268 313 365
#
# _framework density 24.723299000000001
#
# number of rings (size 3 to 8) (size 9 to 14) (size 15 to 20)
#    0.000    1.250    5.000    2.250    5.250    3.000 
#    2.250    3.750    0.000    0.000    0.000    0.000 
#    0.000    0.000    0.000    0.000    0.000    0.000 
#
# Total GULP energy -89361.738268 kJ/mol
# GULP energy per Si atom -5585.108642 kJ/mol
# Density = 2.466703 g / cm^3
# Si number density = 24.723299 Si / 1000 Ang^3
#
#
#
# Elastic Constant Matrix: (Units=GPa)
#
#
# Indices 1 2 3 4 5 6 
#
# 1 142.0089 19.4153 36.6339 -16.7818 -17.4594 -8.5528
# 2 19.4153 23.9082 17.2415 -5.3758 -7.2928 4.0370
# 3 36.6339 17.2415 115.9132 -15.7141 -34.2569 -2.0498
# 4 -16.7818 -5.3758 -15.7141 36.6256 -0.2446 -14.2900
# 5 -17.4594 -7.2928 -34.2569 -0.2446 39.5316 1.6175
# 6 -8.5528 4.0370 -2.0498 -14.2900 1.6175 40.4136
#
#
#
# Elastic Compliance Matrix: (Units=1/GPa)
#
#
# Indices 1 2 3 4 5 6 
#
# 1 0.009068 -0.005865 -0.000639 0.004599 0.002234 0.004009
# 2 -0.005865 0.052386 -0.005199 0.000136 0.002848 -0.006804
# 3 -0.000639 -0.005199 0.013522 0.005882 0.010401 0.002733
# 4 0.004599 0.000136 0.005882 0.037567 0.006802 0.014269
# 5 0.002234 0.002848 0.010401 0.006802 0.035794 0.001688
# 6 0.004009 -0.006804 0.002733 0.014269 0.001688 0.031389
#
#
# Mechanical properties :
#
#
# Convention : Reuss Voigt Hill
#
# Bulk Modulus (GPa) = 19.39059 47.60132 33.49595
# Shear Modulus (GPa) = 22.69400 37.21679 29.95539
#
# Velocity S-wave (km/s) = 3.03301 3.88407 3.48462
# Velocity P-wave (km/s) = 4.48615 6.27775 5.45599
#
# Compressibility (1/GPa) = 0.05157139
#
# Stress axis : x y z
#
# Youngs Moduli (GPa) = 110.27674 19.08891 73.95342
#
# Poissons Ratio (x) = 0.11195 0.04726
# Poissons Ratio (y) = 0.64673 0.38448
# Poissons Ratio (z) = 0.07047 0.09924
#
# Static dielectric constant tensor:
#      x y z
#    x 1.947780 -0.042210 -0.034440 
#    y -0.042210 2.078510 0.034590 
#    z -0.034440 0.034590 2.003310 
# 
# From -- ./inp_files/519556.got.cif
#   From: 2010.05.17/outbox.cif.g08.bks.cpg/sg2_260_cif.got.tgz:519556.got - 2010.06.03 11:33:40.
