data_PCOD9103627
_publ_section_title
;
Structure prediction by ZEFSAII (Michael W. Deem and Ramdas Pophale) SiO2 
 PCOD9103627
Probable space group: P -1
;
_chemical_formula_sum "Si O2"
_cell_formula_units_Z 16
_cell_length_a 23.085717
_cell_length_b 9.225982
_cell_length_c 14.267473
_cell_angle_alpha 139.588996
_cell_angle_beta 22.610313
_cell_angle_gamma 138.483466
_cell_volume 744.433259
_symmetry_space_group_name_H-M "P -1"
_symmetry_group_IT_number 2
_symmetry_cell_setting 'triclinic'
loop_
_space_group_symop_operation_xyz
x,y,z
-x,-y,-z
loop_
_atom_site_type_symbol
_atom_site_label
_atom_site_fract_x
_atom_site_fract_y
_atom_site_fract_z
Si Si1 0.411087 0.863098 0.151864
Si Si2 0.993674 0.742921 0.419741
Si Si3 0.836649 0.370178 0.717114
Si Si4 0.233473 0.073159 0.051740
Si Si5 0.378744 0.503086 0.344033
Si Si6 0.592237 0.694292 0.266748
Si Si7 0.468539 0.969494 0.323684
Si Si8 0.027442 0.350828 0.795454
O O1 0.241484 0.789289 0.327929
O O2 0.421700 0.989191 0.296406
O O3 0.495381 0.650115 0.943163
O O4 0.500000 0.000000 0.000000
O O5 0.001536 0.586841 0.240286
O O6 0.123832 0.742750 0.301284
O O7 0.832960 0.713111 0.701732
O O8 0.000000 0.000000 0.500000
O O9 0.000000 0.500000 0.500000
O O10 0.710403 0.521869 0.007053
O O11 0.091636 0.886190 0.135582
O O12 0.339920 0.136125 0.834475
O O13 0.347281 0.001653 0.923660
O O14 0.426096 0.583118 0.419049
O O15 0.397299 0.722454 0.355502
O O16 0.209284 0.355825 0.523648
O O17 0.583423 0.833621 0.441349
O O18 0.000000 0.500000 0.000000
#
# Coordination Sequence:
#
# PCOD9103627 Si02
#       8
#     2   2   2   2   2   2   2   2
#     4  11  27  42  63  93 131 169 206 262 313 373
#     4  10  23  39  65  88 122 167 210 248 313 371
#     4  11  24  45  66  90 127 166 213 253 315 380
#     4  10  20  38  67  91 123 169 208 252 307 376
#     4  10  22  41  65  94 126 164 215 255 307 378
#     4  10  21  42  66  94 127 165 204 267 315 367
#     4  11  22  42  68  94 125 165 215 256 314 368
#     4  11  22  36  62  97 125 153 211 262 304 357
#
# _framework density 21.492858999999999
#
# number of rings (size 3 to 8) (size 9 to 14) (size 15 to 20)
#    0.000    1.500    1.250    4.125    8.750    0.000 
#    2.250    1.875    0.000    0.000    0.000    0.000 
#    0.000    0.000    0.000    0.000    0.000    0.000 
#
# Total GULP energy -89272.387364 kJ/mol
# GULP energy per Si atom -5579.524210 kJ/mol
# Density = 2.144394 g / cm^3
# Si number density = 21.492859 Si / 1000 Ang^3
#
#
#
# Elastic Constant Matrix: (Units=GPa)
#
#
# Indices 1 2 3 4 5 6 
#
# 1 203.0466 42.8592 59.1224 0.2689 9.0071 27.5645
# 2 42.8592 58.4153 11.7024 -19.9484 -8.6125 14.2853
# 3 59.1224 11.7024 60.1954 -8.1851 -0.6273 14.7442
# 4 0.2689 -19.9484 -8.1851 37.1356 18.3414 -6.2850
# 5 9.0071 -8.6125 -0.6273 18.3414 50.1655 6.9380
# 6 27.5645 14.2853 14.7442 -6.2850 6.9380 33.9089
#
#
#
# Elastic Compliance Matrix: (Units=1/GPa)
#
#
# Indices 1 2 3 4 5 6 
#
# 1 0.008769 -0.006264 -0.007608 -0.005161 -0.000579 -0.002020
# 2 -0.006264 0.027300 0.004214 0.013806 0.001649 -0.006020
# 3 -0.007608 0.004214 0.025553 0.006618 0.000768 -0.005632
# 4 -0.005161 0.013806 0.006618 0.043532 -0.013410 0.006314
# 5 -0.000579 0.001649 0.000768 -0.013410 0.026402 -0.008446
# 6 -0.002020 -0.006020 -0.005632 0.006314 -0.008446 0.039016
#
#
# Mechanical properties :
#
#
# Convention : Reuss Voigt Hill
#
# Bulk Modulus (GPa) = 23.63714 61.00280 42.31997
# Shear Modulus (GPa) = 24.51085 38.10688 31.30887
#
# Velocity S-wave (km/s) = 3.38067 4.21527 3.82083
# Velocity P-wave (km/s) = 5.12446 7.22051 6.26083
#
# Compressibility (1/GPa) = 0.04230630
#
# Stress axis : x y z
#
# Youngs Moduli (GPa) = 114.03638 36.62980 39.13359
#
# Poissons Ratio (x) = 0.22944 0.29774
# Poissons Ratio (y) = 0.71428 -0.16489
# Poissons Ratio (z) = 0.86762 -0.15434
#
# Static dielectric constant tensor:
#      x y z
#    x 1.817750 -0.018530 0.041150 
#    y -0.018530 1.882570 -0.038340 
#    z 0.041150 -0.038340 1.877260 
# 
# From -- ./inp_files/461078.got.cif
#   From: 2010.05.17/outbox.cif.g08.bks.cpg/sg2_231_cif.got.tgz:461078.got - 2010.06.03 11:33:40.
