data_PCOD9103797
_publ_section_title
;
Structure prediction by ZEFSAII (Michael W. Deem and Ramdas Pophale) SiO2 
 PCOD9103797
Probable space group: P -1
;
_chemical_formula_sum "Si O2"
_cell_formula_units_Z 16
_cell_length_a 17.532360
_cell_length_b 19.872711
_cell_length_c 11.447509
_cell_angle_alpha 142.521768
_cell_angle_beta 39.081540
_cell_angle_gamma 158.653722
_cell_volume 870.891119
_symmetry_space_group_name_H-M "P -1"
_symmetry_group_IT_number 2
_symmetry_cell_setting 'triclinic'
loop_
_space_group_symop_operation_xyz
x,y,z
-x,-y,-z
loop_
_atom_site_type_symbol
_atom_site_label
_atom_site_fract_x
_atom_site_fract_y
_atom_site_fract_z
Si Si1 0.939620 0.154931 0.603673
Si Si2 0.466259 0.014243 0.192072
Si Si3 0.870812 0.389329 0.348526
Si Si4 0.039275 0.795299 0.071202
Si Si5 0.830952 0.851771 0.390763
Si Si6 0.493664 0.182641 0.982614
Si Si7 0.314713 0.769179 0.393194
Si Si8 0.586138 0.455351 0.403190
O O1 0.929092 0.175834 0.785706
O O2 0.182288 0.357000 0.559704
O O3 0.753973 0.086581 0.673691
O O4 0.896165 0.992234 0.413921
O O5 0.672913 0.243207 0.294063
O O6 0.460547 0.901470 0.126019
O O7 0.500000 0.000000 0.000000
O O8 0.761047 0.320425 0.510660
O O9 0.083515 0.623116 0.407993
O O10 0.959912 0.330087 0.145487
O O11 0.848095 0.734523 0.184482
O O12 0.241969 0.004060 0.054812
O O13 0.597553 0.708238 0.512277
O O14 0.000000 0.000000 0.500000
O O15 0.575249 0.238009 0.830550
O O16 0.600841 0.364244 0.171507
O O17 0.500000 0.000000 0.500000
O O18 0.500000 0.500000 0.500000
#
# Coordination Sequence:
#
# PCOD9103797 Si02
#       8
#     2   2   2   2   2   2   2   2
#     4  11  20  33  49  76 120 151 176 218 277 346
#     4  11  20  36  53  82 126 154 176 220 292 356
#     4  10  22  37  58  82 110 150 185 234 288 326
#     4  10  16  33  52  77 111 143 179 231 273 323
#     4  10  18  32  48  74 111 144 186 226 267 334
#     4  11  21  33  55  84 114 149 188 229 276 340
#     4  11  21  39  57  80 113 143 201 240 264 322
#     4  12  20  32  54  79 112 152 187 229 283 329
#
# _framework density 18.371987000000001
#
# number of rings (size 3 to 8) (size 9 to 14) (size 15 to 20)
#    0.000    1.250   10.000    0.750    0.000    0.500 
#    2.250    0.000    0.000    0.000    0.000   11.375 
#    0.000    0.000    0.000    0.000    0.000    0.000 
#
# Total GULP energy -89118.631969 kJ/mol
# GULP energy per Si atom -5569.914498 kJ/mol
# Density = 1.833017 g / cm^3
# Si number density = 18.371987 Si / 1000 Ang^3
#
#
#
# Elastic Constant Matrix: (Units=GPa)
#
#
# Indices 1 2 3 4 5 6 
#
# 1 31.2122 14.0789 21.3096 1.1203 -8.7481 16.8461
# 2 14.0789 150.9445 22.3712 -3.1421 2.4897 22.8707
# 3 21.3096 22.3712 64.2953 -11.5699 -5.1397 5.5987
# 4 1.1203 -3.1421 -11.5699 29.7630 -4.1741 -1.7634
# 5 -8.7481 2.4897 -5.1397 -4.1741 32.0562 -5.4727
# 6 16.8461 22.8707 5.5987 -1.7634 -5.4727 28.3811
#
#
#
# Elastic Compliance Matrix: (Units=1/GPa)
#
#
# Indices 1 2 3 4 5 6 
#
# 1 0.068690 0.002158 -0.021853 -0.012086 0.007084 -0.037586
# 2 0.002158 0.008064 -0.003240 -0.001222 -0.002014 -0.007605
# 3 -0.021853 -0.003240 0.025055 0.011157 0.001750 0.011670
# 4 -0.012086 -0.001222 0.011157 0.039572 0.005351 0.009449
# 5 0.007084 -0.002014 0.001750 0.005351 0.034971 0.004149
# 6 -0.037586 -0.007605 0.011670 0.009449 0.004149 0.062757
#
#
# Mechanical properties :
#
#
# Convention : Reuss Voigt Hill
#
# Bulk Modulus (GPa) = 17.87639 40.21904 29.04772
# Shear Modulus (GPa) = 16.46771 30.61955 23.54363
#
# Velocity S-wave (km/s) = 2.99716 4.08688 3.58368
# Velocity P-wave (km/s) = 4.66140 6.64900 5.74186
#
# Compressibility (1/GPa) = 0.05593969
#
# Stress axis : x y z
#
# Youngs Moduli (GPa) = 14.55813 124.01083 39.91253
#
# Poissons Ratio (x) = -0.26766 0.87221
# Poissons Ratio (y) = -0.03142 0.12931
# Poissons Ratio (z) = 0.31814 0.40179
#
# Static dielectric constant tensor:
#      x y z
#    x 1.661060 -0.004740 -0.003650 
#    y -0.004740 1.708760 0.016770 
#    z -0.003650 0.016770 1.669520 
# 
# From -- ./inp_files/432712.got.cif
#   From: 2010.05.17/outbox.cif.g08.bks.cpg/sg2_217_cif.got.tgz:432712.got - 2010.06.03 11:33:40.
