data_PCOD9103934
_publ_section_title
;
Structure prediction by ZEFSAII (Michael W. Deem and Ramdas Pophale) SiO2 
 PCOD9103934
Probable space group: P -1
;
_chemical_formula_sum "Si O2"
_cell_formula_units_Z 16
_cell_length_a 8.796799
_cell_length_b 15.866453
_cell_length_c 10.502608
_cell_angle_alpha 144.591578
_cell_angle_beta 122.643202
_cell_angle_gamma 57.726127
_cell_volume 701.687709
_symmetry_space_group_name_H-M "P -1"
_symmetry_group_IT_number 2
_symmetry_cell_setting 'triclinic'
loop_
_space_group_symop_operation_xyz
x,y,z
-x,-y,-z
loop_
_atom_site_type_symbol
_atom_site_label
_atom_site_fract_x
_atom_site_fract_y
_atom_site_fract_z
Si Si1 0.498531 0.332278 0.820939
Si Si2 0.180699 0.062316 0.628541
Si Si3 0.852580 0.642451 0.153857
Si Si4 0.844308 0.146826 0.842599
Si Si5 0.950893 0.376977 0.511680
Si Si6 0.169684 0.296431 0.242472
Si Si7 0.800595 0.108910 0.056515
Si Si8 0.538104 0.881548 0.691679
O O1 0.365066 0.341122 0.893938
O O2 0.715849 0.269192 0.853616
O O3 0.437162 0.230177 0.556159
O O4 0.500000 0.500000 0.000000
O O5 0.144780 0.236063 0.805519
O O6 0.204606 0.003564 0.420411
O O7 0.337416 0.980734 0.693984
O O8 0.000000 0.000000 0.500000
O O9 0.926745 0.653933 0.345503
O O10 0.000000 0.500000 0.000000
O O11 0.756340 0.162941 0.960852
O O12 0.048815 0.182549 0.986831
O O13 0.858055 0.549407 0.658285
O O14 0.816899 0.258252 0.320397
O O15 0.069931 0.333625 0.382069
O O16 0.380872 0.221791 0.278618
O O17 0.664686 0.004763 0.907793
O O18 0.000000 0.000000 0.000000
#
# Coordination Sequence:
#
# PCOD9103934 Si02
#       8
#     2   2   2   2   2   2   2   2
#     4  11  23  39  68 105 135 174 234 281 340 403
#     4  11  27  46  65  96 142 186 234 279 346 410
#     4  12  26  44  70  99 146 185 228 278 352 422
#     4  10  21  36  70  93 130 169 226 288 330 392
#     4  10  21  37  64 102 137 172 220 284 344 400
#     4  10  20  38  70 103 131 170 230 285 344 401
#     4  11  18  34  64  98 127 160 222 288 338 383
#     4  11  22  41  70 101 128 174 236 284 337 404
#
# _framework density 22.802167000000001
#
# number of rings (size 3 to 8) (size 9 to 14) (size 15 to 20)
#    0.000    1.250    3.750    3.000    8.750    2.000 
#    0.000    0.625    0.000    7.500    0.000    0.000 
#    0.000    0.000    0.000    0.000    0.000    0.000 
#
# Total GULP energy -89117.974728 kJ/mol
# GULP energy per Si atom -5569.873420 kJ/mol
# Density = 2.275027 g / cm^3
# Si number density = 22.802167 Si / 1000 Ang^3
#
#
#
# Elastic Constant Matrix: (Units=GPa)
#
#
# Indices 1 2 3 4 5 6 
#
# 1 57.1900 27.8837 13.1732 2.8625 17.9318 -14.3526
# 2 27.8837 168.1265 43.8460 6.4741 25.5056 -24.1573
# 3 13.1732 43.8460 64.6231 11.0752 5.4962 -13.5600
# 4 2.8625 6.4741 11.0752 44.2214 6.5230 8.2084
# 5 17.9318 25.5056 5.4962 6.5230 29.3289 0.5745
# 6 -14.3526 -24.1573 -13.5600 8.2084 0.5745 35.0278
#
#
#
# Elastic Compliance Matrix: (Units=1/GPa)
#
#
# Indices 1 2 3 4 5 6 
#
# 1 0.025177 0.000027 -0.001573 -0.000900 -0.015121 0.010185
# 2 0.000027 0.008795 -0.004451 0.000018 -0.006922 0.004463
# 3 -0.001573 -0.004451 0.020825 -0.005828 0.002115 0.005679
# 4 -0.000900 0.000018 -0.005828 0.026347 -0.004062 -0.008720
# 5 -0.015121 -0.006922 0.002115 -0.004062 0.050064 -0.010020
# 6 0.010185 0.004463 0.005679 -0.008720 -0.010020 0.040206
#
#
# Mechanical properties :
#
#
# Convention : Reuss Voigt Hill
#
# Bulk Modulus (GPa) = 23.36268 51.08281 37.22274
# Shear Modulus (GPa) = 25.29394 35.38474 30.33934
#
# Velocity S-wave (km/s) = 3.33420 3.94358 3.65162
# Velocity P-wave (km/s) = 5.00905 6.57168 5.84284
#
# Compressibility (1/GPa) = 0.04280331
#
# Stress axis : x y z
#
# Youngs Moduli (GPa) = 39.71854 113.70378 48.01847
#
# Poissons Ratio (x) = -0.00302 0.07553
# Poissons Ratio (y) = -0.00106 0.21371
# Poissons Ratio (z) = 0.06248 0.50604
#
# Static dielectric constant tensor:
#      x y z
#    x 2.095850 -0.316440 -0.627870 
#    y -0.316440 2.831160 0.950040 
#    z -0.627870 0.950040 3.211010 
# 
# From -- ./inp_files/403628.got.cif
#   From: 2010.05.17/outbox.cif.g08.bks.cpg/sg2_202_cif.got.tgz:403628.got - 2010.06.03 11:33:40.
