data_PCOD9103158
_publ_section_title
;
Structure prediction by ZEFSAII (Michael W. Deem and Ramdas Pophale) SiO2 
 PCOD9103158
Probable space group: P -1
;
_chemical_formula_sum "Si O2"
_cell_formula_units_Z 14
_cell_length_a 15.289701
_cell_length_b 12.391208
_cell_length_c 5.178350
_cell_angle_alpha 124.978504
_cell_angle_beta 46.139362
_cell_angle_gamma 130.861993
_cell_volume 521.884603
_symmetry_space_group_name_H-M "P -1"
_symmetry_group_IT_number 2
_symmetry_cell_setting 'triclinic'
loop_
_space_group_symop_operation_xyz
x,y,z
-x,-y,-z
loop_
_atom_site_type_symbol
_atom_site_label
_atom_site_fract_x
_atom_site_fract_y
_atom_site_fract_z
Si Si1 0.257356 0.546999 0.000737
Si Si2 0.440621 0.856429 0.102208
Si Si3 0.825474 0.142414 0.357540
Si Si4 0.715687 0.860782 0.555063
Si Si5 0.409542 0.447007 0.865858
Si Si6 0.111648 0.245675 0.616910
Si Si7 0.987135 0.608780 0.383193
O O1 0.367062 0.701754 0.888993
O O2 0.108051 0.493042 0.341221
O O3 0.321826 0.535191 0.128298
O O4 0.224684 0.406419 0.695325
O O5 0.308666 0.862306 0.516145
O O6 0.575366 0.855138 0.947088
O O7 0.500000 0.000000 0.000000
O O8 0.869111 0.275179 0.654155
O O9 0.786491 0.000416 0.417993
O O10 0.963745 0.185000 0.973955
O O11 0.674213 0.724422 0.253737
O O12 0.815853 0.852894 0.562416
O O13 0.500000 0.500000 0.500000
O O14 0.500000 0.500000 0.000000
O O15 0.074876 0.284102 0.462278
O O16 0.000000 0.500000 0.000000
#
# Coordination Sequence:
#
# PCOD9103158 Si02
#       7
#     2   2   2   2   2   2   2
#     4  10  22  38  64  93 131 173 226 287 343 414
#     4  10  20  38  65  90 132 176 222 283 347 420
#     4  10  22  42  62  94 133 175 225 283 349 415
#     4  10  22  42  65  96 134 174 225 288 350 413
#     4  11  24  42  69 101 138 184 233 285 353 422
#     4  10  22  40  65  91 129 171 230 279 349 409
#     4  11  23  38  65  98 128 182 230 285 344 420
#
# _framework density 26.825852000000001
#
# number of rings (size 3 to 8) (size 9 to 14) (size 15 to 20)
#    0.000    1.714    1.429    2.143    4.000    4.000 
#    2.571    0.000    0.000    8.571    0.000    0.000 
#    0.000    0.000    0.000    0.000    0.000    0.000 
#
# Total GULP energy -78124.586307 kJ/mol
# GULP energy per Si atom -5580.327593 kJ/mol
# Density = 2.676479 g / cm^3
# Si number density = 26.825852 Si / 1000 Ang^3
#
#
#
# Elastic Constant Matrix: (Units=GPa)
#
#
# Indices 1 2 3 4 5 6 
#
# 1 163.4066 16.2386 45.9339 -7.3663 -49.1378 -3.2566
# 2 16.2386 207.9265 28.5520 -14.0401 2.3437 4.5507
# 3 45.9339 28.5520 58.5457 -21.7478 -39.6569 8.9733
# 4 -7.3663 -14.0401 -21.7478 40.3960 15.0659 -2.9002
# 5 -49.1378 2.3437 -39.6569 15.0659 65.4784 3.4050
# 6 -3.2566 4.5507 8.9733 -2.9002 3.4050 41.6468
#
#
#
# Elastic Compliance Matrix: (Units=1/GPa)
#
#
# Indices 1 2 3 4 5 6 
#
# 1 0.008703 -0.000205 -0.005312 -0.002691 0.003870 0.001344
# 2 -0.000205 0.005538 -0.004692 0.000675 -0.003386 0.000714
# 3 -0.005312 -0.004692 0.043295 0.012516 0.020043 -0.009998
# 4 -0.002691 0.000675 0.012516 0.031849 -0.001759 -0.000619
# 5 0.003870 -0.003386 0.020043 -0.001759 0.031170 -0.006317
# 6 0.001344 0.000714 -0.009998 -0.000619 -0.006317 0.026666
#
#
# Mechanical properties :
#
#
# Convention : Reuss Voigt Hill
#
# Bulk Modulus (GPa) = 26.94165 67.92531 47.43348
# Shear Modulus (GPa) = 27.77601 52.11453 39.94527
#
# Velocity S-wave (km/s) = 3.22128 4.41239 3.86302
# Velocity P-wave (km/s) = 4.88882 7.16482 6.13332
#
# Compressibility (1/GPa) = 0.03711725
#
# Stress axis : x y z
#
# Youngs Moduli (GPa) = 114.90901 180.57384 23.09733
#
# Poissons Ratio (x) = 0.03701 0.12269
# Poissons Ratio (y) = 0.02355 0.10838
# Poissons Ratio (z) = 0.61038 0.84731
#
# Static dielectric constant tensor:
#      x y z
#    x 2.371300 -0.038740 -0.242320 
#    y -0.038740 2.084970 0.105690 
#    z -0.242320 0.105690 2.405760 
# 
# From -- ./inp_files/95437.got.cif
#   From: 2010.05.17/outbox.cif.g08.bks.cpg/sg2_48_cif.got.tgz:95437.got - 2010.06.03 11:33:40.
