data_PCOD9103463
_publ_section_title
;
Structure prediction by ZEFSAII (Michael W. Deem and Ramdas Pophale) SiO2 
 PCOD9103463
Probable space group: P -1
;
_chemical_formula_sum "Si O2"
_cell_formula_units_Z 16
_cell_length_a 5.312867
_cell_length_b 18.869323
_cell_length_c 8.989290
_cell_angle_alpha 133.606907
_cell_angle_beta 102.818641
_cell_angle_gamma 80.900832
_cell_volume 636.253264
_symmetry_space_group_name_H-M "P -1"
_symmetry_group_IT_number 2
_symmetry_cell_setting 'triclinic'
loop_
_space_group_symop_operation_xyz
x,y,z
-x,-y,-z
loop_
_atom_site_type_symbol
_atom_site_label
_atom_site_fract_x
_atom_site_fract_y
_atom_site_fract_z
Si Si1 0.149829 0.356668 0.439461
Si Si2 0.223313 0.873887 0.311939
Si Si3 0.540994 0.230549 0.568452
Si Si4 0.982164 0.983830 0.723640
Si Si5 0.052136 0.657286 0.927924
Si Si6 0.211434 0.131373 0.180343
Si Si7 0.373905 0.397771 0.968714
Si Si8 0.731839 0.393135 0.668939
O O1 0.105238 0.239477 0.287794
O O2 0.456995 0.377008 0.523957
O O3 0.044411 0.379799 0.296480
O O4 0.961195 0.408891 0.607155
O O5 0.468535 0.830259 0.368322
O O6 0.239496 0.947577 0.283095
O O7 0.082199 0.775544 0.099977
O O8 0.085045 0.923661 0.508878
O O9 0.490982 0.158567 0.321025
O O10 0.776737 0.296569 0.636987
O O11 0.356840 0.322757 0.719724
O O12 0.907849 0.918463 0.760175
O O13 0.182869 0.061030 0.934469
O O14 0.335581 0.615923 0.948272
O O15 0.830074 0.634122 0.981504
O O16 0.305575 0.510872 0.097406
#
# Coordination Sequence:
#
# PCOD9103463 Si02
#       8
#     2   2   2   2   2   2   2   2
#     4  11  23  42  65  96 139 176 220 276 340 396
#     4  10  21  39  63  96 131 177 217 279 333 398
#     4  10  23  42  64  96 138 174 224 276 343 396
#     4  10  20  38  66  92 132 172 228 272 330 408
#     4  11  23  42  65  96 139 176 220 276 340 396
#     4  10  21  39  63  96 131 177 217 279 333 398
#     4  11  24  41  67  97 131 178 227 276 330 402
#     4  11  24  41  67  97 131 178 227 276 330 402
#
# _framework density 25.147219
#
# number of rings (size 3 to 8) (size 9 to 14) (size 15 to 20)
#    0.000    1.500    1.250    3.375    0.000    7.000 
#    0.000    8.750    0.000    0.000    0.000    0.000 
#    0.000    0.000    0.000    0.000    0.000    0.000 
#
# Total GULP energy -89368.798816 kJ/mol
# GULP energy per Si atom -5585.549926 kJ/mol
# Density = 2.508998 g / cm^3
# Si number density = 25.147219 Si / 1000 Ang^3
#
#
#
# Elastic Constant Matrix: (Units=GPa)
#
#
# Indices 1 2 3 4 5 6 
#
# 1 114.3899 22.4968 24.2644 -16.7290 12.6004 -3.9320
# 2 22.4968 89.7923 25.0400 -2.5252 11.0889 -14.2768
# 3 24.2644 25.0400 101.7249 -4.0522 3.3313 -21.0335
# 4 -16.7290 -2.5252 -4.0522 53.3028 -8.2858 1.5965
# 5 12.6004 11.0889 3.3313 -8.2858 30.1710 -6.4166
# 6 -3.9320 -14.2768 -21.0335 1.5965 -6.4166 27.0242
#
#
#
# Elastic Compliance Matrix: (Units=1/GPa)
#
#
# Indices 1 2 3 4 5 6 
#
# 1 0.010209 -0.001817 -0.002217 0.002530 -0.003100 -0.002086
# 2 -0.001817 0.013187 -0.001784 -0.000702 -0.003101 0.004619
# 3 -0.002217 -0.001784 0.012608 0.000246 0.002182 0.009052
# 4 0.002530 -0.000702 0.000246 0.020278 0.004769 0.000124
# 5 -0.003100 -0.003101 0.002182 0.004769 0.038446 0.008456
# 6 -0.002086 0.004619 0.009052 0.000124 0.008456 0.048186
#
#
# Mechanical properties :
#
#
# Convention : Reuss Voigt Hill
#
# Bulk Modulus (GPa) = 41.03597 49.94551 45.49074
# Shear Modulus (GPa) = 30.73622 37.70667 34.22145
#
# Velocity S-wave (km/s) = 3.49986 3.87646 3.69296
# Velocity P-wave (km/s) = 5.71715 6.31983 6.02603
#
# Compressibility (1/GPa) = 0.02436886
#
# Stress axis : x y z
#
# Youngs Moduli (GPa) = 97.94826 75.83066 79.31263
#
# Poissons Ratio (x) = 0.13781 0.17582
# Poissons Ratio (y) = 0.17801 0.14149
# Poissons Ratio (z) = 0.21714 0.13528
#
# Static dielectric constant tensor:
#      x y z
#    x 2.056610 -0.082790 0.061150 
#    y -0.082790 2.087830 0.012610 
#    z 0.061150 0.012610 1.995790 
# 
# From -- ./inp_files/90651.got.cif
#   From: 2010.05.17/outbox.cif.g08.bks.cpg/sg2_46_cif.got.tgz:90651.got - 2010.06.03 11:33:40.
