data_PCOD9103306
_publ_section_title
;
Structure prediction by ZEFSAII (Michael W. Deem and Ramdas Pophale) SiO2 
 PCOD9103306
Probable space group: P -1
;
_chemical_formula_sum "Si O2"
_cell_formula_units_Z 14
_cell_length_a 8.411353
_cell_length_b 12.854506
_cell_length_c 12.719110
_cell_angle_alpha 147.112250
_cell_angle_beta 67.556660
_cell_angle_gamma 92.738714
_cell_volume 579.314053
_symmetry_space_group_name_H-M "P -1"
_symmetry_group_IT_number 2
_symmetry_cell_setting 'triclinic'
loop_
_space_group_symop_operation_xyz
x,y,z
-x,-y,-z
loop_
_atom_site_type_symbol
_atom_site_label
_atom_site_fract_x
_atom_site_fract_y
_atom_site_fract_z
Si Si1 0.991879 0.671090 0.735512
Si Si2 0.446277 0.112366 0.995854
Si Si3 0.612653 0.421631 0.516736
Si Si4 0.478655 0.214951 0.745906
Si Si5 0.030068 0.529688 0.213127
Si Si6 0.312028 0.491956 0.821749
Si Si7 0.790593 0.028796 0.692122
O O1 0.756754 0.874095 0.976521
O O2 0.000000 0.500000 0.500000
O O3 0.149797 0.733883 0.707897
O O4 0.040569 0.537874 0.720401
O O5 0.401413 0.365040 0.238227
O O6 0.632870 0.993918 0.769106
O O7 0.500000 0.000000 0.000000
O O8 0.500000 0.500000 0.500000
O O9 0.481034 0.369703 0.583369
O O10 0.433585 0.392566 0.815413
O O11 0.679787 0.119409 0.684880
O O12 0.500000 0.000000 0.500000
O O13 0.268927 0.342381 0.975120
O O14 0.872649 0.545576 0.178548
O O15 0.995170 0.779714 0.433370
O O16 0.204990 0.765678 0.081682
#
# Coordination Sequence:
#
# PCOD9103306 Si02
#       7
#     2   2   2   2   2   2   2
#     4  10  20  39  69 100 135 180 227 279 348 416
#     4  10  21  39  66  97 133 179 231 277 347 415
#     4  10  20  38  65  96 138 174 218 290 342 399
#     4  12  26  48  72 101 138 184 236 286 347 412
#     4  12  24  47  75  97 142 184 228 287 351 412
#     4  11  25  44  69 104 140 182 236 285 341 417
#     4  11  24  45  70 101 138 184 228 289 345 404
#
# _framework density 24.166512999999998
#
# number of rings (size 3 to 8) (size 9 to 14) (size 15 to 20)
#    0.000    1.143    4.286    2.571    0.000    0.571 
#    2.571    2.143    0.000    0.000    0.000    0.000 
#    0.000    0.000    0.000    0.000    0.000    0.000 
#
# Total GULP energy -78299.185035 kJ/mol
# GULP energy per Si atom -5592.798931 kJ/mol
# Density = 2.411151 g / cm^3
# Si number density = 24.166513 Si / 1000 Ang^3
#
#
#
# Elastic Constant Matrix: (Units=GPa)
#
#
# Indices 1 2 3 4 5 6 
#
# 1 45.3774 0.7890 7.9544 -5.3010 -5.0486 7.5136
# 2 0.7890 109.7214 7.9859 -15.0975 -5.9222 -3.2942
# 3 7.9544 7.9859 121.7434 4.8999 -0.3132 16.3590
# 4 -5.3010 -15.0975 4.8999 37.7360 2.2557 -1.1671
# 5 -5.0486 -5.9222 -0.3132 2.2557 31.6469 3.2375
# 6 7.5136 -3.2942 16.3590 -1.1671 3.2375 38.0511
#
#
#
# Elastic Compliance Matrix: (Units=1/GPa)
#
#
# Indices 1 2 3 4 5 6 
#
# 1 0.023796 0.000450 -0.001111 0.003286 0.004088 -0.004429
# 2 0.000450 0.009862 -0.000997 0.004086 0.001494 0.001192
# 3 -0.001111 -0.000997 0.008936 -0.001847 0.000244 -0.003786
# 4 0.003286 0.004086 -0.001847 0.028938 -0.000942 0.001467
# 5 0.004088 0.001494 0.000244 -0.000942 0.032970 -0.003617
# 6 -0.004429 0.001192 -0.003786 0.001467 -0.003617 0.029239
#
#
# Mechanical properties :
#
#
# Convention : Reuss Voigt Hill
#
# Bulk Modulus (GPa) = 25.45992 34.47785 29.96889
# Shear Modulus (GPa) = 33.30016 38.82767 36.06391
#
# Velocity S-wave (km/s) = 3.71610 4.01268 3.86723
# Velocity P-wave (km/s) = 5.38243 5.98052 5.68934
#
# Compressibility (1/GPa) = 0.03927742
#
# Stress axis : x y z
#
# Youngs Moduli (GPa) = 42.02309 101.39986 111.91105
#
# Poissons Ratio (x) = -0.04558 0.12431
# Poissons Ratio (y) = -0.01889 0.11158
# Poissons Ratio (z) = 0.04668 0.10110
#
# Static dielectric constant tensor:
#      x y z
#    x 1.936270 0.017390 -0.015620 
#    y 0.017390 1.938420 -0.002640 
#    z -0.015620 -0.002640 1.956410 
# 
# From -- ./inp_files/505727.got.cif
#   From: 2010.05.17/outbox.cif.g08.bks.cpg/sg2_253_cif.got.tgz:505727.got - 2010.06.03 11:33:40.
