data_PCOD9103165
_publ_section_title
;
Structure prediction by ZEFSAII (Michael W. Deem and Ramdas Pophale) SiO2 
 PCOD9103165
Probable space group: P -1
;
_chemical_formula_sum "Si O2"
_cell_formula_units_Z 14
_cell_length_a 9.418926
_cell_length_b 12.106052
_cell_length_c 16.456143
_cell_angle_alpha 22.227176
_cell_angle_beta 130.048991
_cell_angle_gamma 120.232034
_cell_volume 515.127564
_symmetry_space_group_name_H-M "P -1"
_symmetry_group_IT_number 2
_symmetry_cell_setting 'triclinic'
loop_
_space_group_symop_operation_xyz
x,y,z
-x,-y,-z
loop_
_atom_site_type_symbol
_atom_site_label
_atom_site_fract_x
_atom_site_fract_y
_atom_site_fract_z
Si Si1 0.027808 0.622235 0.817311
Si Si2 0.560480 0.908493 0.176819
Si Si3 0.337541 0.307562 0.264602
Si Si4 0.489399 0.670099 0.519077
Si Si5 0.089121 0.941806 0.250718
Si Si6 0.152926 0.305543 0.798685
Si Si7 0.870632 0.695729 0.546499
O O1 0.845541 0.774464 0.706297
O O2 0.003490 0.758368 0.624190
O O3 0.235531 0.543133 0.993968
O O4 0.010358 0.277544 0.031102
O O5 0.584033 0.550157 0.416627
O O6 0.767374 0.908900 0.287555
O O7 0.500000 0.000000 0.000000
O O8 0.375517 0.095323 0.034948
O O9 0.429859 0.437250 0.286450
O O10 0.500000 0.000000 0.500000
O O11 0.291579 0.937989 0.284643
O O12 0.676733 0.702639 0.519970
O O13 0.150695 0.641808 0.536578
O O14 0.937273 0.860047 0.190326
O O15 0.005718 0.385669 0.765325
#
# Coordination Sequence:
#
# PCOD9103165 Si02
#       7
#     2   2   2   2   2   2   2
#     4  10  23  39  63  94 123 159 206 266 299 361
#     4  12  23  41  62  90 129 168 205 244 310 375
#     4  10  20  38  65  91 120 159 210 256 309 357
#     4  11  22  39  64  96 121 158 212 259 297 364
#     4  11  21  40  62  92 126 165 205 243 317 370
#     4  11  23  38  61  89 130 171 195 246 310 381
#     4  11  25  38  60  96 127 159 209 256 309 361
#
# _framework density 27.177735999999999
#
# number of rings (size 3 to 8) (size 9 to 14) (size 15 to 20)
#    0.000    1.143    4.286    3.000    2.000    1.143 
#    0.000    0.000    0.000   14.571    0.000    0.000 
#    0.000    0.000    0.000    0.000    0.000    0.000 
#
# Total GULP energy -78294.358273 kJ/mol
# GULP energy per Si atom -5592.454162 kJ/mol
# Density = 2.711588 g / cm^3
# Si number density = 27.177736 Si / 1000 Ang^3
#
#
#
# Elastic Constant Matrix: (Units=GPa)
#
#
# Indices 1 2 3 4 5 6 
#
# 1 110.5288 17.2742 49.1283 -4.5302 32.7428 -18.6353
# 2 17.2742 172.6798 62.4634 14.7098 6.1402 -11.9246
# 3 49.1283 62.4634 149.6315 30.8038 56.1298 -11.7699
# 4 -4.5302 14.7098 30.8038 64.9195 -6.1504 -5.1965
# 5 32.7428 6.1402 56.1298 -6.1504 57.1062 -4.3655
# 6 -18.6353 -11.9246 -11.7699 -5.1965 -4.3655 39.4810
#
#
#
# Elastic Compliance Matrix: (Units=1/GPa)
#
#
# Indices 1 2 3 4 5 6 
#
# 1 0.012266 0.000027 -0.002667 0.002144 -0.003811 0.004863
# 2 0.000027 0.007352 -0.004698 0.001061 0.004035 0.001418
# 3 -0.002667 -0.004698 0.017299 -0.008878 -0.015959 -0.000454
# 4 0.002144 0.001061 -0.008878 0.020653 0.009797 0.002487
# 5 -0.003811 0.004035 -0.015959 0.009797 0.035999 -0.000068
# 6 0.004863 0.001418 -0.000454 0.002487 -0.000068 0.028237
#
#
# Mechanical properties :
#
#
# Convention : Reuss Voigt Hill
#
# Bulk Modulus (GPa) = 44.96763 76.73021 60.84892
# Shear Modulus (GPa) = 34.74736 52.56629 43.65683
#
# Velocity S-wave (km/s) = 3.57952 4.40269 4.01227
# Velocity P-wave (km/s) = 5.80221 7.35792 6.62588
#
# Compressibility (1/GPa) = 0.02223822
#
# Stress axis : x y z
#
# Youngs Moduli (GPa) = 81.52828 136.01789 57.80767
#
# Poissons Ratio (x) = -0.00362 0.15420
# Poissons Ratio (y) = -0.00217 0.27159
# Poissons Ratio (z) = 0.21748 0.63904
#
# Static dielectric constant tensor:
#      x y z
#    x 2.198000 -0.062920 -0.175890 
#    y -0.062920 2.118640 0.052930 
#    z -0.175890 0.052930 2.202490 
# 
# From -- ./inp_files/568489.got.cif
#   From: 2010.05.17/outbox.cif.g08.bks.cpg/sg2_285_cif.got.tgz:568489.got - 2010.06.03 11:33:40.
