data_PCOD9103669
_publ_section_title
;
Structure prediction by ZEFSAII (Michael W. Deem and Ramdas Pophale) SiO2 
 PCOD9103669
Probable space group: P -1
;
_chemical_formula_sum "Si O2"
_cell_formula_units_Z 16
_cell_length_a 5.685131
_cell_length_b 18.111120
_cell_length_c 13.419099
_cell_angle_alpha 143.791785
_cell_angle_beta 57.454040
_cell_angle_gamma 128.057367
_cell_volume 640.213670
_symmetry_space_group_name_H-M "P -1"
_symmetry_group_IT_number 2
_symmetry_cell_setting 'triclinic'
loop_
_space_group_symop_operation_xyz
x,y,z
-x,-y,-z
loop_
_atom_site_type_symbol
_atom_site_label
_atom_site_fract_x
_atom_site_fract_y
_atom_site_fract_z
Si Si1 0.273891 0.547930 0.665984
Si Si2 0.388976 0.550375 0.246199
Si Si3 0.337447 0.904753 0.171955
Si Si4 0.699239 0.190453 0.139426
Si Si5 0.762621 0.750772 0.240999
Si Si6 0.329281 0.173118 0.398530
Si Si7 0.346816 0.273388 0.047293
Si Si8 0.750296 0.140870 0.572788
O O1 0.500000 0.500000 0.500000
O O2 0.200652 0.648714 0.718022
O O3 0.460750 0.638265 0.810324
O O4 0.955563 0.456407 0.685997
O O5 0.619988 0.602678 0.158844
O O6 0.527843 0.671597 0.427889
O O7 0.365121 0.398146 0.107462
O O8 0.984099 0.812183 0.164655
O O9 0.374739 0.059958 0.338387
O O10 0.431573 0.880323 0.012014
O O11 0.498436 0.832912 0.130607
O O12 0.477219 0.153124 0.240627
O O13 0.022343 0.180565 0.061497
O O14 0.453847 0.774408 0.316131
O O15 0.003955 0.821983 0.352433
O O16 0.975623 0.139393 0.431102
O O17 0.500000 0.000000 0.500000
#
# Coordination Sequence:
#
# PCOD9103669 Si02
#       8
#     2   2   2   2   2   2   2   2
#     4  10  20  38  67  94 134 179 232 293 351 415
#     4  10  24  41  68 103 135 176 240 295 353 415
#     4  11  25  44  67  99 142 190 230 286 356 430
#     4  10  23  43  63 101 139 185 233 285 358 425
#     4  11  26  44  72 106 142 189 236 295 355 422
#     4  11  23  43  72 104 137 179 237 297 355 419
#     4  10  23  44  63  95 141 184 233 285 356 423
#     4  11  24  45  71 105 145 182 239 297 359 413
#
# _framework density 24.991658000000001
#
# number of rings (size 3 to 8) (size 9 to 14) (size 15 to 20)
#    0.000    1.500    1.250    2.250    8.750    3.000 
#    2.250    5.625    0.000    0.000    0.000    0.000 
#    0.000    0.000    0.000    0.000    0.000    0.000 
#
# Total GULP energy -89186.948339 kJ/mol
# GULP energy per Si atom -5574.184271 kJ/mol
# Density = 2.493478 g / cm^3
# Si number density = 24.991658 Si / 1000 Ang^3
#
#
#
# Elastic Constant Matrix: (Units=GPa)
#
#
# Indices 1 2 3 4 5 6 
#
# 1 94.3669 15.4404 29.6236 16.1464 -6.1044 10.8254
# 2 15.4404 105.7846 24.7760 3.6043 8.0492 -2.9002
# 3 29.6236 24.7760 97.0788 9.9612 -5.9866 -2.4757
# 4 16.1464 3.6043 9.9612 36.7278 -3.1160 -0.5654
# 5 -6.1044 8.0492 -5.9866 -3.1160 43.9056 4.8148
# 6 10.8254 -2.9002 -2.4757 -0.5654 4.8148 26.7814
#
#
#
# Elastic Compliance Matrix: (Units=1/GPa)
#
#
# Indices 1 2 3 4 5 6 
#
# 1 0.013563 -0.001365 -0.003330 -0.004851 0.002040 -0.006407
# 2 -0.001365 0.010461 -0.002369 0.000022 -0.002642 0.001941
# 3 -0.003330 -0.002369 0.012204 -0.001472 0.001317 0.001950
# 4 -0.004851 0.000022 -0.001472 0.029876 0.000991 0.002280
# 5 0.002040 -0.002642 0.001317 0.000991 0.024381 -0.005351
# 6 -0.006407 0.001941 0.001950 0.002280 -0.005351 0.041330
#
#
# Mechanical properties :
#
#
# Convention : Reuss Voigt Hill
#
# Bulk Modulus (GPa) = 45.25142 48.54556 46.89849
# Shear Modulus (GPa) = 32.61400 36.64230 34.62815
#
# Velocity S-wave (km/s) = 3.61639 3.83323 3.72639
# Velocity P-wave (km/s) = 5.96520 6.24967 6.10909
#
# Compressibility (1/GPa) = 0.02209875
#
# Stress axis : x y z
#
# Youngs Moduli (GPa) = 73.73178 95.59553 81.94331
#
# Poissons Ratio (x) = 0.13052 0.27287
# Poissons Ratio (y) = 0.10067 0.19410
# Poissons Ratio (z) = 0.24553 0.22644
#
# Static dielectric constant tensor:
#      x y z
#    x 2.086760 -0.105810 -0.033980 
#    y -0.105810 2.118210 -0.039270 
#    z -0.033980 -0.039270 2.053370 
# 
# From -- ./inp_files/485245.got.cif
#   From: 2010.05.17/outbox.cif.g08.bks.cpg/sg2_243_cif.got.tgz:485245.got - 2010.06.03 11:33:40.
