data_PCOD9103925
_publ_section_title
;
Structure prediction by ZEFSAII (Michael W. Deem and Ramdas Pophale) SiO2 
 PCOD9103925
Probable space group: P -1
;
_chemical_formula_sum "Si O2"
_cell_formula_units_Z 14
_cell_length_a 10.727329
_cell_length_b 12.007882
_cell_length_c 7.143015
_cell_angle_alpha 140.669258
_cell_angle_beta 85.535897
_cell_angle_gamma 109.834607
_cell_volume 521.602614
_symmetry_space_group_name_H-M "P -1"
_symmetry_group_IT_number 2
_symmetry_cell_setting 'triclinic'
loop_
_space_group_symop_operation_xyz
x,y,z
-x,-y,-z
loop_
_atom_site_type_symbol
_atom_site_label
_atom_site_fract_x
_atom_site_fract_y
_atom_site_fract_z
Si Si1 0.827204 0.164020 0.570488
Si Si2 0.658154 0.858629 0.713605
Si Si3 0.268817 0.718220 0.589185
Si Si4 0.972439 0.670371 0.567484
Si Si5 0.660072 0.489335 0.376301
Si Si6 0.948040 0.093708 0.791302
Si Si7 0.551692 0.832595 0.289234
O O1 0.750822 0.281293 0.631239
O O2 0.944654 0.189863 0.436790
O O3 0.899294 0.231583 0.849818
O O4 0.709764 0.944700 0.336452
O O5 0.640533 0.685808 0.629407
O O6 0.812855 0.939539 0.713163
O O7 0.561443 0.789638 0.451259
O O8 0.659759 0.052853 0.059425
O O9 0.342485 0.609426 0.550570
O O10 0.105417 0.628064 0.554286
O O11 0.815867 0.539052 0.350878
O O12 0.048261 0.216535 0.103374
O O13 0.548459 0.342885 0.055032
O O14 0.000000 0.000000 0.500000
O O15 0.500000 0.000000 0.500000
#
# Coordination Sequence:
#
# PCOD9103925 Si02
#       7
#     2   2   2   2   2   2   2
#     4   9  22  42  69  95 137 187 224 272 352 407
#     4  10  22  41  69  98 136 180 224 284 338 403
#     4   9  21  42  67  95 139 179 218 281 341 398
#     4   9  22  41  68 103 138 177 225 281 341 407
#     4  12  22  40  73 101 136 179 231 284 337 411
#     4  10  20  38  70 101 137 179 224 278 348 402
#     4  11  23  45  70  97 139 183 231 285 342 404
#
# _framework density 26.840354000000001
#
# number of rings (size 3 to 8) (size 9 to 14) (size 15 to 20)
#    0.857    1.143    1.429    1.714    2.000    2.286 
#    0.000    5.000    0.000    0.000    0.000    0.000 
#    0.000    0.000    0.000    0.000    0.000    0.000 
#
# Total GULP energy -78292.711806 kJ/mol
# GULP energy per Si atom -5592.336558 kJ/mol
# Density = 2.677926 g / cm^3
# Si number density = 26.840354 Si / 1000 Ang^3
#
#
#
# Elastic Constant Matrix: (Units=GPa)
#
#
# Indices 1 2 3 4 5 6 
#
# 1 121.3768 34.7262 42.1940 6.8132 11.5019 0.2815
# 2 34.7262 187.1917 56.9719 -17.9649 -5.9943 -32.5684
# 3 42.1940 56.9719 108.1431 -19.2093 20.6922 5.1326
# 4 6.8132 -17.9649 -19.2093 39.0815 -11.7081 -4.4378
# 5 11.5019 -5.9943 20.6922 -11.7081 41.9399 -2.9508
# 6 0.2815 -32.5684 5.1326 -4.4378 -2.9508 54.3815
#
#
#
# Elastic Compliance Matrix: (Units=1/GPa)
#
#
# Indices 1 2 3 4 5 6 
#
# 1 0.010557 -0.001743 -0.003523 -0.005434 -0.003020 -0.001374
# 2 -0.001743 0.008765 -0.004520 0.004534 0.005674 0.006363
# 3 -0.003523 -0.004520 0.015057 0.003543 -0.006413 -0.004168
# 4 -0.005434 0.004534 0.003543 0.034104 0.010316 0.005752
# 5 -0.003020 0.005674 -0.006413 0.010316 0.031991 0.006597
# 6 -0.001374 0.006363 -0.004168 0.005752 0.006597 0.023427
#
#
# Mechanical properties :
#
#
# Convention : Reuss Voigt Hill
#
# Bulk Modulus (GPa) = 67.53647 76.05508 71.79578
# Shear Modulus (GPa) = 33.69136 45.93522 39.81329
#
# Velocity S-wave (km/s) = 3.54679 4.14142 3.85559
# Velocity P-wave (km/s) = 6.47996 7.16004 6.82847
#
# Compressibility (1/GPa) = 0.01480681
#
# Stress axis : x y z
#
# Youngs Moduli (GPa) = 94.72819 114.09128 66.41634
#
# Poissons Ratio (x) = 0.19891 0.23395
# Poissons Ratio (y) = 0.16515 0.30018
# Poissons Ratio (z) = 0.33368 0.51565
#
# Static dielectric constant tensor:
#      x y z
#    x 2.214660 -0.056200 0.008710 
#    y -0.056200 2.185030 0.105020 
#    z 0.008710 0.105020 2.098850 
# 
# From -- ./inp_files/304188.got.cif
#   From: 2010.05.17/outbox.cif.g08.bks.cpg/sg2_153_cif.got.tgz:304188.got - 2010.06.03 11:33:40.
