data_PCOD9103098
_publ_section_title
;
Structure prediction by ZEFSAII (Michael W. Deem and Ramdas Pophale) SiO2 
 PCOD9103098
Probable space group: P -1
;
_chemical_formula_sum "Si O2"
_cell_formula_units_Z 10
_cell_length_a 11.338270
_cell_length_b 11.217769
_cell_length_c 11.174742
_cell_angle_alpha 27.540702
_cell_angle_beta 137.826717
_cell_angle_gamma 142.520793
_cell_volume 396.318318
_symmetry_space_group_name_H-M "P -1"
_symmetry_group_IT_number 2
_symmetry_cell_setting 'triclinic'
loop_
_space_group_symop_operation_xyz
x,y,z
-x,-y,-z
loop_
_atom_site_type_symbol
_atom_site_label
_atom_site_fract_x
_atom_site_fract_y
_atom_site_fract_z
Si Si1 0.265270 0.110713 0.179102
Si Si2 0.247221 0.968064 0.551477
Si Si3 0.859379 0.640257 0.308464
Si Si4 0.658043 0.189878 0.730906
Si Si5 0.011014 0.345664 0.024106
O O1 0.342036 0.070772 0.398983
O O2 0.315100 0.974685 0.220308
O O3 0.286646 0.402131 0.874056
O O4 0.030138 0.961099 0.167653
O O5 0.429262 0.070070 0.688561
O O6 0.134600 0.623202 0.784505
O O7 0.115980 0.140669 0.314524
O O8 0.744163 0.512516 0.455857
O O9 0.000000 0.500000 0.500000
O O10 0.797643 0.187051 0.944075
O O11 0.000000 0.500000 0.000000
#
# Coordination Sequence:
#
# PCOD9103098 Si02
#       5
#     2   2   2   2   2
#     4  10  20  38  65 105 145 176 221 278 358 424
#     4  12  27  45  76 106 136 187 233 284 359 415
#     4   9  17  33  60  93 139 182 208 267 338 410
#     4  11  25  42  72 104 145 180 229 287 350 423
#     4  12  29  51  71  99 140 187 243 296 338 402
#
# _framework density 25.232240999999998
#
# number of rings (size 3 to 8) (size 9 to 14) (size 15 to 20)
#    0.000    1.200    2.000    4.800    5.600    2.400 
#    0.000    0.000    0.000    0.000    0.000    0.000 
#    0.000    0.000    0.000    0.000    0.000    0.000 
#
# Total GULP energy -55781.844649 kJ/mol
# GULP energy per Si atom -5578.184465 kJ/mol
# Density = 2.517481 g / cm^3
# Si number density = 25.232241 Si / 1000 Ang^3
#
#
#
# Elastic Constant Matrix: (Units=GPa)
#
#
# Indices 1 2 3 4 5 6 
#
# 1 48.6605 22.8609 18.9622 19.8629 7.5832 -23.7354
# 2 22.8609 98.6803 47.8344 45.1184 23.5616 10.9901
# 3 18.9622 47.8344 120.9816 24.9103 24.4427 13.2921
# 4 19.8629 45.1184 24.9103 54.2050 13.6298 -2.3372
# 5 7.5832 23.5616 24.4427 13.6298 33.9482 -0.9422
# 6 -23.7354 10.9901 13.2921 -2.3372 -0.9422 41.0157
#
#
#
# Elastic Compliance Matrix: (Units=1/GPa)
#
#
# Indices 1 2 3 4 5 6 
#
# 1 0.042508 -0.008511 -0.006090 -0.005405 0.003761 0.028632
# 2 -0.008511 0.021867 -0.002050 -0.012871 -0.006938 -0.011013
# 3 -0.006090 -0.002050 0.012097 -0.000429 -0.005950 -0.007056
# 4 -0.005405 -0.012871 -0.000429 0.032026 -0.002347 0.002231
# 5 0.003761 -0.006938 -0.005950 -0.002347 0.038844 0.006722
# 6 0.028632 -0.011013 -0.007056 0.002231 0.006722 0.046469
#
#
# Mechanical properties :
#
#
# Convention : Reuss Voigt Hill
#
# Bulk Modulus (GPa) = 23.16498 49.73750 36.45124
# Shear Modulus (GPa) = 20.70363 37.74476 29.22420
#
# Velocity S-wave (km/s) = 2.86758 3.87188 3.40694
# Velocity P-wave (km/s) = 4.49051 6.30422 5.47302
#
# Compressibility (1/GPa) = 0.04316861
#
# Stress axis : x y z
#
# Youngs Moduli (GPa) = 23.52483 45.73100 82.66812
#
# Poissons Ratio (x) = 0.38923 0.50347
# Poissons Ratio (y) = 0.20023 0.16948
# Poissons Ratio (z) = 0.14327 0.09375
#
# Static dielectric constant tensor:
#      x y z
#    x 1.986770 -0.027880 -0.007350 
#    y -0.027880 2.227780 -0.101910 
#    z -0.007350 -0.101910 2.299040 
# 
# From -- ./inp_files/22104.got.cif
#   From: 2010.05.17/outbox.cif.g08.bks.cpg/sg2_12_cif.got.tgz:22104.got - 2010.06.03 11:33:40.
