data_PCOD9103070
_publ_section_title
;
Structure prediction by ZEFSAII (Michael W. Deem and Ramdas Pophale) SiO2 
 PCOD9103070
Probable space group: P -1
;
_chemical_formula_sum "Si O2"
_cell_formula_units_Z 15
_cell_length_a 9.554063
_cell_length_b 12.999737
_cell_length_c 4.937334
_cell_angle_alpha 89.657379
_cell_angle_beta 80.442570
_cell_angle_gamma 104.046172
_cell_volume 585.939467
_symmetry_space_group_name_H-M "P -1"
_symmetry_group_IT_number 2
_symmetry_cell_setting 'triclinic'
loop_
_space_group_symop_operation_xyz
x,y,z
-x,-y,-z
loop_
_atom_site_type_symbol
_atom_site_label
_atom_site_fract_x
_atom_site_fract_y
_atom_site_fract_z
Si Si1 0.042742 0.190987 0.824242
Si Si2 0.544552 0.423161 0.271150
Si Si3 0.173464 0.733551 0.491155
Si Si4 0.777316 0.906844 0.587517
Si Si5 0.851934 0.411888 0.999129
Si Si6 0.000000 0.000000 0.000000
Si Si7 0.685590 0.715244 0.967755
Si Si8 0.502616 0.191035 0.573102
O O1 0.948434 0.223873 0.625600
O O2 0.115536 0.089439 0.709743
O O3 0.177629 0.282598 0.882647
O O4 0.960196 0.117614 0.091213
O O5 0.500000 0.500000 0.500000
O O6 0.711956 0.452943 0.128879
O O7 0.422249 0.394388 0.076050
O O8 0.527725 0.304365 0.406281
O O9 0.141523 0.686325 0.802618
O O10 0.332888 0.815280 0.426495
O O11 0.176472 0.632174 0.295951
O O12 0.757763 0.783544 0.686262
O O13 0.613052 0.902660 0.543047
O O14 0.857227 0.976073 0.802106
O O15 0.000000 0.500000 0.000000
O O16 0.584870 0.785500 0.135197
#
# Coordination Sequence:
#
# PCOD9103070 Si02
#       8
#     2   2   2   2   2   1   2   2
#     4  10  22  38  65  97 126 173 216 275 333 414
#     4  10  21  39  63  92 127 175 233 285 331 403
#     4  11  24  44  68  93 136 178 228 272 347 404
#     4   9  19  36  62  93 125 162 214 270 331 398
#     4  11  25  45  66  96 138 181 228 292 346 397
#     4  10  20  38  64  98 136 160 212 280 340 398
#     4   9  18  37  61  86 122 169 221 262 329 393
#     4   9  19  39  60  87 121 175 218 266 326 399
#
# _framework density 25.599914999999999
#
# number of rings (size 3 to 8) (size 9 to 14) (size 15 to 20)
#    0.000    2.133    1.333    0.800    3.733    3.733 
#    4.800    0.667    0.000    8.000    0.000    0.000 
#    0.000    0.000    0.000    0.000    0.000    0.000 
#
# Total GULP energy -83702.934364 kJ/mol
# GULP energy per Si atom -5580.195624 kJ/mol
# Density = 2.554165 g / cm^3
# Si number density = 25.599915 Si / 1000 Ang^3
#
#
#
# Elastic Constant Matrix: (Units=GPa)
#
#
# Indices 1 2 3 4 5 6 
#
# 1 196.3441 69.5142 32.2661 2.7862 24.3975 53.5576
# 2 69.5142 109.5264 19.9147 11.4874 7.6206 42.3974
# 3 32.2661 19.9147 103.9472 3.4723 15.7824 21.2505
# 4 2.7862 11.4874 3.4723 41.8639 12.5145 18.9532
# 5 24.3975 7.6206 15.7824 12.5145 40.0560 4.5470
# 6 53.5576 42.3974 21.2505 18.9532 4.5470 66.5648
#
#
#
# Elastic Compliance Matrix: (Units=1/GPa)
#
#
# Indices 1 2 3 4 5 6 
#
# 1 0.008342 -0.003238 -0.000219 0.004359 -0.005120 -0.005471
# 2 -0.003238 0.013505 -0.000495 -0.001102 0.000574 -0.005564
# 3 -0.000219 -0.000495 0.011061 0.002051 -0.004394 -0.003324
# 4 0.004359 -0.001102 0.002051 0.032772 -0.012134 -0.011963
# 5 -0.005120 0.000574 -0.004394 -0.012134 0.032773 0.006373
# 6 -0.005471 -0.005564 -0.003324 -0.011963 0.006373 0.027001
#
#
# Mechanical properties :
#
#
# Convention : Reuss Voigt Hill
#
# Bulk Modulus (GPa) = 39.99317 72.57865 56.28591
# Shear Modulus (GPa) = 35.28763 48.90511 42.09637
#
# Velocity S-wave (km/s) = 3.71675 4.37551 4.05951
# Velocity P-wave (km/s) = 5.83740 7.34435 6.63380
#
# Compressibility (1/GPa) = 0.02500427
#
# Stress axis : x y z
#
# Youngs Moduli (GPa) = 119.87375 74.04883 90.40595
#
# Poissons Ratio (x) = 0.23976 0.01979
# Poissons Ratio (y) = 0.38813 0.04476
# Poissons Ratio (z) = 0.02624 0.03666
#
# Static dielectric constant tensor:
#      x y z
#    x 2.070240 -0.055850 -0.031890 
#    y -0.055850 2.119580 -0.094760 
#    z -0.031890 -0.094760 2.154510 
# 
# From -- ./inp_files/39286.got.cif
#   From: 2010.05.17/outbox.cif.g08.bks.cpg/sg2_20_cif.got.tgz:39286.got - 2010.06.03 11:33:40.
