data_PCOD9103590
_publ_section_title
;
Structure prediction by ZEFSAII (Michael W. Deem and Ramdas Pophale) SiO2 
 PCOD9103590
Probable space group: P -1
;
_chemical_formula_sum "Si O2"
_cell_formula_units_Z 16
_cell_length_a 7.834904
_cell_length_b 12.317216
_cell_length_c 12.049333
_cell_angle_alpha 47.177976
_cell_angle_beta 118.870778
_cell_angle_gamma 96.244995
_cell_volume 701.951726
_symmetry_space_group_name_H-M "P -1"
_symmetry_group_IT_number 2
_symmetry_cell_setting 'triclinic'
loop_
_space_group_symop_operation_xyz
x,y,z
-x,-y,-z
loop_
_atom_site_type_symbol
_atom_site_label
_atom_site_fract_x
_atom_site_fract_y
_atom_site_fract_z
Si Si1 0.385297 0.145520 0.786613
Si Si2 0.150096 0.266873 0.109521
Si Si3 0.653697 0.024567 0.735189
Si Si4 0.895488 0.245048 0.576752
Si Si5 0.290806 0.511674 0.106700
Si Si6 0.820330 0.257315 0.293622
Si Si7 0.237685 0.070757 0.472095
Si Si8 0.590986 0.520745 0.394070
O O1 0.513822 0.099396 0.745320
O O2 0.406632 0.304228 0.730241
O O3 0.141100 0.173381 0.685753
O O4 0.500000 0.000000 0.000000
O O5 0.292404 0.351169 0.158140
O O6 0.147782 0.120584 0.287130
O O7 0.237342 0.167156 0.095420
O O8 0.926938 0.400638 0.957174
O O9 0.808822 0.117637 0.693768
O O10 0.470625 0.063164 0.560171
O O11 0.791287 0.298948 0.384918
O O12 0.817580 0.393931 0.530845
O O13 0.452941 0.494020 0.267909
O O14 0.290457 0.622731 0.922541
O O15 0.068990 0.210660 0.388298
O O16 0.772690 0.095683 0.377100
O O17 0.500000 0.500000 0.500000
#
# Coordination Sequence:
#
# PCOD9103590 Si02
#       8
#     2   2   2   2   2   2   2   2
#     4  12  31  50  77 113 146 200 265 313 359 444
#     4  10  22  40  71 113 146 189 240 314 379 449
#     4  12  24  43  78 108 149 194 250 306 374 451
#     4  12  26  50  78 109 149 202 252 309 386 442
#     4  10  25  43  70 112 154 189 247 309 379 437
#     4  10  22  40  73 107 146 185 239 314 371 444
#     4  10  20  38  67 106 145 183 233 295 385 446
#     4  12  28  51  76 104 154 212 252 298 371 465
#
# _framework density 22.793589000000001
#
# number of rings (size 3 to 8) (size 9 to 14) (size 15 to 20)
#    0.000    1.000    3.750    1.500    5.250    4.000 
#    0.000    0.000    0.000    0.000    0.000    0.000 
#    0.000    0.000    0.000    0.000    0.000    0.000 
#
# Total GULP energy -89336.206546 kJ/mol
# GULP energy per Si atom -5583.512909 kJ/mol
# Density = 2.274171 g / cm^3
# Si number density = 22.793589 Si / 1000 Ang^3
#
#
#
# Elastic Constant Matrix: (Units=GPa)
#
#
# Indices 1 2 3 4 5 6 
#
# 1 110.2838 58.5317 27.9288 -1.9555 1.1466 -10.0204
# 2 58.5317 133.3381 40.6279 -24.7363 3.0068 -21.9732
# 3 27.9288 40.6279 87.7096 -5.1285 -15.5041 1.1576
# 4 -1.9555 -24.7363 -5.1285 40.6011 0.8135 0.1726
# 5 1.1466 3.0068 -15.5041 0.8135 28.4600 -5.9413
# 6 -10.0204 -21.9732 1.1576 0.1726 -5.9413 42.9249
#
#
#
# Elastic Compliance Matrix: (Units=1/GPa)
#
#
# Indices 1 2 3 4 5 6 
#
# 1 0.012332 -0.005393 -0.001736 -0.002896 -0.000776 0.000069
# 2 -0.005393 0.013671 -0.004761 0.007503 -0.002900 0.005436
# 3 -0.001736 -0.004761 0.015657 -0.001172 0.008707 -0.002055
# 4 -0.002896 0.007503 -0.001172 0.028932 -0.001543 0.002866
# 5 -0.000776 -0.002900 0.008707 -0.001543 0.041053 0.003788
# 6 0.000069 0.005436 -0.002055 0.002866 0.003788 0.026664
#
#
# Mechanical properties :
#
#
# Convention : Reuss Voigt Hill
#
# Bulk Modulus (GPa) = 55.92769 65.05648 60.49208
# Shear Modulus (GPa) = 29.75323 36.01342 32.88332
#
# Velocity S-wave (km/s) = 3.61686 3.97921 3.80235
# Velocity P-wave (km/s) = 6.48322 7.05093 6.77303
#
# Compressibility (1/GPa) = 0.01788023
#
# Stress axis : x y z
#
# Youngs Moduli (GPa) = 81.08711 73.14868 63.86871
#
# Poissons Ratio (x) = 0.39448 0.11089
# Poissons Ratio (y) = 0.43729 0.30408
# Poissons Ratio (z) = 0.14079 0.34826
#
# Static dielectric constant tensor:
#      x y z
#    x 1.941760 -0.102770 -0.011410 
#    y -0.102770 1.907640 0.004700 
#    z -0.011410 0.004700 1.856680 
# 
# From -- ./inp_files/392153.got.cif
#   From: 2010.05.17/outbox.cif.g08.bks.cpg/sg2_197_cif.got.tgz:392153.got - 2010.06.03 11:33:40.
