data_PCOD9103086
_publ_section_title
;
Structure prediction by ZEFSAII (Michael W. Deem and Ramdas Pophale) SiO2 
 PCOD9103086
Probable space group: P -1
;
_chemical_formula_sum "Si O2"
_cell_formula_units_Z 15
_cell_length_a 13.745516
_cell_length_b 8.207788
_cell_length_c 14.148990
_cell_angle_alpha 123.121547
_cell_angle_beta 148.674838
_cell_angle_gamma 49.614265
_cell_volume 632.036715
_symmetry_space_group_name_H-M "P -1"
_symmetry_group_IT_number 2
_symmetry_cell_setting 'triclinic'
loop_
_space_group_symop_operation_xyz
x,y,z
-x,-y,-z
loop_
_atom_site_type_symbol
_atom_site_label
_atom_site_fract_x
_atom_site_fract_y
_atom_site_fract_z
Si Si1 0.104254 0.184006 0.060000
Si Si2 0.732041 0.342809 0.534504
Si Si3 0.285408 0.445548 0.211237
Si Si4 0.861114 0.917091 0.423387
Si Si5 0.462023 0.475839 0.071801
Si Si6 0.828952 0.529322 0.491038
Si Si7 0.005353 0.189574 0.190140
Si Si8 0.500000 0.000000 0.000000
O O1 0.909624 0.414040 0.967749
O O2 0.042802 0.016217 0.901248
O O3 0.282451 0.219852 0.163933
O O4 0.131315 0.134695 0.177687
O O5 0.494164 0.427145 0.333632
O O6 0.739359 0.435207 0.671726
O O7 0.840380 0.432634 0.576489
O O8 0.810504 0.088601 0.519173
O O9 0.663237 0.943575 0.206833
O O10 0.993141 0.669340 0.477239
O O11 0.000000 0.000000 0.500000
O O12 0.612332 0.562679 0.277532
O O13 0.521501 0.230614 0.072841
O O14 0.500000 0.500000 0.000000
O O15 0.222359 0.616075 0.942018
O O16 0.870870 0.736750 0.608658
#
# Coordination Sequence:
#
# PCOD9103086 Si02
#       8
#     2   2   2   2   2   2   2   1
#     4  10  23  43  67  94 132 185 225 288 349 404
#     4  10  20  38  65 101 132 168 231 283 340 412
#     4  10  21  40  67 100 130 172 237 286 336 416
#     4  10  21  38  68  99 127 185 225 269 353 413
#     4  12  28  46  69 109 141 185 238 290 350 421
#     4  11  22  46  69  98 142 190 223 283 355 425
#     4  11  24  48  66  96 140 183 229 283 356 413
#     4  12  22  44  72  98 138 190 218 286 352 406
#
# _framework density 23.732799
#
# number of rings (size 3 to 8) (size 9 to 14) (size 15 to 20)
#    0.000    1.333    5.333    0.800    0.000    2.667 
#   12.000    2.000    0.000    0.000    0.000    0.000 
#    0.000    0.000    0.000    0.000    0.000    0.000 
#
# Total GULP energy -83607.348054 kJ/mol
# GULP energy per Si atom -5573.823204 kJ/mol
# Density = 2.367878 g / cm^3
# Si number density = 23.732799 Si / 1000 Ang^3
#
#
#
# Elastic Constant Matrix: (Units=GPa)
#
#
# Indices 1 2 3 4 5 6 
#
# 1 56.8346 31.6066 22.4904 8.7575 -9.4585 3.8511
# 2 31.6066 72.9438 21.1061 34.2008 10.3818 17.4623
# 3 22.4904 21.1061 138.3252 49.2652 7.2271 7.0198
# 4 8.7575 34.2008 49.2652 47.0257 -0.7414 0.1247
# 5 -9.4585 10.3818 7.2271 -0.7414 19.4536 1.1701
# 6 3.8511 17.4623 7.0198 0.1247 1.1701 21.0904
#
#
#
# Elastic Compliance Matrix: (Units=1/GPa)
#
#
# Indices 1 2 3 4 5 6 
#
# 1 -4.197223 6.220799 2.671397 -6.627804 -6.311801 -4.884057
# 2 6.220799 -9.173236 -3.945386 9.774245 9.325355 7.197345
# 3 2.671397 -3.945386 -1.683819 4.190842 4.003624 3.092440
# 4 -6.627804 9.774245 4.190842-10.379726 -9.930104 -7.665215
# 5 -6.311801 9.325355 4.003624 -9.930104 -9.419581 -7.319914
# 6 -4.884057 7.197345 3.092440 -7.665215 -7.319914 -5.597861
#
#
# Mechanical properties :
#
#
# Convention : Reuss Voigt Hill
#
# Bulk Modulus (GPa) = -0.19377 46.50111 23.15367
# Shear Modulus (GPa) = -0.09603 30.37398 15.13897
#
# Velocity S-wave (km/s) = -0.20138 3.58135 2.52839
# Velocity P-wave (km/s) = 0.36864 6.06116 4.27795
#
# Compressibility (1/GPa) = -5.16065691
#
# Stress axis : x y z
#
# Youngs Moduli (GPa) = -0.23825 -0.10901 -0.59389
#
# Poissons Ratio (x) = 0.67815 1.58651
# Poissons Ratio (y) = 1.48212 -2.34312
# Poissons Ratio (z) = 0.63647 -0.43010
#
# Static dielectric constant tensor:
#      x y z
#    x 1.918880 -0.019040 0.012250 
#    y -0.019040 1.926640 0.000580 
#    z 0.012250 0.000580 1.870560 
# 
# From -- ./inp_files/530184.got.cif
#   From: 2010.05.17/outbox.cif.g08.bks.cpg/sg2_266_cif.got.tgz:530184.got - 2010.06.03 11:33:40.
