data_PCOD9103972
_publ_section_title
;
Structure prediction by ZEFSAII (Michael W. Deem and Ramdas Pophale) SiO2 
 PCOD9103972
Probable space group: P -1
;
_chemical_formula_sum "Si O2"
_cell_formula_units_Z 12
_cell_length_a 12.037729
_cell_length_b 8.602106
_cell_length_c 17.905093
_cell_angle_alpha 74.667127
_cell_angle_beta 21.071634
_cell_angle_gamma 84.067099
_cell_volume 585.336505
_symmetry_space_group_name_H-M "P -1"
_symmetry_group_IT_number 2
_symmetry_cell_setting 'triclinic'
loop_
_space_group_symop_operation_xyz
x,y,z
-x,-y,-z
loop_
_atom_site_type_symbol
_atom_site_label
_atom_site_fract_x
_atom_site_fract_y
_atom_site_fract_z
Si Si1 0.825309 0.032895 0.842120
Si Si2 0.766745 0.806214 0.574035
Si Si3 0.695046 0.807240 0.219759
Si Si4 0.022440 0.536644 0.068357
Si Si5 0.587034 0.082138 0.745583
Si Si6 0.751410 0.169286 0.368811
O O1 0.131642 0.168577 0.581164
O O2 0.921694 0.866959 0.811695
O O3 0.500000 0.000000 0.000000
O O4 0.709863 0.052904 0.996395
O O5 0.088777 0.814359 0.418497
O O6 0.695583 0.970433 0.631035
O O7 0.418214 0.638392 0.827531
O O8 0.535747 0.787532 0.239314
O O9 0.432240 0.816876 0.442927
O O10 0.832977 0.666521 0.178947
O O11 0.000000 0.000000 0.000000
O O12 0.849030 0.351099 0.241536
O O13 0.000000 0.500000 0.000000
O O14 0.500000 0.000000 0.500000
#
# Coordination Sequence:
#
# PCOD9103972 Si02
#       6
#     2   2   2   2   2   2
#     4  10  20  39  67  94 123 173 214 258 327 387
#     4  10  21  41  65  96 130 168 216 269 321 387
#     4  12  22  42  67  98 131 174 218 271 329 390
#     4  12  25  42  64  97 132 172 225 268 324 393
#     4  10  20  38  70  95 129 170 212 265 331 383
#     4  12  25  43  64  94 132 175 220 273 327 390
#
# _framework density 20.501027000000001
#
# number of rings (size 3 to 8) (size 9 to 14) (size 15 to 20)
#    0.000    1.000    3.333    4.500    0.000    0.000 
#    3.000   10.000    0.000    0.000    0.000    0.000 
#    0.000    0.000    0.000    0.000    0.000    0.000 
#
# Total GULP energy -66984.695956 kJ/mol
# GULP energy per Si atom -5582.057996 kJ/mol
# Density = 2.045437 g / cm^3
# Si number density = 20.501027 Si / 1000 Ang^3
#
#
#
# Elastic Constant Matrix: (Units=GPa)
#
#
# Indices 1 2 3 4 5 6 
#
# 1 108.5688 46.0702 65.5608 -8.5044 12.1274 -22.8459
# 2 46.0702 109.7559 55.1650 -6.0680 -7.2496 -33.6379
# 3 65.5608 55.1650 115.4744 -1.5407 17.0032 -16.4091
# 4 -8.5044 -6.0680 -1.5407 41.4110 0.0261 6.2107
# 5 12.1274 -7.2496 17.0032 0.0261 38.4082 0.3020
# 6 -22.8459 -33.6379 -16.4091 6.2107 0.3020 36.3195
#
#
#
# Elastic Compliance Matrix: (Units=1/GPa)
#
#
# Indices 1 2 3 4 5 6 
#
# 1 0.015533 -0.001503 -0.007075 0.001979 -0.002096 0.004861
# 2 -0.001503 0.017142 -0.006611 0.000174 0.006544 0.011859
# 3 -0.007075 -0.006611 0.016318 -0.001374 -0.006214 -0.002915
# 4 0.001979 0.000174 -0.001374 0.025054 0.000027 -0.003499
# 5 -0.002096 0.006544 -0.006214 0.000027 0.030671 0.001675
# 6 0.004861 0.011859 -0.002915 -0.003499 0.001675 0.040842
#
#
# Mechanical properties :
#
#
# Convention : Reuss Voigt Hill
#
# Bulk Modulus (GPa) = 53.72650 74.15456 63.94053
# Shear Modulus (GPa) = 27.45107 34.36129 30.90618
#
# Velocity S-wave (km/s) = 3.66322 4.09843 3.88692
# Velocity P-wave (km/s) = 6.64499 7.65806 7.16944
#
# Compressibility (1/GPa) = 0.01861279
#
# Stress axis : x y z
#
# Youngs Moduli (GPa) = 64.37932 58.33778 61.28320
#
# Poissons Ratio (x) = 0.08769 0.43358
# Poissons Ratio (y) = 0.09678 0.40517
# Poissons Ratio (z) = 0.45548 0.38570
#
# Static dielectric constant tensor:
#      x y z
#    x 1.779340 -0.143420 0.008850 
#    y -0.143420 3.103630 -0.183010 
#    z 0.008850 -0.183010 1.795680 
# 
# From -- ./inp_files/162676.got.cif
#   From: 2010.05.17/outbox.cif.g08.bks.cpg/sg2_82_cif.got.tgz:162676.got - 2010.06.03 11:33:40.
