data_PCOD9103976
_publ_section_title
;
Structure prediction by ZEFSAII (Michael W. Deem and Ramdas Pophale) SiO2 
 PCOD9103976
Probable space group: P -1
;
_chemical_formula_sum "Si O2"
_cell_formula_units_Z 15
_cell_length_a 13.902485
_cell_length_b 8.180952
_cell_length_c 8.268243
_cell_angle_alpha 51.721622
_cell_angle_beta 74.378977
_cell_angle_gamma 60.481223
_cell_volume 641.503077
_symmetry_space_group_name_H-M "P -1"
_symmetry_group_IT_number 2
_symmetry_cell_setting 'triclinic'
loop_
_space_group_symop_operation_xyz
x,y,z
-x,-y,-z
loop_
_atom_site_type_symbol
_atom_site_label
_atom_site_fract_x
_atom_site_fract_y
_atom_site_fract_z
Si Si1 0.600610 0.969786 0.361757
Si Si2 0.877873 0.141113 0.039336
Si Si3 0.877787 0.587997 0.933412
Si Si4 0.338503 0.184162 0.921552
Si Si5 0.218345 0.043766 0.521573
Si Si6 0.322717 0.717917 0.205541
Si Si7 0.382181 0.560194 0.600109
Si Si8 0.500000 0.500000 0.000000
O O1 0.609651 0.851980 0.257533
O O2 0.715442 0.837914 0.484247
O O3 0.500000 0.000000 0.500000
O O4 0.578993 0.227418 0.163089
O O5 0.856092 0.010383 0.282545
O O6 0.864814 0.386161 0.963391
O O7 0.786040 0.176005 0.922379
O O8 0.000000 0.000000 0.000000
O O9 0.845431 0.803571 0.694389
O O10 0.790016 0.669098 0.070449
O O11 0.000000 0.500000 0.000000
O O12 0.387989 0.363472 0.849563
O O13 0.355987 0.926812 0.117354
O O14 0.318954 0.804363 0.566863
O O15 0.303211 0.611228 0.446092
O O16 0.421065 0.519785 0.183478
O O17 0.500000 0.500000 0.500000
#
# Coordination Sequence:
#
# PCOD9103976 Si02
#       8
#     2   2   2   2   2   2   2   1
#     4  11  24  43  70 106 144 190 235 290 358 433
#     4  12  28  50  78 104 141 190 243 305 370 427
#     4  12  29  49  75 106 139 190 242 308 368 424
#     4  11  23  46  71 100 149 184 240 293 355 427
#     4  12  26  48  72 109 145 185 249 290 363 441
#     4  11  24  44  71 106 145 187 242 291 360 428
#     4  12  26  44  71 110 150 194 231 291 363 434
#     4  10  20  38  70  96 148 180 228 286 352 416
#
# _framework density 23.382584999999999
#
# number of rings (size 3 to 8) (size 9 to 14) (size 15 to 20)
#    0.000    0.533    5.333    3.200    3.733    2.667 
#    2.400    0.000    0.000    0.000    0.000    0.000 
#    0.000    0.000    0.000    0.000    0.000    0.000 
#
# Total GULP energy -83540.615905 kJ/mol
# GULP energy per Si atom -5569.374394 kJ/mol
# Density = 2.332936 g / cm^3
# Si number density = 23.382585 Si / 1000 Ang^3
#
#
#
# Elastic Constant Matrix: (Units=GPa)
#
#
# Indices 1 2 3 4 5 6 
#
# 1 82.4871 15.1953 37.3485 -11.3343 -7.4371 -26.6246
# 2 15.1953 111.2305 15.7387 4.8738 -12.9575 -29.3209
# 3 37.3485 15.7387 120.7062 -5.0372 -8.6111 -2.8988
# 4 -11.3343 4.8738 -5.0372 51.9775 -3.8733 -14.1592
# 5 -7.4371 -12.9575 -8.6111 -3.8733 34.0865 3.7762
# 6 -26.6246 -29.3209 -2.8988 -14.1592 3.7762 43.9249
#
#
#
# Elastic Compliance Matrix: (Units=1/GPa)
#
#
# Indices 1 2 3 4 5 6 
#
# 1 0.021098 0.002257 -0.005850 0.008519 0.003136 0.016385
# 2 0.002257 0.011751 -0.001650 0.002084 0.003732 0.009454
# 3 -0.005850 -0.001650 0.010223 -0.001271 0.001030 -0.004471
# 4 0.008519 0.002084 -0.001271 0.024912 0.003588 0.014193
# 5 0.003136 0.003732 0.001030 0.003588 0.031788 0.002884
# 6 0.016385 0.009454 -0.004471 0.014193 0.002884 0.043041
#
#
# Mechanical properties :
#
#
# Convention : Reuss Voigt Hill
#
# Bulk Modulus (GPa) = 30.68813 50.10987 40.39900
# Shear Modulus (GPa) = 30.45783 42.40721 36.43252
#
# Velocity S-wave (km/s) = 3.61305 4.26329 3.95157
# Velocity P-wave (km/s) = 5.52796 6.76100 6.17533
#
# Compressibility (1/GPa) = 0.03258589
#
# Stress axis : x y z
#
# Youngs Moduli (GPa) = 47.39758 85.09828 97.82099
#
# Poissons Ratio (x) = -0.19205 0.57221
# Poissons Ratio (y) = -0.10697 0.16143
# Poissons Ratio (z) = 0.27726 0.14043
#
# Static dielectric constant tensor:
#      x y z
#    x 1.925200 0.073770 0.019690 
#    y 0.073770 1.773050 0.086430 
#    z 0.019690 0.086430 1.967690 
# 
# From -- ./inp_files/293980.got.cif
#   From: 2010.05.17/outbox.cif.g08.bks.cpg/sg2_147_cif.got.tgz:293980.got - 2010.06.03 11:33:40.
