data_PCOD9103745
_publ_section_title
;
Structure prediction by ZEFSAII (Michael W. Deem and Ramdas Pophale) SiO2 
 PCOD9103745
Probable space group: P -1
;
_chemical_formula_sum "Si O2"
_cell_formula_units_Z 15
_cell_length_a 8.818415
_cell_length_b 9.968619
_cell_length_c 9.044428
_cell_angle_alpha 110.061083
_cell_angle_beta 69.521314
_cell_angle_gamma 112.080082
_cell_volume 669.399828
_symmetry_space_group_name_H-M "P -1"
_symmetry_group_IT_number 2
_symmetry_cell_setting 'triclinic'
loop_
_space_group_symop_operation_xyz
x,y,z
-x,-y,-z
loop_
_atom_site_type_symbol
_atom_site_label
_atom_site_fract_x
_atom_site_fract_y
_atom_site_fract_z
Si Si1 0.311164 0.712140 0.224401
Si Si2 0.500000 0.500000 0.000000
Si Si3 0.625475 0.935039 0.337212
Si Si4 0.700873 0.710170 0.448065
Si Si5 0.947284 0.133201 0.146352
Si Si6 0.995303 0.331768 0.484778
Si Si7 0.875081 0.340548 0.024004
Si Si8 0.543722 0.388076 0.251970
O O1 0.333334 0.547572 0.137918
O O2 0.500069 0.813503 0.229392
O O3 0.192044 0.729373 0.406179
O O4 0.216307 0.742209 0.121997
O O5 0.490703 0.386591 0.100223
O O6 0.720040 0.848481 0.383748
O O7 0.500000 0.000000 0.500000
O O8 0.756669 0.055395 0.239267
O O9 0.585788 0.562739 0.348004
O O10 0.590212 0.716835 0.633385
O O11 0.869879 0.677157 0.437580
O O12 0.026628 0.230194 0.300625
O O13 0.971840 0.249537 0.049257
O O14 0.000000 0.000000 0.000000
O O15 0.000000 0.500000 0.500000
O O16 0.723396 0.356687 0.185244
O O17 0.000000 0.500000 0.000000
#
# Coordination Sequence:
#
# PCOD9103745 Si02
#       8
#     2   1   2   2   2   2   2   2
#     4  11  24  43  75 104 147 197 252 301 390 450
#     4  10  20  38  68 110 144 178 244 320 364 434
#     4  12  26  48  73 101 155 202 252 307 385 465
#     4  11  24  41  73 104 147 200 255 313 371 464
#     4  12  30  48  74 112 159 195 254 320 393 453
#     4  12  26  47  76 110 147 203 259 316 381 461
#     4  11  25  45  72 109 151 194 250 322 378 452
#     4  10  21  39  68 106 146 187 256 302 379 443
#
# _framework density 22.408131000000001
#
# number of rings (size 3 to 8) (size 9 to 14) (size 15 to 20)
#    0.000    0.800    2.667    4.000    5.600    6.400 
#    0.000    0.000    0.000    0.000    0.000    0.000 
#    0.000    0.000    0.000    0.000    0.000    0.000 
#
# Total GULP energy -83542.438429 kJ/mol
# GULP energy per Si atom -5569.495895 kJ/mol
# Density = 2.235713 g / cm^3
# Si number density = 22.408131 Si / 1000 Ang^3
#
#
#
# Elastic Constant Matrix: (Units=GPa)
#
#
# Indices 1 2 3 4 5 6 
#
# 1 74.7198 28.7819 25.7060 -2.9117 12.8319 4.2959
# 2 28.7819 95.4833 25.2786 -17.3618 13.5825 -4.5822
# 3 25.7060 25.2786 115.1080 12.3056 -1.1023 -7.4615
# 4 -2.9117 -17.3618 12.3056 20.6743 -1.6643 -6.4817
# 5 12.8319 13.5825 -1.1023 -1.6643 46.3266 -4.9808
# 6 4.2959 -4.5822 -7.4615 -6.4817 -4.9808 31.2409
#
#
#
# Elastic Compliance Matrix: (Units=1/GPa)
#
#
# Indices 1 2 3 4 5 6 
#
# 1 0.016959 -0.004091 -0.003121 -0.000937 -0.004092 -0.004525
# 2 -0.004091 0.016615 -0.004279 0.017322 -0.002664 0.005147
# 3 -0.003121 -0.004279 0.011512 -0.010495 0.002092 0.000707
# 4 -0.000937 0.017322 -0.010495 0.073781 -0.000768 0.015348
# 5 -0.004092 -0.002664 0.002092 -0.000768 0.023989 0.004337
# 6 -0.004525 0.005147 0.000707 0.015348 0.004337 0.037431
#
#
# Mechanical properties :
#
#
# Convention : Reuss Voigt Hill
#
# Bulk Modulus (GPa) = 45.24125 49.42713 47.33419
# Shear Modulus (GPa) = 23.73746 33.35133 28.54440
#
# Velocity S-wave (km/s) = 3.25826 3.86211 3.57296
# Velocity P-wave (km/s) = 5.86417 6.48023 6.17988
#
# Compressibility (1/GPa) = 0.02210372
#
# Stress axis : x y z
#
# Youngs Moduli (GPa) = 58.96402 60.18738 86.86589
#
# Poissons Ratio (x) = 0.24624 0.27113
# Poissons Ratio (y) = 0.24124 0.37168
# Poissons Ratio (z) = 0.18404 0.25753
#
# Static dielectric constant tensor:
#      x y z
#    x 1.887640 0.038610 0.013060 
#    y 0.038610 1.840060 0.069500 
#    z 0.013060 0.069500 1.935580 
# 
# From -- ./inp_files/159611.got.cif
#   From: 2010.05.17/outbox.cif.g08.bks.cpg/sg2_80_cif.got.tgz:159611.got - 2010.06.03 11:33:40.
