data_PCOD9103877
_publ_section_title
;
Structure prediction by ZEFSAII (Michael W. Deem and Ramdas Pophale) SiO2 
 PCOD9103877
Probable space group: P -1
;
_chemical_formula_sum "Si O2"
_cell_formula_units_Z 16
_cell_length_a 21.899290
_cell_length_b 6.759464
_cell_length_c 11.986243
_cell_angle_alpha 132.310468
_cell_angle_beta 149.259378
_cell_angle_gamma 62.235520
_cell_volume 640.168255
_symmetry_space_group_name_H-M "P -1"
_symmetry_group_IT_number 2
_symmetry_cell_setting 'triclinic'
loop_
_space_group_symop_operation_xyz
x,y,z
-x,-y,-z
loop_
_atom_site_type_symbol
_atom_site_label
_atom_site_fract_x
_atom_site_fract_y
_atom_site_fract_z
Si Si1 0.800580 0.062509 0.997734
Si Si2 0.498692 0.238612 0.246395
Si Si3 0.726061 0.479731 0.541102
Si Si4 0.771195 0.978618 0.356206
Si Si5 0.203055 0.201456 0.435587
Si Si6 0.603772 0.293752 0.658741
Si Si7 0.840781 0.812080 0.178214
Si Si8 0.950054 0.349130 0.137638
O O1 0.784140 0.747565 0.810593
O O2 0.675922 0.143070 0.797205
O O3 0.825579 0.053516 0.164372
O O4 0.910914 0.256989 0.169101
O O5 0.606371 0.280439 0.340512
O O6 0.535566 0.131368 0.381684
O O7 0.485284 0.551528 0.362786
O O8 0.362136 0.057566 0.925550
O O9 0.704336 0.610026 0.437918
O O10 0.819210 0.296795 0.593481
O O11 0.748521 0.794869 0.361999
O O12 0.852588 0.890600 0.356781
O O13 0.081000 0.308025 0.294934
O O14 0.153354 0.885458 0.186517
O O15 0.712170 0.555229 0.876303
O O16 0.939229 0.660518 0.231171
#
# Coordination Sequence:
#
# PCOD9103877 Si02
#       8
#     2   2   2   2   2   2   2   2
#     4  10  20  38  69  91 113 158 210 257 295 362
#     4  10  21  41  60  89 127 166 196 255 300 349
#     4  11  23  39  60  89 124 163 205 245 297 370
#     4  11  25  40  58  90 136 160 196 251 307 364
#     4  10  23  43  63  92 121 162 203 254 308 363
#     4   9  20  39  62  92 123 154 211 253 294 353
#     4  10  20  40  64  92 122 159 203 255 301 361
#     4   9  21  42  69  89 117 158 208 260 303 353
#
# _framework density 24.99343
#
# number of rings (size 3 to 8) (size 9 to 14) (size 15 to 20)
#    0.000    2.000    1.250    1.125    3.500    5.500 
#    2.250    5.000    0.000    0.000    0.000    0.000 
#    0.000    0.000    0.000    0.000    0.000    0.000 
#
# Total GULP energy -89524.293546 kJ/mol
# GULP energy per Si atom -5595.268347 kJ/mol
# Density = 2.493654 g / cm^3
# Si number density = 24.993430 Si / 1000 Ang^3
#
#
#
# Elastic Constant Matrix: (Units=GPa)
#
#
# Indices 1 2 3 4 5 6 
#
# 1 108.7266 45.4762 13.6512 -10.8977 -27.9527 -11.1125
# 2 45.4762 95.7323 15.2457 -20.2185 -20.2687 -0.5927
# 3 13.6512 15.2457 53.1909 -15.8278 -7.9732 1.4429
# 4 -10.8977 -20.2185 -15.8278 26.8224 11.6128 -5.0777
# 5 -27.9527 -20.2687 -7.9732 11.6128 32.0318 -5.9036
# 6 -11.1125 -0.5927 1.4429 -5.0777 -5.9036 50.8707
#
#
#
# Elastic Compliance Matrix: (Units=1/GPa)
#
#
# Indices 1 2 3 4 5 6 
#
# 1 0.014334 -0.004802 -0.001576 -0.002617 0.010784 0.004110
# 2 -0.004802 0.014997 -0.000277 0.008244 0.002282 0.000221
# 3 -0.001576 -0.000277 0.023081 0.013026 -0.000483 0.000242
# 4 -0.002617 0.008244 0.013026 0.056698 -0.013788 0.003214
# 5 0.010784 0.002282 -0.000483 -0.013788 0.048170 0.006610
# 6 0.004110 0.000221 0.000242 0.003214 0.006610 0.021639
#
#
# Mechanical properties :
#
#
# Convention : Reuss Voigt Hill
#
# Bulk Modulus (GPa) = 25.57427 45.15512 35.36470
# Shear Modulus (GPa) = 24.35896 34.16344 29.26120
#
# Velocity S-wave (km/s) = 3.12527 3.70117 3.42534
# Velocity P-wave (km/s) = 4.82470 6.03083 5.46116
#
# Compressibility (1/GPa) = 0.03910179
#
# Stress axis : x y z
#
# Youngs Moduli (GPa) = 69.76341 66.68135 43.32538
#
# Poissons Ratio (x) = 0.32022 0.06828
# Poissons Ratio (y) = 0.33502 0.01199
# Poissons Ratio (z) = 0.10995 0.01846
#
# Static dielectric constant tensor:
#      x y z
#    x 1.976570 -0.016660 -0.000250 
#    y -0.016660 1.992220 0.001020 
#    z -0.000250 0.001020 2.025480 
# 
# From -- ./inp_files/473509.got.cif
#   From: 2010.05.17/outbox.cif.g08.bks.cpg/sg2_237_cif.got.tgz:473509.got - 2010.06.03 11:33:40.
