data_PCOD9103302
_publ_section_title
;
Structure prediction by ZEFSAII (Michael W. Deem and Ramdas Pophale) SiO2 
 PCOD9103302
Probable space group: P -1
;
_chemical_formula_sum "Si O2"
_cell_formula_units_Z 16
_cell_length_a 6.769389
_cell_length_b 12.875843
_cell_length_c 9.564884
_cell_angle_alpha 103.648497
_cell_angle_beta 128.631239
_cell_angle_gamma 67.635533
_cell_volume 602.274524
_symmetry_space_group_name_H-M "P -1"
_symmetry_group_IT_number 2
_symmetry_cell_setting 'triclinic'
loop_
_space_group_symop_operation_xyz
x,y,z
-x,-y,-z
loop_
_atom_site_type_symbol
_atom_site_label
_atom_site_fract_x
_atom_site_fract_y
_atom_site_fract_z
Si Si1 0.997145 0.499653 0.354475
Si Si2 0.824776 0.934450 0.228516
Si Si3 0.520765 0.292615 0.247206
Si Si4 0.338175 0.108718 0.140876
Si Si5 0.524143 0.475832 0.643760
Si Si6 0.627934 0.233407 0.600059
Si Si7 0.618328 0.743565 0.216859
Si Si8 0.088122 0.740992 0.818154
O O1 0.784237 0.515275 0.411084
O O2 0.820430 0.619211 0.250836
O O3 0.971512 0.379592 0.246976
O O4 0.292878 0.503798 0.411930
O O5 0.723821 0.836833 0.221375
O O6 0.137955 0.880649 0.343924
O O7 0.650045 0.042672 0.270516
O O8 0.758177 0.960105 0.041835
O O9 0.324824 0.225435 0.095099
O O10 0.426462 0.423173 0.213858
O O11 0.544580 0.270667 0.416546
O O12 0.805314 0.246785 0.285422
O O13 0.154315 0.151902 0.205836
O O14 0.684378 0.347850 0.711643
O O15 0.421936 0.225469 0.625544
O O16 0.336433 0.742541 0.026748
#
# Coordination Sequence:
#
# PCOD9103302 Si02
#       8
#     2   2   2   2   2   2   2   2
#     4  12  23  40  66 104 140 169 211 270 330 406
#     4  11  26  46  67  96 132 175 230 281 326 384
#     4  11  23  42  69  99 134 171 219 273 332 397
#     4  11  26  46  67  96 132 175 230 281 326 384
#     4  10  20  38  65  96 133 174 205 258 339 391
#     4  11  23  42  69  99 134 171 219 273 332 397
#     4  12  24  43  68 101 134 178 218 270 333 394
#     4  12  24  43  68 101 134 178 218 270 333 394
#
# _framework density 26.565954999999999
#
# number of rings (size 3 to 8) (size 9 to 14) (size 15 to 20)
#    0.000    0.750    5.000    3.375    0.000    2.000 
#    0.000    2.500    0.000    0.000    0.000    0.000 
#    0.000    0.000    0.000    0.000    0.000    0.000 
#
# Total GULP energy -89300.818110 kJ/mol
# GULP energy per Si atom -5581.301132 kJ/mol
# Density = 2.650549 g / cm^3
# Si number density = 26.565955 Si / 1000 Ang^3
#
#
#
# Elastic Constant Matrix: (Units=GPa)
#
#
# Indices 1 2 3 4 5 6 
#
# 1 140.3365 13.0447 23.1844 8.6732 -17.9702 -29.9543
# 2 13.0447 121.0198 26.9085 -0.0640 0.5536 -47.7382
# 3 23.1844 26.9085 46.5692 8.2682 -10.1970 -21.1429
# 4 8.6732 -0.0640 8.2682 27.5063 -5.1402 1.8917
# 5 -17.9702 0.5536 -10.1970 -5.1402 40.7018 -1.4697
# 6 -29.9543 -47.7382 -21.1429 1.8917 -1.4697 68.5833
#
#
#
# Elastic Compliance Matrix: (Units=1/GPa)
#
#
# Indices 1 2 3 4 5 6 
#
# 1 0.008769 0.001119 -0.002137 -0.001794 0.003242 0.004069
# 2 0.001119 0.012074 -0.004255 0.000356 -0.000418 0.007562
# 3 -0.002137 -0.004255 0.030295 -0.007731 0.005937 0.005785
# 4 -0.001794 0.000356 -0.007731 0.039924 0.002165 -0.003974
# 5 0.003242 -0.000418 0.005937 0.002165 0.027893 0.003493
# 6 0.004069 0.007562 0.005785 -0.003974 0.003493 0.023590
#
#
# Mechanical properties :
#
#
# Convention : Reuss Voigt Hill
#
# Bulk Modulus (GPa) = 24.63470 48.24450 36.43960
# Shear Modulus (GPa) = 30.00851 43.67747 36.84299
#
# Velocity S-wave (km/s) = 3.36458 4.05917 3.72808
# Velocity P-wave (km/s) = 4.93832 6.33789 5.68136
#
# Compressibility (1/GPa) = 0.04059315
#
# Stress axis : x y z
#
# Youngs Moduli (GPa) = 114.03486 82.82407 33.00915
#
# Poissons Ratio (x) = -0.09271 0.07053
# Poissons Ratio (y) = -0.12764 0.14045
# Poissons Ratio (z) = 0.24364 0.35242
#
# Static dielectric constant tensor:
#      x y z
#    x 2.196610 -0.032070 0.024530 
#    y -0.032070 2.024730 0.066670 
#    z 0.024530 0.066670 2.146960 
# 
# From -- ./inp_files/367825.got.cif
#   From: 2010.05.17/outbox.cif.g08.bks.cpg/sg2_184_cif.got.tgz:367825.got - 2010.06.03 11:33:40.
