data_PCOD9103277
_publ_section_title
;
Structure prediction by ZEFSAII (Michael W. Deem and Ramdas Pophale) SiO2 
 PCOD9103277
Probable space group: P -1
;
_chemical_formula_sum "Si O2"
_cell_formula_units_Z 14
_cell_length_a 8.161739
_cell_length_b 11.560144
_cell_length_c 13.635317
_cell_angle_alpha 53.600198
_cell_angle_beta 81.387864
_cell_angle_gamma 124.396402
_cell_volume 583.776465
_symmetry_space_group_name_H-M "P -1"
_symmetry_group_IT_number 2
_symmetry_cell_setting 'triclinic'
loop_
_space_group_symop_operation_xyz
x,y,z
-x,-y,-z
loop_
_atom_site_type_symbol
_atom_site_label
_atom_site_fract_x
_atom_site_fract_y
_atom_site_fract_z
Si Si1 0.777935 0.629069 0.627831
Si Si2 0.215492 0.397399 0.581871
Si Si3 0.534261 0.883812 0.396691
Si Si4 0.288523 0.135014 0.026490
Si Si5 0.819961 0.687177 0.923955
Si Si6 0.448939 0.777977 0.836671
Si Si7 0.288927 0.085716 0.456821
O O1 0.893287 0.681382 0.481524
O O2 0.701973 0.744446 0.588791
O O3 0.511705 0.329526 0.821902
O O4 0.001078 0.780785 0.623335
O O5 0.500000 0.500000 0.500000
O O6 0.316561 0.626731 0.488223
O O7 0.991283 0.167966 0.795356
O O8 0.470763 0.827074 0.546642
O O9 0.544501 0.049604 0.271161
O O10 0.864445 0.053060 0.280807
O O11 0.180383 0.216778 0.027125
O O12 0.461904 0.192937 0.074968
O O13 0.500000 0.500000 0.000000
O O14 0.825263 0.518917 0.012360
O O15 0.652329 0.855959 0.693542
#
# Coordination Sequence:
#
# PCOD9103277 Si02
#       7
#     2   2   2   2   2   2   2
#     4  11  23  41  73 100 127 173 233 280 321 393
#     4  12  24  44  67  98 136 179 223 271 333 396
#     4  12  25  42  65  99 143 171 218 280 332 403
#     4  11  22  43  69  97 133 178 224 271 329 397
#     4  10  20  38  65  95 125 167 222 272 325 380
#     4  11  23  40  68 101 134 175 218 278 343 388
#     4  11  21  40  68 101 130 172 226 279 334 385
#
# _framework density 23.981781000000002
#
# number of rings (size 3 to 8) (size 9 to 14) (size 15 to 20)
#    0.000    0.857    5.714    2.571    4.000    1.143 
#    2.571    0.714    0.000    0.000    0.000    0.000 
#    0.000    0.000    0.000    0.000    0.000    0.000 
#
# Total GULP energy -77987.869896 kJ/mol
# GULP energy per Si atom -5570.562135 kJ/mol
# Density = 2.392720 g / cm^3
# Si number density = 23.981781 Si / 1000 Ang^3
#
#
#
# Elastic Constant Matrix: (Units=GPa)
#
#
# Indices 1 2 3 4 5 6 
#
# 1 71.1941 29.3164 31.7546 -10.2705 25.9867 -7.5215
# 2 29.3164 109.4009 34.8061 -27.6656 21.4526 -3.0314
# 3 31.7546 34.8061 147.7855 -35.5194 20.7773 -7.0859
# 4 -10.2705 -27.6656 -35.5194 41.4846 -5.4923 13.0418
# 5 25.9867 21.4526 20.7773 -5.4923 34.1408 -6.3235
# 6 -7.5215 -3.0314 -7.0859 13.0418 -6.3235 25.6861
#
#
#
# Elastic Compliance Matrix: (Units=1/GPa)
#
#
# Indices 1 2 3 4 5 6 
#
# 1 0.020808 -0.002575 -0.002196 -0.000911 -0.012557 0.002555
# 2 -0.002575 0.013084 0.000257 0.009177 -0.005915 -0.005255
# 3 -0.002196 0.000257 0.009512 0.008266 -0.003515 -0.003051
# 4 -0.000911 0.009177 0.008266 0.042503 -0.007009 -0.020209
# 5 -0.012557 -0.005915 -0.003515 -0.007009 0.045312 0.009369
# 6 0.002555 -0.005255 -0.003051 -0.020209 0.009369 0.050785
#
#
# Mechanical properties :
#
#
# Convention : Reuss Voigt Hill
#
# Bulk Modulus (GPa) = 29.08879 57.79274 43.44077
# Shear Modulus (GPa) = 24.69268 35.76253 30.22760
#
# Velocity S-wave (km/s) = 3.21229 3.86584 3.55412
# Velocity P-wave (km/s) = 5.09060 6.63907 5.91572
#
# Compressibility (1/GPa) = 0.03437750
#
# Stress axis : x y z
#
# Youngs Moduli (GPa) = 48.05936 76.43044 105.12639
#
# Poissons Ratio (x) = 0.19677 0.23081
# Poissons Ratio (y) = 0.12373 -0.02701
# Poissons Ratio (z) = 0.10552 -0.01964
#
# Static dielectric constant tensor:
#      x y z
#    x 2.006150 0.049170 -0.104100 
#    y 0.049170 1.993490 -0.001720 
#    z -0.104100 -0.001720 2.140100 
# 
# From -- ./inp_files/498842.got.cif
#   From: 2010.05.17/outbox.cif.g08.bks.cpg/sg2_250_cif.got.tgz:498842.got - 2010.06.03 11:33:40.
