data_PCOD9103841
_publ_section_title
;
Structure prediction by ZEFSAII (Michael W. Deem and Ramdas Pophale) SiO2 
 PCOD9103841
Probable space group: P -1
;
_chemical_formula_sum "Si O2"
_cell_formula_units_Z 16
_cell_length_a 9.589518
_cell_length_b 8.903678
_cell_length_c 16.257020
_cell_angle_alpha 116.171117
_cell_angle_beta 35.099592
_cell_angle_gamma 105.207824
_cell_volume 703.130732
_symmetry_space_group_name_H-M "P -1"
_symmetry_group_IT_number 2
_symmetry_cell_setting 'triclinic'
loop_
_space_group_symop_operation_xyz
x,y,z
-x,-y,-z
loop_
_atom_site_type_symbol
_atom_site_label
_atom_site_fract_x
_atom_site_fract_y
_atom_site_fract_z
Si Si1 0.295885 0.395363 0.548734
Si Si2 0.659117 0.168927 0.731345
Si Si3 0.830936 0.787324 0.572459
Si Si4 0.759616 0.748729 0.163924
Si Si5 0.642627 0.086326 0.382406
Si Si6 0.594834 0.238678 0.960756
Si Si7 0.031173 0.530178 0.123582
Si Si8 0.884546 0.847454 0.746168
O O1 0.500000 0.500000 0.500000
O O2 0.253617 0.373199 0.467388
O O3 0.423419 0.205881 0.469589
O O4 0.064726 0.461660 0.735217
O O5 0.515344 0.235964 0.734625
O O6 0.564797 0.264989 0.883703
O O7 0.940686 0.185134 0.587731
O O8 0.643670 0.970078 0.703169
O O9 0.908943 0.769701 0.624654
O O10 0.828491 0.641450 0.187677
O O11 0.786860 0.938813 0.218153
O O12 0.917683 0.652768 0.989292
O O13 0.851963 0.177092 0.342203
O O14 0.500000 0.000000 0.500000
O O15 0.731560 0.378173 0.969598
O O16 0.777438 0.052983 0.839559
O O17 0.330392 0.227124 0.122821
#
# Coordination Sequence:
#
# PCOD9103841 Si02
#       8
#     2   2   2   2   2   2   2   2
#     4  12  26  45  67 101 142 174 223 294 340 395
#     4  10  20  38  68  98 124 181 231 275 327 415
#     4  10  21  39  67  97 132 172 231 277 336 398
#     4  11  23  39  71  99 128 180 232 270 334 415
#     4  12  22  45  74  97 132 185 235 270 339 421
#     4  10  20  41  63  92 142 169 222 283 342 396
#     4  11  24  44  65  98 138 181 220 285 343 395
#     4  10  22  38  66 101 127 178 227 279 331 404
#
# _framework density 22.755368000000001
#
# number of rings (size 3 to 8) (size 9 to 14) (size 15 to 20)
#    0.000    1.250    5.000    0.750    1.750    3.500 
#    4.500    1.875    0.000    0.000    0.000    0.000 
#    0.000    0.000    0.000    0.000    0.000    0.000 
#
# Total GULP energy -89423.872925 kJ/mol
# GULP energy per Si atom -5588.992058 kJ/mol
# Density = 2.270358 g / cm^3
# Si number density = 22.755368 Si / 1000 Ang^3
#
#
#
# Elastic Constant Matrix: (Units=GPa)
#
#
# Indices 1 2 3 4 5 6 
#
# 1 124.1645 18.7681 31.8823 3.6129 17.0712 23.5928
# 2 18.7681 42.0356 24.8362 6.0299 11.2342 18.6303
# 3 31.8823 24.8362 91.4003 3.6192 26.0966 17.3038
# 4 3.6129 6.0299 3.6192 33.3357 10.7377 0.2653
# 5 17.0712 11.2342 26.0966 10.7377 42.8730 10.4202
# 6 23.5928 18.6303 17.3038 0.2653 10.4202 34.8734
#
#
#
# Elastic Compliance Matrix: (Units=1/GPa)
#
#
# Indices 1 2 3 4 5 6 
#
# 1 0.009765 -0.000667 -0.001918 -0.000277 -0.001283 -0.004913
# 2 -0.000667 0.035355 -0.006233 -0.005486 -0.000121 -0.015266
# 3 -0.001918 -0.006233 0.015480 0.002018 -0.007317 -0.000883
# 4 -0.000277 -0.005486 0.002018 0.033746 -0.009257 0.004626
# 5 -0.001283 -0.000121 -0.007317 -0.009257 0.031824 -0.004876
# 6 -0.004913 -0.015266 -0.000883 0.004626 -0.004876 0.042015
#
#
# Mechanical properties :
#
#
# Convention : Reuss Voigt Hill
#
# Bulk Modulus (GPa) = 23.27455 45.39705 34.33580
# Shear Modulus (GPa) = 24.98258 34.35732 29.66995
#
# Velocity S-wave (km/s) = 3.31702 3.88990 3.61483
# Velocity P-wave (km/s) = 4.99204 6.33786 5.70478
#
# Compressibility (1/GPa) = 0.04296538
#
# Stress axis : x y z
#
# Youngs Moduli (GPa) = 102.40634 28.28488 64.60096
#
# Poissons Ratio (x) = 0.01886 0.12389
# Poissons Ratio (y) = 0.06828 0.40263
# Poissons Ratio (z) = 0.19639 0.17629
#
# Static dielectric constant tensor:
#      x y z
#    x 1.849960 -0.020530 -0.014940 
#    y -0.020530 1.902750 0.070410 
#    z -0.014940 0.070410 1.846740 
# 
# From -- ./inp_files/495371.got.cif
#   From: 2010.05.17/outbox.cif.g08.bks.cpg/sg2_248_cif.got.tgz:495371.got - 2010.06.03 11:33:40.
