data_PCOD9103420
_publ_section_title
;
Structure prediction by ZEFSAII (Michael W. Deem and Ramdas Pophale) SiO2 
 PCOD9103420
Probable space group: P -1
;
_chemical_formula_sum "Si O2"
_cell_formula_units_Z 15
_cell_length_a 12.735256
_cell_length_b 16.074104
_cell_length_c 8.950960
_cell_angle_alpha 121.886163
_cell_angle_beta 148.435145
_cell_angle_gamma 46.989041
_cell_volume 694.607783
_symmetry_space_group_name_H-M "P -1"
_symmetry_group_IT_number 2
_symmetry_cell_setting 'triclinic'
loop_
_space_group_symop_operation_xyz
x,y,z
-x,-y,-z
loop_
_atom_site_type_symbol
_atom_site_label
_atom_site_fract_x
_atom_site_fract_y
_atom_site_fract_z
Si Si1 0.100315 0.743824 0.906867
Si Si2 0.372853 0.451837 0.199342
Si Si3 0.211306 0.893557 0.859756
Si Si4 0.153124 0.359791 0.330876
Si Si5 0.286439 0.981816 0.727355
Si Si6 0.521869 0.364371 0.977473
Si Si7 0.000000 0.000000 0.000000
Si Si8 0.528879 0.255584 0.429123
O O1 0.260424 0.659667 0.886360
O O2 0.011949 0.874377 0.877311
O O3 0.282251 0.722223 0.241157
O O4 0.910956 0.716050 0.713056
O O5 0.500000 0.500000 0.500000
O O6 0.431051 0.333694 0.237750
O O7 0.472045 0.434101 0.134729
O O8 0.094059 0.538686 0.935086
O O9 0.270334 0.945581 0.840232
O O10 0.403294 0.763169 0.999005
O O11 0.167503 0.966518 0.024318
O O12 0.961688 0.910066 0.520601
O O13 0.290979 0.406718 0.637650
O O14 0.326280 0.288067 0.336284
O O15 0.338777 0.878338 0.580004
O O16 0.500000 0.000000 0.000000
#
# Coordination Sequence:
#
# PCOD9103420 Si02
#       8
#     2   2   2   2   2   2   1   2
#     4  10  22  44  66  96 133 178 216 273 338 389
#     4  12  24  46  72  96 131 181 222 285 339 380
#     4  10  22  42  64  94 137 169 213 276 324 400
#     4  11  25  44  69  95 134 179 225 276 333 393
#     4  11  24  39  68  99 133 176 215 270 341 394
#     4  10  24  45  66  97 135 169 224 275 330 404
#     4  10  20  38  66  90 132 174 212 260 320 404
#     4  11  23  45  65  99 134 168 230 277 324 407
#
# _framework density 21.594922
#
# number of rings (size 3 to 8) (size 9 to 14) (size 15 to 20)
#    0.000    1.333    4.000    0.800    1.867    3.733 
#    4.800    2.667    0.000    0.000    0.000    0.000 
#    0.000    0.000    0.000    0.000    0.000    0.000 
#
# Total GULP energy -83607.316954 kJ/mol
# GULP energy per Si atom -5573.821130 kJ/mol
# Density = 2.154577 g / cm^3
# Si number density = 21.594922 Si / 1000 Ang^3
#
#
#
# Elastic Constant Matrix: (Units=GPa)
#
#
# Indices 1 2 3 4 5 6 
#
# 1 123.5741 16.8755 20.9556 19.0223 -1.0312 -20.8758
# 2 16.8755 51.3927 28.0932 0.9446 -1.2898 -8.2781
# 3 20.9556 28.0932 72.1720 -3.5722 5.1676 -5.3842
# 4 19.0223 0.9446 -3.5722 26.8891 2.4721 -12.8390
# 5 -1.0312 -1.2898 5.1676 2.4721 33.0615 6.6299
# 6 -20.8758 -8.2781 -5.3842 -12.8390 6.6299 48.6788
#
#
#
# Elastic Compliance Matrix: (Units=1/GPa)
#
#
# Indices 1 2 3 4 5 6 
#
# 1 0.010075 -0.001431 -0.002602 -0.006559 0.000763 0.001956
# 2 -0.001431 0.025560 -0.009510 -0.000205 0.001982 0.002357
# 3 -0.002602 -0.009510 0.019004 0.005776 -0.004147 0.001457
# 4 -0.006559 -0.000205 0.005776 0.048811 -0.007098 0.011632
# 5 0.000763 0.001982 -0.004147 -0.007098 0.032755 -0.006128
# 6 0.001956 0.002357 0.001457 0.011632 -0.006128 0.025846
#
#
# Mechanical properties :
#
#
# Convention : Reuss Voigt Hill
#
# Bulk Modulus (GPa) = 36.29287 42.10970 39.20129
# Shear Modulus (GPa) = 25.21150 33.80684 29.50917
#
# Velocity S-wave (km/s) = 3.42054 3.96093 3.70061
# Velocity P-wave (km/s) = 5.69586 6.36088 6.03753
#
# Compressibility (1/GPa) = 0.02755362
#
# Stress axis : x y z
#
# Youngs Moduli (GPa) = 99.25108 39.12433 52.61926
#
# Poissons Ratio (x) = 0.05601 0.13690
# Poissons Ratio (y) = 0.14208 0.50039
# Poissons Ratio (z) = 0.25822 0.37206
#
# Static dielectric constant tensor:
#      x y z
#    x 1.823400 0.022880 -0.040330 
#    y 0.022880 1.810830 -0.019760 
#    z -0.040330 -0.019760 1.760310 
# 
# From -- ./inp_files/93055.got.cif
#   From: 2010.05.17/outbox.cif.g08.bks.cpg/sg2_47_cif.got.tgz:93055.got - 2010.06.03 11:33:40.
