data_PCOD9103344
_publ_section_title
;
Structure prediction by ZEFSAII (Michael W. Deem and Ramdas Pophale) SiO2 
 PCOD9103344
Probable space group: P -1
;
_chemical_formula_sum "Si O2"
_cell_formula_units_Z 14
_cell_length_a 12.067340
_cell_length_b 9.612545
_cell_length_c 7.013730
_cell_angle_alpha 106.099975
_cell_angle_beta 66.663051
_cell_angle_gamma 65.561510
_cell_volume 577.647797
_symmetry_space_group_name_H-M "P -1"
_symmetry_group_IT_number 2
_symmetry_cell_setting 'triclinic'
loop_
_space_group_symop_operation_xyz
x,y,z
-x,-y,-z
loop_
_atom_site_type_symbol
_atom_site_label
_atom_site_fract_x
_atom_site_fract_y
_atom_site_fract_z
Si Si1 0.835273 0.538122 0.777239
Si Si2 0.717141 0.390533 0.251959
Si Si3 0.137436 0.412841 0.653142
Si Si4 0.654201 0.972474 0.433471
Si Si5 0.520503 0.632046 0.166805
Si Si6 0.051938 0.822632 0.296556
Si Si7 0.154553 0.960340 0.800906
O O1 0.832689 0.615600 0.605819
O O2 0.916933 0.323489 0.628917
O O3 0.955610 0.527197 0.833752
O O4 0.669945 0.614587 0.989920
O O5 0.809785 0.467370 0.269971
O O6 0.563208 0.550379 0.322336
O O7 0.744161 0.256493 0.349972
O O8 0.800180 0.260894 0.962195
O O9 0.244984 0.220280 0.605642
O O10 0.606958 0.152017 0.655239
O O11 0.732196 0.990755 0.197486
O O12 0.500000 0.000000 0.500000
O O13 0.500000 0.500000 0.000000
O O14 0.000000 0.000000 0.500000
O O15 0.916166 0.899749 0.273011
O O16 0.000000 0.000000 0.000000
#
# Coordination Sequence:
#
# PCOD9103344 Si02
#       7
#     2   2   2   2   2   2   2
#     4  10  24  43  71 103 146 191 239 307 363 441
#     4  10  23  41  70 103 139 193 242 297 358 444
#     4  11  23  45  75 107 141 194 250 299 368 435
#     4  12  26  47  74 107 148 190 244 308 366 433
#     4  11  27  45  69 106 151 193 237 305 377 429
#     4  10  20  38  66 100 138 177 238 298 353 415
#     4  10  23  43  69 107 135 185 243 299 352 436
#
# _framework density 24.236221
#
# number of rings (size 3 to 8) (size 9 to 14) (size 15 to 20)
#    0.000    1.429    2.857    0.857    6.000    6.857 
#    0.000    2.857    0.000    0.000    0.000    0.000 
#    0.000    0.000    0.000    0.000    0.000    0.000 
#
# Total GULP energy -77947.903536 kJ/mol
# GULP energy per Si atom -5567.707395 kJ/mol
# Density = 2.418106 g / cm^3
# Si number density = 24.236221 Si / 1000 Ang^3
#
#
#
# Elastic Constant Matrix: (Units=GPa)
#
#
# Indices 1 2 3 4 5 6 
#
# 1 142.2608 55.5824 40.8077 -3.6132 -29.2667 9.2845
# 2 55.5824 182.9110 38.1997 14.6034 -25.3429 5.0772
# 3 40.8077 38.1997 77.4781 27.2177 -18.0779 2.0668
# 4 -3.6132 14.6034 27.2177 40.7350 0.9635 -8.2240
# 5 -29.2667 -25.3429 -18.0779 0.9635 46.1027 2.1785
# 6 9.2845 5.0772 2.0668 -8.2240 2.1785 43.2583
#
#
#
# Elastic Compliance Matrix: (Units=1/GPa)
#
#
# Indices 1 2 3 4 5 6 
#
# 1 0.010155 -0.001881 -0.005352 0.004885 0.003256 -0.000938
# 2 -0.001881 0.006756 -0.001073 -0.002095 0.002183 -0.000846
# 3 -0.005352 -0.001073 0.023513 -0.016601 0.005735 -0.003294
# 4 0.004885 -0.002095 -0.016601 0.038495 -0.005724 0.007597
# 5 0.003256 0.002183 0.005735 -0.005724 0.027501 -0.003702
# 6 -0.000938 -0.000846 -0.003294 0.007597 -0.003702 0.025206
#
#
# Mechanical properties :
#
#
# Convention : Reuss Voigt Hill
#
# Bulk Modulus (GPa) = 41.99613 74.64771 58.32192
# Shear Modulus (GPa) = 32.01568 43.88986 37.95277
#
# Velocity S-wave (km/s) = 3.63848 4.26011 3.96150
# Velocity P-wave (km/s) = 5.91750 7.42058 6.71125
#
# Compressibility (1/GPa) = 0.02381172
#
# Stress axis : x y z
#
# Youngs Moduli (GPa) = 98.47688 148.02022 42.53011
#
# Poissons Ratio (x) = 0.27839 0.22764
# Poissons Ratio (y) = 0.18521 0.04561
# Poissons Ratio (z) = 0.52709 0.15876
#
# Static dielectric constant tensor:
#      x y z
#    x 2.138740 0.034650 -0.115220 
#    y 0.034650 1.928930 -0.067100 
#    z -0.115220 -0.067100 2.274160 
# 
# From -- ./inp_files/244968.got.cif
#   From: 2010.05.17/outbox.cif.g08.bks.cpg/sg2_123_cif.got.tgz:244968.got - 2010.06.03 11:33:40.
