data_PCOD9103225
_publ_section_title
;
Structure prediction by ZEFSAII (Michael W. Deem and Ramdas Pophale) SiO2 
 PCOD9103225
Probable space group: P -1
;
_chemical_formula_sum "Si O2"
_cell_formula_units_Z 14
_cell_length_a 22.252952
_cell_length_b 15.331979
_cell_length_c 9.283152
_cell_angle_alpha 150.383404
_cell_angle_beta 151.823940
_cell_angle_gamma 28.852282
_cell_volume 652.595679
_symmetry_space_group_name_H-M "P -1"
_symmetry_group_IT_number 2
_symmetry_cell_setting 'triclinic'
loop_
_space_group_symop_operation_xyz
x,y,z
-x,-y,-z
loop_
_atom_site_type_symbol
_atom_site_label
_atom_site_fract_x
_atom_site_fract_y
_atom_site_fract_z
Si Si1 0.054427 0.852465 0.767083
Si Si2 0.497512 0.324213 0.332282
Si Si3 0.907471 0.538028 0.575258
Si Si4 0.466023 0.049023 0.327744
Si Si5 0.214265 0.351703 0.841995
Si Si6 0.685992 0.098701 0.665255
Si Si7 0.136761 0.273479 0.980658
O O1 0.125046 0.628355 0.659129
O O2 0.920571 0.868781 0.414152
O O3 0.169376 0.890057 0.973916
O O4 0.000000 0.000000 0.000000
O O5 0.500000 0.500000 0.500000
O O6 0.615185 0.247204 0.595556
O O7 0.347466 0.393675 0.199896
O O8 0.512508 0.147328 0.000255
O O9 0.845901 0.576020 0.341195
O O10 0.079348 0.451404 0.804336
O O11 0.845572 0.736515 0.823710
O O12 0.574018 0.120583 0.585442
O O13 0.500000 0.000000 0.500000
O O14 0.298134 0.212726 0.183071
O O15 0.268918 0.116677 0.619465
O O16 0.000000 0.500000 0.000000
#
# Coordination Sequence:
#
# PCOD9103225 Si02
#       7
#     2   2   2   2   2   2   2
#     4  11  21  39  64  95 130 170 225 275 328 392
#     4  11  24  42  68  96 131 169 232 273 332 398
#     4  10  21  39  63  91 134 164 224 263 336 387
#     4  11  24  46  69  97 138 179 220 279 341 399
#     4  10  20  38  65  93 123 178 212 274 322 405
#     4  11  23  40  71  97 129 176 228 269 340 394
#     4  10  23  39  65  94 131 175 215 271 331 393
#
# _framework density 21.452794000000001
#
# number of rings (size 3 to 8) (size 9 to 14) (size 15 to 20)
#    0.000    1.429    1.429    5.143    6.000    1.143 
#    2.571    5.000    0.000    0.000    0.000    0.000 
#    0.000    0.000    0.000    0.000    0.000    0.000 
#
# Total GULP energy -78154.827820 kJ/mol
# GULP energy per Si atom -5582.487701 kJ/mol
# Density = 2.140397 g / cm^3
# Si number density = 21.452794 Si / 1000 Ang^3
#
#
#
# Elastic Constant Matrix: (Units=GPa)
#
#
# Indices 1 2 3 4 5 6 
#
# 1 121.0229 25.5175 47.5178 0.0924 20.4747 -15.9815
# 2 25.5175 70.5116 11.9844 -9.9199 19.7652 -8.3647
# 3 47.5178 11.9844 100.3914 -6.2991 16.5977 -16.3238
# 4 0.0924 -9.9199 -6.2991 25.3417 -5.9433 9.5981
# 5 20.4747 19.7652 16.5977 -5.9433 46.5349 -3.7754
# 6 -15.9815 -8.3647 -16.3238 9.5981 -3.7754 43.1576
#
#
#
# Elastic Compliance Matrix: (Units=1/GPa)
#
#
# Indices 1 2 3 4 5 6 
#
# 1 0.011389 -0.002905 -0.004453 -0.003854 -0.002469 0.002611
# 2 -0.002905 0.017570 0.000700 0.005391 -0.005672 0.000899
# 3 -0.004453 0.000700 0.012964 0.001884 -0.002498 0.002753
# 4 -0.003854 0.005391 0.001884 0.046643 0.003904 -0.009701
# 5 -0.002469 -0.005672 -0.002498 0.003904 0.026250 -0.001530
# 6 0.002611 0.000899 0.002753 -0.009701 -0.001530 0.027377
#
#
# Mechanical properties :
#
#
# Convention : Reuss Voigt Hill
#
# Bulk Modulus (GPa) = 34.95696 51.32946 43.14321
# Shear Modulus (GPa) = 30.29471 36.80058 33.54765
#
# Velocity S-wave (km/s) = 3.76194 4.14626 3.95877
# Velocity P-wave (km/s) = 5.93294 6.84840 6.40704
#
# Compressibility (1/GPa) = 0.02860661
#
# Stress axis : x y z
#
# Youngs Moduli (GPa) = 87.80113 56.91648 77.13684
#
# Poissons Ratio (x) = 0.16535 0.34349
# Poissons Ratio (y) = 0.25507 -0.05399
# Poissons Ratio (z) = 0.39098 -0.03984
#
# Static dielectric constant tensor:
#      x y z
#    x 1.811680 0.004450 -0.041410 
#    y 0.004450 1.917430 -0.123610 
#    z -0.041410 -0.123610 1.873360 
# 
# From -- ./inp_files/347736.got.cif
#   From: 2010.05.17/outbox.cif.g08.bks.cpg/sg2_174_cif.got.tgz:347736.got - 2010.06.03 11:33:40.
