data_PCOD9103477
_publ_section_title
;
Structure prediction by ZEFSAII (Michael W. Deem and Ramdas Pophale) SiO2 
 PCOD9103477
Probable space group: P -1
;
_chemical_formula_sum "Si O2"
_cell_formula_units_Z 16
_cell_length_a 5.132286
_cell_length_b 17.747564
_cell_length_c 19.377087
_cell_angle_alpha 153.508564
_cell_angle_beta 88.664878
_cell_angle_gamma 105.252286
_cell_volume 660.855755
_symmetry_space_group_name_H-M "P -1"
_symmetry_group_IT_number 2
_symmetry_cell_setting 'triclinic'
loop_
_space_group_symop_operation_xyz
x,y,z
-x,-y,-z
loop_
_atom_site_type_symbol
_atom_site_label
_atom_site_fract_x
_atom_site_fract_y
_atom_site_fract_z
Si Si1 0.967258 0.935776 0.754156
Si Si2 0.111103 0.680561 0.775104
Si Si3 0.669958 0.084718 0.459990
Si Si4 0.353489 0.187159 0.665479
Si Si5 0.317828 0.820516 0.042204
Si Si6 0.561473 0.322068 0.551554
Si Si7 0.652513 0.716214 0.713505
Si Si8 0.341811 0.448762 0.776547
O O1 0.730652 0.751368 0.555891
O O2 0.841804 0.874808 0.782440
O O3 0.912979 0.112484 0.878483
O O4 0.321795 0.007086 0.806548
O O5 0.273601 0.782796 0.929543
O O6 0.370876 0.721011 0.751888
O O7 0.868825 0.447285 0.606272
O O8 0.888366 0.741807 0.792817
O O9 0.582377 0.862658 0.299190
O O10 0.565417 0.159244 0.587508
O O11 0.530003 0.132517 0.435419
O O12 0.036508 0.240604 0.581544
O O13 0.394974 0.392379 0.806636
O O14 0.000000 0.000000 0.500000
O O15 0.278084 0.623708 0.916121
O O16 0.582610 0.470299 0.733952
O O17 0.500000 0.500000 0.500000
#
# Coordination Sequence:
#
# PCOD9103477 Si02
#       8
#     2   2   2   2   2   2   2   2
#     4  12  29  43  65  97 135 169 219 275 339 386
#     4  12  25  44  72  91 127 173 225 265 328 398
#     4   9  17  32  64  95 127 161 222 270 311 365
#     4   8  16  31  56 102 127 160 210 280 305 367
#     4  12  27  44  64  99 135 173 213 271 334 393
#     4  11  23  39  68  96 126 173 224 272 317 394
#     4  12  26  44  70  95 124 168 223 282 328 382
#     4  10  20  38  66  93 130 172 219 261 323 384
#
# _framework density 24.211034000000001
#
# number of rings (size 3 to 8) (size 9 to 14) (size 15 to 20)
#    0.000    1.250    2.500    3.375    5.250    3.000 
#    0.000    0.000    0.000    1.500    0.000    0.000 
#    0.000    0.000    0.000    0.000    0.000    0.000 
#
# Total GULP energy -89491.765076 kJ/mol
# GULP energy per Si atom -5593.235317 kJ/mol
# Density = 2.415593 g / cm^3
# Si number density = 24.211034 Si / 1000 Ang^3
#
#
#
# Elastic Constant Matrix: (Units=GPa)
#
#
# Indices 1 2 3 4 5 6 
#
# 1 90.5835 29.3253 25.8929 4.0319 14.5662 -10.7569
# 2 29.3253 106.0572 21.3922 31.9179 0.0018 -25.2931
# 3 25.8929 21.3922 55.0313 1.1717 -0.5986 -12.0549
# 4 4.0319 31.9179 1.1717 25.6631 -14.6037 -5.8602
# 5 14.5662 0.0018 -0.5986 -14.6037 38.6858 6.6791
# 6 -10.7569 -25.2931 -12.0549 -5.8602 6.6791 54.0266
#
#
#
# Elastic Compliance Matrix: (Units=1/GPa)
#
#
# Indices 1 2 3 4 5 6 
#
# 1 0.014786 -0.001018 -0.006211 -0.004838 -0.007751 0.001515
# 2 -0.001018 0.023152 -0.006359 -0.034701 -0.014057 0.007191
# 3 -0.006211 -0.006359 0.023718 0.012151 0.007029 0.001527
# 4 -0.004838 -0.034701 0.012151 0.104915 0.043074 -0.008443
# 5 -0.007751 -0.014057 0.007029 0.043074 0.046454 -0.007627
# 6 0.001515 0.007191 0.001527 -0.008443 -0.007627 0.022545
#
#
# Mechanical properties :
#
#
# Convention : Reuss Voigt Hill
#
# Bulk Modulus (GPa) = 29.00304 44.98807 36.99555
# Shear Modulus (GPa) = 18.23219 35.34585 26.78902
#
# Velocity S-wave (km/s) = 2.74716 3.82502 3.32999
# Velocity P-wave (km/s) = 4.69764 6.17492 5.48623
#
# Compressibility (1/GPa) = 0.03447915
#
# Stress axis : x y z
#
# Youngs Moduli (GPa) = 67.63065 43.19334 42.16190
#
# Poissons Ratio (x) = 0.04398 0.26185
# Poissons Ratio (y) = 0.06887 0.26813
# Poissons Ratio (z) = 0.42003 0.27469
#
# Static dielectric constant tensor:
#      x y z
#    x 2.001260 -0.016280 -0.019190 
#    y -0.016280 1.965720 0.071210 
#    z -0.019190 0.071210 1.997900 
# 
# From -- ./inp_files/583983.got.cif
#   From: 2010.05.17/outbox.cif.g08.bks.cpg/sg2_292_cif.got.tgz:583983.got - 2010.06.03 11:33:40.
