data_PCOD9103311
_publ_section_title
;
Structure prediction by ZEFSAII (Michael W. Deem and Ramdas Pophale) SiO2 
 PCOD9103311
Probable space group: P -1
;
_chemical_formula_sum "Si O2"
_cell_formula_units_Z 16
_cell_length_a 20.699588
_cell_length_b 9.218306
_cell_length_c 5.242568
_cell_angle_alpha 81.193508
_cell_angle_beta 120.286593
_cell_angle_gamma 108.157632
_cell_volume 820.799378
_symmetry_space_group_name_H-M "P -1"
_symmetry_group_IT_number 2
_symmetry_cell_setting 'triclinic'
loop_
_space_group_symop_operation_xyz
x,y,z
-x,-y,-z
loop_
_atom_site_type_symbol
_atom_site_label
_atom_site_fract_x
_atom_site_fract_y
_atom_site_fract_z
Si Si1 0.215834 0.175177 0.655716
Si Si2 0.333092 0.064036 0.646040
Si Si3 0.590925 0.018530 0.664694
Si Si4 0.199223 0.925621 0.083721
Si Si5 0.954771 0.420242 0.679639
Si Si6 0.275540 0.686037 0.157595
Si Si7 0.928628 0.071850 0.822265
Si Si8 0.211882 0.515633 0.592508
O O1 0.198960 0.334686 0.623480
O O2 0.291212 0.190786 0.621387
O O3 0.140431 0.053995 0.420493
O O4 0.229907 0.087644 0.962062
O O5 0.387283 0.078033 0.501598
O O6 0.255648 0.931022 0.439767
O O7 0.377084 0.023924 0.989791
O O8 0.640778 0.193595 0.668313
O O9 0.500000 0.000000 0.500000
O O10 0.215885 0.792294 0.986860
O O11 0.111437 0.904992 0.995229
O O12 0.950600 0.241005 0.705876
O O13 0.868956 0.443445 0.529273
O O14 0.000000 0.500000 0.500000
O O15 0.000000 0.500000 0.000000
O O16 0.246437 0.579341 0.370839
O O17 0.269889 0.591968 0.913888
O O18 0.000000 0.000000 0.000000
#
# Coordination Sequence:
#
# PCOD9103311 Si02
#       8
#     2   2   2   2   2   2   2   2
#     4  11  24  41  67  93 127 177 224 268 324 393
#     4  10  20  38  65  97 127 164 216 260 311 382
#     4  11  22  39  71 106 133 164 214 269 324 388
#     4  10  21  40  67  89 124 171 225 268 319 381
#     4  12  27  44  61  91 132 169 214 283 340 372
#     4  11  22  42  65  96 126 167 215 269 319 384
#     4  11  25  41  65  92 130 173 228 276 335 393
#     4  12  26  41  66  93 131 169 225 267 327 391
#
# _framework density 19.493189000000001
#
# number of rings (size 3 to 8) (size 9 to 14) (size 15 to 20)
#    0.000    1.000    3.750    4.125    7.000    0.500 
#    0.000    0.000    0.000    4.500    0.000    0.000 
#    0.000    0.000    0.000    0.000    0.000    0.000 
#
# Total GULP energy -89321.475392 kJ/mol
# GULP energy per Si atom -5582.592212 kJ/mol
# Density = 1.944882 g / cm^3
# Si number density = 19.493189 Si / 1000 Ang^3
#
#
#
# Elastic Constant Matrix: (Units=GPa)
#
#
# Indices 1 2 3 4 5 6 
#
# 1 135.4406 40.9081 62.8363 -7.8405 10.7379 0.2724
# 2 40.9081 146.0099 44.1699 -16.5396 4.8838 -6.9129
# 3 62.8363 44.1699 112.8530 -2.0781 -2.7865 -3.7976
# 4 -7.8405 -16.5396 -2.0781 24.2841 3.2589 0.5855
# 5 10.7379 4.8838 -2.7865 3.2589 40.6152 -4.5310
# 6 0.2724 -6.9129 -3.7976 0.5855 -4.5310 23.1063
#
#
#
# Elastic Compliance Matrix: (Units=1/GPa)
#
#
# Indices 1 2 3 4 5 6 
#
# 1 0.010791 -0.000937 -0.005749 0.002889 -0.003604 -0.002132
# 2 -0.000937 0.008692 -0.002749 0.005504 -0.001229 0.001779
# 3 -0.005749 -0.002749 0.013233 -0.003083 0.003244 0.002134
# 4 0.002889 0.005504 -0.003083 0.046360 -0.005485 -0.001144
# 5 -0.003604 -0.001229 0.003244 -0.005485 0.027014 0.005644
# 6 -0.002132 0.001779 0.002134 -0.001144 0.005644 0.045322
#
#
# Mechanical properties :
#
#
# Convention : Reuss Voigt Hill
#
# Bulk Modulus (GPa) = 72.22810 76.68135 74.45473
# Shear Modulus (GPa) = 28.58787 34.02707 31.30747
#
# Velocity S-wave (km/s) = 3.83372 4.18256 4.01193
# Velocity P-wave (km/s) = 7.53193 7.92136 7.72910
#
# Compressibility (1/GPa) = 0.01384503
#
# Stress axis : x y z
#
# Youngs Moduli (GPa) = 92.67075 115.04867 75.56695
#
# Poissons Ratio (x) = 0.10784 0.43444
# Poissons Ratio (y) = 0.08686 0.20775
# Poissons Ratio (z) = 0.53277 0.31629
#
# Static dielectric constant tensor:
#      x y z
#    x 1.725190 -0.017360 -0.034530 
#    y -0.017360 1.686670 0.004060 
#    z -0.034530 0.004060 1.761660 
# 
# From -- ./inp_files/55347.got.cif
#   From: 2010.05.17/outbox.cif.g08.bks.cpg/sg2_28_cif.got.tgz:55347.got - 2010.06.03 11:33:40.
