data_PCOD9103804
_publ_section_title
;
Structure prediction by ZEFSAII (Michael W. Deem and Ramdas Pophale) SiO2 
 PCOD9103804
Probable space group: P -1
;
_chemical_formula_sum "Si O2"
_cell_formula_units_Z 16
_cell_length_a 12.306090
_cell_length_b 9.214335
_cell_length_c 8.796825
_cell_angle_alpha 50.222558
_cell_angle_beta 60.642640
_cell_angle_gamma 78.498645
_cell_volume 658.364779
_symmetry_space_group_name_H-M "P -1"
_symmetry_group_IT_number 2
_symmetry_cell_setting 'triclinic'
loop_
_space_group_symop_operation_xyz
x,y,z
-x,-y,-z
loop_
_atom_site_type_symbol
_atom_site_label
_atom_site_fract_x
_atom_site_fract_y
_atom_site_fract_z
Si Si1 0.945696 0.022745 0.689952
Si Si2 0.208021 0.585406 0.053047
Si Si3 0.054567 0.568825 0.581266
Si Si4 0.800349 0.978735 0.307333
Si Si5 0.415082 0.558770 0.668518
Si Si6 0.574909 0.391643 0.899759
Si Si7 0.772315 0.715308 0.214651
Si Si8 0.441806 0.996011 0.371655
O O1 0.881453 0.211326 0.610622
O O2 0.066439 0.060182 0.695731
O O3 0.000000 0.000000 0.500000
O O4 0.850320 0.847609 0.943332
O O5 0.075337 0.447708 0.221646
O O6 0.307308 0.556224 0.875132
O O7 0.279714 0.565428 0.176681
O O8 0.183458 0.802014 0.906955
O O9 0.000000 0.500000 0.500000
O O10 0.141459 0.433566 0.684808
O O11 0.752969 0.846128 0.285419
O O12 0.698169 0.958455 0.527713
O O13 0.350645 0.402644 0.699399
O O14 0.438217 0.782241 0.455779
O O15 0.532222 0.480676 0.717121
O O16 0.522618 0.165884 0.106530
O O17 0.500000 0.500000 0.000000
O O18 0.500000 0.000000 0.500000
#
# Coordination Sequence:
#
# PCOD9103804 Si02
#       8
#     2   2   2   2   2   2   2   2
#     4  12  27  41  69 100 132 181 228 273 325 402
#     4  10  21  41  68  94 126 175 227 273 323 387
#     4  12  25  42  67  98 135 181 220 264 342 403
#     4  11  23  43  68  94 134 182 209 281 339 389
#     4  10  24  39  66  96 128 173 213 281 326 387
#     4  10  20  38  68  95 125 164 225 276 322 384
#     4  12  26  46  61 100 148 169 218 279 340 400
#     4  11  21  41  69  96 122 169 234 267 323 396
#
# _framework density 24.302636
#
# number of rings (size 3 to 8) (size 9 to 14) (size 15 to 20)
#    0.000    1.000    6.250    1.875    8.750    1.000 
#    0.000    1.250    0.000    0.000    0.000    0.000 
#    0.000    0.000    0.000    0.000    0.000    0.000 
#
# Total GULP energy -89676.928887 kJ/mol
# GULP energy per Si atom -5604.808055 kJ/mol
# Density = 2.424732 g / cm^3
# Si number density = 24.302636 Si / 1000 Ang^3
#
#
#
# Elastic Constant Matrix: (Units=GPa)
#
#
# Indices 1 2 3 4 5 6 
#
# 1 58.3763 10.9955 18.8476 -0.1154 11.1407 4.9077
# 2 10.9955 127.7344 55.3627 -5.5796 14.8510 16.2687
# 3 18.8476 55.3627 125.2483 -11.2414 16.3316 0.8062
# 4 -0.1154 -5.5796 -11.2414 29.8958 -6.3688 -1.9190
# 5 11.1407 14.8510 16.3316 -6.3688 25.4843 -5.2093
# 6 4.9077 16.2687 0.8062 -1.9190 -5.2093 40.6727
#
#
#
# Elastic Compliance Matrix: (Units=1/GPa)
#
#
# Indices 1 2 3 4 5 6 
#
# 1 0.019815 0.000754 -0.002358 -0.002864 -0.009113 -0.003948
# 2 0.000754 0.010818 -0.004279 -0.001013 -0.005176 -0.005044
# 3 -0.002358 -0.004279 0.010781 0.002851 -0.002342 0.001617
# 4 -0.002864 -0.001013 0.002851 0.036676 0.009937 0.003698
# 5 -0.009113 -0.005176 -0.002342 0.009937 0.052348 0.010390
# 6 -0.003948 -0.005044 0.001617 0.003698 0.010390 0.028554
#
#
# Mechanical properties :
#
#
# Convention : Reuss Voigt Hill
#
# Bulk Modulus (GPa) = 33.72958 53.53008 43.62983
# Shear Modulus (GPa) = 27.67909 34.28746 30.98328
#
# Velocity S-wave (km/s) = 3.37847 3.76021 3.57444
# Velocity P-wave (km/s) = 5.39702 6.39738 5.91838
#
# Compressibility (1/GPa) = 0.02964757
#
# Stress axis : x y z
#
# Youngs Moduli (GPa) = 50.46652 92.43481 92.75360
#
# Poissons Ratio (x) = -0.06967 0.21874
# Poissons Ratio (y) = -0.03804 0.39689
# Poissons Ratio (z) = 0.11902 0.39553
#
# Static dielectric constant tensor:
#      x y z
#    x 1.926780 -0.006370 -0.029640 
#    y -0.006370 1.931840 0.045000 
#    z -0.029640 0.045000 1.979720 
# 
# From -- ./inp_files/242037.got.cif
#   From: 2010.05.17/outbox.cif.g08.bks.cpg/sg2_122_cif.got.tgz:242037.got - 2010.06.03 11:33:40.
