data_PCOD9103095
_publ_section_title
;
Structure prediction by ZEFSAII (Michael W. Deem and Ramdas Pophale) SiO2 
 PCOD9103095
Probable space group: P -1
;
_chemical_formula_sum "Si O2"
_cell_formula_units_Z 14
_cell_length_a 8.207980
_cell_length_b 12.190583
_cell_length_c 12.221394
_cell_angle_alpha 146.880337
_cell_angle_beta 105.250020
_cell_angle_gamma 63.007690
_cell_volume 577.903037
_symmetry_space_group_name_H-M "P -1"
_symmetry_group_IT_number 2
_symmetry_cell_setting 'triclinic'
loop_
_space_group_symop_operation_xyz
x,y,z
-x,-y,-z
loop_
_atom_site_type_symbol
_atom_site_label
_atom_site_fract_x
_atom_site_fract_y
_atom_site_fract_z
Si Si1 0.606572 0.209753 0.667989
Si Si2 0.493119 0.237698 0.225792
Si Si3 0.591641 0.354149 0.567053
Si Si4 0.056407 0.503564 0.389854
Si Si5 0.695964 0.633773 0.081190
Si Si6 0.019217 0.105203 0.435409
Si Si7 0.051917 0.306320 0.997620
O O1 0.516149 0.257545 0.571496
O O2 0.474382 0.200237 0.734179
O O3 0.811556 0.998258 0.535176
O O4 0.638338 0.433298 0.879150
O O5 0.601584 0.230724 0.350656
O O6 0.530912 0.379713 0.254243
O O7 0.280181 0.415768 0.362766
O O8 0.500000 0.000000 0.000000
O O9 0.808980 0.281920 0.581560
O O10 0.045473 0.344495 0.158230
O O11 0.000000 0.500000 0.500000
O O12 0.941870 0.754284 0.534069
O O13 0.882400 0.525092 0.098497
O O14 0.759761 0.719741 0.055340
O O15 0.994684 0.896187 0.209607
#
# Coordination Sequence:
#
# PCOD9103095 Si02
#       7
#     2   2   2   2   2   2   2
#     4  10  20  38  65 103 135 168 221 279 334 392
#     4  10  22  43  64  95 130 179 221 266 328 394
#     4  10  21  38  68  94 132 172 220 269 329 395
#     4  11  25  44  66  99 132 170 231 280 321 399
#     4   9  20  38  64 100 134 175 216 270 329 407
#     4  10  22  43  65  96 134 177 212 276 341 398
#     4  10  21  42  67  91 135 179 214 265 344 391
#
# _framework density 24.225518999999998
#
# number of rings (size 3 to 8) (size 9 to 14) (size 15 to 20)
#    0.000    2.000    0.000    3.000    2.000    2.857 
#   12.857    2.857    0.000    2.571    0.000    0.000 
#    0.000    0.000    0.000    0.000    0.000    0.000 
#
# Total GULP energy -78224.072044 kJ/mol
# GULP energy per Si atom -5587.433717 kJ/mol
# Density = 2.417038 g / cm^3
# Si number density = 24.225519 Si / 1000 Ang^3
#
#
#
# Elastic Constant Matrix: (Units=GPa)
#
#
# Indices 1 2 3 4 5 6 
#
# 1 54.9862 31.2989 37.2267 -9.0043 3.8667 6.1961
# 2 31.2989 175.3001 65.1214 -5.6802 -0.4940 21.2845
# 3 37.2267 65.1214 126.5736 -1.0502 12.1959 21.8932
# 4 -9.0043 -5.6802 -1.0502 46.7620 6.8051 -2.4899
# 5 3.8667 -0.4940 12.1959 6.8051 31.8633 5.1865
# 6 6.1961 21.2845 21.8932 -2.4899 5.1865 43.9622
#
#
#
# Elastic Compliance Matrix: (Units=1/GPa)
#
#
# Indices 1 2 3 4 5 6 
#
# 1 0.024203 -0.002069 -0.006025 0.004595 -0.001818 0.001066
# 2 -0.002069 0.007463 -0.003061 0.000063 0.001852 -0.002012
# 3 -0.006025 -0.003061 0.012134 -0.000974 -0.003201 -0.003389
# 4 0.004595 0.000063 -0.000974 0.023136 -0.005411 0.001756
# 5 -0.001818 0.001852 -0.003201 -0.005411 0.034573 -0.003432
# 6 0.001066 -0.002012 -0.003389 0.001756 -0.003432 0.025763
#
#
# Mechanical properties :
#
#
# Convention : Reuss Voigt Hill
#
# Bulk Modulus (GPa) = 46.53285 69.35046 57.94165
# Shear Modulus (GPa) = 31.89897 39.39836 35.64866
#
# Velocity S-wave (km/s) = 3.63264 4.03714 3.84022
# Velocity P-wave (km/s) = 6.06998 7.10074 6.60550
#
# Compressibility (1/GPa) = 0.02149019
#
# Stress axis : x y z
#
# Youngs Moduli (GPa) = 41.31665 134.00322 82.41315
#
# Poissons Ratio (x) = 0.27722 0.49655
# Poissons Ratio (y) = 0.08547 0.25226
# Poissons Ratio (z) = 0.24894 0.41017
#
# Static dielectric constant tensor:
#      x y z
#    x 2.053610 0.119200 0.043030 
#    y 0.119200 2.106260 0.000750 
#    z 0.043030 0.000750 1.941800 
# 
# From -- ./inp_files/391614.got.cif
#   From: 2010.05.17/outbox.cif.g08.bks.cpg/sg2_196_cif.got.tgz:391614.got - 2010.06.03 11:33:40.
