data_PCOD9103061
_publ_section_title
;
Structure prediction by ZEFSAII (Michael W. Deem and Ramdas Pophale) SiO2 
 PCOD9103061
Probable space group: P -1
;
_chemical_formula_sum "Si O2"
_cell_formula_units_Z 11
_cell_length_a 15.635322
_cell_length_b 7.897768
_cell_length_c 11.423545
_cell_angle_alpha 48.248258
_cell_angle_beta 152.377412
_cell_angle_gamma 116.109572
_cell_volume 439.721343
_symmetry_space_group_name_H-M "P -1"
_symmetry_group_IT_number 2
_symmetry_cell_setting 'triclinic'
loop_
_space_group_symop_operation_xyz
x,y,z
-x,-y,-z
loop_
_atom_site_type_symbol
_atom_site_label
_atom_site_fract_x
_atom_site_fract_y
_atom_site_fract_z
Si Si1 0.583829 0.725483 0.290634
Si Si2 0.065868 0.009351 0.909514
Si Si3 0.139876 0.460953 0.490927
Si Si4 0.500000 0.000000 0.500000
Si Si5 0.808979 0.072967 0.151650
Si Si6 0.208046 0.260142 0.225885
O O1 0.690807 0.543910 0.395200
O O2 0.741397 0.693501 0.601283
O O3 0.500000 0.000000 0.000000
O O4 0.389805 0.719038 0.122183
O O5 0.123622 0.878899 0.914206
O O6 0.926834 0.312478 0.602473
O O7 0.925450 0.899168 0.852612
O O8 0.282977 0.976487 0.236619
O O9 0.216588 0.188944 0.767673
O O10 0.941261 0.515290 0.143346
O O11 0.577576 0.876170 0.519176
O O12 0.000000 0.000000 0.500000
#
# Coordination Sequence:
#
# PCOD9103061 Si02
#       6
#     2   2   2   1   2   2
#     4  10  21  41  64  91 132 174 211 264 321 382
#     4  11  22  42  69  95 133 168 217 266 325 381
#     4  10  22  40  65  96 129 167 217 268 320 384
#     4  10  20  38  64  98 126 168 208 262 318 374
#     4  11  23  44  63  95 132 177 214 267 322 385
#     4  11  22  43  69  95 133 169 216 267 325 383
#
# _framework density 25.015843
#
# number of rings (size 3 to 8) (size 9 to 14) (size 15 to 20)
#    0.000    1.455    1.818    5.455    0.000    0.000 
#   13.091    6.364    0.000    0.000    0.000    0.000 
#    0.000    0.000    0.000    0.000    0.000    0.000 
#
# Total GULP energy -61260.624988 kJ/mol
# GULP energy per Si atom -5569.147726 kJ/mol
# Density = 2.495891 g / cm^3
# Si number density = 25.015843 Si / 1000 Ang^3
#
#
#
# Elastic Constant Matrix: (Units=GPa)
#
#
# Indices 1 2 3 4 5 6 
#
# 1 168.0163 19.0028 39.9804 -2.0591 56.4243 2.8990
# 2 19.0028 63.4995 22.7063 -1.5134 11.3608 15.7003
# 3 39.9804 22.7063 98.2921 8.4044 22.4862 14.5629
# 4 -2.0591 -1.5134 8.4044 37.4123 3.7210 -4.7563
# 5 56.4243 11.3608 22.4862 3.7210 69.2032 8.4679
# 6 2.8990 15.7003 14.5629 -4.7563 8.4679 34.0756
#
#
#
# Elastic Compliance Matrix: (Units=1/GPa)
#
#
# Indices 1 2 3 4 5 6 
#
# 1 0.008891 -0.001250 -0.002373 0.001994 -0.006721 0.002782
# 2 -0.001250 0.018987 -0.002753 0.000419 -0.000329 -0.007325
# 3 -0.002373 -0.002753 0.012973 -0.003593 -0.001109 -0.004300
# 4 0.001994 0.000419 -0.003593 0.028686 -0.002788 0.005869
# 5 -0.006721 -0.000329 -0.001109 -0.002788 0.021035 -0.004419
# 6 0.002782 -0.007325 -0.004300 0.005869 -0.004419 0.036240
#
#
# Mechanical properties :
#
#
# Convention : Reuss Voigt Hill
#
# Bulk Modulus (GPa) = 35.58848 54.79855 45.19351
# Shear Modulus (GPa) = 33.57276 44.67945 39.12610
#
# Velocity S-wave (km/s) = 3.66739 4.23075 3.95910
# Velocity P-wave (km/s) = 5.67364 6.76895 6.24536
#
# Compressibility (1/GPa) = 0.02809898
#
# Stress axis : x y z
#
# Youngs Moduli (GPa) = 112.46920 52.66857 77.08395
#
# Poissons Ratio (x) = 0.06585 0.18291
# Poissons Ratio (y) = 0.14061 0.21220
# Poissons Ratio (z) = 0.26688 0.14499
#
# Static dielectric constant tensor:
#      x y z
#    x 1.998930 -0.009510 -0.026800 
#    y -0.009510 2.049690 -0.072620 
#    z -0.026800 -0.072620 1.981680 
# 
# From -- ./inp_files/17605.got.cif
#   From: 2010.05.17/outbox.cif.g08.bks.cpg/sg2_9_cif.got.tgz:17605.got - 2010.06.03 11:33:40.
