data_PCOD9103562
_publ_section_title
;
Structure prediction by ZEFSAII (Michael W. Deem and Ramdas Pophale) SiO2 
 PCOD9103562
Probable space group: P -1
;
_chemical_formula_sum "Si O2"
_cell_formula_units_Z 16
_cell_length_a 15.271179
_cell_length_b 7.554740
_cell_length_c 10.375421
_cell_angle_alpha 87.478391
_cell_angle_beta 144.268439
_cell_angle_gamma 80.012411
_cell_volume 651.946424
_symmetry_space_group_name_H-M "P -1"
_symmetry_group_IT_number 2
_symmetry_cell_setting 'triclinic'
loop_
_space_group_symop_operation_xyz
x,y,z
-x,-y,-z
loop_
_atom_site_type_symbol
_atom_site_label
_atom_site_fract_x
_atom_site_fract_y
_atom_site_fract_z
Si Si1 0.855025 0.556708 0.489163
Si Si2 0.779925 0.896601 0.821942
Si Si3 0.500467 0.202817 0.952860
Si Si4 0.013671 0.846581 0.635254
Si Si5 0.254992 0.715676 0.149329
Si Si6 0.134506 0.592924 0.235883
Si Si7 0.205515 0.789023 0.535090
Si Si8 0.521617 0.124298 0.681500
O O1 0.671658 0.645303 0.223953
O O2 0.950727 0.676379 0.539021
O O3 0.855996 0.573862 0.646781
O O4 0.900900 0.331242 0.533733
O O5 0.642321 0.899558 0.556350
O O6 0.175104 0.914975 0.124584
O O7 0.946801 0.725147 0.009761
O O8 0.673592 0.933741 0.828077
O O9 0.640943 0.243896 0.193032
O O10 0.521675 0.182233 0.826257
O O11 0.500000 0.000000 0.000000
O O12 0.178555 0.751360 0.913779
O O13 0.891763 0.988788 0.587761
O O14 0.000000 0.000000 0.500000
O O15 0.207823 0.566228 0.181922
O O16 0.435506 0.713832 0.351697
O O17 0.238780 0.694954 0.437749
#
# Coordination Sequence:
#
# PCOD9103562 Si02
#       8
#     2   2   2   2   2   2   2   2
#     4  10  26  43  64 106 131 184 231 282 341 413
#     4   9  19  39  65  99 138 175 227 277 344 415
#     4  12  23  40  70  95 138 185 231 281 339 416
#     4  12  24  42  69  98 139 179 232 282 344 408
#     4  10  20  38  66  99 133 179 221 283 337 407
#     4  10  22  40  70  97 133 179 226 279 344 401
#     4  10  23  43  65 101 133 179 225 286 340 403
#     4   9  22  36  63 100 134 175 229 274 343 404
#
# _framework density 24.541896000000001
#
# number of rings (size 3 to 8) (size 9 to 14) (size 15 to 20)
#    1.500    0.250    2.500    1.500    3.500    1.000 
#    0.000    0.625    2.750    0.000    0.000    0.000 
#    0.000    0.000    0.000    0.000    0.000    0.000 
#
# Total GULP energy -89173.226393 kJ/mol
# GULP energy per Si atom -5573.326650 kJ/mol
# Density = 2.448604 g / cm^3
# Si number density = 24.541896 Si / 1000 Ang^3
#
#
#
# Elastic Constant Matrix: (Units=GPa)
#
#
# Indices 1 2 3 4 5 6 
#
# 1 98.7845 7.6003 33.0098 12.2022 -7.0295 25.8447
# 2 7.6003 72.7751 19.6572 17.6150 9.1093 23.5234
# 3 33.0098 19.6572 146.6224 28.7382 4.3537 0.1676
# 4 12.2022 17.6150 28.7382 47.3377 -3.0991 4.3172
# 5 -7.0295 9.1093 4.3537 -3.0991 26.4940 -0.9671
# 6 25.8447 23.5234 0.1676 4.3172 -0.9671 37.3885
#
#
#
# Elastic Compliance Matrix: (Units=1/GPa)
#
#
# Indices 1 2 3 4 5 6 
#
# 1 0.014511 0.003303 -0.003458 -0.001616 0.002662 -0.011838
# 2 0.003303 0.021406 -0.002067 -0.006669 -0.007478 -0.015165
# 3 -0.003458 -0.002067 0.008743 -0.004149 -0.001980 0.004080
# 4 -0.001616 -0.006669 -0.004149 0.026700 0.005756 0.002397
# 5 0.002662 -0.007478 -0.001980 0.005756 0.042141 0.003299
# 6 -0.011838 -0.015165 0.004080 0.002397 0.003299 0.044261
#
#
# Mechanical properties :
#
#
# Convention : Reuss Voigt Hill
#
# Bulk Modulus (GPa) = 24.86604 48.74629 36.80616
# Shear Modulus (GPa) = 28.47186 39.43834 33.95510
#
# Velocity S-wave (km/s) = 3.40977 4.01306 3.72365
# Velocity P-wave (km/s) = 5.06518 6.43261 5.78941
#
# Compressibility (1/GPa) = 0.04021550
#
# Stress axis : x y z
#
# Youngs Moduli (GPa) = 68.91488 46.71487 114.37290
#
# Poissons Ratio (x) = -0.15430 0.39555
# Poissons Ratio (y) = -0.22763 0.23642
# Poissons Ratio (z) = 0.23834 0.09656
#
# Static dielectric constant tensor:
#      x y z
#    x 2.111840 0.010050 -0.067200 
#    y 0.010050 2.060170 -0.000950 
#    z -0.067200 -0.000950 1.965390 
# 
# From -- ./inp_files/446155.got.cif
#   From: 2010.05.17/outbox.cif.g08.bks.cpg/sg2_224_cif.got.tgz:446155.got - 2010.06.03 11:33:40.
