data_PCOD9103675
_publ_section_title
;
Structure prediction by ZEFSAII (Michael W. Deem and Ramdas Pophale) SiO2 
 PCOD9103675
Probable space group: P -1
;
_chemical_formula_sum "Si O2"
_cell_formula_units_Z 16
_cell_length_a 11.633970
_cell_length_b 8.893029
_cell_length_c 18.701313
_cell_angle_alpha 38.783430
_cell_angle_beta 141.380437
_cell_angle_gamma 135.291694
_cell_volume 730.419374
_symmetry_space_group_name_H-M "P -1"
_symmetry_group_IT_number 2
_symmetry_cell_setting 'triclinic'
loop_
_space_group_symop_operation_xyz
x,y,z
-x,-y,-z
loop_
_atom_site_type_symbol
_atom_site_label
_atom_site_fract_x
_atom_site_fract_y
_atom_site_fract_z
Si Si1 0.010947 0.473821 0.812375
Si Si2 0.186901 0.257575 0.852491
Si Si3 0.706109 0.802475 0.518259
Si Si4 0.598800 0.245978 0.042385
Si Si5 0.509137 0.314988 0.819543
Si Si6 0.068150 0.620334 0.565110
Si Si7 0.651619 0.528559 0.453167
Si Si8 0.903542 0.278786 0.983858
O O1 0.048385 0.307719 0.827479
O O2 0.846919 0.620860 0.669716
O O3 0.980852 0.312869 0.929355
O O4 0.218603 0.661324 0.854627
O O5 0.400434 0.252592 0.981363
O O6 0.201985 0.463564 0.723151
O O7 0.093924 0.979941 0.883185
O O8 0.649841 0.753625 0.424811
O O9 0.508138 0.701393 0.504032
O O10 0.823239 0.085794 0.487855
O O11 0.590021 0.393094 0.908980
O O12 0.609101 0.971380 0.124813
O O13 0.405280 0.457411 0.662834
O O14 0.688521 0.294839 0.867466
O O15 0.000000 0.500000 0.500000
O O16 0.876913 0.555074 0.545113
O O17 0.000000 0.500000 0.000000
#
# Coordination Sequence:
#
# PCOD9103675 Si02
#       8
#     2   2   2   2   2   2   2   2
#     4  12  22  44  69  98 133 173 228 282 339 407
#     4  11  26  43  61 102 138 173 224 277 354 404
#     4  11  26  44  73 105 132 191 234 278 347 408
#     4  10  22  38  64 100 128 172 220 279 346 396
#     4  10  20  38  67  95 129 167 226 276 331 407
#     4  12  27  46  70 102 145 184 231 289 342 412
#     4  11  23  46  72 101 137 184 236 282 338 418
#     4  11  23  42  69  96 131 175 221 284 342 404
#
# _framework density 21.905225000000002
#
# number of rings (size 3 to 8) (size 9 to 14) (size 15 to 20)
#    0.000    1.000    3.750    2.625    3.500    0.500 
#    2.250    0.000    0.000    0.000    0.000    0.000 
#    0.000    0.000    0.000    0.000    0.000    0.000 
#
# Total GULP energy -89178.256950 kJ/mol
# GULP energy per Si atom -5573.641059 kJ/mol
# Density = 2.185537 g / cm^3
# Si number density = 21.905225 Si / 1000 Ang^3
#
#
#
# Elastic Constant Matrix: (Units=GPa)
#
#
# Indices 1 2 3 4 5 6 
#
# 1 104.4022 37.5729 8.1283 -9.4661 -8.8119 14.1522
# 2 37.5729 125.2549 18.9333 -4.9416 10.4439 7.2023
# 3 8.1283 18.9333 42.5199 -5.4461 0.7181 10.5736
# 4 -9.4661 -4.9416 -5.4461 21.2256 -1.0743 -0.4570
# 5 -8.8119 10.4439 0.7181 -1.0743 28.8732 9.4306
# 6 14.1522 7.2023 10.5736 -0.4570 9.4306 26.3222
#
#
#
# Elastic Compliance Matrix: (Units=1/GPa)
#
#
# Indices 1 2 3 4 5 6 
#
# 1 0.013732 -0.004451 0.002565 0.005995 0.009373 -0.010449
# 2 -0.004451 0.010290 -0.004666 -0.001021 -0.006196 0.003654
# 3 0.002565 -0.004666 0.029508 0.007660 0.006663 -0.014210
# 4 0.005995 -0.001021 0.007660 0.051676 0.006348 -0.007398
# 5 0.009373 -0.006196 0.006663 0.006348 0.047268 -0.022846
# 6 -0.010449 0.003654 -0.014210 -0.007398 -0.022846 0.056374
#
#
# Mechanical properties :
#
#
# Convention : Reuss Voigt Hill
#
# Bulk Modulus (GPa) = 24.73653 44.60512 34.67082
# Shear Modulus (GPa) = 21.23791 29.12038 25.17914
#
# Velocity S-wave (km/s) = 3.11712 3.65002 3.39404
# Velocity P-wave (km/s) = 4.92669 6.17823 5.58761
#
# Compressibility (1/GPa) = 0.04042604
#
# Stress axis : x y z
#
# Youngs Moduli (GPa) = 72.82424 97.17757 33.88911
#
# Poissons Ratio (x) = 0.43254 -0.08693
# Poissons Ratio (y) = 0.32414 0.15813
# Poissons Ratio (z) = -0.18680 0.45344
#
# Static dielectric constant tensor:
#      x y z
#    x 1.857000 0.028880 0.001500 
#    y 0.028880 1.855940 0.014100 
#    z 0.001500 0.014100 1.823220 
# 
# From -- ./inp_files/352166.got.cif
#   From: 2010.05.17/outbox.cif.g08.bks.cpg/sg2_177_cif.got.tgz:352166.got - 2010.06.03 11:33:40.
