data_PCOD9103592
_publ_section_title
;
Structure prediction by ZEFSAII (Michael W. Deem and Ramdas Pophale) SiO2 
 PCOD9103592
Probable space group: P -1
;
_chemical_formula_sum "Si O2"
_cell_formula_units_Z 10
_cell_length_a 9.656750
_cell_length_b 16.027144
_cell_length_c 16.974283
_cell_angle_alpha 17.299956
_cell_angle_beta 139.214837
_cell_angle_gamma 145.401699
_cell_volume 437.122961
_symmetry_space_group_name_H-M "P -1"
_symmetry_group_IT_number 2
_symmetry_cell_setting 'triclinic'
loop_
_space_group_symop_operation_xyz
x,y,z
-x,-y,-z
loop_
_atom_site_type_symbol
_atom_site_label
_atom_site_fract_x
_atom_site_fract_y
_atom_site_fract_z
Si Si1 0.218473 0.275662 0.608243
Si Si2 0.267253 0.326868 0.329710
Si Si3 0.982206 0.171858 0.759385
Si Si4 0.434590 0.852571 0.789027
Si Si5 0.967829 0.466840 0.828204
O O1 0.500000 0.500000 0.500000
O O2 0.065995 0.431644 0.365015
O O3 0.185251 0.245640 0.714638
O O4 0.105259 0.907044 0.860323
O O5 0.228098 0.488431 0.244229
O O6 0.441930 0.175096 0.535549
O O7 0.327379 0.576726 0.059165
O O8 0.000000 0.000000 0.500000
O O9 0.000000 0.500000 0.500000
O O10 0.712342 0.946216 0.806743
O O11 0.000000 0.000000 0.000000
O O12 0.240331 0.704828 0.766773
#
# Coordination Sequence:
#
# PCOD9103592 Si02
#       5
#     2   2   2   2   2
#     4  12  28  46  70 103 143 189 230 290 355 411
#     4  10  20  38  67 109 138 173 224 285 352 408
#     4  12  29  49  70 101 145 191 232 285 355 422
#     4  11  23  42  72 104 138 184 234 288 345 414
#     4  11  23  43  72 103 140 177 239 291 347 407
#
# _framework density 22.876856
#
# number of rings (size 3 to 8) (size 9 to 14) (size 15 to 20)
#    0.000    0.800    0.000    9.000    8.400    1.600 
#    0.000    0.000    0.000    0.000    0.000    0.000 
#    0.000    0.000    0.000    0.000    0.000    0.000 
#
# Total GULP energy -55984.698922 kJ/mol
# GULP energy per Si atom -5598.469892 kJ/mol
# Density = 2.282479 g / cm^3
# Si number density = 22.876856 Si / 1000 Ang^3
#
#
#
# Elastic Constant Matrix: (Units=GPa)
#
#
# Indices 1 2 3 4 5 6 
#
# 1 93.0314 36.8848 15.9328 -3.8007 -20.5418 6.9751
# 2 36.8848 129.7326 39.8326 -7.0673 -14.0785 24.3486
# 3 15.9328 39.8326 124.7924 27.8058 0.9947 -2.1798
# 4 -3.8007 -7.0673 27.8058 28.6221 -11.3400 6.9885
# 5 -20.5418 -14.0785 0.9947 -11.3400 43.5543 1.9117
# 6 6.9751 24.3486 -2.1798 6.9885 1.9117 32.5064
#
#
#
# Elastic Compliance Matrix: (Units=1/GPa)
#
#
# Indices 1 2 3 4 5 6 
#
# 1 0.015114 0.001092 -0.005758 0.014550 0.011764 -0.008267
# 2 0.001092 0.019048 -0.013318 0.029524 0.015658 -0.022663
# 3 -0.005758 -0.013318 0.022019 -0.038100 -0.018407 0.021962
# 4 0.014550 0.029524 -0.038100 0.114259 0.049450 -0.055264
# 5 0.011764 0.015658 -0.018407 0.049450 0.048135 -0.028949
# 6 -0.008267 -0.022663 0.021962 -0.055264 -0.028949 0.064569
#
#
# Mechanical properties :
#
#
# Convention : Reuss Voigt Hill
#
# Bulk Modulus (GPa) = 49.47743 59.20630 54.34187
# Shear Modulus (GPa) = 15.34437 37.93030 26.63733
#
# Velocity S-wave (km/s) = 2.59267 4.07630 3.41600
# Velocity P-wave (km/s) = 5.53509 6.93481 6.27411
#
# Compressibility (1/GPa) = 0.02021124
#
# Stress axis : x y z
#
# Youngs Moduli (GPa) = 66.16306 52.49854 45.41494
#
# Poissons Ratio (x) = -0.05730 0.26151
# Poissons Ratio (y) = -0.07222 0.60486
# Poissons Ratio (z) = 0.38098 0.69920
#
# Static dielectric constant tensor:
#      x y z
#    x 1.868340 0.019720 -0.000760 
#    y 0.019720 1.907140 0.020310 
#    z -0.000760 0.020310 1.794860 
# 
# From -- ./inp_files/15901.got.cif
#   From: 2010.05.17/outbox.cif.g08.bks.cpg/sg2_8_cif.got.tgz:15901.got - 2010.06.03 11:33:40.
