data_PCOD9103833
_publ_section_title
;
Structure prediction by ZEFSAII (Michael W. Deem and Ramdas Pophale) SiO2 
 PCOD9103833
Probable space group: P -1
;
_chemical_formula_sum "Si O2"
_cell_formula_units_Z 14
_cell_length_a 9.204300
_cell_length_b 20.311301
_cell_length_c 14.755915
_cell_angle_alpha 154.453308
_cell_angle_beta 28.873436
_cell_angle_gamma 145.211360
_cell_volume 567.976636
_symmetry_space_group_name_H-M "P -1"
_symmetry_group_IT_number 2
_symmetry_cell_setting 'triclinic'
loop_
_space_group_symop_operation_xyz
x,y,z
-x,-y,-z
loop_
_atom_site_type_symbol
_atom_site_label
_atom_site_fract_x
_atom_site_fract_y
_atom_site_fract_z
Si Si1 0.493217 0.743595 0.043521
Si Si2 0.092382 0.384766 0.226010
Si Si3 0.626808 0.497627 0.526163
Si Si4 0.684332 0.881655 0.507786
Si Si5 0.692705 0.059113 0.379085
Si Si6 0.849943 0.656876 0.273075
Si Si7 0.732813 0.035705 0.001120
O O1 0.573632 0.642960 0.960850
O O2 0.568852 0.651589 0.800075
O O3 0.707272 0.904036 0.121261
O O4 0.150951 0.776131 0.278744
O O5 0.000000 0.500000 0.500000
O O6 0.973490 0.466938 0.306198
O O7 0.925133 0.207115 0.092562
O O8 0.500000 0.500000 0.500000
O O9 0.419932 0.367230 0.537737
O O10 0.736781 0.715843 0.313618
O O11 0.457262 0.945532 0.781490
O O12 0.517742 0.857471 0.470434
O O13 0.000000 0.000000 0.500000
O O14 0.500000 0.000000 0.500000
O O15 0.041846 0.092794 0.264450
O O16 0.000000 0.500000 0.000000
O O17 0.500000 0.000000 0.000000
#
# Coordination Sequence:
#
# PCOD9103833 Si02
#       7
#     2   2   2   2   2   2   2
#     4   9  20  40  64  91 135 176 225 286 348 419
#     4   9  19  40  66  91 133 177 226 285 352 410
#     4  10  20  38  68  97 130 177 230 292 350 422
#     4  12  23  43  72 102 140 194 234 294 364 426
#     4  11  24  44  66 100 141 186 239 298 352 426
#     4  10  21  42  67  95 136 178 232 280 353 422
#     4  11  24  42  69 104 142 184 240 297 358 431
#
# _framework density 24.648900999999999
#
# number of rings (size 3 to 8) (size 9 to 14) (size 15 to 20)
#    0.000    1.714    2.857    1.286    0.000    1.143 
#   10.286    6.429    0.000    0.000    0.000    0.000 
#    0.000    0.000    0.000    0.000    0.000    0.000 
#
# Total GULP energy -78013.273053 kJ/mol
# GULP energy per Si atom -5572.376647 kJ/mol
# Density = 2.459280 g / cm^3
# Si number density = 24.648901 Si / 1000 Ang^3
#
#
#
# Elastic Constant Matrix: (Units=GPa)
#
#
# Indices 1 2 3 4 5 6 
#
# 1 235.7086 34.1775 52.9842 5.9888 -40.4541 -19.6704
# 2 34.1775 46.4663 11.2099 9.8856 -2.5660 2.2694
# 3 52.9842 11.2099 66.8212 -2.7065 -28.0874 -9.0955
# 4 5.9888 9.8856 -2.7065 36.6581 3.5294 -2.3549
# 5 -40.4541 -2.5660 -28.0874 3.5294 52.4629 8.1449
# 6 -19.6704 2.2694 -9.0955 -2.3549 8.1449 40.3519
#
#
#
# Elastic Compliance Matrix: (Units=1/GPa)
#
#
# Indices 1 2 3 4 5 6 
#
# 1 0.006031 -0.003637 -0.002785 -0.000345 0.002702 0.001951
# 2 -0.003637 0.026523 -0.003308 -0.006845 -0.002202 -0.003965
# 3 -0.002785 -0.003308 0.021850 0.002236 0.008915 0.002085
# 4 -0.000345 -0.006845 0.002236 0.029705 -0.001841 0.002826
# 5 0.002702 -0.002202 0.008915 -0.001841 0.026237 -0.001953
# 6 0.001951 -0.003965 0.002085 0.002826 -0.001953 0.026985
#
#
# Mechanical properties :
#
#
# Convention : Reuss Voigt Hill
#
# Bulk Modulus (GPa) = 28.61743 60.63769 44.62756
# Shear Modulus (GPa) = 29.68437 42.60287 36.14362
#
# Velocity S-wave (km/s) = 3.47405 4.16190 3.83343
# Velocity P-wave (km/s) = 5.26567 6.91008 6.14314
#
# Compressibility (1/GPa) = 0.03494374
#
# Stress axis : x y z
#
# Youngs Moduli (GPa) = 165.80342 37.70371 45.76688
#
# Poissons Ratio (x) = 0.13713 0.12745
# Poissons Ratio (y) = 0.60304 0.15141
# Poissons Ratio (z) = 0.46171 0.12473
#
# Static dielectric constant tensor:
#      x y z
#    x 2.120600 0.082360 -0.094540 
#    y 0.082360 2.138370 -0.005130 
#    z -0.094540 -0.005130 2.053800 
# 
# From -- ./inp_files/507940.got.cif
#   From: 2010.05.17/outbox.cif.g08.bks.cpg/sg2_254_cif.got.tgz:507940.got - 2010.06.03 11:33:40.
