data_PCOD9103102
_publ_section_title
;
Structure prediction by ZEFSAII (Michael W. Deem and Ramdas Pophale) SiO2 
 PCOD9103102
Probable space group: P -1
;
_chemical_formula_sum "Si O2"
_cell_formula_units_Z 14
_cell_length_a 8.368913
_cell_length_b 12.183112
_cell_length_c 9.295499
_cell_angle_alpha 108.434184
_cell_angle_beta 108.041276
_cell_angle_gamma 48.740059
_cell_volume 669.064670
_symmetry_space_group_name_H-M "P -1"
_symmetry_group_IT_number 2
_symmetry_cell_setting 'triclinic'
loop_
_space_group_symop_operation_xyz
x,y,z
-x,-y,-z
loop_
_atom_site_type_symbol
_atom_site_label
_atom_site_fract_x
_atom_site_fract_y
_atom_site_fract_z
Si Si1 0.943524 0.330549 0.378707
Si Si2 0.988946 0.064942 0.369588
Si Si3 0.583896 0.177324 0.108551
Si Si4 0.459797 0.546182 0.843386
Si Si5 0.418774 0.349484 0.588253
Si Si6 0.441357 0.883315 0.252440
Si Si7 0.419439 0.148739 0.316511
O O1 0.939780 0.222879 0.438373
O O2 0.796837 0.352829 0.212205
O O3 0.805127 0.498518 0.463532
O O4 0.179924 0.251019 0.355114
O O5 0.810404 0.088697 0.220578
O O6 0.000000 0.000000 0.500000
O O7 0.218016 0.963495 0.309255
O O8 0.482214 0.349713 0.143383
O O9 0.437411 0.156322 0.155034
O O10 0.601210 0.128196 0.929722
O O11 0.546549 0.407238 0.705327
O O12 0.500000 0.500000 0.000000
O O13 0.397549 0.274668 0.690174
O O14 0.515336 0.225339 0.442865
O O15 0.516786 0.984433 0.323560
#
# Coordination Sequence:
#
# PCOD9103102 Si02
#       7
#     2   2   2   2   2   2   2
#     4   8  20  38  61  85 122 154 196 241 300 346
#     4  10  21  39  61  91 116 154 203 249 294 353
#     4  11  21  39  61  87 123 156 201 245 292 361
#     4   9  18  38  61  83 117 154 199 243 300 337
#     4  10  20  38  65  83 118 158 202 244 296 347
#     4  11  22  39  61  85 123 160 195 246 301 350
#     4  11  22  37  59  90 122 161 198 238 300 354
#
# _framework density 20.924731999999999
#
# number of rings (size 3 to 8) (size 9 to 14) (size 15 to 20)
#    0.857    1.143    1.429    2.571    0.000    1.714 
#    2.571    2.857    0.000    0.000    0.000    0.000 
#    0.000    0.000    0.000    0.000    0.000    0.000 
#
# Total GULP energy -78020.340710 kJ/mol
# GULP energy per Si atom -5572.881479 kJ/mol
# Density = 2.087711 g / cm^3
# Si number density = 20.924732 Si / 1000 Ang^3
#
#
#
# Elastic Constant Matrix: (Units=GPa)
#
#
# Indices 1 2 3 4 5 6 
#
# 1 51.6316 38.6002 27.7185 -0.5684 -11.8946 16.8731
# 2 38.6002 137.7637 48.6576 -6.3887 -6.7794 34.4562
# 3 27.7185 48.6576 127.5229 -6.2439 -18.6500 14.6861
# 4 -0.5684 -6.3887 -6.2439 36.1374 7.8879 0.9479
# 5 -11.8946 -6.7794 -18.6500 7.8879 24.7258 -6.6936
# 6 16.8731 34.4562 14.6861 0.9479 -6.6936 28.2853
#
#
#
# Elastic Compliance Matrix: (Units=1/GPa)
#
#
# Indices 1 2 3 4 5 6 
#
# 1 0.029066 -0.005126 -0.002201 -0.002760 0.009753 -0.007551
# 2 -0.005126 0.012691 -0.002972 0.003187 -0.005570 -0.012283
# 3 -0.002201 -0.002972 0.010225 -0.000173 0.006190 0.001095
# 4 -0.002760 0.003187 -0.000173 0.030962 -0.012099 -0.006047
# 5 0.009753 -0.005570 0.006190 -0.012099 0.055173 0.011215
# 6 -0.007551 -0.012283 0.001095 -0.006047 0.011215 0.057110
#
#
# Mechanical properties :
#
#
# Convention : Reuss Voigt Hill
#
# Bulk Modulus (GPa) = 31.86402 60.76342 46.31372
# Shear Modulus (GPa) = 22.09595 31.29251 26.69423
#
# Velocity S-wave (km/s) = 3.25310 3.87134 3.57561
# Velocity P-wave (km/s) = 5.41952 7.00608 6.26324
#
# Compressibility (1/GPa) = 0.03138336
#
# Stress axis : x y z
#
# Youngs Moduli (GPa) = 34.40431 78.79784 97.80084
#
# Poissons Ratio (x) = 0.40392 0.21527
# Poissons Ratio (y) = 0.17636 0.29066
# Poissons Ratio (z) = 0.07573 0.23419
#
# Static dielectric constant tensor:
#      x y z
#    x 1.789450 0.023930 0.053580 
#    y 0.023930 1.802910 0.016320 
#    z 0.053580 0.016320 1.749190 
# 
# From -- ./inp_files/174422.got.cif
#   From: 2010.05.17/outbox.cif.g08.bks.cpg/sg2_88_cif.got.tgz:174422.got - 2010.06.03 11:33:40.
