data_PCOD9103572
_publ_section_title
;
Structure prediction by ZEFSAII (Michael W. Deem and Ramdas Pophale) SiO2 
 PCOD9103572
Probable space group: P -1
;
_chemical_formula_sum "Si O2"
_cell_formula_units_Z 15
_cell_length_a 10.401318
_cell_length_b 20.284413
_cell_length_c 8.075998
_cell_angle_alpha 40.061170
_cell_angle_beta 48.551298
_cell_angle_gamma 31.104719
_cell_volume 566.418903
_symmetry_space_group_name_H-M "P -1"
_symmetry_group_IT_number 2
_symmetry_cell_setting 'triclinic'
loop_
_space_group_symop_operation_xyz
x,y,z
-x,-y,-z
loop_
_atom_site_type_symbol
_atom_site_label
_atom_site_fract_x
_atom_site_fract_y
_atom_site_fract_z
Si Si1 0.964855 0.658753 0.488935
Si Si2 0.632046 0.354457 0.274040
Si Si3 0.137709 0.372688 0.834906
Si Si4 0.315846 0.512032 0.787989
Si Si5 0.233975 0.919270 0.332344
Si Si6 0.485788 0.227854 0.139433
Si Si7 0.000000 0.000000 0.000000
Si Si8 0.156410 0.161838 0.042147
O O1 0.691635 0.747935 0.620417
O O2 0.957093 0.761318 0.187323
O O3 0.079793 0.514810 0.561638
O O4 0.141541 0.595963 0.616330
O O5 0.595985 0.414038 0.374756
O O6 0.576534 0.259549 0.473609
O O7 0.500000 0.500000 0.000000
O O8 0.926225 0.230978 0.223133
O O9 0.235741 0.237380 0.901366
O O10 0.318431 0.300180 0.978163
O O11 0.871555 0.450779 0.984457
O O12 0.520084 0.334474 0.943290
O O13 0.143902 0.958133 0.142517
O O14 0.000000 0.000000 0.500000
O O15 0.320444 0.991660 0.193012
O O16 0.752297 0.066871 0.182606
#
# Coordination Sequence:
#
# PCOD9103572 Si02
#       8
#     2   2   2   2   2   2   1   2
#     4   9  17  35  67 105 135 175 236 291 342 410
#     4  10  22  40  67 100 137 185 236 295 349 413
#     4   8  16  36  63 100 137 176 229 285 340 410
#     4   8  17  34  65  97 134 173 233 295 334 402
#     4  10  26  47  65  97 148 185 229 291 350 431
#     4   9  20  39  65 100 136 179 229 286 346 420
#     4  12  26  46  70  96 148 194 226 274 370 430
#     4  10  20  38  67 100 139 181 226 287 361 415
#
# _framework density 26.482167
#
# number of rings (size 3 to 8) (size 9 to 14) (size 15 to 20)
#    0.000    2.667    0.000    2.000    5.600    2.133 
#    2.400    2.667    0.000    0.000    0.000    0.000 
#    0.000    0.000    0.000    0.000    0.000    0.000 
#
# Total GULP energy -83608.519985 kJ/mol
# GULP energy per Si atom -5573.901332 kJ/mol
# Density = 2.642189 g / cm^3
# Si number density = 26.482167 Si / 1000 Ang^3
#
#
#
# Elastic Constant Matrix: (Units=GPa)
#
#
# Indices 1 2 3 4 5 6 
#
# 1 113.6556 40.0927 46.7214 -24.9949 -12.3032 34.7313
# 2 40.0927 115.8302 30.1033 9.5389 -10.6202 4.6653
# 3 46.7214 30.1033 83.9635 -17.3991 -13.7117 25.8740
# 4 -24.9949 9.5389 -17.3991 45.1438 9.6026 -16.8061
# 5 -12.3032 -10.6202 -13.7117 9.6026 45.8583 -1.4874
# 6 34.7313 4.6653 25.8740 -16.8061 -1.4874 41.1410
#
#
#
# Elastic Compliance Matrix: (Units=1/GPa)
#
#
# Indices 1 2 3 4 5 6 
#
# 1 0.015486 -0.004512 -0.003224 0.004950 0.000834 -0.008482
# 2 -0.004512 0.011579 -0.003232 -0.005730 0.001778 0.002252
# 3 -0.003224 -0.003232 0.018085 0.002572 0.003024 -0.007126
# 4 0.004950 -0.005730 0.002572 0.030982 -0.005480 0.007311
# 5 0.000834 0.001778 0.003024 -0.005480 0.024359 -0.004166
# 6 -0.008482 0.002252 -0.007126 0.007311 -0.004166 0.038530
#
#
# Mechanical properties :
#
#
# Convention : Reuss Voigt Hill
#
# Bulk Modulus (GPa) = 43.07457 60.80934 51.94195
# Shear Modulus (GPa) = 29.63931 39.53075 34.58503
#
# Velocity S-wave (km/s) = 3.34910 3.86778 3.61775
# Velocity P-wave (km/s) = 5.59072 6.55427 6.09158
#
# Compressibility (1/GPa) = 0.02321555
#
# Stress axis : x y z
#
# Youngs Moduli (GPa) = 64.57304 86.36174 55.29329
#
# Poissons Ratio (x) = 0.38967 0.17825
# Poissons Ratio (y) = 0.29135 0.17870
# Poissons Ratio (z) = 0.20817 0.27911
#
# Static dielectric constant tensor:
#      x y z
#    x 2.195400 0.023880 -0.046120 
#    y 0.023880 2.126160 0.016820 
#    z -0.046120 0.016820 2.078030 
# 
# From -- ./inp_files/282690.got.cif
#   From: 2010.05.17/outbox.cif.g08.bks.cpg/sg2_142_cif.got.tgz:282690.got - 2010.06.03 11:33:40.
