data_PCOD9103842
_publ_section_title
;
Structure prediction by ZEFSAII (Michael W. Deem and Ramdas Pophale) SiO2 
 PCOD9103842
Probable space group: P -1
;
_chemical_formula_sum "Si O2"
_cell_formula_units_Z 14
_cell_length_a 14.064093
_cell_length_b 26.977819
_cell_length_c 21.593866
_cell_angle_alpha 12.194010
_cell_angle_beta 21.337359
_cell_angle_gamma 20.693918
_cell_volume 595.317121
_symmetry_space_group_name_H-M "P -1"
_symmetry_group_IT_number 2
_symmetry_cell_setting 'triclinic'
loop_
_space_group_symop_operation_xyz
x,y,z
-x,-y,-z
loop_
_atom_site_type_symbol
_atom_site_label
_atom_site_fract_x
_atom_site_fract_y
_atom_site_fract_z
Si Si1 0.529899 0.400304 0.235120
Si Si2 0.323562 0.458520 0.905644
Si Si3 0.942593 0.986159 0.651839
Si Si4 0.288358 0.030009 0.769694
Si Si5 0.985103 0.157615 0.538657
Si Si6 0.614096 0.655578 0.288347
Si Si7 0.814437 0.743500 0.574655
O O1 0.461859 0.509774 0.211350
O O2 0.331232 0.264896 0.491475
O O3 0.610540 0.600666 0.898775
O O4 0.819363 0.172412 0.343916
O O5 0.173994 0.723623 0.643502
O O6 0.096806 0.376308 0.181669
O O7 0.474373 0.236261 0.038757
O O8 0.080962 0.948940 0.682484
O O9 0.698376 0.870014 0.941808
O O10 0.306470 0.077788 0.626947
O O11 0.000000 0.000000 0.000000
O O12 0.653268 0.227234 0.650812
O O13 0.093305 0.120006 0.589597
O O14 0.500000 0.500000 0.500000
O O15 0.905383 0.463237 0.368625
#
# Coordination Sequence:
#
# PCOD9103842 Si02
#       7
#     2   2   2   2   2   2   2
#     4  10  23  44  67  95 127 174 217 268 324 377
#     4  11  25  43  66  99 133 171 212 270 329 386
#     4  11  21  40  67 103 132 163 214 268 334 385
#     4  12  27  45  64  93 131 178 219 265 322 385
#     4  10  20  38  68  98 125 168 211 267 324 375
#     4   9  20  38  62  97 127 166 208 267 320 371
#     4   9  22  43  64  94 134 169 218 261 315 392
#
# _framework density 23.516877999999998
#
# number of rings (size 3 to 8) (size 9 to 14) (size 15 to 20)
#    0.000    1.714    1.429    2.571    2.000    5.143 
#    5.143    0.000    0.000    0.000    0.000    0.000 
#    0.000    0.000    0.000    0.000    0.000    0.000 
#
# Total GULP energy -78222.208508 kJ/mol
# GULP energy per Si atom -5587.300608 kJ/mol
# Density = 2.346335 g / cm^3
# Si number density = 23.516878 Si / 1000 Ang^3
#
#
#
# Elastic Constant Matrix: (Units=GPa)
#
#
# Indices 1 2 3 4 5 6 
#
# 1 93.7339 -12.2772 32.8513 5.5335 -25.3829 0.1500
# 2 -12.2772 71.2141 17.5009 7.9220 1.2245 -11.3126
# 3 32.8513 17.5009 97.6098 12.6486 -18.3206 -21.3340
# 4 5.5335 7.9220 12.6486 43.7874 -5.1339 -3.8578
# 5 -25.3829 1.2245 -18.3206 -5.1339 38.5623 -5.8250
# 6 0.1500 -11.3126 -21.3340 -3.8578 -5.8250 22.7148
#
#
#
# Elastic Compliance Matrix: (Units=1/GPa)
#
#
# Indices 1 2 3 4 5 6 
#
# 1 0.014607 0.003386 -0.004202 -0.000428 0.007373 -0.000538
# 2 0.003386 0.016336 -0.002262 -0.002057 0.001263 0.005964
# 3 -0.004202 -0.002262 0.017526 -0.001676 0.007997 0.017128
# 4 -0.000428 -0.002057 -0.001676 0.024237 0.002543 0.002173
# 5 0.007373 0.001263 0.007997 0.002543 0.037628 0.018172
# 6 -0.000538 0.005964 0.017128 0.002173 0.018172 0.068114
#
#
# Mechanical properties :
#
#
# Convention : Reuss Voigt Hill
#
# Bulk Modulus (GPa) = 23.63196 37.63417 30.63307
# Shear Modulus (GPa) = 25.16246 35.97841 30.57044
#
# Velocity S-wave (km/s) = 3.27460 3.91563 3.60937
# Velocity P-wave (km/s) = 4.93640 6.03993 5.51583
#
# Compressibility (1/GPa) = 0.04231557
#
# Stress axis : x y z
#
# Youngs Moduli (GPa) = 68.45892 61.21373 57.05730
#
# Poissons Ratio (x) = -0.20728 0.23973
# Poissons Ratio (y) = -0.23181 0.12904
# Poissons Ratio (z) = 0.28764 0.13844
#
# Static dielectric constant tensor:
#      x y z
#    x 1.957470 0.015580 -0.018780 
#    y 0.015580 2.046210 -0.032080 
#    z -0.018780 -0.032080 1.869520 
# 
# From -- ./inp_files/331529.got.cif
#   From: 2010.05.17/outbox.cif.g08.bks.cpg/sg2_166_cif.got.tgz:331529.got - 2010.06.03 11:33:40.
