data_PCOD9103803
_publ_section_title
;
Structure prediction by ZEFSAII (Michael W. Deem and Ramdas Pophale) SiO2 
 PCOD9103803
Probable space group: P -1
;
_chemical_formula_sum "Si O2"
_cell_formula_units_Z 12
_cell_length_a 15.109418
_cell_length_b 8.313795
_cell_length_c 8.944062
_cell_angle_alpha 90.847158
_cell_angle_beta 117.395583
_cell_angle_gamma 39.039424
_cell_volume 496.574121
_symmetry_space_group_name_H-M "P -1"
_symmetry_group_IT_number 2
_symmetry_cell_setting 'triclinic'
loop_
_space_group_symop_operation_xyz
x,y,z
-x,-y,-z
loop_
_atom_site_type_symbol
_atom_site_label
_atom_site_fract_x
_atom_site_fract_y
_atom_site_fract_z
Si Si1 0.623817 0.603708 0.842832
Si Si2 0.357870 0.532267 0.555217
Si Si3 0.761589 0.088322 0.771337
Si Si4 0.806841 0.703829 0.437740
Si Si5 0.184967 0.469443 0.250438
Si Si6 0.796074 0.366026 0.290135
O O1 0.683400 0.361042 0.795680
O O2 0.653817 0.718042 0.759280
O O3 0.399960 0.912020 0.734690
O O4 0.769465 0.403121 0.094320
O O5 0.586137 0.207450 0.669955
O O6 0.251387 0.840454 0.410435
O O7 0.226681 0.569632 0.386400
O O8 0.364613 0.511189 0.737998
O O9 0.976275 0.754271 0.002446
O O10 0.826912 0.650424 0.632846
O O11 0.774123 0.577710 0.332295
O O12 0.000000 0.500000 0.500000
O O13 0.000000 0.000000 0.500000
#
# Coordination Sequence:
#
# PCOD9103803 Si02
#       6
#     2   2   2   2   2   2
#     4  11  22  40  66  92 129 168 206 267 320 370
#     4   9  20  36  62  95 128 155 212 265 309 365
#     4  10  20  38  68  95 123 166 221 256 313 380
#     4  11  26  43  61  93 134 166 210 261 323 376
#     4  10  21  44  65  90 128 172 213 257 316 382
#     4  11  23  41  67  91 127 167 213 261 320 375
#
# _framework density 24.165576999999999
#
# number of rings (size 3 to 8) (size 9 to 14) (size 15 to 20)
#    0.000    1.667    0.000    6.000    4.667    0.667 
#    3.000    0.833    0.000    0.000    0.000    0.000 
#    0.000    0.000    0.000    0.000    0.000    0.000 
#
# Total GULP energy -67049.553482 kJ/mol
# GULP energy per Si atom -5587.462790 kJ/mol
# Density = 2.411058 g / cm^3
# Si number density = 24.165577 Si / 1000 Ang^3
#
#
#
# Elastic Constant Matrix: (Units=GPa)
#
#
# Indices 1 2 3 4 5 6 
#
# 1 110.7603 14.4631 38.0812 2.9351 -10.6736 -32.6298
# 2 14.4631 73.2226 20.6894 0.5600 -5.1241 -10.3361
# 3 38.0812 20.6894 113.0990 10.2707 2.2417 -12.7538
# 4 2.9351 0.5600 10.2707 37.7153 -17.2765 4.0827
# 5 -10.6736 -5.1241 2.2417 -17.2765 38.5024 0.1894
# 6 -32.6298 -10.3361 -12.7538 4.0827 0.1894 42.3626
#
#
#
# Elastic Compliance Matrix: (Units=1/GPa)
#
#
# Indices 1 2 3 4 5 6 
#
# 1 0.013340 -0.000037 -0.003632 0.000930 0.004277 0.009064
# 2 -0.000037 0.014964 -0.002612 0.001476 0.002783 0.002682
# 3 -0.003632 -0.002612 0.011081 -0.004597 -0.004064 0.000363
# 4 0.000930 0.001476 -0.004597 0.035781 0.016796 -0.003831
# 5 0.004277 0.002783 -0.004064 0.016796 0.035297 0.000973
# 6 0.009064 0.002682 0.000363 -0.003831 0.000973 0.031715
#
#
# Mechanical properties :
#
#
# Convention : Reuss Voigt Hill
#
# Bulk Modulus (GPa) = 37.28012 49.28325 43.28168
# Shear Modulus (GPa) = 30.54721 38.63928 34.59325
#
# Velocity S-wave (km/s) = 3.55925 4.00301 3.78763
# Velocity P-wave (km/s) = 5.68783 6.46558 6.08914
#
# Compressibility (1/GPa) = 0.02682395
#
# Stress axis : x y z
#
# Youngs Moduli (GPa) = 74.96390 66.82600 90.24116
#
# Poissons Ratio (x) = 0.00247 0.32775
# Poissons Ratio (y) = 0.00278 0.23569
# Poissons Ratio (z) = 0.27226 0.17454
#
# Static dielectric constant tensor:
#      x y z
#    x 2.055970 -0.008820 -0.035760 
#    y -0.008820 1.977660 0.014780 
#    z -0.035760 0.014780 1.897090 
# 
# From -- ./inp_files/146457.got.cif
#   From: 2010.05.17/outbox.cif.g08.bks.cpg/sg2_74_cif.got.tgz:146457.got - 2010.06.03 11:33:40.
