data_PCOD9103570
_publ_section_title
;
Structure prediction by ZEFSAII (Michael W. Deem and Ramdas Pophale) SiO2 
 PCOD9103570
Probable space group: P -1
;
_chemical_formula_sum "Si O2"
_cell_formula_units_Z 16
_cell_length_a 9.218734
_cell_length_b 12.234048
_cell_length_c 12.335454
_cell_angle_alpha 145.026240
_cell_angle_beta 94.087351
_cell_angle_gamma 63.544595
_cell_volume 585.384852
_symmetry_space_group_name_H-M "P -1"
_symmetry_group_IT_number 2
_symmetry_cell_setting 'triclinic'
loop_
_space_group_symop_operation_xyz
x,y,z
-x,-y,-z
loop_
_atom_site_type_symbol
_atom_site_label
_atom_site_fract_x
_atom_site_fract_y
_atom_site_fract_z
Si Si1 0.923740 0.448780 0.851213
Si Si2 0.538619 0.228162 0.149084
Si Si3 0.035545 0.170975 0.084600
Si Si4 0.960933 0.061009 0.785019
Si Si5 0.409615 0.741212 0.477762
Si Si6 0.278679 0.880908 0.351991
Si Si7 0.482804 0.920339 0.208589
Si Si8 0.090022 0.517773 0.377901
O O1 0.923543 0.519170 0.782685
O O2 0.692228 0.630266 0.001549
O O3 0.071488 0.142143 0.600282
O O4 0.000000 0.500000 0.000000
O O5 0.724826 0.030977 0.076474
O O6 0.516565 0.472984 0.325201
O O7 0.324594 0.341980 0.269504
O O8 0.584328 0.093194 0.924269
O O9 0.917763 0.242385 0.026439
O O10 0.988076 0.415657 0.335491
O O11 0.000000 0.000000 0.000000
O O12 0.178334 0.922009 0.642219
O O13 0.989088 0.814887 0.625822
O O14 0.790514 0.218880 0.815881
O O15 0.413905 0.716540 0.327538
O O16 0.483541 0.883599 0.629447
O O17 0.361780 0.969613 0.348628
#
# Coordination Sequence:
#
# PCOD9103570 Si02
#       8
#     2   2   2   2   2   2   2   2
#     4  10  20  38  67 100 133 178 220 265 335 411
#     4  10  24  43  64  97 130 173 235 273 330 413
#     4  12  25  42  64  95 128 176 229 281 338 389
#     4  10  23  42  65  94 131 175 222 279 339 401
#     4  11  23  42  68 101 132 177 230 274 346 409
#     4  11  23  42  68 104 141 178 227 276 342 416
#     4  11  23  43  67 101 141 180 224 282 343 393
#     4   9  22  42  63  93 127 173 224 271 340 396
#
# _framework density 27.332443999999999
#
# number of rings (size 3 to 8) (size 9 to 14) (size 15 to 20)
#    0.000    1.500    1.250    4.125    0.000    6.000 
#    0.000    1.250    0.000    0.000    0.000    0.000 
#    0.000    0.000    0.000    0.000    0.000    0.000 
#
# Total GULP energy -89634.767444 kJ/mol
# GULP energy per Si atom -5602.172965 kJ/mol
# Density = 2.727023 g / cm^3
# Si number density = 27.332444 Si / 1000 Ang^3
#
#
#
# Elastic Constant Matrix: (Units=GPa)
#
#
# Indices 1 2 3 4 5 6 
#
# 1 126.3757 0.0588 51.9209 12.8975 18.6679 15.9832
# 2 0.0588 92.2407 27.9597 -2.9800 11.2971 -11.1102
# 3 51.9209 27.9597 130.4538 -12.1972 34.7260 6.7427
# 4 12.8975 -2.9800 -12.1972 43.1379 -3.9138 13.7774
# 5 18.6679 11.2971 34.7260 -3.9138 49.7222 19.3011
# 6 15.9832 -11.1102 6.7427 13.7774 19.3011 38.4381
#
#
#
# Elastic Compliance Matrix: (Units=1/GPa)
#
#
# Indices 1 2 3 4 5 6 
#
# 1 0.010457 0.001158 -0.004488 -0.003943 -0.000822 -0.001400
# 2 0.001158 0.012945 -0.002681 -0.002840 -0.004435 0.006975
# 3 -0.004488 -0.002681 0.011944 0.003779 -0.006005 0.000657
# 4 -0.003943 -0.002840 0.003779 0.030583 0.007562 -0.014603
# 5 -0.000822 -0.004435 -0.006005 0.007562 0.033817 -0.019578
# 6 -0.001400 0.006975 0.000657 -0.014603 -0.019578 0.043564
#
#
# Mechanical properties :
#
#
# Convention : Reuss Voigt Hill
#
# Bulk Modulus (GPa) = 42.87235 56.54991 49.71113
# Shear Modulus (GPa) = 30.65504 44.20168 37.42836
#
# Velocity S-wave (km/s) = 3.35261 4.02579 3.70452
# Velocity P-wave (km/s) = 5.54132 6.50722 6.04359
#
# Compressibility (1/GPa) = 0.02332506
#
# Stress axis : x y z
#
# Youngs Moduli (GPa) = 95.63000 77.25236 83.72245
#
# Poissons Ratio (x) = -0.08947 0.37572
# Poissons Ratio (y) = -0.11076 0.22445
# Poissons Ratio (z) = 0.42915 0.20711
#
# Static dielectric constant tensor:
#      x y z
#    x 2.158280 0.098140 -0.023020 
#    y 0.098140 2.162620 -0.017020 
#    z -0.023020 -0.017020 2.122280 
# 
# From -- ./inp_files/505896.got.cif
#   From: 2010.05.17/outbox.cif.g08.bks.cpg/sg2_253_cif.got.tgz:505896.got - 2010.06.03 11:33:40.
