data_PCOD9103681
_publ_section_title
;
Structure prediction by ZEFSAII (Michael W. Deem and Ramdas Pophale) SiO2 
 PCOD9103681
Probable space group: P -1
;
_chemical_formula_sum "Si O2"
_cell_formula_units_Z 14
_cell_length_a 7.018907
_cell_length_b 20.970182
_cell_length_c 13.778197
_cell_angle_alpha 157.827165
_cell_angle_beta 132.731838
_cell_angle_gamma 47.776964
_cell_volume 555.181887
_symmetry_space_group_name_H-M "P -1"
_symmetry_group_IT_number 2
_symmetry_cell_setting 'triclinic'
loop_
_space_group_symop_operation_xyz
x,y,z
-x,-y,-z
loop_
_atom_site_type_symbol
_atom_site_label
_atom_site_fract_x
_atom_site_fract_y
_atom_site_fract_z
Si Si1 0.431732 0.257094 0.749896
Si Si2 0.693309 0.682207 0.901525
Si Si3 0.496000 0.535013 0.323364
Si Si4 0.297867 0.056018 0.882025
Si Si5 0.841979 0.948916 0.483705
Si Si6 0.998950 0.667312 0.447361
Si Si7 0.171879 0.184267 0.214003
O O1 0.271051 0.125385 0.563308
O O2 0.280302 0.299765 0.656940
O O3 0.718555 0.144197 0.692025
O O4 0.428952 0.423476 0.051022
O O5 0.467937 0.593383 0.751878
O O6 0.934383 0.527266 0.766028
O O7 0.644984 0.772543 0.909805
O O8 0.759228 0.825416 0.199675
O O9 0.728332 0.636973 0.523846
O O10 0.234100 0.667385 0.450714
O O11 0.568607 0.945054 0.848297
O O12 0.103896 0.110459 0.982941
O O13 0.146574 0.946569 0.603841
O O14 0.005499 0.788007 0.712752
#
# Coordination Sequence:
#
# PCOD9103681 Si02
#       7
#     2   2   2   2   2   2   2
#     4  10  20  38  67  96 128 166 208 259 333 360
#     4   9  22  40  66  93 128 156 209 270 317 350
#     4   9  22  41  64  99 124 165 209 267 304 378
#     4  11  24  43  61  94 130 169 211 264 302 392
#     4  10  21  39  65  97 129 164 207 269 313 380
#     4  10  22  40  66  98 124 162 212 264 311 376
#     4  11  25  43  67  88 129 177 213 245 325 371
#
# _framework density 25.216961999999999
#
# number of rings (size 3 to 8) (size 9 to 14) (size 15 to 20)
#    0.857    1.143    0.000    2.571    4.000    1.714 
#    0.000    9.286    0.000    0.000    0.000    0.000 
#    0.000    0.000    0.000    0.000    0.000    0.000 
#
# Total GULP energy -78292.586482 kJ/mol
# GULP energy per Si atom -5592.327606 kJ/mol
# Density = 2.515957 g / cm^3
# Si number density = 25.216962 Si / 1000 Ang^3
#
#
#
# Elastic Constant Matrix: (Units=GPa)
#
#
# Indices 1 2 3 4 5 6 
#
# 1 66.1276 16.3073 38.7438 0.2960 -21.1498 4.5800
# 2 16.3073 72.5070 20.3679 7.8405 -6.6164 10.2484
# 3 38.7438 20.3679 109.6834 2.2031 -13.4294 4.8894
# 4 0.2960 7.8405 2.2031 27.5405 0.3717 0.3040
# 5 -21.1498 -6.6164 -13.4294 0.3717 47.9521 -0.7662
# 6 4.5800 10.2484 4.8894 0.3040 -0.7662 24.4273
#
#
#
# Elastic Compliance Matrix: (Units=1/GPa)
#
#
# Indices 1 2 3 4 5 6 
#
# 1 0.021930 -0.002324 -0.006335 0.000849 0.007545 -0.001643
# 2 -0.002324 0.016178 -0.001751 -0.004384 0.000656 -0.005926
# 3 -0.006335 -0.001751 0.011736 -0.000371 0.000247 -0.000414
# 4 0.000849 -0.004384 -0.000371 0.037573 -0.000605 0.001268
# 5 0.007545 0.000656 0.000247 -0.000605 0.024331 -0.000969
# 6 -0.001643 -0.005926 -0.000414 0.001268 -0.000969 0.043769
#
#
# Mechanical properties :
#
#
# Convention : Reuss Voigt Hill
#
# Bulk Modulus (GPa) = 34.45306 44.35066 39.40186
# Shear Modulus (GPa) = 26.88018 31.51058 29.19538
#
# Velocity S-wave (km/s) = 3.26844 3.53877 3.40629
# Velocity P-wave (km/s) = 5.28544 5.85859 5.57938
#
# Compressibility (1/GPa) = 0.02902499
#
# Stress axis : x y z
#
# Youngs Moduli (GPa) = 45.59965 61.81320 85.20654
#
# Poissons Ratio (x) = 0.14364 0.53978
# Poissons Ratio (y) = 0.10596 0.14917
# Poissons Ratio (z) = 0.28887 0.10822
#
# Static dielectric constant tensor:
#      x y z
#    x 2.080680 0.012490 -0.021590 
#    y 0.012490 1.960020 0.008460 
#    z -0.021590 0.008460 1.935270 
# 
# From -- ./inp_files/508679.got.cif
#   From: 2010.05.17/outbox.cif.g08.bks.cpg/sg2_255_cif.got.tgz:508679.got - 2010.06.03 11:33:40.
