data_PCOD9103526
_publ_section_title
;
Structure prediction by ZEFSAII (Michael W. Deem and Ramdas Pophale) SiO2 
 PCOD9103526
Probable space group: P -1
;
_chemical_formula_sum "Si O2"
_cell_formula_units_Z 14
_cell_length_a 9.184533
_cell_length_b 14.977049
_cell_length_c 8.575401
_cell_angle_alpha 90.214516
_cell_angle_beta 48.932679
_cell_angle_gamma 122.654851
_cell_volume 624.100466
_symmetry_space_group_name_H-M "P -1"
_symmetry_group_IT_number 2
_symmetry_cell_setting 'triclinic'
loop_
_space_group_symop_operation_xyz
x,y,z
-x,-y,-z
loop_
_atom_site_type_symbol
_atom_site_label
_atom_site_fract_x
_atom_site_fract_y
_atom_site_fract_z
Si Si1 0.120651 0.100032 0.271977
Si Si2 0.229865 0.222478 0.745452
Si Si3 0.439631 0.552549 0.672405
Si Si4 0.980670 0.294840 0.134366
Si Si5 0.374697 0.074633 0.619910
Si Si6 0.342853 0.003737 0.979109
Si Si7 0.731298 0.646968 0.775406
O O1 0.261289 0.242108 0.209194
O O2 0.336991 0.103538 0.042717
O O3 0.000000 0.000000 0.500000
O O4 0.865427 0.031816 0.331770
O O5 0.502775 0.338157 0.459044
O O6 0.274267 0.135910 0.762162
O O7 0.148031 0.266895 0.936509
O O8 0.971371 0.134314 0.809712
O O9 0.500000 0.500000 0.500000
O O10 0.681679 0.619769 0.628369
O O11 0.146140 0.435137 0.954683
O O12 0.659411 0.182396 0.329052
O O13 0.014360 0.300161 0.297732
O O14 0.421391 0.028913 0.739920
O O15 0.500000 0.000000 0.000000
O O16 0.500000 0.500000 0.000000
#
# Coordination Sequence:
#
# PCOD9103526 Si02
#       7
#     2   2   2   2   2   2   2
#     4  11  24  42  68 104 139 178 231 290 341 411
#     4  10  21  42  63  92 138 174 222 285 342 404
#     4   9  20  40  66  93 130 180 221 276 345 410
#     4  10  22  38  69  96 131 181 225 274 349 413
#     4  11  24  41  66 100 138 178 226 285 347 411
#     4  11  25  41  63  99 139 181 226 286 347 410
#     4  10  20  38  66  96 132 179 225 276 340 407
#
# _framework density 22.432283999999999
#
# number of rings (size 3 to 8) (size 9 to 14) (size 15 to 20)
#    0.000    1.714    0.000    5.143    6.000    1.714 
#    0.000    0.000    3.143   10.286    0.000    0.000 
#    0.000    0.000    0.000    0.000    0.000    0.000 
#
# Total GULP energy -78004.313031 kJ/mol
# GULP energy per Si atom -5571.736645 kJ/mol
# Density = 2.238123 g / cm^3
# Si number density = 22.432284 Si / 1000 Ang^3
#
#
#
# Elastic Constant Matrix: (Units=GPa)
#
#
# Indices 1 2 3 4 5 6 
#
# 1 129.0601 54.0401 43.2831 -2.3337 16.8041 6.2916
# 2 54.0401 133.8740 38.3431 -15.1489 9.6783 1.8119
# 3 43.2831 38.3431 97.7746 -24.0647 9.8050 -8.4972
# 4 -2.3337 -15.1489 -24.0647 39.7015 -2.2338 11.4355
# 5 16.8041 9.6783 9.8050 -2.2338 40.1375 -2.7192
# 6 6.2916 1.8119 -8.4972 11.4355 -2.7192 35.2184
#
#
#
# Elastic Compliance Matrix: (Units=1/GPa)
#
#
# Indices 1 2 3 4 5 6 
#
# 1 0.010960 -0.003301 -0.004086 -0.002645 -0.003088 -0.002153
# 2 -0.003301 0.009656 -0.001700 0.002797 -0.000461 -0.001261
# 3 -0.004086 -0.001700 0.014806 0.007489 -0.000952 0.001884
# 4 -0.002645 0.002797 0.007489 0.033117 -0.000138 -0.008628
# 5 -0.003088 -0.000461 -0.000952 -0.000138 0.026709 0.002453
# 6 -0.002153 -0.001261 0.001884 -0.008628 0.002453 0.032289
#
#
# Mechanical properties :
#
#
# Convention : Reuss Voigt Hill
#
# Bulk Modulus (GPa) = 57.98047 70.22681 64.10364
# Shear Modulus (GPa) = 33.01198 38.01429 35.51313
#
# Velocity S-wave (km/s) = 3.84034 4.12105 3.98317
# Velocity P-wave (km/s) = 6.75036 7.34970 7.05640
#
# Compressibility (1/GPa) = 0.01724719
#
# Stress axis : x y z
#
# Youngs Moduli (GPa) = 91.24160 103.56185 67.54191
#
# Poissons Ratio (x) = 0.34184 0.27597
# Poissons Ratio (y) = 0.30118 0.11485
# Poissons Ratio (z) = 0.37280 0.17610
#
# Static dielectric constant tensor:
#      x y z
#    x 1.843020 -0.043620 0.060700 
#    y -0.043620 1.907290 -0.029340 
#    z 0.060700 -0.029340 1.907730 
# 
# From -- ./inp_files/201829.got.cif
#   From: 2010.05.17/outbox.cif.g08.bks.cpg/sg2_101_cif.got.tgz:201829.got - 2010.06.03 11:33:40.
