data_PCOD9103056
_publ_section_title
;
Structure prediction by ZEFSAII (Michael W. Deem and Ramdas Pophale) SiO2 
 PCOD9103056
Probable space group: P -1
;
_chemical_formula_sum "Si O2"
_cell_formula_units_Z 16
_cell_length_a 9.594315
_cell_length_b 16.015797
_cell_length_c 18.500350
_cell_angle_alpha 29.014157
_cell_angle_beta 146.847348
_cell_angle_gamma 145.926177
_cell_volume 702.729445
_symmetry_space_group_name_H-M "P -1"
_symmetry_group_IT_number 2
_symmetry_cell_setting 'triclinic'
loop_
_space_group_symop_operation_xyz
x,y,z
-x,-y,-z
loop_
_atom_site_type_symbol
_atom_site_label
_atom_site_fract_x
_atom_site_fract_y
_atom_site_fract_z
Si Si1 0.642060 0.573850 0.134580
Si Si2 0.160575 0.364271 0.187842
Si Si3 0.680889 0.964412 0.877695
Si Si4 0.351458 0.758847 0.687767
Si Si5 0.720245 0.980865 0.234524
Si Si6 0.086829 0.196532 0.430159
Si Si7 0.931125 0.299248 0.655895
Si Si8 0.070414 0.916918 0.318635
O O1 0.432125 0.437592 0.203288
O O2 0.662274 0.449765 0.170892
O O3 0.924465 0.647238 0.244731
O O4 0.563001 0.755155 0.954664
O O5 0.208234 0.347614 0.306257
O O6 0.974820 0.162575 0.231983
O O7 0.000000 0.500000 0.000000
O O8 0.540733 0.976560 0.883918
O O9 0.658493 0.124796 0.693415
O O10 0.000000 0.000000 0.000000
O O11 0.172767 0.782435 0.658987
O O12 0.204320 0.812048 0.513037
O O13 0.668551 0.895108 0.724750
O O14 0.722426 0.812449 0.413758
O O15 0.811121 0.945709 0.221468
O O16 0.000000 0.000000 0.500000
O O17 0.026900 0.196181 0.711411
O O18 0.000000 0.500000 0.500000
#
# Coordination Sequence:
#
# PCOD9103056 Si02
#       8
#     2   2   2   2   2   2   2   2
#     4  11  22  42  63  94 133 172 212 262 328 393
#     4  11  21  38  64  96 131 169 208 266 325 382
#     4  10  24  43  63  91 132 179 206 264 328 392
#     4  10  20  38  64  97 138 161 218 269 323 379
#     4  10  20  40  64  93 130 164 218 268 321 375
#     4   9  22  35  60  97 126 167 209 270 316 372
#     4  11  24  41  67  92 127 171 223 259 323 386
#     4  10  21  37  64 100 123 172 214 277 316 373
#
# _framework density 22.768363000000001
#
# number of rings (size 3 to 8) (size 9 to 14) (size 15 to 20)
#    0.000    1.750    3.750    0.000    7.000    0.000 
#    2.250    6.875    0.000    0.000    0.000    0.000 
#    0.000    0.000    0.000    0.000    0.000    0.000 
#
# Total GULP energy -89188.940429 kJ/mol
# GULP energy per Si atom -5574.308777 kJ/mol
# Density = 2.271654 g / cm^3
# Si number density = 22.768363 Si / 1000 Ang^3
#
#
#
# Elastic Constant Matrix: (Units=GPa)
#
#
# Indices 1 2 3 4 5 6 
#
# 1 177.9272 39.8147 30.6155 -28.2669 38.1780 -9.1011
# 2 39.8147 68.8519 28.2933 -21.7658 13.2202 -9.5533
# 3 30.6155 28.2933 86.2486 -28.8690 -1.6118 -4.4225
# 4 -28.2669 -21.7658 -28.8690 33.3163 3.4152 3.9388
# 5 38.1780 13.2202 -1.6118 3.4152 41.8318 -7.6973
# 6 -9.1011 -9.5533 -4.4225 3.9388 -7.6973 40.5074
#
#
#
# Elastic Compliance Matrix: (Units=1/GPa)
#
#
# Indices 1 2 3 4 5 6 
#
# 1 0.008921 -0.001055 -0.000552 0.007354 -0.008548 -0.000644
# 2 -0.001055 0.021317 -0.003002 0.010823 -0.006368 0.002200
# 3 -0.000552 -0.003002 0.016825 0.012028 0.001128 0.000050
# 4 0.007354 0.010823 0.012028 0.055571 -0.014698 -0.002679
# 5 -0.008548 -0.006368 0.001128 -0.014698 0.035873 0.004946
# 6 -0.000644 0.002200 0.000050 -0.002679 0.004946 0.026267
#
#
# Mechanical properties :
#
#
# Convention : Reuss Voigt Hill
#
# Bulk Modulus (GPa) = 26.42380 58.94164 42.68272
# Shear Modulus (GPa) = 26.79437 38.75139 32.77288
#
# Velocity S-wave (km/s) = 3.43421 4.12999 3.79806
# Velocity P-wave (km/s) = 5.23027 6.97754 6.16611
#
# Compressibility (1/GPa) = 0.03784467
#
# Stress axis : x y z
#
# Youngs Moduli (GPa) = 112.09604 46.91061 59.43680
#
# Poissons Ratio (x) = 0.04950 0.03280
# Poissons Ratio (y) = 0.11828 0.17843
# Poissons Ratio (z) = 0.06186 0.14082
#
# Static dielectric constant tensor:
#      x y z
#    x 1.803530 0.055310 -0.084150 
#    y 0.055310 1.840360 0.040010 
#    z -0.084150 0.040010 1.953870 
# 
# From -- ./inp_files/561356.got.cif
#   From: 2010.05.17/outbox.cif.g08.bks.cpg/sg2_281_cif.got.tgz:561356.got - 2010.06.03 11:33:40.
