data_PCOD9103578
_publ_section_title
;
Structure prediction by ZEFSAII (Michael W. Deem and Ramdas Pophale) SiO2 
 PCOD9103578
Probable space group: P -1
;
_chemical_formula_sum "Si O2"
_cell_formula_units_Z 16
_cell_length_a 11.587605
_cell_length_b 18.958554
_cell_length_c 8.356091
_cell_angle_alpha 136.236869
_cell_angle_beta 80.914462
_cell_angle_gamma 131.515999
_cell_volume 746.395234
_symmetry_space_group_name_H-M "P -1"
_symmetry_group_IT_number 2
_symmetry_cell_setting 'triclinic'
loop_
_space_group_symop_operation_xyz
x,y,z
-x,-y,-z
loop_
_atom_site_type_symbol
_atom_site_label
_atom_site_fract_x
_atom_site_fract_y
_atom_site_fract_z
Si Si1 0.921697 0.328596 0.730191
Si Si2 0.747485 0.611955 0.230457
Si Si3 0.191836 0.067051 0.595061
Si Si4 0.520924 0.403329 0.258936
Si Si5 0.883651 0.221065 0.884326
Si Si6 0.308154 0.603543 0.516805
Si Si7 0.396022 0.279665 0.583488
Si Si8 0.283838 0.822025 0.816292
O O1 0.801534 0.226949 0.757539
O O2 0.836404 0.254229 0.448762
O O3 0.077884 0.345920 0.741139
O O4 0.000000 0.500000 0.000000
O O5 0.625873 0.498056 0.225956
O O6 0.768690 0.749402 0.460095
O O7 0.598157 0.483490 0.908134
O O8 0.324524 0.168806 0.572157
O O9 0.132091 0.908615 0.370462
O O10 0.317501 0.204330 0.936142
O O11 0.000000 0.000000 0.500000
O O12 0.500000 0.500000 0.500000
O O13 0.656575 0.425145 0.369309
O O14 0.782224 0.162977 0.985939
O O15 0.108143 0.415369 0.181086
O O16 0.518252 0.731532 0.591388
O O17 0.273384 0.698658 0.677123
O O18 0.500000 0.000000 0.000000
#
# Coordination Sequence:
#
# PCOD9103578 Si02
#       8
#     2   2   2   2   2   2   2   2
#     4  12  25  45  73 106 141 194 249 293 359 428
#     4  10  20  38  67 102 134 180 234 286 349 430
#     4  11  25  43  67 103 144 185 232 293 361 427
#     4  11  23  40  70 105 138 181 234 293 362 428
#     4  12  26  47  74 104 145 189 241 300 358 431
#     4  12  23  46  72 102 139 186 241 293 363 421
#     4  10  20  40  68  98 139 177 226 292 357 421
#     4  12  29  49  71 105 149 190 244 304 355 427
#
# _framework density 21.436364000000001
#
# number of rings (size 3 to 8) (size 9 to 14) (size 15 to 20)
#    0.000    0.750    3.750    3.375    5.250    1.500 
#    0.000    0.625    0.000    0.000    0.000    0.000 
#    0.000    0.000    0.000    0.000    0.000    0.000 
#
# Total GULP energy -89233.583259 kJ/mol
# GULP energy per Si atom -5577.098954 kJ/mol
# Density = 2.138757 g / cm^3
# Si number density = 21.436364 Si / 1000 Ang^3
#
#
#
# Elastic Constant Matrix: (Units=GPa)
#
#
# Indices 1 2 3 4 5 6 
#
# 1 117.9192 19.3184 53.5052 -4.2890 -12.6132 -20.0029
# 2 19.3184 88.4897 17.7624 -12.8458 -13.3463 -1.1123
# 3 53.5052 17.7624 98.6487 -5.4918 -22.6168 -8.9485
# 4 -4.2890 -12.8458 -5.4918 38.3461 -13.0289 -1.5975
# 5 -12.6132 -13.3463 -22.6168 -13.0289 27.7250 -1.7687
# 6 -20.0029 -1.1123 -8.9485 -1.5975 -1.7687 45.2938
#
#
#
# Elastic Compliance Matrix: (Units=1/GPa)
#
#
# Indices 1 2 3 4 5 6 
#
# 1 0.012116 -0.001247 -0.005766 0.000536 0.000729 0.004228
# 2 -0.001247 0.014357 0.001327 0.008849 0.011638 0.000831
# 3 -0.005766 0.001327 0.017245 0.007721 0.015826 0.001783
# 4 0.000536 0.008849 0.007721 0.040662 0.030203 0.004593
# 5 0.000729 0.011638 0.015826 0.030203 0.069586 0.007517
# 6 0.004228 0.000831 0.001783 0.004593 0.007517 0.024774
#
#
# Mechanical properties :
#
#
# Convention : Reuss Voigt Hill
#
# Bulk Modulus (GPa) = 30.91490 54.02552 42.47021
# Shear Modulus (GPa) = 24.88887 36.57109 30.72998
#
# Velocity S-wave (km/s) = 3.41113 4.13489 3.79033
# Velocity P-wave (km/s) = 5.47425 6.93209 6.24585
#
# Compressibility (1/GPa) = 0.03234686
#
# Stress axis : x y z
#
# Youngs Moduli (GPa) = 82.53683 69.65333 57.98624
#
# Poissons Ratio (x) = 0.08683 0.33437
# Poissons Ratio (y) = 0.10289 -0.07697
# Poissons Ratio (z) = 0.47593 -0.09245
#
# Static dielectric constant tensor:
#      x y z
#    x 1.675790 0.013540 0.101610 
#    y 0.013540 1.824740 -0.008550 
#    z 0.101610 -0.008550 1.734260 
# 
# From -- ./inp_files/283374.got.cif
#   From: 2010.05.17/outbox.cif.g08.bks.cpg/sg2_142_cif.got.tgz:283374.got - 2010.06.03 11:33:40.
