data_PCOD9103418
_publ_section_title
;
Structure prediction by ZEFSAII (Michael W. Deem and Ramdas Pophale) SiO2 
 PCOD9103418
Probable space group: P -1
;
_chemical_formula_sum "Si O2"
_cell_formula_units_Z 15
_cell_length_a 14.430343
_cell_length_b 8.162547
_cell_length_c 7.999974
_cell_angle_alpha 82.195718
_cell_angle_beta 46.249973
_cell_angle_gamma 73.127447
_cell_volume 648.505551
_symmetry_space_group_name_H-M "P -1"
_symmetry_group_IT_number 2
_symmetry_cell_setting 'triclinic'
loop_
_space_group_symop_operation_xyz
x,y,z
-x,-y,-z
loop_
_atom_site_type_symbol
_atom_site_label
_atom_site_fract_x
_atom_site_fract_y
_atom_site_fract_z
Si Si1 0.672584 0.369982 0.658659
Si Si2 0.553832 0.270361 0.133646
Si Si3 0.878394 0.601691 0.017873
Si Si4 0.657418 0.398651 0.301354
Si Si5 0.500000 0.000000 0.500000
Si Si6 0.044148 0.713995 0.544259
Si Si7 0.209790 0.023365 0.754617
Si Si8 0.999600 0.075550 0.744473
O O1 0.570737 0.559896 0.751856
O O2 0.690796 0.305093 0.453928
O O3 0.810623 0.385525 0.559057
O O4 0.619279 0.249832 0.870652
O O5 0.656383 0.319893 0.129245
O O6 0.512666 0.115557 0.296350
O O7 0.756337 0.519412 0.166072
O O8 0.822921 0.791066 0.137689
O O9 0.000000 0.500000 0.000000
O O10 0.938382 0.622679 0.759305
O O11 0.500000 0.500000 0.500000
O O12 0.366849 0.958217 0.596223
O O13 0.035313 0.763467 0.356382
O O14 0.013730 0.899164 0.651046
O O15 0.140710 0.061888 0.656390
O O16 0.117181 0.917193 0.976443
#
# Coordination Sequence:
#
# PCOD9103418 Si02
#       8
#     2   2   2   2   1   2   2   2
#     4  10  20  41  67  93 131 171 220 270 327 393
#     4  10  24  41  65  96 129 179 219 267 336 395
#     4  11  22  39  62  95 125 165 220 272 318 389
#     4  10  21  41  63  89 132 173 214 265 335 389
#     4  12  24  40  68  94 138 164 224 278 322 398
#     4  10  20  38  66  90 130 165 218 276 321 391
#     4  10  22  40  64  92 130 172 216 264 332 394
#     4   9  21  41  63  93 128 172 214 262 341 394
#
# _framework density 23.130105
#
# number of rings (size 3 to 8) (size 9 to 14) (size 15 to 20)
#    0.000    1.867    1.333    2.400    1.867    2.133 
#    9.600    2.000    0.000    0.000    0.000    0.000 
#    0.000    0.000    0.000    0.000    0.000    0.000 
#
# Total GULP energy -83548.160609 kJ/mol
# GULP energy per Si atom -5569.877374 kJ/mol
# Density = 2.307746 g / cm^3
# Si number density = 23.130105 Si / 1000 Ang^3
#
#
#
# Elastic Constant Matrix: (Units=GPa)
#
#
# Indices 1 2 3 4 5 6 
#
# 1 164.2976 34.2671 74.4302 -27.6917 -15.5662 -30.5809
# 2 34.2671 51.9539 36.0547 -28.1704 3.2608 -2.8409
# 3 74.4302 36.0547 147.3125 -48.5908 1.6283 -7.8127
# 4 -27.6917 -28.1704 -48.5908 39.2285 -5.2695 3.6642
# 5 -15.5662 3.2608 1.6283 -5.2695 51.2420 -4.7304
# 6 -30.5809 -2.8409 -7.8127 3.6642 -4.7304 30.8088
#
#
#
# Elastic Compliance Matrix: (Units=1/GPa)
#
#
# Indices 1 2 3 4 5 6 
#
# 1 0.011286 -0.004805 -0.004475 -0.001376 0.004705 0.010511
# 2 -0.004805 0.033588 0.001510 0.022769 -0.001697 -0.004258
# 3 -0.004475 0.001510 0.013380 0.014672 -0.000626 -0.002751
# 4 -0.001376 0.022769 0.014672 0.059726 0.003615 -0.002094
# 5 0.004705 -0.001697 -0.000626 0.003615 0.022120 0.007322
# 6 0.010511 -0.004258 -0.002751 -0.002094 0.007322 0.043175
#
#
# Mechanical properties :
#
#
# Convention : Reuss Voigt Hill
#
# Bulk Modulus (GPa) = 23.41103 72.56311 47.98707
# Shear Modulus (GPa) = 23.46830 38.84333 31.15581
#
# Velocity S-wave (km/s) = 3.18877 4.10242 3.67411
# Velocity P-wave (km/s) = 4.86838 7.34028 6.22819
#
# Compressibility (1/GPa) = 0.04271491
#
# Stress axis : x y z
#
# Youngs Moduli (GPa) = 88.60373 29.77213 74.73738
#
# Poissons Ratio (x) = 0.14307 0.33444
# Poissons Ratio (y) = 0.42578 -0.11288
# Poissons Ratio (z) = 0.39649 -0.04497
#
# Static dielectric constant tensor:
#      x y z
#    x 1.810650 -0.019350 0.027130 
#    y -0.019350 1.965740 0.043060 
#    z 0.027130 0.043060 1.927720 
# 
# From -- ./inp_files/297749.got.cif
#   From: 2010.05.17/outbox.cif.g08.bks.cpg/sg2_149_cif.got.tgz:297749.got - 2010.06.03 11:33:40.
