data_PCOD9103889
_publ_section_title
;
Structure prediction by ZEFSAII (Michael W. Deem and Ramdas Pophale) SiO2 
 PCOD9103889
Probable space group: P -1
;
_chemical_formula_sum "Si O2"
_cell_formula_units_Z 16
_cell_length_a 13.842406
_cell_length_b 27.250871
_cell_length_c 7.906287
_cell_angle_alpha 43.264257
_cell_angle_beta 54.896489
_cell_angle_gamma 21.753781
_cell_volume 694.721373
_symmetry_space_group_name_H-M "P -1"
_symmetry_group_IT_number 2
_symmetry_cell_setting 'triclinic'
loop_
_space_group_symop_operation_xyz
x,y,z
-x,-y,-z
loop_
_atom_site_type_symbol
_atom_site_label
_atom_site_fract_x
_atom_site_fract_y
_atom_site_fract_z
Si Si1 0.076875 0.691612 0.851744
Si Si2 0.388239 0.758174 0.076376
Si Si3 0.696507 0.775765 0.915476
Si Si4 0.345557 0.166909 0.583329
Si Si5 0.456057 0.593217 0.185237
Si Si6 0.125790 0.042227 0.734020
Si Si7 0.047239 0.204865 0.939911
Si Si8 0.028205 0.508389 0.752487
O O1 0.325950 0.532775 0.872726
O O2 0.812684 0.783031 0.863926
O O3 0.985672 0.822505 0.569235
O O4 0.149755 0.651254 0.077443
O O5 0.488219 0.653025 0.086742
O O6 0.672687 0.615470 0.254679
O O7 0.141200 0.849361 0.184983
O O8 0.259349 0.909344 0.804073
O O9 0.658197 0.811400 0.663751
O O10 0.381238 0.921545 0.910629
O O11 0.933430 0.582826 0.171037
O O12 0.224214 0.296560 0.500318
O O13 0.656196 0.977600 0.812578
O O14 0.132365 0.217332 0.687260
O O15 0.500000 0.500000 0.500000
O O16 0.130178 0.763035 0.030830
O O17 0.000000 0.500000 0.000000
#
# Coordination Sequence:
#
# PCOD9103889 Si02
#       8
#     2   2   2   2   2   2   2   2
#     4  12  23  40  63  97 130 165 209 264 318 371
#     4  10  21  38  62  99 121 166 218 254 315 370
#     4  10  20  38  69  94 121 170 213 254 312 382
#     4  10  21  39  62  92 129 167 213 258 318 373
#     4  12  23  41  66  88 122 169 219 256 313 383
#     4  10  21  36  64  97 131 155 211 273 303 369
#     4  11  25  38  59  94 134 166 207 269 317 370
#     4   9  18  37  66  92 121 159 214 261 299 372
#
# _framework density 23.030816999999999
#
# number of rings (size 3 to 8) (size 9 to 14) (size 15 to 20)
#    0.000    1.500    2.500    3.750    0.000    1.000 
#    0.000    1.250    2.750    0.000    0.000    0.000 
#    0.000    0.000    0.000    0.000    0.000    0.000 
#
# Total GULP energy -89414.342158 kJ/mol
# GULP energy per Si atom -5588.396385 kJ/mol
# Density = 2.297840 g / cm^3
# Si number density = 23.030817 Si / 1000 Ang^3
#
#
#
# Elastic Constant Matrix: (Units=GPa)
#
#
# Indices 1 2 3 4 5 6 
#
# 1 109.8534 21.9076 26.6638 -2.9056 -34.1502 -12.5504
# 2 21.9076 106.6803 18.3718 -6.7044 -15.1710 -3.7025
# 3 26.6638 18.3718 28.7579 -8.8408 -23.2986 3.8174
# 4 -2.9056 -6.7044 -8.8408 22.2580 2.8741 -13.9579
# 5 -34.1502 -15.1710 -23.2986 2.8741 33.2013 -3.5133
# 6 -12.5504 -3.7025 3.8174 -13.9579 -3.5133 38.6692
#
#
#
# Elastic Compliance Matrix: (Units=1/GPa)
#
#
# Indices 1 2 3 4 5 6 
#
# 1 0.015185 -0.000168 -0.001666 0.004372 0.014841 0.008003
# 2 -0.000168 0.010732 -0.005573 0.002442 0.000871 0.002484
# 3 -0.001666 -0.005573 0.102953 0.035168 0.065728 0.007428
# 4 0.004372 0.002442 0.035168 0.073844 0.026784 0.027269
# 5 0.014841 0.000871 0.065728 0.026784 0.091320 0.016376
# 6 0.008003 0.002484 0.007428 0.027269 0.016376 0.039293
#
#
# Mechanical properties :
#
#
# Convention : Reuss Voigt Hill
#
# Bulk Modulus (GPa) = 8.76767 42.13090 25.44928
# Shear Modulus (GPa) = 12.94799 30.71560 21.83180
#
# Velocity S-wave (km/s) = 2.37365 3.65591 3.08220
# Velocity P-wave (km/s) = 3.36564 6.01281 4.87244
#
# Compressibility (1/GPa) = 0.11405534
#
# Stress axis : x y z
#
# Youngs Moduli (GPa) = 65.85636 93.18214 9.71314
#
# Poissons Ratio (x) = 0.01568 0.01618
# Poissons Ratio (y) = 0.01108 0.05413
# Poissons Ratio (z) = 0.10972 0.51928
#
# Static dielectric constant tensor:
#      x y z
#    x 1.860130 0.011030 -0.007580 
#    y 0.011030 1.923310 0.004760 
#    z -0.007580 0.004760 1.887310 
# 
# From -- ./inp_files/321023.got.cif
#   From: 2010.05.17/outbox.cif.g08.bks.cpg/sg2_161_cif.got.tgz:321023.got - 2010.06.03 11:33:40.
