data_PCOD9103265
_publ_section_title
;
Structure prediction by ZEFSAII (Michael W. Deem and Ramdas Pophale) SiO2 
 PCOD9103265
Probable space group: P -1
;
_chemical_formula_sum "Si O2"
_cell_formula_units_Z 16
_cell_length_a 6.493505
_cell_length_b 18.086035
_cell_length_c 7.857816
_cell_angle_alpha 67.499886
_cell_angle_beta 116.167297
_cell_angle_gamma 74.160585
_cell_volume 647.601116
_symmetry_space_group_name_H-M "P -1"
_symmetry_group_IT_number 2
_symmetry_cell_setting 'triclinic'
loop_
_space_group_symop_operation_xyz
x,y,z
-x,-y,-z
loop_
_atom_site_type_symbol
_atom_site_label
_atom_site_fract_x
_atom_site_fract_y
_atom_site_fract_z
Si Si1 0.122425 0.124115 0.031301
Si Si2 0.921486 0.427233 0.597859
Si Si3 0.906231 0.644376 0.758025
Si Si4 0.470850 0.186921 0.303118
Si Si5 0.160908 0.242371 0.697435
Si Si6 0.483704 0.917072 0.260032
Si Si7 0.981824 0.098559 0.373109
Si Si8 0.356680 0.472985 0.245053
O O1 0.359240 0.135311 0.191737
O O2 0.976500 0.120018 0.151478
O O3 0.251290 0.025758 0.065746
O O4 0.989852 0.209098 0.771942
O O5 0.666976 0.439235 0.390553
O O6 0.798744 0.459130 0.711194
O O7 0.000000 0.500000 0.500000
O O8 0.165114 0.319924 0.750058
O O9 0.784707 0.714312 0.813134
O O10 0.927995 0.704096 0.562476
O O11 0.690929 0.612727 0.679572
O O12 0.185956 0.544103 0.968513
O O13 0.591860 0.128850 0.574278
O O14 0.714056 0.181699 0.294220
O O15 0.431736 0.145077 0.824458
O O16 0.754229 0.910414 0.436883
O O17 0.000000 0.000000 0.500000
#
# Coordination Sequence:
#
# PCOD9103265 Si02
#       8
#     2   2   2   2   2   2   2   2
#     4  11  21  40  61  94 137 180 216 275 333 402
#     4  11  23  46  69  99 134 179 223 287 348 407
#     4  10  22  44  68 103 132 180 226 285 339 407
#     4  10  20  38  65  94 134 168 229 271 327 408
#     4  11  24  41  63  95 138 171 224 279 340 402
#     4  10  21  38  62  92 131 174 222 275 331 395
#     4  11  19  38  66  92 124 181 226 271 331 397
#     4  10  23  45  72  95 135 173 231 282 348 407
#
# _framework density 24.706567
#
# number of rings (size 3 to 8) (size 9 to 14) (size 15 to 20)
#    0.000    1.500    3.750    1.875    1.750    0.500 
#    2.250    5.625    0.000    0.000    0.000    0.000 
#    0.000    0.000    0.000    0.000    0.000    0.000 
#
# Total GULP energy -89480.480636 kJ/mol
# GULP energy per Si atom -5592.530040 kJ/mol
# Density = 2.465033 g / cm^3
# Si number density = 24.706567 Si / 1000 Ang^3
#
#
#
# Elastic Constant Matrix: (Units=GPa)
#
#
# Indices 1 2 3 4 5 6 
#
# 1 108.6836 29.1014 64.4760 2.7710 -33.5954 5.8755
# 2 29.1014 158.0057 21.1552 -9.6629 -24.2355 -14.7907
# 3 64.4760 21.1552 97.7614 -11.7960 -36.9636 2.2915
# 4 2.7710 -9.6629 -11.7960 33.6849 3.2500 -9.1495
# 5 -33.5954 -24.2355 -36.9636 3.2500 38.9718 13.4958
# 6 5.8755 -14.7907 2.2915 -9.1495 13.4958 45.4609
#
#
#
# Elastic Compliance Matrix: (Units=1/GPa)
#
#
# Indices 1 2 3 4 5 6 
#
# 1 0.018575 -0.001924 -0.009173 -0.008055 0.009180 -0.006911
# 2 -0.001924 0.007387 0.001070 0.003011 0.002885 0.002347
# 3 -0.009173 0.001070 0.022283 0.006843 0.014158 -0.002415
# 4 -0.008055 0.003011 0.006843 0.037044 -0.005387 0.010730
# 5 0.009180 0.002885 0.014158 -0.005387 0.055678 -0.018574
# 6 -0.006911 0.002347 -0.002415 0.010730 -0.018574 0.031449
#
#
# Mechanical properties :
#
#
# Convention : Reuss Voigt Hill
#
# Bulk Modulus (GPa) = 35.47439 65.99067 50.73253
# Shear Modulus (GPa) = 24.76891 40.27141 32.52016
#
# Velocity S-wave (km/s) = 3.16970 4.04169 3.63196
# Velocity P-wave (km/s) = 5.27119 6.96765 6.17793
#
# Compressibility (1/GPa) = 0.02818935
#
# Stress axis : x y z
#
# Youngs Moduli (GPa) = 53.83621 135.38182 44.87784
#
# Poissons Ratio (x) = 0.26053 0.41167
# Poissons Ratio (y) = 0.10360 -0.04802
# Poissons Ratio (z) = 0.49384 -0.14487
#
# Static dielectric constant tensor:
#      x y z
#    x 1.934650 -0.001670 -0.003990 
#    y -0.001670 1.951510 0.024490 
#    z -0.003990 0.024490 2.028380 
# 
# From -- ./inp_files/141264.got.cif
#   From: 2010.05.17/outbox.cif.g08.bks.cpg/sg2_71_cif.got.tgz:141264.got - 2010.06.03 11:33:40.
