data_PCOD9103975
_publ_section_title
;
Structure prediction by ZEFSAII (Michael W. Deem and Ramdas Pophale) SiO2 
 PCOD9103975
Probable space group: P -1
;
_chemical_formula_sum "Si O2"
_cell_formula_units_Z 12
_cell_length_a 8.481863
_cell_length_b 15.615132
_cell_length_c 7.651811
_cell_angle_alpha 32.984636
_cell_angle_beta 69.767745
_cell_angle_gamma 57.510226
_cell_volume 453.113408
_symmetry_space_group_name_H-M "P -1"
_symmetry_group_IT_number 2
_symmetry_cell_setting 'triclinic'
loop_
_space_group_symop_operation_xyz
x,y,z
-x,-y,-z
loop_
_atom_site_type_symbol
_atom_site_label
_atom_site_fract_x
_atom_site_fract_y
_atom_site_fract_z
Si Si1 0.296436 0.830125 0.265263
Si Si2 0.930626 0.319691 0.870856
Si Si3 0.902092 0.013845 0.286392
Si Si4 0.725470 0.714899 0.389894
Si Si5 0.171280 0.296633 0.246913
Si Si6 0.323868 0.507281 0.660110
O O1 0.500917 0.804062 0.284304
O O2 0.300500 0.638053 0.604325
O O3 0.111499 0.962372 0.218908
O O4 0.245709 0.885945 0.986958
O O5 0.817953 0.496790 0.727535
O O6 0.850119 0.399095 0.569876
O O7 0.154307 0.255744 0.860779
O O8 0.871617 0.164082 0.185463
O O9 0.887822 0.831677 0.619276
O O10 0.756809 0.778347 0.458228
O O11 0.331008 0.327370 0.033446
O O12 0.000000 0.500000 0.000000
O O13 0.500000 0.500000 0.500000
#
# Coordination Sequence:
#
# PCOD9103975 Si02
#       6
#     2   2   2   2   2   2
#     4  10  20  38  70  96 133 173 224 265 339 397
#     4  10  22  41  68  99 135 174 222 270 339 391
#     4  10  22  41  66 100 133 177 217 278 330 402
#     4  11  22  39  72 102 131 178 223 275 325 404
#     4  12  23  42  67  97 135 177 228 271 336 398
#     4  11  21  42  67  89 132 181 220 263 339 404
#
# _framework density 26.483433999999999
#
# number of rings (size 3 to 8) (size 9 to 14) (size 15 to 20)
#    0.000    1.333    5.000    2.000    0.000    3.333 
#    0.000    4.167    0.000    0.000    0.000    0.000 
#    0.000    0.000    0.000    0.000    0.000    0.000 
#
# Total GULP energy -67171.324514 kJ/mol
# GULP energy per Si atom -5597.610376 kJ/mol
# Density = 2.642316 g / cm^3
# Si number density = 26.483434 Si / 1000 Ang^3
#
#
#
# Elastic Constant Matrix: (Units=GPa)
#
#
# Indices 1 2 3 4 5 6 
#
# 1 167.3583 59.6842 39.8466 -10.0440 -12.7615 -5.9465
# 2 59.6842 92.6074 36.2595 -9.1033 -16.7030 11.8821
# 3 39.8466 36.2595 123.3075 -10.9190 -37.9281 1.2158
# 4 -10.0440 -9.1033 -10.9190 46.9404 16.2711 -19.8655
# 5 -12.7615 -16.7030 -37.9281 16.2711 50.4339 -13.7275
# 6 -5.9465 11.8821 1.2158 -19.8655 -13.7275 55.9624
#
#
#
# Elastic Compliance Matrix: (Units=1/GPa)
#
#
# Indices 1 2 3 4 5 6 
#
# 1 0.008216 -0.005061 -0.001141 0.001675 -0.000318 0.002489
# 2 -0.005061 0.015725 -0.002670 -0.000631 0.001096 -0.003774
# 3 -0.001141 -0.002670 0.011797 0.000058 0.008291 0.002244
# 4 0.001675 -0.000631 0.000058 0.027302 -0.006245 0.008471
# 5 -0.000318 0.001096 0.008291 -0.006245 0.029612 0.004601
# 6 0.002489 -0.003774 0.002244 0.008471 0.004601 0.023022
#
#
# Mechanical properties :
#
#
# Convention : Reuss Voigt Hill
#
# Bulk Modulus (GPa) = 55.57359 72.76156 64.16757
# Shear Modulus (GPa) = 35.86378 47.16622 41.51500
#
# Velocity S-wave (km/s) = 3.68393 4.22473 3.96357
# Velocity P-wave (km/s) = 6.25500 7.16462 6.72521
#
# Compressibility (1/GPa) = 0.01799416
#
# Stress axis : x y z
#
# Youngs Moduli (GPa) = 121.70932 63.59259 84.76812
#
# Poissons Ratio (x) = 0.32182 0.09672
# Poissons Ratio (y) = 0.61592 0.22637
# Poissons Ratio (z) = 0.13887 0.16982
#
# Static dielectric constant tensor:
#      x y z
#    x 2.056100 0.036480 -0.013590 
#    y 0.036480 2.080060 -0.038680 
#    z -0.013590 -0.038680 2.212000 
# 
# From -- ./inp_files/216309.got.cif
#   From: 2010.05.17/outbox.cif.g08.bks.cpg/sg2_109_cif.got.tgz:216309.got - 2010.06.03 11:33:40.
