data_PCOD9103147
_publ_section_title
;
Structure prediction by ZEFSAII (Michael W. Deem and Ramdas Pophale) SiO2 
 PCOD9103147
Probable space group: P -1
;
_chemical_formula_sum "Si O2"
_cell_formula_units_Z 16
_cell_length_a 10.047124
_cell_length_b 8.364217
_cell_length_c 14.326115
_cell_angle_alpha 49.112882
_cell_angle_beta 101.989567
_cell_angle_gamma 69.581667
_cell_volume 672.249344
_symmetry_space_group_name_H-M "P -1"
_symmetry_group_IT_number 2
_symmetry_cell_setting 'triclinic'
loop_
_space_group_symop_operation_xyz
x,y,z
-x,-y,-z
loop_
_atom_site_type_symbol
_atom_site_label
_atom_site_fract_x
_atom_site_fract_y
_atom_site_fract_z
Si Si1 0.019270 0.649511 0.217925
Si Si2 0.362075 0.820675 0.380603
Si Si3 0.677261 0.264340 0.983938
Si Si4 0.110600 0.240923 0.043950
Si Si5 0.117409 0.688359 0.673112
Si Si6 0.610335 0.889891 0.460884
Si Si7 0.662527 0.600974 0.015894
Si Si8 0.398496 0.659181 0.655694
O O1 0.959348 0.465164 0.289562
O O2 0.217606 0.435893 0.373191
O O3 0.868133 0.953250 0.124533
O O4 0.007571 0.703843 0.083469
O O5 0.500000 0.500000 0.500000
O O6 0.473478 0.927518 0.353169
O O7 0.327012 0.815953 0.486381
O O8 0.198943 0.980184 0.224381
O O9 0.678279 0.473970 0.966752
O O10 0.526462 0.269617 0.011996
O O11 0.602057 0.402576 0.816710
O O12 0.277759 0.215265 0.041681
O O13 0.000000 0.500000 0.000000
O O14 0.177516 0.664537 0.797029
O O15 0.301994 0.534153 0.703020
O O16 0.000000 0.000000 0.500000
O O17 0.500000 0.000000 0.500000
O O18 0.655313 0.091474 0.377584
#
# Coordination Sequence:
#
# PCOD9103147 Si02
#       8
#     2   2   2   2   2   2   2   2
#     4  11  23  40  67  99 121 164 222 261 310 374
#     4  11  24  39  59  90 126 160 201 255 310 364
#     4  10  21  41  65  93 124 160 213 271 310 375
#     4  11  23  40  64  90 126 168 212 254 308 385
#     4  10  20  38  65  90 121 161 207 258 313 378
#     4  10  21  40  60  85 124 165 204 246 314 377
#     4   9  22  40  65  89 126 166 206 258 334 366
#     4  10  20  39  65  85 122 167 202 248 321 370
#
# _framework density 23.800692000000002
#
# number of rings (size 3 to 8) (size 9 to 14) (size 15 to 20)
#    0.000    1.750    1.250    3.000    1.750    7.500 
#    0.000    4.375    0.000    0.000    0.000    0.000 
#    0.000    0.000    0.000    0.000    0.000    0.000 
#
# Total GULP energy -89280.935573 kJ/mol
# GULP energy per Si atom -5580.058473 kJ/mol
# Density = 2.374652 g / cm^3
# Si number density = 23.800692 Si / 1000 Ang^3
#
#
#
# Elastic Constant Matrix: (Units=GPa)
#
#
# Indices 1 2 3 4 5 6 
#
# 1 68.6242 -0.5370 -0.7264 3.6094 -1.9784 5.8554
# 2 -0.5370 48.2291 13.2452 -13.0357 -0.3701 -6.0818
# 3 -0.7264 13.2452 156.7679 -4.8728 7.3851 -11.5221
# 4 3.6094 -13.0357 -4.8728 44.0099 -4.2769 4.9671
# 5 -1.9784 -0.3701 7.3851 -4.2769 30.1871 -4.2728
# 6 5.8554 -6.0818 -11.5221 4.9671 -4.2728 19.3425
#
#
#
# Elastic Compliance Matrix: (Units=1/GPa)
#
#
# Indices 1 2 3 4 5 6 
#
# 1 0.015011 -0.000579 -0.000259 -0.000887 0.000264 -0.004595
# 2 -0.000579 0.023607 -0.001497 0.006473 0.002321 0.005557
# 3 -0.000259 -0.001497 0.006810 -0.000176 -0.001240 0.003436
# 4 -0.000887 0.006473 -0.000176 0.025408 0.003150 -0.003630
# 5 0.000264 0.002321 -0.001240 0.003150 0.034886 0.006809
# 6 -0.004595 0.005557 0.003436 -0.003630 0.006809 0.059320
#
#
# Mechanical properties :
#
#
# Convention : Reuss Voigt Hill
#
# Bulk Modulus (GPa) = 24.53524 33.06501 28.80012
# Shear Modulus (GPa) = 27.27792 36.15052 31.71422
#
# Velocity S-wave (km/s) = 3.38908 3.90152 3.65429
# Velocity P-wave (km/s) = 5.06414 5.84965 5.47101
#
# Compressibility (1/GPa) = 0.04075771
#
# Stress axis : x y z
#
# Youngs Moduli (GPa) = 66.61719 42.36029 146.85214
#
# Poissons Ratio (x) = 0.02452 0.03807
# Poissons Ratio (y) = 0.03856 0.21983
# Poissons Ratio (z) = 0.01727 0.06341
#
# Static dielectric constant tensor:
#      x y z
#    x 2.070030 -0.002490 -0.011730 
#    y -0.002490 1.839710 -0.015720 
#    z -0.011730 -0.015720 1.911590 
# 
# From -- ./inp_files/307900.got.cif
#   From: 2010.05.17/outbox.cif.g08.bks.cpg/sg2_154_cif.got.tgz:307900.got - 2010.06.03 11:33:40.
