data_PCOD9103567
_publ_section_title
;
Structure prediction by ZEFSAII (Michael W. Deem and Ramdas Pophale) SiO2 
 PCOD9103567
Probable space group: P -1
;
_chemical_formula_sum "Si O2"
_cell_formula_units_Z 14
_cell_length_a 15.330403
_cell_length_b 8.211495
_cell_length_c 7.580388
_cell_angle_alpha 100.301977
_cell_angle_beta 35.205449
_cell_angle_gamma 92.057263
_cell_volume 530.953545
_symmetry_space_group_name_H-M "P -1"
_symmetry_group_IT_number 2
_symmetry_cell_setting 'triclinic'
loop_
_space_group_symop_operation_xyz
x,y,z
-x,-y,-z
loop_
_atom_site_type_symbol
_atom_site_label
_atom_site_fract_x
_atom_site_fract_y
_atom_site_fract_z
Si Si1 0.231578 0.424588 0.226493
Si Si2 0.172936 0.394053 0.708373
Si Si3 0.607172 0.084052 0.970846
Si Si4 0.967173 0.254181 0.484809
Si Si5 0.175029 0.017689 0.714124
Si Si6 0.475621 0.476666 0.245418
Si Si7 0.786946 0.079763 0.007205
O O1 0.233226 0.342798 0.400287
O O2 0.109083 0.348612 0.303959
O O3 0.148482 0.621433 0.426555
O O4 0.399635 0.420547 0.864460
O O5 0.181442 0.216145 0.757189
O O6 0.295546 0.504314 0.594561
O O7 0.000000 0.500000 0.000000
O O8 0.664143 0.027716 0.062819
O O9 0.759682 0.052709 0.594724
O O10 0.532865 0.279521 0.151883
O O11 0.500000 0.000000 0.000000
O O12 0.858662 0.227865 0.826065
O O13 0.064308 0.070536 0.249827
O O14 0.268249 0.908531 0.697353
O O15 0.000000 0.000000 0.000000
O O16 0.500000 0.500000 0.000000
#
# Coordination Sequence:
#
# PCOD9103567 Si02
#       7
#     2   2   2   2   2   2   2
#     4  10  20  39  67  96 131 189 231 273 358 417
#     4  11  23  41  65  98 138 179 231 289 343 413
#     4  12  25  47  71  98 143 192 232 290 357 413
#     4  10  20  38  66  99 139 184 226 288 352 417
#     4  12  26  42  72 109 138 182 240 288 350 421
#     4  10  23  42  68  96 133 190 231 287 353 417
#     4  11  23  41  68 105 143 180 233 292 346 421
#
# _framework density 26.367654999999999
#
# number of rings (size 3 to 8) (size 9 to 14) (size 15 to 20)
#    0.000    1.143    2.857    4.286    6.000    0.571 
#    0.000    0.000    0.000    8.571    0.000    0.000 
#    0.000    0.000    0.000    0.000    0.000    0.000 
#
# Total GULP energy -78278.854202 kJ/mol
# GULP energy per Si atom -5591.346729 kJ/mol
# Density = 2.630764 g / cm^3
# Si number density = 26.367655 Si / 1000 Ang^3
#
#
#
# Elastic Constant Matrix: (Units=GPa)
#
#
# Indices 1 2 3 4 5 6 
#
# 1 148.5194 33.0243 32.4523 -19.9211 -17.5389 -13.3062
# 2 33.0243 87.0843 33.1564 -24.2493 -2.8744 -12.2860
# 3 32.4523 33.1564 99.7170 -20.9843 -41.0681 8.4593
# 4 -19.9211 -24.2493 -20.9843 44.6144 11.6370 -6.3536
# 5 -17.5389 -2.8744 -41.0681 11.6370 57.8024 -15.9043
# 6 -13.3062 -12.2860 8.4593 -6.3536 -15.9043 46.1735
#
#
#
# Elastic Compliance Matrix: (Units=1/GPa)
#
#
# Indices 1 2 3 4 5 6 
#
# 1 0.008132 -0.001545 -0.001102 0.002190 0.002029 0.003134
# 2 -0.001545 0.016778 -0.005414 0.007524 -0.003681 0.004778
# 3 -0.001102 -0.005414 0.017135 0.001630 0.010999 -0.000885
# 4 0.002190 0.007524 0.001630 0.029630 -0.002214 0.005649
# 5 0.002029 -0.003681 0.010999 -0.002214 0.027890 0.006892
# 6 0.003134 0.004778 -0.000885 0.005649 0.006892 0.027145
#
#
# Mechanical properties :
#
#
# Convention : Reuss Voigt Hill
#
# Bulk Modulus (GPa) = 38.57645 59.17627 48.87636
# Shear Modulus (GPa) = 33.00898 45.49725 39.25311
#
# Velocity S-wave (km/s) = 3.54202 4.15841 3.86253
# Velocity P-wave (km/s) = 5.60267 6.74893 6.20233
#
# Compressibility (1/GPa) = 0.02592255
#
# Stress axis : x y z
#
# Youngs Moduli (GPa) = 122.97598 59.60158 58.35910
#
# Poissons Ratio (x) = 0.09209 0.06431
# Poissons Ratio (y) = 0.19002 0.31596
# Poissons Ratio (z) = 0.13552 0.32269
#
# Static dielectric constant tensor:
#      x y z
#    x 2.167080 0.082420 0.031570 
#    y 0.082420 2.113370 -0.035220 
#    z 0.031570 -0.035220 2.202630 
# 
# From -- ./inp_files/298094.got.cif
#   From: 2010.05.17/outbox.cif.g08.bks.cpg/sg2_150_cif.got.tgz:298094.got - 2010.06.03 11:33:40.
