data_PCOD9103327
_publ_section_title
;
Structure prediction by ZEFSAII (Michael W. Deem and Ramdas Pophale) SiO2 
 PCOD9103327
Probable space group: P -1
;
_chemical_formula_sum "Si O2"
_cell_formula_units_Z 14
_cell_length_a 7.951330
_cell_length_b 7.991775
_cell_length_c 11.367341
_cell_angle_alpha 110.720896
_cell_angle_beta 71.859194
_cell_angle_gamma 118.245444
_cell_volume 586.020762
_symmetry_space_group_name_H-M "P -1"
_symmetry_group_IT_number 2
_symmetry_cell_setting 'triclinic'
loop_
_space_group_symop_operation_xyz
x,y,z
-x,-y,-z
loop_
_atom_site_type_symbol
_atom_site_label
_atom_site_fract_x
_atom_site_fract_y
_atom_site_fract_z
Si Si1 0.363647 0.144852 0.482487
Si Si2 0.960239 0.574874 0.652286
Si Si3 0.829631 0.085094 0.742029
Si Si4 0.498751 0.148856 0.933848
Si Si5 0.791629 0.602785 0.309366
Si Si6 0.305561 0.948951 0.691430
Si Si7 0.604361 0.651858 0.796430
O O1 0.290547 0.317056 0.542295
O O2 0.567103 0.180410 0.387517
O O3 0.210054 0.957307 0.399712
O O4 0.377627 0.098858 0.604815
O O5 0.066120 0.494420 0.704352
O O6 0.084425 0.807928 0.687528
O O7 0.000000 0.500000 0.500000
O O8 0.739743 0.535731 0.717926
O O9 0.710639 0.206636 0.846100
O O10 0.056262 0.204550 0.743922
O O11 0.720596 0.865915 0.763959
O O12 0.355772 0.043545 0.831688
O O13 0.435301 0.303136 0.050211
O O14 0.500000 0.000000 0.000000
O O15 0.606939 0.464167 0.242221
#
# Coordination Sequence:
#
# PCOD9103327 Si02
#       7
#     2   2   2   2   2   2   2
#     4  10  20  38  65  98 130 166 216 268 327 387
#     4  12  24  39  64 100 133 169 219 268 325 390
#     4  10  21  41  67  92 127 172 214 266 327 384
#     4   9  20  41  66  93 127 172 223 264 315 388
#     4  12  24  41  66  97 133 170 211 271 329 377
#     4  10  21  39  66  95 130 173 215 270 326 380
#     4  11  25  44  66  96 132 172 220 266 317 390
#
# _framework density 23.889937
#
# number of rings (size 3 to 8) (size 9 to 14) (size 15 to 20)
#    0.000    1.429    0.000    6.429    0.000    5.143 
#    0.000    5.714    0.000    0.000    0.000    0.000 
#    0.000    0.000    0.000    0.000    0.000    0.000 
#
# Total GULP energy -78295.404286 kJ/mol
# GULP energy per Si atom -5592.528878 kJ/mol
# Density = 2.383556 g / cm^3
# Si number density = 23.889937 Si / 1000 Ang^3
#
#
#
# Elastic Constant Matrix: (Units=GPa)
#
#
# Indices 1 2 3 4 5 6 
#
# 1 144.6201 52.1458 75.9137 9.6497 -8.9098 24.1953
# 2 52.1458 106.7945 36.3445 0.5919 8.7064 23.8284
# 3 75.9137 36.3445 194.6424 12.2212 -0.4393 15.3119
# 4 9.6497 0.5919 12.2212 13.7328 -6.9444 6.5281
# 5 -8.9098 8.7064 -0.4393 -6.9444 39.7228 5.1071
# 6 24.1953 23.8284 15.3119 6.5281 5.1071 49.3862
#
#
#
# Elastic Compliance Matrix: (Units=1/GPa)
#
#
# Indices 1 2 3 4 5 6 
#
# 1 0.010679 -0.003840 -0.003135 -0.001724 0.003224 -0.002513
# 2 -0.003840 0.012612 -0.000758 0.003568 -0.002472 -0.004185
# 3 -0.003135 -0.000758 0.006751 -0.004736 -0.001364 0.000575
# 4 -0.001724 0.003568 -0.004736 0.092945 0.016754 -0.013427
# 5 0.003224 -0.002472 -0.001364 0.016754 0.030033 -0.005284
# 6 -0.002513 -0.004185 0.000575 -0.013427 -0.005284 0.025642
#
#
# Mechanical properties :
#
#
# Convention : Reuss Voigt Hill
#
# Bulk Modulus (GPa) = 68.60264 86.09614 77.34939
# Shear Modulus (GPa) = 25.12753 39.34523 32.23638
#
# Velocity S-wave (km/s) = 3.24667 4.06265 3.67736
# Velocity P-wave (km/s) = 6.54469 7.62389 7.10481
#
# Compressibility (1/GPa) = 0.01457670
#
# Stress axis : x y z
#
# Youngs Moduli (GPa) = 93.64394 79.28798 148.13312
#
# Poissons Ratio (x) = 0.30447 0.46435
# Poissons Ratio (y) = 0.35960 0.11224
# Poissons Ratio (z) = 0.29354 0.06008
#
# Static dielectric constant tensor:
#      x y z
#    x 1.961290 -0.097080 -0.016750 
#    y -0.097080 2.042050 0.003310 
#    z -0.016750 0.003310 1.892580 
# 
# From -- ./inp_files/377067.got.cif
#   From: 2010.05.17/outbox.cif.g08.bks.cpg/sg2_189_cif.got.tgz:377067.got - 2010.06.03 11:33:40.
