data_PCOD9103939
_publ_section_title
;
Structure prediction by ZEFSAII (Michael W. Deem and Ramdas Pophale) SiO2 
 PCOD9103939
Probable space group: P -1
;
_chemical_formula_sum "Si O2"
_cell_formula_units_Z 12
_cell_length_a 9.115435
_cell_length_b 9.485258
_cell_length_c 11.803727
_cell_angle_alpha 64.788661
_cell_angle_beta 136.534641
_cell_angle_gamma 83.278298
_cell_volume 462.892234
_symmetry_space_group_name_H-M "P -1"
_symmetry_group_IT_number 2
_symmetry_cell_setting 'triclinic'
loop_
_space_group_symop_operation_xyz
x,y,z
-x,-y,-z
loop_
_atom_site_type_symbol
_atom_site_label
_atom_site_fract_x
_atom_site_fract_y
_atom_site_fract_z
Si Si1 0.659229 0.168933 0.220420
Si Si2 0.266443 0.065120 0.093574
Si Si3 0.162162 0.245864 0.207850
Si Si4 0.244035 0.611573 0.406526
Si Si5 0.622122 0.488264 0.225948
Si Si6 0.130208 0.337908 0.407665
O O1 0.502097 0.086738 0.189209
O O2 0.532321 0.370015 0.159524
O O3 0.578475 0.271055 0.015113
O O4 0.000000 0.000000 0.500000
O O5 0.103573 0.183485 0.080344
O O6 0.521643 0.810653 0.335237
O O7 0.018977 0.133696 0.843572
O O8 0.071055 0.279614 0.276864
O O9 0.500000 0.000000 0.500000
O O10 0.000000 0.500000 0.000000
O O11 0.500000 0.500000 0.500000
O O12 0.360070 0.543346 0.620898
O O13 0.043328 0.562392 0.279259
O O14 0.946050 0.362840 0.400100
#
# Coordination Sequence:
#
# PCOD9103939 Si02
#       6
#     2   2   2   2   2   2
#     4  11  23  43  71 108 133 174 239 295 361 425
#     4  11  24  43  73 102 140 184 233 301 361 427
#     4  10  20  38  70 104 138 184 238 297 364 427
#     4  12  28  46  67  99 144 189 233 293 360 440
#     4  11  25  44  72 101 139 182 237 294 358 440
#     4  11  23  44  70 101 136 186 239 293 362 426
#
# _framework density 25.923960999999998
#
# number of rings (size 3 to 8) (size 9 to 14) (size 15 to 20)
#    0.000    1.000    5.000    0.500    2.333    5.333 
#    3.000    0.000    0.000    0.000    0.000    0.000 
#    0.000    0.000    0.000    0.000    0.000    0.000 
#
# Total GULP energy -66823.189268 kJ/mol
# GULP energy per Si atom -5568.599106 kJ/mol
# Density = 2.586496 g / cm^3
# Si number density = 25.923961 Si / 1000 Ang^3
#
#
#
# Elastic Constant Matrix: (Units=GPa)
#
#
# Indices 1 2 3 4 5 6 
#
# 1 132.8299 34.2526 69.9085 -0.0356 -6.5696 -21.9454
# 2 34.2526 41.1359 8.7868 -10.5863 -6.1016 -1.7855
# 3 69.9085 8.7868 197.0922 -12.2906 -5.2105 -39.0116
# 4 -0.0356 -10.5863 -12.2906 32.3965 -21.0301 -4.3214
# 5 -6.5696 -6.1016 -5.2105 -21.0301 57.1329 6.0923
# 6 -21.9454 -1.7855 -39.0116 -4.3214 6.0923 51.3764
#
#
#
# Elastic Compliance Matrix: (Units=1/GPa)
#
#
# Indices 1 2 3 4 5 6 
#
# 1 0.013077 -0.012271 -0.004315 -0.007435 -0.003110 0.001626
# 2 -0.012271 0.041186 0.004220 0.022638 0.011715 -0.000091
# 3 -0.004315 0.004220 0.007781 0.006627 0.002628 0.004458
# 4 -0.007435 0.022638 0.006627 0.055817 0.022211 0.004704
# 5 -0.003110 0.011715 0.002628 0.022211 0.026838 -0.000240
# 6 0.001626 -0.000091 0.004458 0.004704 -0.000240 0.023965
#
#
# Mechanical properties :
#
#
# Convention : Reuss Voigt Hill
#
# Bulk Modulus (GPa) = 26.80189 66.32820 46.56505
# Shear Modulus (GPa) = 24.29164 45.38850 34.84007
#
# Velocity S-wave (km/s) = 3.06442 4.18883 3.66995
# Velocity P-wave (km/s) = 4.78351 7.00259 5.99660
#
# Compressibility (1/GPa) = 0.03731080
#
# Stress axis : x y z
#
# Youngs Moduli (GPa) = 76.47257 24.28039 128.51291
#
# Poissons Ratio (x) = 0.29794 0.55456
# Poissons Ratio (y) = 0.93838 -0.54229
# Poissons Ratio (z) = 0.32999 -0.10246
#
# Static dielectric constant tensor:
#      x y z
#    x 2.060360 0.094940 -0.087270 
#    y 0.094940 2.050740 -0.134710 
#    z -0.087270 -0.134710 2.249120 
# 
# From -- ./inp_files/389554.got.cif
#   From: 2010.05.17/outbox.cif.g08.bks.cpg/sg2_195_cif.got.tgz:389554.got - 2010.06.03 11:33:40.
