data_PCOD9103015
_publ_section_title
;
Structure prediction by ZEFSAII (Michael W. Deem and Ramdas Pophale) SiO2 
 PCOD9103015
Probable space group: P -1
;
_chemical_formula_sum "Si O2"
_cell_formula_units_Z 16
_cell_length_a 10.167297
_cell_length_b 11.483306
_cell_length_c 9.819363
_cell_angle_alpha 100.493365
_cell_angle_beta 136.153202
_cell_angle_gamma 90.574979
_cell_volume 763.895776
_symmetry_space_group_name_H-M "P -1"
_symmetry_group_IT_number 2
_symmetry_cell_setting 'triclinic'
loop_
_space_group_symop_operation_xyz
x,y,z
-x,-y,-z
loop_
_atom_site_type_symbol
_atom_site_label
_atom_site_fract_x
_atom_site_fract_y
_atom_site_fract_z
Si Si1 0.201808 0.206302 0.643280
Si Si2 0.600294 0.872387 0.686430
Si Si3 0.413647 0.607989 0.028268
Si Si4 0.745264 0.999844 0.547856
Si Si5 0.341852 0.616688 0.488694
Si Si6 0.114163 0.637766 0.591412
Si Si7 0.120894 0.198358 0.899190
Si Si8 0.273890 0.466411 0.150770
O O1 0.405386 0.290264 0.768240
O O2 0.198597 0.203947 0.804121
O O3 0.030424 0.271480 0.483093
O O4 0.184165 0.075936 0.535756
O O5 0.456767 0.962481 0.629797
O O6 0.466063 0.738793 0.541617
O O7 0.711333 0.918039 0.640592
O O8 0.746307 0.863550 0.915842
O O9 0.281597 0.550655 0.043226
O O10 0.500000 0.500000 0.000000
O O11 0.287665 0.660397 0.833917
O O12 0.904953 0.120123 0.721893
O O13 0.203275 0.647356 0.508933
O O14 0.231538 0.529709 0.271561
O O15 0.504308 0.553821 0.667666
O O16 0.000000 0.500000 0.500000
O O17 0.143250 0.335152 0.998121
#
# Coordination Sequence:
#
# PCOD9103015 Si02
#       8
#     2   2   2   2   2   2   2   2
#     4  12  25  41  64  94 127 166 208 258 312 371
#     4  10  23  44  67  89 123 168 210 261 314 364
#     4  12  20  41  66  91 132 162 204 254 311 374
#     4  11  25  44  64  90 125 165 216 259 309 371
#     4  10  20  38  65  93 126 164 207 253 317 374
#     4  12  23  39  64  96 132 164 200 256 319 375
#     4  11  22  41  65  91 128 163 207 262 308 369
#     4  10  20  38  64  96 126 165 203 256 316 369
#
# _framework density 20.945264000000002
#
# number of rings (size 3 to 8) (size 9 to 14) (size 15 to 20)
#    0.000    1.000    3.750    3.000    0.000    3.500 
#    0.000   10.625    0.000    0.000    0.000    0.000 
#    0.000    0.000    0.000    0.000    0.000    0.000 
#
# Total GULP energy -89580.478554 kJ/mol
# GULP energy per Si atom -5598.779910 kJ/mol
# Density = 2.089759 g / cm^3
# Si number density = 20.945264 Si / 1000 Ang^3
#
#
#
# Elastic Constant Matrix: (Units=GPa)
#
#
# Indices 1 2 3 4 5 6 
#
# 1 62.0827 32.7150 32.2923 7.4066 -2.8611 3.1549
# 2 32.7150 44.6098 41.2687 -9.2563 -12.3441 8.1594
# 3 32.2923 41.2687 105.8697 -3.8114 -3.1814 -13.1189
# 4 7.4066 -9.2563 -3.8114 41.0143 1.2185 7.2803
# 5 -2.8611 -12.3441 -3.1814 1.2185 28.2603 1.4284
# 6 3.1549 8.1594 -13.1189 7.2803 1.4284 41.6993
#
#
#
# Elastic Compliance Matrix: (Units=1/GPa)
#
#
# Indices 1 2 3 4 5 6 
#
# 1 0.034533 -0.037743 0.004400 -0.015632 -0.012291 0.009307
# 2 -0.037743 0.099645 -0.029131 0.031280 0.036720 -0.032526
# 3 0.004400 -0.029131 0.020550 -0.007550 -0.010322 0.013504
# 4 -0.015632 0.031280 -0.007550 0.035722 0.010393 -0.013906
# 5 -0.012291 0.036720 -0.010322 0.010393 0.049227 -0.013003
# 6 0.009307 -0.032526 0.013504 -0.013906 -0.013003 0.036763
#
#
# Mechanical properties :
#
#
# Convention : Reuss Voigt Hill
#
# Bulk Modulus (GPa) = 33.57795 47.23492 40.40644
# Shear Modulus (GPa) = 12.15614 29.28052 20.71833
#
# Velocity S-wave (km/s) = 2.41171 3.74298 3.14851
# Velocity P-wave (km/s) = 4.88070 6.42498 5.70533
#
# Compressibility (1/GPa) = 0.02978145
#
# Stress axis : x y z
#
# Youngs Moduli (GPa) = 28.95761 10.03563 48.66151
#
# Poissons Ratio (x) = 0.37877 -0.21412
# Poissons Ratio (y) = 1.09295 1.41755
# Poissons Ratio (z) = -0.12742 0.29235
#
# Static dielectric constant tensor:
#      x y z
#    x 1.725070 -0.000100 0.009750 
#    y -0.000100 1.744370 0.005800 
#    z 0.009750 0.005800 1.764140 
# 
# From -- ./inp_files/188939.got.cif
#   From: 2010.05.17/outbox.cif.g08.bks.cpg/sg2_95_cif.got.tgz:188939.got - 2010.06.03 11:33:40.
