data_PCOD9103974
_publ_section_title
;
Structure prediction by ZEFSAII (Michael W. Deem and Ramdas Pophale) SiO2 
 PCOD9103974
Probable space group: P -1
;
_chemical_formula_sum "Si O2"
_cell_formula_units_Z 16
_cell_length_a 8.618344
_cell_length_b 7.605952
_cell_length_c 15.154270
_cell_angle_alpha 112.166186
_cell_angle_beta 98.426461
_cell_angle_gamma 128.902533
_cell_volume 606.162765
_symmetry_space_group_name_H-M "P -1"
_symmetry_group_IT_number 2
_symmetry_cell_setting 'triclinic'
loop_
_space_group_symop_operation_xyz
x,y,z
-x,-y,-z
loop_
_atom_site_type_symbol
_atom_site_label
_atom_site_fract_x
_atom_site_fract_y
_atom_site_fract_z
Si Si1 0.269831 0.828951 0.646406
Si Si2 0.787164 0.581953 0.530764
Si Si3 0.515481 0.316530 0.632123
Si Si4 0.936556 0.436712 0.753102
Si Si5 0.448512 0.001110 0.882756
Si Si6 0.289010 0.412768 0.918547
Si Si7 0.140619 0.239108 0.672784
Si Si8 0.859025 0.194929 0.888997
O O1 0.298514 0.631672 0.595086
O O2 0.001467 0.650479 0.603299
O O3 0.346528 0.994797 0.591769
O O4 0.408211 0.028496 0.781803
O O5 0.585926 0.418146 0.556384
O O6 0.924778 0.896820 0.575519
O O7 0.371195 0.367454 0.665643
O O8 0.756824 0.442769 0.715816
O O9 0.021931 0.341823 0.676620
O O10 0.839107 0.234476 0.791624
O O11 0.188526 0.758281 0.852429
O O12 0.608607 0.959254 0.871020
O O13 0.606238 0.280833 0.007168
O O14 0.224971 0.299610 0.793206
O O15 0.039818 0.184394 0.906186
O O16 0.500000 0.500000 0.000000
O O17 0.000000 0.500000 0.000000
#
# Coordination Sequence:
#
# PCOD9103974 Si02
#       8
#     2   2   2   2   2   2   2   2
#     4  10  20  38  70  96 128 170 222 268 326 388
#     4  10  21  40  66  98 129 172 215 277 326 380
#     4  11  21  41  70  93 129 176 219 264 331 389
#     4  11  23  41  66  94 131 176 217 269 321 392
#     4  11  21  41  65  94 128 175 217 260 331 387
#     4  10  21  38  64  93 128 166 211 269 321 383
#     4  10  25  42  61  99 137 161 222 271 319 394
#     4   9  21  37  61  87 125 167 211 261 316 375
#
# _framework density 26.395551000000001
#
# number of rings (size 3 to 8) (size 9 to 14) (size 15 to 20)
#    0.000    1.750    2.500    1.875    1.750    6.500 
#    0.000    3.125    0.000    0.000    0.000    0.000 
#    0.000    0.000    0.000    0.000    0.000    0.000 
#
# Total GULP energy -89347.545116 kJ/mol
# GULP energy per Si atom -5584.221570 kJ/mol
# Density = 2.633547 g / cm^3
# Si number density = 26.395551 Si / 1000 Ang^3
#
#
#
# Elastic Constant Matrix: (Units=GPa)
#
#
# Indices 1 2 3 4 5 6 
#
# 1 197.4187 51.0299 41.6422 -8.7850 19.1803 32.5051
# 2 51.0299 80.7982 27.4323 -11.8887 0.3682 32.1592
# 3 41.6422 27.4323 98.8819 -10.8101 -4.1545 7.0205
# 4 -8.7850 -11.8887 -10.8101 36.9142 0.3589 -2.8413
# 5 19.1803 0.3682 -4.1545 0.3589 49.5765 1.4002
# 6 32.5051 32.1592 7.0205 -2.8413 1.4002 64.9140
#
#
#
# Elastic Compliance Matrix: (Units=1/GPa)
#
#
# Indices 1 2 3 4 5 6 
#
# 1 0.006792 -0.002918 -0.002049 -0.000026 -0.002730 -0.001676
# 2 -0.002918 0.018721 -0.002980 0.003888 0.000919 -0.007341
# 3 -0.002049 -0.002980 0.012023 0.002153 0.001771 0.001258
# 4 -0.000026 0.003888 0.002153 0.028899 -0.000023 -0.000881
# 5 -0.002730 0.000919 0.001771 -0.000023 0.021362 0.000258
# 6 -0.001676 -0.007341 0.001258 -0.000881 0.000258 0.019701
#
#
# Mechanical properties :
#
#
# Convention : Reuss Voigt Hill
#
# Bulk Modulus (GPa) = 46.20746 68.58974 57.39860
# Shear Modulus (GPa) = 38.28313 47.41390 42.84851
#
# Velocity S-wave (km/s) = 3.81249 4.24286 4.03342
# Velocity P-wave (km/s) = 6.07651 7.07419 6.59424
#
# Compressibility (1/GPa) = 0.02164153
#
# Stress axis : x y z
#
# Youngs Moduli (GPa) = 147.23203 53.41622 83.17212
#
# Poissons Ratio (x) = 0.15588 0.17044
# Poissons Ratio (y) = 0.42965 0.24784
# Poissons Ratio (z) = 0.30172 0.15917
#
# Static dielectric constant tensor:
#      x y z
#    x 2.170920 -0.085730 -0.021190 
#    y -0.085730 2.164270 0.006520 
#    z -0.021190 0.006520 2.064370 
# 
# From -- ./inp_files/557467.got.cif
#   From: 2010.05.17/outbox.cif.g08.bks.cpg/sg2_279_cif.got.tgz:557467.got - 2010.06.03 11:33:40.
