data_PCOD9103536
_publ_section_title
;
Structure prediction by ZEFSAII (Michael W. Deem and Ramdas Pophale) SiO2 
 PCOD9103536
Probable space group: P -1
;
_chemical_formula_sum "Si O2"
_cell_formula_units_Z 16
_cell_length_a 10.667352
_cell_length_b 9.367688
_cell_length_c 10.989785
_cell_angle_alpha 122.261143
_cell_angle_beta 114.732453
_cell_angle_gamma 97.559570
_cell_volume 748.037319
_symmetry_space_group_name_H-M "P -1"
_symmetry_group_IT_number 2
_symmetry_cell_setting 'triclinic'
loop_
_space_group_symop_operation_xyz
x,y,z
-x,-y,-z
loop_
_atom_site_type_symbol
_atom_site_label
_atom_site_fract_x
_atom_site_fract_y
_atom_site_fract_z
Si Si1 0.777488 0.300326 0.529722
Si Si2 0.768058 0.454189 0.856623
Si Si3 0.626276 0.212327 0.185202
Si Si4 0.451690 0.389010 0.055805
Si Si5 0.888044 0.902755 0.605367
Si Si6 0.040596 0.708788 0.747145
Si Si7 0.893294 0.210638 0.917980
Si Si8 0.803387 0.921743 0.334791
O O1 0.736045 0.344720 0.665927
O O2 0.641623 0.247797 0.352118
O O3 0.930882 0.488724 0.635085
O O4 0.814175 0.123463 0.465904
O O5 0.788000 0.317767 0.903177
O O6 0.640416 0.520780 0.866018
O O7 0.935906 0.639775 0.994598
O O8 0.798387 0.252957 0.231939
O O9 0.579367 0.360159 0.169424
O O10 0.500000 0.000000 0.000000
O O11 0.330032 0.179737 0.863651
O O12 0.500000 0.500000 0.000000
O O13 0.777465 0.810419 0.401850
O O14 0.941969 0.775392 0.649818
O O15 0.835444 0.021053 0.728171
O O16 0.042820 0.048350 0.660838
O O17 0.085301 0.818274 0.944561
#
# Coordination Sequence:
#
# PCOD9103536 Si02
#       8
#     2   2   2   2   2   2   2   2
#     4  11  23  45  70  96 132 174 224 280 331 380
#     4  10  22  42  65  96 131 174 224 270 328 393
#     4  12  25  44  66  94 139 180 213 266 336 401
#     4  12  26  44  67  94 134 180 225 260 331 411
#     4  11  21  37  67 100 133 158 221 278 330 382
#     4  11  24  39  69 104 131 168 228 280 323 387
#     4  10  20  38  66  97 137 167 214 285 335 374
#     4  11  23  40  66  96 131 177 212 272 333 388
#
# _framework density 21.389309000000001
#
# number of rings (size 3 to 8) (size 9 to 14) (size 15 to 20)
#    0.000    1.000    5.000    1.500    1.750    1.500 
#    0.000    1.875    0.000    0.000    0.000    0.000 
#    0.000    0.000    0.000    0.000    0.000    0.000 
#
# Total GULP energy -89436.522032 kJ/mol
# GULP energy per Si atom -5589.782627 kJ/mol
# Density = 2.134063 g / cm^3
# Si number density = 21.389309 Si / 1000 Ang^3
#
#
#
# Elastic Constant Matrix: (Units=GPa)
#
#
# Indices 1 2 3 4 5 6 
#
# 1 41.0023 34.3170 19.4994 7.1965 -19.2485 -16.2233
# 2 34.3170 135.3400 29.1280 -22.1047 -11.1125 -26.5631
# 3 19.4994 29.1280 108.3695 -12.7424 -20.8856 -7.0276
# 4 7.1965 -22.1047 -12.7424 39.3758 -3.3033 -1.7874
# 5 -19.2485 -11.1125 -20.8856 -3.3033 30.4460 -0.3664
# 6 -16.2233 -26.5631 -7.0276 -1.7874 -0.3664 30.3110
#
#
#
# Elastic Compliance Matrix: (Units=1/GPa)
#
#
# Indices 1 2 3 4 5 6 
#
# 1 0.059676 -0.009910 -0.002157 -0.013517 0.031434 0.022339
# 2 -0.009910 0.012575 -0.000301 0.008983 -0.000833 0.006166
# 3 -0.002157 -0.000301 0.011724 0.004690 0.007098 0.001662
# 4 -0.013517 0.008983 0.004690 0.034748 0.001766 0.003796
# 5 0.031434 -0.000833 0.007098 0.001766 0.057698 0.018542
# 6 0.022339 0.006166 0.001662 0.003796 0.018542 0.051185
#
#
# Mechanical properties :
#
#
# Convention : Reuss Voigt Hill
#
# Bulk Modulus (GPa) = 16.88043 50.06672 33.47357
# Shear Modulus (GPa) = 18.37636 33.47773 25.92705
#
# Velocity S-wave (km/s) = 2.93429 3.96050 3.48537
# Velocity P-wave (km/s) = 4.40331 6.66125 5.64630
#
# Compressibility (1/GPa) = 0.05924021
#
# Stress axis : x y z
#
# Youngs Moduli (GPa) = 16.75706 79.52012 85.29564
#
# Poissons Ratio (x) = 0.78801 0.18396
# Poissons Ratio (y) = 0.16606 0.02571
# Poissons Ratio (z) = 0.03614 0.02397
#
# Static dielectric constant tensor:
#      x y z
#    x 1.766040 0.010660 0.039460 
#    y 0.010660 1.797960 -0.019990 
#    z 0.039460 -0.019990 1.866690 
# 
# From -- ./inp_files/420102.got.cif
#   From: 2010.05.17/outbox.cif.g08.bks.cpg/sg2_211_cif.got.tgz:420102.got - 2010.06.03 11:33:40.
