data_PCOD9103700
_publ_section_title
;
Structure prediction by ZEFSAII (Michael W. Deem and Ramdas Pophale) SiO2 
 PCOD9103700
Probable space group: P -1
;
_chemical_formula_sum "Si O2"
_cell_formula_units_Z 16
_cell_length_a 20.733162
_cell_length_b 8.820966
_cell_length_c 5.323591
_cell_angle_alpha 102.430337
_cell_angle_beta 108.317601
_cell_angle_gamma 127.594551
_cell_volume 615.892980
_symmetry_space_group_name_H-M "P -1"
_symmetry_group_IT_number 2
_symmetry_cell_setting 'triclinic'
loop_
_space_group_symop_operation_xyz
x,y,z
-x,-y,-z
loop_
_atom_site_type_symbol
_atom_site_label
_atom_site_fract_x
_atom_site_fract_y
_atom_site_fract_z
Si Si1 0.364415 0.390052 0.762624
Si Si2 0.918759 0.957468 0.219420
Si Si3 0.806361 0.262758 0.206287
Si Si4 0.533315 0.376623 0.522899
Si Si5 0.210743 0.539768 0.130654
Si Si6 0.649255 0.977064 0.527286
Si Si7 0.023820 0.356760 0.146858
Si Si8 0.833461 0.060742 0.531669
O O1 0.415417 0.567921 0.661392
O O2 0.245351 0.183575 0.522844
O O3 0.393459 0.251655 0.734064
O O4 0.392583 0.504575 0.107953
O O5 0.215612 0.597256 0.860981
O O6 0.975139 0.116739 0.103658
O O7 0.821709 0.689787 0.960403
O O8 0.882655 0.046473 0.361398
O O9 0.690686 0.209963 0.549948
O O10 0.921835 0.469253 0.492106
O O11 0.773425 0.102683 0.343957
O O12 0.747905 0.085408 0.841826
O O13 0.500000 0.500000 0.500000
O O14 0.434344 0.122095 0.400020
O O15 0.113592 0.462399 0.106223
O O16 0.000000 0.000000 0.500000
O O17 0.926890 0.273944 0.882208
#
# Coordination Sequence:
#
# PCOD9103700 Si02
#       8
#     2   2   2   2   2   2   2   2
#     4  11  23  39  63 101 134 168 216 268 338 396
#     4  12  24  45  58  85 129 179 226 263 316 393
#     4  10  23  40  61  96 133 160 213 270 332 383
#     4  10  20  38  67  97 133 167 212 271 340 391
#     4  10  23  41  63  92 125 169 217 265 323 390
#     4   9  20  41  66  95 132 165 209 275 331 386
#     4  12  23  38  67  87 129 171 226 260 328 382
#     4  12  26  38  64  92 135 173 213 275 326 385
#
# _framework density 25.978539000000001
#
# number of rings (size 3 to 8) (size 9 to 14) (size 15 to 20)
#    0.750    0.500    2.500    4.500    3.500    3.000 
#    0.000    0.000    0.000    1.500    0.000    0.000 
#    0.000    0.000    0.000    0.000    0.000    0.000 
#
# Total GULP energy -89200.033941 kJ/mol
# GULP energy per Si atom -5575.002121 kJ/mol
# Density = 2.591941 g / cm^3
# Si number density = 25.978539 Si / 1000 Ang^3
#
#
#
# Elastic Constant Matrix: (Units=GPa)
#
#
# Indices 1 2 3 4 5 6 
#
# 1 23.7084 19.1299 13.4523 9.7682 -6.5504 8.0739
# 2 19.1299 181.9992 34.9694 30.5263 2.3125 17.2942
# 3 13.4523 34.9694 133.6719 11.2478 -0.1192 2.2580
# 4 9.7682 30.5263 11.2478 53.3071 -0.9507 7.2984
# 5 -6.5504 2.3125 -0.1192 -0.9507 23.4673 9.2280
# 6 8.0739 17.2942 2.2580 7.2984 9.2280 38.4212
#
#
#
# Elastic Compliance Matrix: (Units=1/GPa)
#
#
# Indices 1 2 3 4 5 6 
#
# 1 0.061775 -0.003452 -0.004538 -0.005817 0.023498 -0.015700
# 2 -0.003452 0.006694 -0.001146 -0.002788 -0.001190 -0.001405
# 3 -0.004538 -0.001146 0.008252 -0.000488 -0.001717 0.001490
# 4 -0.005817 -0.002788 -0.000488 0.021757 0.000188 -0.001672
# 5 0.023498 -0.001190 -0.001717 0.000188 0.056312 -0.017862
# 6 -0.015700 -0.001405 0.001490 -0.001672 -0.017862 0.034479
#
#
# Mechanical properties :
#
#
# Convention : Reuss Voigt Hill
#
# Bulk Modulus (GPa) = 17.10942 52.72029 34.91486
# Shear Modulus (GPa) = 22.02404 41.16099 31.59252
#
# Velocity S-wave (km/s) = 2.91482 3.98480 3.49105
# Velocity P-wave (km/s) = 4.23421 6.44277 5.45151
#
# Compressibility (1/GPa) = 0.05844734
#
# Stress axis : x y z
#
# Youngs Moduli (GPa) = 16.18770 149.39057 121.18323
#
# Poissons Ratio (x) = 0.51574 0.54994
# Poissons Ratio (y) = 0.05589 0.13894
# Poissons Ratio (z) = 0.07346 0.17128
#
# Static dielectric constant tensor:
#      x y z
#    x 2.107730 0.043330 -0.025890 
#    y 0.043330 2.161000 -0.034240 
#    z -0.025890 -0.034240 2.065180 
# 
# From -- ./inp_files/126749.got.cif
#   From: 2010.05.17/outbox.cif.g08.bks.cpg/sg2_64_cif.got.tgz:126749.got - 2010.06.03 11:33:40.
