data_PCOD9103809
_publ_section_title
;
Structure prediction by ZEFSAII (Michael W. Deem and Ramdas Pophale) SiO2 
 PCOD9103809
Probable space group: P -1
;
_chemical_formula_sum "Si O2"
_cell_formula_units_Z 15
_cell_length_a 7.582777
_cell_length_b 10.780744
_cell_length_c 13.334713
_cell_angle_alpha 143.090380
_cell_angle_beta 122.355123
_cell_angle_gamma 59.724706
_cell_volume 546.737466
_symmetry_space_group_name_H-M "P -1"
_symmetry_group_IT_number 2
_symmetry_cell_setting 'triclinic'
loop_
_space_group_symop_operation_xyz
x,y,z
-x,-y,-z
loop_
_atom_site_type_symbol
_atom_site_label
_atom_site_fract_x
_atom_site_fract_y
_atom_site_fract_z
Si Si1 0.827438 0.061864 0.904249
Si Si2 0.468982 0.138090 0.178576
Si Si3 0.239616 0.409056 0.122537
Si Si4 0.656715 0.497534 0.187847
Si Si5 0.500000 0.500000 0.500000
Si Si6 0.729679 0.722618 0.535741
Si Si7 0.977100 0.844874 0.260351
Si Si8 0.325323 0.054976 0.587264
O O1 0.621928 0.002512 0.859196
O O2 0.876549 0.888403 0.722347
O O3 0.776785 0.309777 0.036178
O O4 0.000000 0.000000 0.000000
O O5 0.316671 0.349642 0.222347
O O6 0.635126 0.265643 0.359252
O O7 0.500000 0.000000 0.000000
O O8 0.445603 0.437272 0.136721
O O9 0.087485 0.627068 0.205830
O O10 0.123065 0.229292 0.920755
O O11 0.798250 0.552440 0.361012
O O12 0.612001 0.714387 0.255064
O O13 0.640755 0.613201 0.533612
O O14 0.523189 0.874039 0.528013
O O15 0.795535 0.939154 0.341233
O O16 0.156413 0.992485 0.415502
#
# Coordination Sequence:
#
# PCOD9103809 Si02
#       8
#     2   2   2   2   1   2   2   2
#     4  11  27  43  64 100 134 173 227 276 337 394
#     4  11  21  41  67  93 126 175 221 273 325 404
#     4  11  22  42  68  99 134 174 228 273 343 395
#     4  12  24  46  70  99 136 182 221 278 341 408
#     4  10  20  38  68  96 120 170 224 264 314 396
#     4  11  23  44  72  96 133 179 222 272 337 406
#     4  10  24  41  65 103 133 174 222 285 332 396
#     4  11  24  44  68 101 138 175 227 275 345 401
#
# _framework density 27.435473999999999
#
# number of rings (size 3 to 8) (size 9 to 14) (size 15 to 20)
#    0.000    1.067    4.000    1.200    3.733    3.733 
#    2.400    0.000    0.000    0.000    0.000    0.000 
#    0.000    0.000    0.000    0.000    0.000    0.000 
#
# Total GULP energy -83754.631315 kJ/mol
# GULP energy per Si atom -5583.642088 kJ/mol
# Density = 2.737303 g / cm^3
# Si number density = 27.435474 Si / 1000 Ang^3
#
#
#
# Elastic Constant Matrix: (Units=GPa)
#
#
# Indices 1 2 3 4 5 6 
#
# 1 70.0331 22.4643 32.9091 5.7415 7.7969 6.7041
# 2 22.4643 123.7546 17.7496 6.9232 18.2999 11.7285
# 3 32.9091 17.7496 178.8122 25.6933 13.4132 -1.4111
# 4 5.7415 6.9232 25.6933 55.7832 3.4589 5.5083
# 5 7.7969 18.2999 13.4132 3.4589 38.8107 -2.1714
# 6 6.7041 11.7285 -1.4111 5.5083 -2.1714 36.9067
#
#
#
# Elastic Compliance Matrix: (Units=1/GPa)
#
#
# Indices 1 2 3 4 5 6 
#
# 1 0.016685 -0.002171 -0.002788 0.000184 -0.001525 -0.002565
# 2 -0.002171 0.009384 -0.000204 -0.000321 -0.004045 -0.002786
# 3 -0.002788 -0.000204 0.006633 -0.002775 -0.001324 0.001161
# 4 0.000184 -0.000321 -0.002775 0.019575 -0.000839 -0.003008
# 5 -0.001525 -0.004045 -0.001324 -0.000839 0.028698 0.003326
# 6 -0.002565 -0.002786 0.001161 -0.003008 0.003326 0.029136
#
#
# Mechanical properties :
#
#
# Convention : Reuss Voigt Hill
#
# Bulk Modulus (GPa) = 44.68856 57.64953 51.16905
# Shear Modulus (GPa) = 39.09444 46.26526 42.67985
#
# Velocity S-wave (km/s) = 3.77896 4.11095 3.94845
# Velocity P-wave (km/s) = 5.94682 6.60239 6.28316
#
# Compressibility (1/GPa) = 0.02237709
#
# Stress axis : x y z
#
# Youngs Moduli (GPa) = 59.93271 106.56438 150.76026
#
# Poissons Ratio (x) = 0.23132 0.42026
# Poissons Ratio (y) = 0.13009 0.03081
# Poissons Ratio (z) = 0.16707 0.02178
#
# Static dielectric constant tensor:
#      x y z
#    x 2.134190 0.017040 -0.171800 
#    y 0.017040 2.143500 0.064480 
#    z -0.171800 0.064480 1.877730 
# 
# From -- ./inp_files/181190.got.cif
#   From: 2010.05.17/outbox.cif.g08.bks.cpg/sg2_91_cif.got.tgz:181190.got - 2010.06.03 11:33:40.
