data_PCOD9103751
_publ_section_title
;
Structure prediction by ZEFSAII (Michael W. Deem and Ramdas Pophale) SiO2 
 PCOD9103751
Probable space group: P -1
;
_chemical_formula_sum "Si O2"
_cell_formula_units_Z 16
_cell_length_a 9.040312
_cell_length_b 20.885628
_cell_length_c 11.488771
_cell_angle_alpha 141.313060
_cell_angle_beta 98.401273
_cell_angle_gamma 50.837254
_cell_volume 734.276753
_symmetry_space_group_name_H-M "P -1"
_symmetry_group_IT_number 2
_symmetry_cell_setting 'triclinic'
loop_
_space_group_symop_operation_xyz
x,y,z
-x,-y,-z
loop_
_atom_site_type_symbol
_atom_site_label
_atom_site_fract_x
_atom_site_fract_y
_atom_site_fract_z
Si Si1 0.311752 0.012092 0.525197
Si Si2 0.690445 0.478502 0.545885
Si Si3 0.185503 0.718303 0.268675
Si Si4 0.312981 0.173801 0.138467
Si Si5 0.827426 0.599789 0.368987
Si Si6 0.418768 0.226461 0.998694
Si Si7 0.132499 0.602788 0.294256
Si Si8 0.525316 0.252772 0.670556
O O1 0.990996 0.219005 0.771675
O O2 0.500000 0.000000 0.500000
O O3 0.395324 0.904460 0.497565
O O4 0.368625 0.905942 0.269626
O O5 0.500000 0.500000 0.500000
O O6 0.578610 0.659947 0.786975
O O7 0.721504 0.441637 0.635833
O O8 0.003057 0.305785 0.286893
O O9 0.056903 0.739663 0.397580
O O10 0.214262 0.823352 0.415204
O O11 0.500000 0.500000 0.000000
O O12 0.289978 0.296949 0.375449
O O13 0.428195 0.134983 0.969840
O O14 0.500000 0.000000 0.000000
O O15 0.627647 0.655778 0.340443
O O16 0.122280 0.384375 0.125661
O O17 0.891359 0.668815 0.404806
O O18 0.321929 0.418599 0.978090
#
# Coordination Sequence:
#
# PCOD9103751 Si02
#       8
#     2   2   2   2   2   2   2   2
#     4  12  25  40  66  94 129 171 215 258 316 382
#     4  10  21  43  68  89 125 169 212 265 319 373
#     4  10  24  39  60  89 134 165 204 261 319 379
#     4  10  23  42  62  95 127 165 221 266 304 376
#     4  10  20  38  68  88 128 168 209 259 318 384
#     4  10  23  42  66  94 126 168 220 260 308 388
#     4   9  19  38  61  91 124 161 207 256 316 385
#     4  11  21  40  62  96 129 160 209 265 324 370
#
# _framework density 21.790150000000001
#
# number of rings (size 3 to 8) (size 9 to 14) (size 15 to 20)
#    0.000    2.000    2.500    3.000    8.750    2.000 
#    4.500    0.625    0.000    0.000    0.000    0.000 
#    0.000    0.000    0.000    0.000    0.000    0.000 
#
# Total GULP energy -89267.923112 kJ/mol
# GULP energy per Si atom -5579.245194 kJ/mol
# Density = 2.174055 g / cm^3
# Si number density = 21.790150 Si / 1000 Ang^3
#
#
#
# Elastic Constant Matrix: (Units=GPa)
#
#
# Indices 1 2 3 4 5 6 
#
# 1 99.6543 30.3075 2.7791 11.7338 12.9788 -16.1976
# 2 30.3075 94.4859 4.8120 14.3865 2.0387 -7.9559
# 3 2.7791 4.8120 46.1535 8.1652 -7.4611 -11.5323
# 4 11.7338 14.3865 8.1652 31.8247 4.6846 3.1908
# 5 12.9788 2.0387 -7.4611 4.6846 23.6657 1.6385
# 6 -16.1976 -7.9559 -11.5323 3.1908 1.6385 56.2185
#
#
#
# Elastic Compliance Matrix: (Units=1/GPa)
#
#
# Indices 1 2 3 4 5 6 
#
# 1 0.012750 -0.003251 -0.000139 -0.002594 -0.006486 0.003521
# 2 -0.003251 0.012406 0.000312 -0.004850 0.001696 0.001109
# 3 -0.000139 0.000312 0.026151 -0.008779 0.009645 0.005586
# 4 -0.002594 -0.004850 -0.008779 0.038550 -0.008199 -0.005184
# 5 -0.006486 0.001696 0.009645 -0.008199 0.050375 -0.000653
# 6 0.003521 0.001109 0.005586 -0.005184 -0.000653 0.020418
#
#
# Mechanical properties :
#
#
# Convention : Reuss Voigt Hill
#
# Bulk Modulus (GPa) = 22.14846 35.12120 28.63483
# Shear Modulus (GPa) = 27.49424 35.83479 31.66451
#
# Velocity S-wave (km/s) = 3.55600 4.05969 3.81617
# Velocity P-wave (km/s) = 5.20064 6.17477 5.70852
#
# Compressibility (1/GPa) = 0.04514986
#
# Stress axis : x y z
#
# Youngs Moduli (GPa) = 78.43239 80.60718 38.24003
#
# Poissons Ratio (x) = 0.26207 0.00530
# Poissons Ratio (y) = 0.25500 -0.01191
# Poissons Ratio (z) = 0.01087 -0.02511
#
# Static dielectric constant tensor:
#      x y z
#    x 1.815610 -0.005700 -0.007530 
#    y -0.005700 1.841880 0.024820 
#    z -0.007530 0.024820 1.945280 
# 
# From -- ./inp_files/404947.got.cif
#   From: 2010.05.17/outbox.cif.g08.bks.cpg/sg2_203_cif.got.tgz:404947.got - 2010.06.03 11:33:40.
