data_PCOD9103449
_publ_section_title
;
Structure prediction by ZEFSAII (Michael W. Deem and Ramdas Pophale) SiO2 
 PCOD9103449
Probable space group: P -1
;
_chemical_formula_sum "Si O2"
_cell_formula_units_Z 16
_cell_length_a 12.964912
_cell_length_b 11.466455
_cell_length_c 7.933455
_cell_angle_alpha 104.733826
_cell_angle_beta 132.107118
_cell_angle_gamma 46.343286
_cell_volume 583.304492
_symmetry_space_group_name_H-M "P -1"
_symmetry_group_IT_number 2
_symmetry_cell_setting 'triclinic'
loop_
_space_group_symop_operation_xyz
x,y,z
-x,-y,-z
loop_
_atom_site_type_symbol
_atom_site_label
_atom_site_fract_x
_atom_site_fract_y
_atom_site_fract_z
Si Si1 0.889444 0.432852 0.538007
Si Si2 0.861999 0.197150 0.988619
Si Si3 0.393661 0.862111 0.809590
Si Si4 0.519626 0.687699 0.420147
Si Si5 0.767490 0.668205 0.937889
Si Si6 0.147141 0.194186 0.422601
Si Si7 0.829018 0.205269 0.359196
Si Si8 0.417693 0.969815 0.225687
O O1 0.649604 0.598443 0.356886
O O2 0.895564 0.288117 0.545590
O O3 0.004575 0.356238 0.457806
O O4 0.008780 0.452509 0.793272
O O5 0.810733 0.227677 0.145511
O O6 0.993472 0.235835 0.132308
O O7 0.640670 0.313615 0.713255
O O8 0.000000 0.000000 0.000000
O O9 0.617727 0.759299 0.966870
O O10 0.362521 0.738826 0.745504
O O11 0.244987 0.018936 0.569357
O O12 0.350647 0.947470 0.973381
O O13 0.682886 0.611236 0.714650
O O14 0.395541 0.889113 0.322802
O O15 0.708158 0.828195 0.834146
O O16 0.345973 0.142719 0.572748
O O17 0.000000 0.000000 0.500000
#
# Coordination Sequence:
#
# PCOD9103449 Si02
#       8
#     2   2   2   2   2   2   2   2
#     4  11  23  42  63  89 130 165 204 253 312 370
#     4  11  23  40  61  91 129 157 200 261 314 355
#     4  11  18  39  68  95 112 161 222 254 286 370
#     4  12  27  39  60  97 130 161 200 261 323 355
#     4  11  22  42  66  86 129 164 208 254 305 367
#     4  10  20  38  66  92 124 162 204 255 306 360
#     4  11  21  39  70  92 114 168 216 244 297 377
#     4  11  20  40  65  98 115 157 221 256 292 371
#
# _framework density 27.429925999999998
#
# number of rings (size 3 to 8) (size 9 to 14) (size 15 to 20)
#    0.000    1.000    6.250    3.000    0.000    2.500 
#    0.000    0.625    0.000    0.000    0.000    0.000 
#    0.000    0.000    0.000    0.000    0.000    0.000 
#
# Total GULP energy -89567.195299 kJ/mol
# GULP energy per Si atom -5597.949706 kJ/mol
# Density = 2.736749 g / cm^3
# Si number density = 27.429926 Si / 1000 Ang^3
#
#
#
# Elastic Constant Matrix: (Units=GPa)
#
#
# Indices 1 2 3 4 5 6 
#
# 1 93.4609 19.2462 44.7313 -0.1519 25.0882 6.7389
# 2 19.2462 60.7893 34.9909 -14.5409 18.5836 -13.8092
# 3 44.7313 34.9909 179.1616 9.4131 41.2090 -9.5946
# 4 -0.1519 -14.5409 9.4131 36.2385 -6.3693 5.8303
# 5 25.0882 18.5836 41.2090 -6.3693 54.5082 2.7109
# 6 6.7389 -13.8092 -9.5946 5.8303 2.7109 39.3744
#
#
#
# Elastic Compliance Matrix: (Units=1/GPa)
#
#
# Indices 1 2 3 4 5 6 
#
# 1 0.013526 -0.002917 -0.002163 -0.000596 -0.003490 -0.003536
# 2 -0.002917 0.024050 -0.003163 0.008640 -0.003811 0.007146
# 3 -0.002163 -0.003163 0.008203 -0.004615 -0.004780 0.002272
# 4 -0.000596 0.008640 -0.004615 0.033655 0.004915 -0.003314
# 5 -0.003490 -0.003811 -0.004780 0.004915 0.025658 -0.004398
# 6 -0.003536 0.007146 0.002272 -0.003314 -0.004398 0.029856
#
#
# Mechanical properties :
#
#
# Convention : Reuss Voigt Hill
#
# Bulk Modulus (GPa) = 34.13778 59.03874 46.58826
# Shear Modulus (GPa) = 31.01773 41.65376 36.33575
#
# Velocity S-wave (km/s) = 3.36638 3.90109 3.64356
# Velocity P-wave (km/s) = 5.25191 6.47005 5.89254
#
# Compressibility (1/GPa) = 0.02929306
#
# Stress axis : x y z
#
# Youngs Moduli (GPa) = 73.93023 41.58054 121.90807
#
# Poissons Ratio (x) = 0.12127 0.26366
# Poissons Ratio (y) = 0.21563 0.38565
# Poissons Ratio (z) = 0.15990 0.13154
#
# Static dielectric constant tensor:
#      x y z
#    x 2.171140 -0.041120 -0.013310 
#    y -0.041120 2.198370 0.027690 
#    z -0.013310 0.027690 2.168710 
# 
# From -- ./inp_files/314044.got.cif
#   From: 2010.05.17/outbox.cif.g08.bks.cpg/sg2_158_cif.got.tgz:314044.got - 2010.06.03 11:33:40.
