data_PCOD9103512
_publ_section_title
;
Structure prediction by ZEFSAII (Michael W. Deem and Ramdas Pophale) SiO2 
 PCOD9103512
Probable space group: P -1
;
_chemical_formula_sum "Si O2"
_cell_formula_units_Z 16
_cell_length_a 7.434939
_cell_length_b 5.189250
_cell_length_c 20.248091
_cell_angle_alpha 98.715807
_cell_angle_beta 104.967656
_cell_angle_gamma 91.273724
_cell_volume 744.444792
_symmetry_space_group_name_H-M "P -1"
_symmetry_group_IT_number 2
_symmetry_cell_setting 'triclinic'
loop_
_space_group_symop_operation_xyz
x,y,z
-x,-y,-z
loop_
_atom_site_type_symbol
_atom_site_label
_atom_site_fract_x
_atom_site_fract_y
_atom_site_fract_z
Si Si1 0.979702 0.264714 0.134492
Si Si2 0.220825 0.526556 0.764189
Si Si3 0.570229 0.966604 0.226034
Si Si4 0.459327 0.665799 0.436659
Si Si5 0.193747 0.759990 0.120010
Si Si6 0.201380 0.891551 0.509718
Si Si7 0.331428 0.661258 0.641610
Si Si8 0.371039 0.742224 0.992200
O O1 0.124501 0.465789 0.119290
O O2 0.954473 0.373778 0.210293
O O3 0.783845 0.293146 0.080473
O O4 0.038901 0.969792 0.124325
O O5 0.287126 0.253043 0.785044
O O6 0.213245 0.517414 0.683349
O O7 0.380457 0.764045 0.798023
O O8 0.366399 0.851394 0.186345
O O9 0.602634 0.063303 0.307945
O O10 0.500000 0.500000 0.500000
O O11 0.259405 0.771072 0.440036
O O12 0.487915 0.486944 0.369089
O O13 0.625614 0.891983 0.455706
O O14 0.264087 0.772577 0.052206
O O15 0.216768 0.696788 0.565606
O O16 0.000000 0.000000 0.500000
O O17 0.500000 0.500000 0.000000
O O18 0.500000 0.000000 0.000000
#
# Coordination Sequence:
#
# PCOD9103512 Si02
#       8
#     2   2   2   2   2   2   2   2
#     4  12  24  41  63  97 135 161 216 281 329 373
#     4  10  21  40  64  84 124 174 213 255 316 394
#     4  10  21  40  64  85 123 174 217 251 319 393
#     4   9  19  38  61  91 124 168 203 270 322 390
#     4  12  24  41  64  96 132 165 212 283 332 368
#     4  10  20  38  66  95 127 166 214 271 333 384
#     4   9  21  37  65  84 128 166 221 253 322 388
#     4  12  24  42  68  95 124 178 226 260 329 397
#
# _framework density 21.492528
#
# number of rings (size 3 to 8) (size 9 to 14) (size 15 to 20)
#    0.750    0.750    0.000    6.000    0.000    2.000 
#    0.000    7.500    0.000    0.000    0.000    0.000 
#    0.000    0.000    0.000    0.000    0.000    0.000 
#
# Total GULP energy -89290.063765 kJ/mol
# GULP energy per Si atom -5580.628985 kJ/mol
# Density = 2.144361 g / cm^3
# Si number density = 21.492528 Si / 1000 Ang^3
#
#
#
# Elastic Constant Matrix: (Units=GPa)
#
#
# Indices 1 2 3 4 5 6 
#
# 1 94.5062 6.1908 32.1419 -0.5917 -30.3605 -21.5347
# 2 6.1908 67.7379 -1.2951 12.0304 -10.3659 -11.3779
# 3 32.1419 -1.2951 65.8798 1.8213 -32.7398 -12.3824
# 4 -0.5917 12.0304 1.8213 23.5357 -2.5742 -6.3842
# 5 -30.3605 -10.3659 -32.7398 -2.5742 35.6524 6.5909
# 6 -21.5347 -11.3779 -12.3824 -6.3842 6.5909 53.3502
#
#
#
# Elastic Compliance Matrix: (Units=1/GPa)
#
#
# Indices 1 2 3 4 5 6 
#
# 1 0.015975 0.000813 -0.000682 0.002828 0.012445 0.005265
# 2 0.000813 0.018324 0.005922 -0.007755 0.010267 0.003414
# 3 -0.000682 0.005922 0.030561 -0.001106 0.028302 0.004452
# 4 0.002828 -0.007755 -0.001106 0.048093 0.001728 0.004773
# 5 0.012445 0.010267 0.028302 0.001728 0.066684 0.005751
# 6 0.005265 0.003414 0.004452 0.004773 0.005751 0.022491
#
#
# Mechanical properties :
#
#
# Convention : Reuss Voigt Hill
#
# Bulk Modulus (GPa) = 12.99263 33.57770 23.28516
# Shear Modulus (GPa) = 23.18283 35.24674 29.21479
#
# Velocity S-wave (km/s) = 3.28784 4.05403 3.69087
# Velocity P-wave (km/s) = 4.52454 6.12947 5.38711
#
# Compressibility (1/GPa) = 0.07696673
#
# Stress axis : x y z
#
# Youngs Moduli (GPa) = 62.59622 54.57426 32.72149
#
# Poissons Ratio (x) = -0.04439 0.02232
# Poissons Ratio (y) = -0.05092 -0.19377
# Poissons Ratio (z) = 0.04269 -0.32319
#
# Static dielectric constant tensor:
#      x y z
#    x 1.785300 -0.012270 -0.042390 
#    y -0.012270 1.820010 0.011440 
#    z -0.042390 0.011440 1.832080 
# 
# From -- ./inp_files/602954.got.cif
#   From: 2010.05.17/outbox.cif.g08.bks.cpg/sg2_302_cif.got.tgz:602954.got - 2010.06.03 11:33:40.
