data_PCOD9103850
_publ_section_title
;
Structure prediction by ZEFSAII (Michael W. Deem and Ramdas Pophale) SiO2 
 PCOD9103850
Probable space group: P -1
;
_chemical_formula_sum "Si O2"
_cell_formula_units_Z 16
_cell_length_a 11.213427
_cell_length_b 8.617279
_cell_length_c 19.944228
_cell_angle_alpha 48.148372
_cell_angle_beta 141.491536
_cell_angle_gamma 103.534548
_cell_volume 700.480151
_symmetry_space_group_name_H-M "P -1"
_symmetry_group_IT_number 2
_symmetry_cell_setting 'triclinic'
loop_
_space_group_symop_operation_xyz
x,y,z
-x,-y,-z
loop_
_atom_site_type_symbol
_atom_site_label
_atom_site_fract_x
_atom_site_fract_y
_atom_site_fract_z
Si Si1 0.808231 0.632171 0.585397
Si Si2 0.174637 0.829924 0.219526
Si Si3 0.816284 0.401581 0.019884
Si Si4 0.135148 0.520447 0.492115
Si Si5 0.697767 0.702640 0.019798
Si Si6 0.342138 0.925254 0.915027
Si Si7 0.339526 0.114144 0.278257
Si Si8 0.670270 0.215221 0.842137
O O1 0.766607 0.411294 0.642048
O O2 0.803190 0.665071 0.492776
O O3 0.079938 0.479587 0.777899
O O4 0.629603 0.890910 0.480034
O O5 0.233547 0.734427 0.196515
O O6 0.323033 0.936091 0.269089
O O7 0.895335 0.096541 0.025834
O O8 0.722141 0.623238 0.857092
O O9 0.747085 0.545986 0.019508
O O10 0.670470 0.282522 0.991723
O O11 0.115596 0.205059 0.202868
O O12 0.383474 0.453223 0.650097
O O13 0.000000 0.500000 0.500000
O O14 0.936039 0.814259 0.291069
O O15 0.457254 0.815201 0.924070
O O16 0.682425 0.955719 0.919946
O O17 0.500000 0.000000 0.000000
#
# Coordination Sequence:
#
# PCOD9103850 Si02
#       8
#     2   2   2   2   2   2   2   2
#     4  11  23  39  69 101 133 174 230 280 330 399
#     4  10  20  38  68  99 135 173 217 283 330 396
#     4  11  26  44  67  95 139 181 217 274 346 399
#     4  12  23  39  66  99 132 168 226 286 323 394
#     4  11  22  46  66  96 141 176 218 273 339 398
#     4  12  26  46  71  99 129 179 231 278 328 398
#     4  11  23  43  67  99 137 178 221 276 343 396
#     4  10  21  37  66 101 131 172 220 272 343 381
#
# _framework density 22.841474999999999
#
# number of rings (size 3 to 8) (size 9 to 14) (size 15 to 20)
#    0.000    1.000    5.000    1.500    3.500    0.500 
#    0.000    4.375    0.000    0.000    0.000    0.000 
#    0.000    0.000    0.000    0.000    0.000    0.000 
#
# Total GULP energy -89264.347657 kJ/mol
# GULP energy per Si atom -5579.021729 kJ/mol
# Density = 2.278949 g / cm^3
# Si number density = 22.841475 Si / 1000 Ang^3
#
#
#
# Elastic Constant Matrix: (Units=GPa)
#
#
# Indices 1 2 3 4 5 6 
#
# 1 155.1470 29.0517 19.4371 -12.9812 12.2917 -5.3644
# 2 29.0517 33.7129 9.7945 -11.3601 -1.8525 15.6129
# 3 19.4371 9.7945 127.2987 -8.9641 27.6811 8.0207
# 4 -12.9812 -11.3601 -8.9641 26.6993 -3.3304 2.9570
# 5 12.2917 -1.8525 27.6811 -3.3304 45.0906 -10.2570
# 6 -5.3644 15.6129 8.0207 2.9570 -10.2570 36.6703
#
#
#
# Elastic Compliance Matrix: (Units=1/GPa)
#
#
# Indices 1 2 3 4 5 6 
#
# 1 0.008646 -0.010281 -0.000709 -0.001170 -0.001164 0.005566
# 2 -0.010281 0.059847 0.000431 0.023838 0.000171 -0.028953
# 3 -0.000709 0.000431 0.009865 0.002821 -0.006669 -0.004538
# 4 -0.001170 0.023838 0.002821 0.049613 -0.000179 -0.014988
# 5 -0.001164 0.000171 -0.006669 -0.000179 0.028688 0.009254
# 6 0.005566 -0.028953 -0.004538 -0.014988 0.009254 0.045201
#
#
# Mechanical properties :
#
#
# Convention : Reuss Voigt Hill
#
# Bulk Modulus (GPa) = 17.47017 48.08058 32.77537
# Shear Modulus (GPa) = 20.65616 38.88373 29.76995
#
# Velocity S-wave (km/s) = 3.01047 4.13041 3.61408
# Velocity P-wave (km/s) = 4.44398 6.62136 5.63876
#
# Compressibility (1/GPa) = 0.05724044
#
# Stress axis : x y z
#
# Youngs Moduli (GPa) = 115.65807 16.70935 101.36337
#
# Poissons Ratio (x) = 0.17178 0.07187
# Poissons Ratio (y) = 1.18903 -0.04365
# Poissons Ratio (z) = 0.08201 -0.00720
#
# Static dielectric constant tensor:
#      x y z
#    x 1.852110 -0.037670 0.044890 
#    y -0.037670 1.892930 0.017460 
#    z 0.044890 0.017460 1.936710 
# 
# From -- ./inp_files/593484.got.cif
#   From: 2010.05.17/outbox.cif.g08.bks.cpg/sg2_297_cif.got.tgz:593484.got - 2010.06.03 11:33:40.
