data_PCOD9103761
_publ_section_title
;
Structure prediction by ZEFSAII (Michael W. Deem and Ramdas Pophale) SiO2 
 PCOD9103761
Probable space group: P -1
;
_chemical_formula_sum "Si O2"
_cell_formula_units_Z 16
_cell_length_a 10.922233
_cell_length_b 20.487181
_cell_length_c 5.155457
_cell_angle_alpha 76.051864
_cell_angle_beta 96.151733
_cell_angle_gamma 43.967509
_cell_volume 706.644869
_symmetry_space_group_name_H-M "P -1"
_symmetry_group_IT_number 2
_symmetry_cell_setting 'triclinic'
loop_
_space_group_symop_operation_xyz
x,y,z
-x,-y,-z
loop_
_atom_site_type_symbol
_atom_site_label
_atom_site_fract_x
_atom_site_fract_y
_atom_site_fract_z
Si Si1 0.198501 0.251302 0.564933
Si Si2 0.766986 0.326322 0.023893
Si Si3 0.200213 0.547330 0.952672
Si Si4 0.548504 0.193097 0.496840
Si Si5 0.971986 0.806788 0.282533
Si Si6 0.058532 0.039479 0.142653
Si Si7 0.363882 0.760281 0.006069
Si Si8 0.079494 0.539597 0.428240
O O1 0.021618 0.331470 0.243323
O O2 0.380570 0.213347 0.529045
O O3 0.203607 0.170764 0.719926
O O4 0.106396 0.332729 0.704191
O O5 0.683191 0.435766 0.957518
O O6 0.888020 0.253214 0.377662
O O7 0.625780 0.324536 0.925820
O O8 0.904743 0.274564 0.852779
O O9 0.220814 0.504605 0.721794
O O10 0.190433 0.498038 0.224903
O O11 0.519192 0.251167 0.181062
O O12 0.735411 0.067789 0.591633
O O13 0.589540 0.225823 0.718693
O O14 0.918875 0.903945 0.085790
O O15 0.870604 0.129966 0.193310
O O16 0.000000 0.000000 0.000000
O O17 0.000000 0.500000 0.500000
#
# Coordination Sequence:
#
# PCOD9103761 Si02
#       8
#     2   2   2   2   2   2   2   2
#     4   9  22  33  53  76 113 133 171 203 268 321
#     4  10  16  33  52  75  99 132 177 220 251 293
#     4   9  18  32  54  78 106 128 164 215 254 310
#     4  11  22  33  50  74 106 143 174 216 260 303
#     4  10  19  31  53  72 104 138 170 219 262 298
#     4   9  19  35  51  73 103 136 187 225 249 288
#     4  10  21  33  53  73 100 141 183 223 249 291
#     4  10  19  33  55  83 106 130 164 205 259 316
#
# _framework density 22.642206999999999
#
# number of rings (size 3 to 8) (size 9 to 14) (size 15 to 20)
#    0.750    1.500    1.250    3.000    1.750    3.500 
#    0.000    0.000    0.000   10.500    0.000    5.250 
#    0.000    0.000    0.000    0.000    0.000    0.000 
#
# Total GULP energy -89245.142471 kJ/mol
# GULP energy per Si atom -5577.821404 kJ/mol
# Density = 2.259067 g / cm^3
# Si number density = 22.642207 Si / 1000 Ang^3
#
#
#
# Elastic Constant Matrix: (Units=GPa)
#
#
# Indices 1 2 3 4 5 6 
#
# 1 105.3728 -41.9404 -18.0150 -54.6752 21.7513 12.2553
# 2 -41.9404 -150.6204 -51.9237 -95.4105 110.4072 5.9467
# 3 -18.0150 -51.9237 54.4523 -10.0665 13.1137 1.8217
# 4 -54.6752 -95.4105 -10.0665 -22.4361 62.4894 -9.4832
# 5 21.7513 110.4072 13.1137 62.4894 -27.7502 -0.9356
# 6 12.2553 5.9467 1.8217 -9.4832 -0.9356 46.1746
#
#
#
# Elastic Compliance Matrix: (Units=1/GPa)
#
#
# Indices 1 2 3 4 5 6 
#
# 1 0.010982 -0.006796 -0.001656 0.009609 0.002423 0.000048
# 2 -0.006796 0.018176 0.007427 -0.025665 0.012900 -0.005840
# 3 -0.001656 0.007427 0.020664 -0.013487 0.007779 -0.003945
# 4 0.009609 -0.025665 -0.013487 0.045422 0.000975 0.010635
# 5 0.002423 0.012900 0.007779 0.000975 0.023124 -0.001943
# 6 0.000048 -0.005840 -0.003945 0.010635 -0.001943 0.024697
#
#
# Mechanical properties :
#
#
# Convention : Reuss Voigt Hill
#
# Bulk Modulus (GPa) = 20.93291 -23.83928 -1.45319
# Shear Modulus (GPa) = 31.04817 7.26990 19.15903
#
# Velocity S-wave (km/s) = 3.70706 1.79381 2.91205
# Velocity P-wave (km/s) = 5.25245 2.50224 3.26550
#
# Compressibility (1/GPa) = 0.04777167
#
# Stress axis : x y z
#
# Youngs Moduli (GPa) = 91.05613 55.01856 48.39254
#
# Poissons Ratio (x) = 0.37393 0.08014
# Poissons Ratio (y) = 0.61886 -0.35942
# Poissons Ratio (z) = 0.15079 -0.40863
#
# Static dielectric constant tensor:
#      x y z
#    x 1.861550 -0.022430 -0.003900 
#    y -0.022430 1.943150 -0.028160 
#    z -0.003900 -0.028160 1.846170 
# 
# From -- ./inp_files/51165.got.cif
#   From: 2010.05.17/outbox.cif.g08.bks.cpg/sg2_26_cif.got.tgz:51165.got - 2010.06.03 11:33:40.
