data_PCOD9103219
_publ_section_title
;
Structure prediction by ZEFSAII (Michael W. Deem and Ramdas Pophale) SiO2 
 PCOD9103219
Probable space group: P -1
;
_chemical_formula_sum "Si O2"
_cell_formula_units_Z 16
_cell_length_a 26.571253
_cell_length_b 11.404728
_cell_length_c 8.950050
_cell_angle_alpha 139.719671
_cell_angle_beta 151.798923
_cell_angle_gamma 27.658836
_cell_volume 593.033162
_symmetry_space_group_name_H-M "P -1"
_symmetry_group_IT_number 2
_symmetry_cell_setting 'triclinic'
loop_
_space_group_symop_operation_xyz
x,y,z
-x,-y,-z
loop_
_atom_site_type_symbol
_atom_site_label
_atom_site_fract_x
_atom_site_fract_y
_atom_site_fract_z
Si Si1 0.747748 0.664839 0.063952
Si Si2 0.433672 0.486934 0.004499
Si Si3 0.571363 0.077334 0.527605
Si Si4 0.303406 0.367648 0.769807
Si Si5 0.225798 0.981404 0.602864
Si Si6 0.001500 0.744990 0.156235
Si Si7 0.873744 0.759435 0.107130
Si Si8 0.846014 0.275119 0.718522
O O1 0.578828 0.838650 0.733720
O O2 0.844494 0.464362 0.990207
O O3 0.737079 0.577508 0.109805
O O4 0.789051 0.825466 0.349579
O O5 0.441509 0.690220 0.268385
O O6 0.595690 0.245728 0.127301
O O7 0.406996 0.398560 0.997669
O O8 0.301561 0.592911 0.643393
O O9 0.621289 0.917196 0.349125
O O10 0.712039 0.859796 0.785540
O O11 0.150236 0.575839 0.481169
O O12 0.169374 0.846021 0.300773
O O13 0.123679 0.140423 0.635985
O O14 0.022687 0.863166 0.195131
O O15 0.875623 0.890037 0.094141
O O16 0.007152 0.537505 0.897853
#
# Coordination Sequence:
#
# PCOD9103219 Si02
#       8
#     2   2   2   2   2   2   2   2
#     4  12  24  38  60  92 132 161 193 246 313 371
#     4  11  22  37  61  94 119 162 204 247 307 358
#     4  11  21  38  63  91 125 154 201 252 301 362
#     4  10  24  41  60  87 128 169 197 241 306 366
#     4  12  22  35  61  94 123 156 199 250 314 352
#     4   9  21  42  65  87 117 160 212 255 291 355
#     4  10  20  38  65  93 116 156 206 259 304 344
#     4  11  22  38  61  91 122 155 205 258 298 353
#
# _framework density 26.979942999999999
#
# number of rings (size 3 to 8) (size 9 to 14) (size 15 to 20)
#    0.000    1.250    5.000    1.500    0.000    3.000 
#    0.000    0.625    0.000    0.750    0.000    0.000 
#    0.000    0.000    0.000    0.000    0.000    0.000 
#
# Total GULP energy -89436.253365 kJ/mol
# GULP energy per Si atom -5589.765835 kJ/mol
# Density = 2.691854 g / cm^3
# Si number density = 26.979943 Si / 1000 Ang^3
#
#
#
# Elastic Constant Matrix: (Units=GPa)
#
#
# Indices 1 2 3 4 5 6 
#
# 1 221.4438 46.0910 45.4962 5.7775 19.3599 11.0061
# 2 46.0910 69.1820 39.0984 20.1147 -6.1261 1.4364
# 3 45.4962 39.0984 79.5017 1.4473 8.6653 15.0964
# 4 5.7775 20.1147 1.4473 39.1869 -3.2030 5.8914
# 5 19.3599 -6.1261 8.6653 -3.2030 42.9380 8.0338
# 6 11.0061 1.4364 15.0964 5.8914 8.0338 46.8324
#
#
#
# Elastic Compliance Matrix: (Units=1/GPa)
#
#
# Indices 1 2 3 4 5 6 
#
# 1 0.005756 -0.003745 -0.001068 0.000971 -0.002740 -0.000546
# 2 -0.003745 0.029292 -0.013684 -0.014195 0.006627 0.005041
# 3 -0.001068 -0.013684 0.021456 0.007023 -0.004074 -0.006430
# 4 0.000971 -0.014195 0.007023 0.033316 -0.000234 -0.006208
# 5 -0.002740 0.006627 -0.004074 -0.000234 0.026801 -0.002814
# 6 -0.000546 0.005041 -0.006430 -0.006208 -0.002814 0.024663
#
#
# Mechanical properties :
#
#
# Convention : Reuss Voigt Hill
#
# Bulk Modulus (GPa) = 51.25183 70.16653 60.70918
# Shear Modulus (GPa) = 27.05889 41.75424 34.40657
#
# Velocity S-wave (km/s) = 3.17034 3.93823 3.57496
# Velocity P-wave (km/s) = 5.69551 6.83688 6.29213
#
# Compressibility (1/GPa) = 0.01951150
#
# Stress axis : x y z
#
# Youngs Moduli (GPa) = 173.73331 34.13854 46.60673
#
# Poissons Ratio (x) = 0.12785 0.04975
# Poissons Ratio (y) = 0.65065 0.63776
# Poissons Ratio (z) = 0.18546 0.46715
#
# Static dielectric constant tensor:
#      x y z
#    x 2.120300 0.052030 -0.021270 
#    y 0.052030 2.261930 0.029560 
#    z -0.021270 0.029560 2.180710 
# 
# From -- ./inp_files/306271.got.cif
#   From: 2010.05.17/outbox.cif.g08.bks.cpg/sg2_154_cif.got.tgz:306271.got - 2010.06.03 11:33:40.
