data_PCOD9103239
_publ_section_title
;
Structure prediction by ZEFSAII (Michael W. Deem and Ramdas Pophale) SiO2 
 PCOD9103239
Probable space group: P -1
;
_chemical_formula_sum "Si O2"
_cell_formula_units_Z 16
_cell_length_a 9.322976
_cell_length_b 8.519372
_cell_length_c 15.041840
_cell_angle_alpha 45.814946
_cell_angle_beta 122.053701
_cell_angle_gamma 97.853026
_cell_volume 670.504193
_symmetry_space_group_name_H-M "P -1"
_symmetry_group_IT_number 2
_symmetry_cell_setting 'triclinic'
loop_
_space_group_symop_operation_xyz
x,y,z
-x,-y,-z
loop_
_atom_site_type_symbol
_atom_site_label
_atom_site_fract_x
_atom_site_fract_y
_atom_site_fract_z
Si Si1 0.570164 0.576590 0.904067
Si Si2 0.986484 0.241409 0.451958
Si Si3 0.610019 0.947084 0.275338
Si Si4 0.340138 0.754446 0.339209
Si Si5 0.021818 0.502190 0.901476
Si Si6 0.267469 0.898795 0.924656
Si Si7 0.959463 0.724599 0.168283
Si Si8 0.869457 0.018095 0.653610
O O1 0.433378 0.844988 0.745838
O O2 0.500000 0.500000 0.000000
O O3 0.764827 0.559040 0.009596
O O4 0.613842 0.382665 0.917347
O O5 0.923907 0.487584 0.280198
O O6 0.862685 0.223468 0.501849
O O7 0.183807 0.220939 0.563725
O O8 0.000000 0.000000 0.500000
O O9 0.629623 0.016655 0.152363
O O10 0.436685 0.876031 0.256658
O O11 0.500000 0.500000 0.500000
O O12 0.150810 0.727679 0.264758
O O13 0.289689 0.894280 0.361008
O O14 0.004544 0.296883 0.917094
O O15 0.889154 0.763114 0.721203
O O16 0.000000 0.500000 0.000000
O O17 0.206457 0.057933 0.928823
O O18 0.070516 0.939209 0.797840
#
# Coordination Sequence:
#
# PCOD9103239 Si02
#       8
#     2   2   2   2   2   2   2   2
#     4   9  19  40  65  87 120 168 220 256 311 374
#     4  11  21  38  66  95 127 169 223 262 313 394
#     4  10  20  38  65  93 134 174 202 263 332 381
#     4  11  22  38  59  98 137 164 200 265 335 384
#     4  11  22  42  65  87 124 177 215 262 319 393
#     4   8  19  37  64  93 118 167 216 265 307 374
#     4  11  23  40  64  98 130 166 222 264 318 394
#     4   9  20  37  61  88 122 170 212 249 324 384
#
# _framework density 23.862638
#
# number of rings (size 3 to 8) (size 9 to 14) (size 15 to 20)
#    0.000    2.000    2.500    1.500    1.750    1.500 
#    0.000   17.500    0.000    0.000    0.000    0.000 
#    0.000    0.000    0.000    0.000    0.000    0.000 
#
# Total GULP energy -89202.080302 kJ/mol
# GULP energy per Si atom -5575.130019 kJ/mol
# Density = 2.380833 g / cm^3
# Si number density = 23.862638 Si / 1000 Ang^3
#
#
#
# Elastic Constant Matrix: (Units=GPa)
#
#
# Indices 1 2 3 4 5 6 
#
# 1 142.6163 38.0534 20.2090 -7.5657 -4.3684 -15.6586
# 2 38.0534 125.3671 22.0923 -12.7953 -2.9716 -35.1077
# 3 20.2090 22.0923 43.8524 -10.4849 -5.5553 -8.9155
# 4 -7.5657 -12.7953 -10.4849 26.8428 -1.8028 3.2438
# 5 -4.3684 -2.9716 -5.5553 -1.8028 26.6095 -10.8263
# 6 -15.6586 -35.1077 -8.9155 3.2438 -10.8263 40.0053
#
#
#
# Elastic Compliance Matrix: (Units=1/GPa)
#
#
# Indices 1 2 3 4 5 6 
#
# 1 0.007981 -0.001466 -0.002299 0.000545 0.001376 0.001653
# 2 -0.001466 0.012342 -0.001664 0.003855 0.005559 0.011078
# 3 -0.002299 -0.001664 0.029302 0.009891 0.008534 0.005678
# 4 0.000545 0.003855 0.009891 0.043079 0.007240 0.004267
# 5 0.001376 0.005559 0.008534 0.007240 0.048813 0.019942
# 6 0.001653 0.011078 0.005678 0.004267 0.019942 0.041682
#
#
# Mechanical properties :
#
#
# Convention : Reuss Voigt Hill
#
# Bulk Modulus (GPa) = 25.79474 52.50503 39.14988
# Shear Modulus (GPa) = 24.15687 34.12358 29.14022
#
# Velocity S-wave (km/s) = 3.18517 3.78564 3.49831
# Velocity P-wave (km/s) = 4.93560 6.41552 5.72359
#
# Compressibility (1/GPa) = 0.03876760
#
# Stress axis : x y z
#
# Youngs Moduli (GPa) = 125.29156 81.02096 34.12755
#
# Poissons Ratio (x) = 0.11881 0.07844
# Poissons Ratio (y) = 0.18372 0.05679
# Poissons Ratio (z) = 0.28799 0.13483
#
# Static dielectric constant tensor:
#      x y z
#    x 1.885220 0.034070 -0.079070 
#    y 0.034070 2.070750 -0.036990 
#    z -0.079070 -0.036990 2.005100 
# 
# From -- ./inp_files/492092.got.cif
#   From: 2010.05.17/outbox.cif.g08.bks.cpg/sg2_247_cif.got.tgz:492092.got - 2010.06.03 11:33:40.
