data_PCOD9103044
_publ_section_title
;
Structure prediction by ZEFSAII (Michael W. Deem and Ramdas Pophale) SiO2 
 PCOD9103044
Probable space group: P -1
;
_chemical_formula_sum "Si O2"
_cell_formula_units_Z 14
_cell_length_a 10.342118
_cell_length_b 9.815675
_cell_length_c 23.187057
_cell_angle_alpha 37.470399
_cell_angle_beta 31.272849
_cell_angle_gamma 28.994645
_cell_volume 582.273140
_symmetry_space_group_name_H-M "P -1"
_symmetry_group_IT_number 2
_symmetry_cell_setting 'triclinic'
loop_
_space_group_symop_operation_xyz
x,y,z
-x,-y,-z
loop_
_atom_site_type_symbol
_atom_site_label
_atom_site_fract_x
_atom_site_fract_y
_atom_site_fract_z
Si Si1 0.543693 0.589918 0.192320
Si Si2 0.269604 0.183011 0.081461
Si Si3 0.343908 0.250402 0.430362
Si Si4 0.201389 0.030188 0.866191
Si Si5 0.698913 0.138732 0.495210
Si Si6 0.559803 0.265395 0.639389
Si Si7 0.366481 0.597183 0.124903
O O1 0.511503 0.389044 0.309855
O O2 0.419786 0.587017 0.176736
O O3 0.918539 0.430487 0.109212
O O4 0.326110 0.921940 0.182406
O O5 0.412630 0.322445 0.009878
O O6 0.500000 0.000000 0.000000
O O7 0.000000 0.500000 0.500000
O O8 0.500000 0.000000 0.500000
O O9 0.339986 0.097657 0.427015
O O10 0.506465 0.709123 0.843098
O O11 0.321147 0.213805 0.774145
O O12 0.981580 0.167269 0.846660
O O13 0.000000 0.000000 0.000000
O O14 0.560923 0.233367 0.580322
O O15 0.532888 0.421698 0.424247
O O16 0.074613 0.978545 0.401841
#
# Coordination Sequence:
#
# PCOD9103044 Si02
#       7
#     2   2   2   2   2   2   2
#     4  11  22  41  66  93 127 173 219 264 312 388
#     4  10  20  38  64  97 123 157 218 262 309 382
#     4  12  26  44  62 100 139 170 217 269 346 402
#     4  12  25  42  60  98 132 166 212 267 338 389
#     4  10  22  43  69  94 122 170 223 278 313 387
#     4  10  22  43  70  93 123 167 229 273 321 377
#     4  11  22  41  66  90 127 171 215 263 310 380
#
# _framework density 24.043700000000001
#
# number of rings (size 3 to 8) (size 9 to 14) (size 15 to 20)
#    0.000    1.143    0.000    8.143    0.000    3.429 
#   15.429    0.000    0.000    0.000    0.000    0.000 
#    0.000    0.000    0.000    0.000    0.000    0.000 
#
# Total GULP energy -78312.836303 kJ/mol
# GULP energy per Si atom -5593.774022 kJ/mol
# Density = 2.398898 g / cm^3
# Si number density = 24.043700 Si / 1000 Ang^3
#
#
#
# Elastic Constant Matrix: (Units=GPa)
#
#
# Indices 1 2 3 4 5 6 
#
# 1 40.1765 11.6930 -1.1117 -4.6405 8.6286 -11.5152
# 2 11.6930 109.9935 32.5054 -28.2706 1.8600 -4.6686
# 3 -1.1117 32.5054 109.0289 -19.0610 -9.3621 -17.5218
# 4 -4.6405 -28.2706 -19.0610 41.5309 1.8813 -9.6922
# 5 8.6286 1.8600 -9.3621 1.8813 25.7134 2.7794
# 6 -11.5152 -4.6686 -17.5218 -9.6922 2.7794 28.8739
#
#
#
# Elastic Compliance Matrix: (Units=1/GPa)
#
#
# Indices 1 2 3 4 5 6 
#
# 1 0.036007 -0.001258 0.005187 0.011383 -0.013359 0.022411
# 2 -0.001258 0.012005 -0.001850 0.008024 -0.002054 0.003208
# 3 0.005187 -0.001850 0.013358 0.008320 0.001292 0.012544
# 4 0.011383 0.008024 0.008320 0.040852 -0.007093 0.025281
# 5 -0.013359 -0.002054 0.001292 -0.007093 0.045771 -0.011662
# 6 0.022411 0.003208 0.012544 0.025281 -0.011662 0.061311
#
#
# Mechanical properties :
#
#
# Convention : Reuss Voigt Hill
#
# Bulk Modulus (GPa) = 15.26081 38.37470 26.81776
# Shear Modulus (GPa) = 22.02755 33.63111 27.82933
#
# Velocity S-wave (km/s) = 3.03007 3.74404 3.40582
# Velocity P-wave (km/s) = 4.31308 5.88944 5.16179
#
# Compressibility (1/GPa) = 0.06552730
#
# Stress axis : x y z
#
# Youngs Moduli (GPa) = 27.77254 83.29777 74.86359
#
# Poissons Ratio (x) = 0.10477 -0.38829
# Poissons Ratio (y) = 0.03493 0.13849
# Poissons Ratio (z) = -0.14405 0.15410
#
# Static dielectric constant tensor:
#      x y z
#    x 0.696480 -0.977970 -0.833490 
#    y -0.977970 1.117590 -0.691080 
#    z -0.833490 -0.691080 1.420450 
# 
# From -- ./inp_files/476667.got.cif
#   From: 2010.05.17/outbox.cif.g08.bks.cpg/sg2_239_cif.got.tgz:476667.got - 2010.06.03 11:33:40.
