data_PCOD9103843
_publ_section_title
;
Structure prediction by ZEFSAII (Michael W. Deem and Ramdas Pophale) SiO2 
 PCOD9103843
Probable space group: P -1
;
_chemical_formula_sum "Si O2"
_cell_formula_units_Z 12
_cell_length_a 8.093429
_cell_length_b 8.395484
_cell_length_c 11.303702
_cell_angle_alpha 125.024658
_cell_angle_beta 95.512554
_cell_angle_gamma 58.774590
_cell_volume 515.117899
_symmetry_space_group_name_H-M "P -1"
_symmetry_group_IT_number 2
_symmetry_cell_setting 'triclinic'
loop_
_space_group_symop_operation_xyz
x,y,z
-x,-y,-z
loop_
_atom_site_type_symbol
_atom_site_label
_atom_site_fract_x
_atom_site_fract_y
_atom_site_fract_z
Si Si1 0.020913 0.367355 0.618529
Si Si2 0.272776 0.494378 0.536933
Si Si3 0.623624 0.115088 0.527038
Si Si4 0.327645 0.630113 0.141450
Si Si5 0.847542 0.653606 0.949610
Si Si6 0.921901 0.017094 0.135229
O O1 0.161225 0.378070 0.535693
O O2 0.820315 0.427277 0.565984
O O3 0.968473 0.559210 0.795390
O O4 0.149266 0.108292 0.574964
O O5 0.507637 0.295118 0.488010
O O6 0.197094 0.723834 0.708122
O O7 0.620249 0.257417 0.701326
O O8 0.500000 0.000000 0.500000
O O9 0.303474 0.425684 0.098862
O O10 0.119450 0.840527 0.154706
O O11 0.500000 0.500000 0.000000
O O12 0.782917 0.916280 0.079166
O O13 0.000000 0.500000 0.000000
O O14 0.000000 0.000000 0.000000
#
# Coordination Sequence:
#
# PCOD9103843 Si02
#       6
#     2   2   2   2   2   2
#     4  10  20  41  66  94 135 172 218 270 331 396
#     4  10  20  38  68  98 128 172 221 268 330 394
#     4  10  22  38  65  98 126 173 219 270 332 392
#     4  11  24  43  63  96 135 178 223 272 333 394
#     4  10  24  41  68  97 131 182 221 268 337 397
#     4  11  20  40  69  96 132 177 219 273 331 395
#
# _framework density 23.295638
#
# number of rings (size 3 to 8) (size 9 to 14) (size 15 to 20)
#    0.000    1.667    3.333    1.000    7.000    0.667 
#    0.000    4.167    7.333    0.000    0.000    0.000 
#    0.000    0.000    0.000    0.000    0.000    0.000 
#
# Total GULP energy -67106.910337 kJ/mol
# GULP energy per Si atom -5592.242528 kJ/mol
# Density = 2.324262 g / cm^3
# Si number density = 23.295638 Si / 1000 Ang^3
#
#
#
# Elastic Constant Matrix: (Units=GPa)
#
#
# Indices 1 2 3 4 5 6 
#
# 1 76.0460 26.6878 19.6390 1.3537 26.7686 5.3615
# 2 26.6878 148.1804 48.3120 11.1805 14.4976 -32.6538
# 3 19.6390 48.3120 117.6531 -1.9385 35.0766 -16.2308
# 4 1.3537 11.1805 -1.9385 39.3485 5.9834 3.3950
# 5 26.7686 14.4976 35.0766 5.9834 42.2939 3.4412
# 6 5.3615 -32.6538 -16.2308 3.3950 3.4412 32.3339
#
#
#
# Elastic Compliance Matrix: (Units=1/GPa)
#
#
# Indices 1 2 3 4 5 6 
#
# 1 0.018614 -0.004113 0.001208 0.002801 -0.011304 -0.005725
# 2 -0.004113 0.010962 -0.002605 -0.004142 0.000713 0.010804
# 3 0.001208 -0.002605 0.013694 0.002768 -0.012030 0.005032
# 4 0.002801 -0.004142 0.002768 0.028047 -0.006165 -0.005547
# 5 -0.011304 0.000713 -0.012030 -0.006165 0.041995 -0.007266
# 6 -0.005725 0.010804 0.005032 -0.005547 -0.007266 0.046669
#
#
# Mechanical properties :
#
#
# Convention : Reuss Voigt Hill
#
# Bulk Modulus (GPa) = 31.00780 59.01745 45.01262
# Shear Modulus (GPa) = 27.50991 39.27798 33.39395
#
# Velocity S-wave (km/s) = 3.44016 4.11063 3.79025
# Velocity P-wave (km/s) = 5.39620 6.92234 6.20636
#
# Compressibility (1/GPa) = 0.03224995
#
# Stress axis : x y z
#
# Youngs Moduli (GPa) = 53.72226 91.22064 73.02391
#
# Poissons Ratio (x) = 0.37523 -0.08824
# Poissons Ratio (y) = 0.22099 0.19025
# Poissons Ratio (z) = -0.06492 0.23766
#
# Static dielectric constant tensor:
#      x y z
#    x 1.894440 0.066500 0.064990 
#    y 0.066500 1.860210 -0.059160 
#    z 0.064990 -0.059160 1.759340 
# 
# From -- ./inp_files/148199.got.cif
#   From: 2010.05.17/outbox.cif.g08.bks.cpg/sg2_75_cif.got.tgz:148199.got - 2010.06.03 11:33:40.
