data_PCOD9103229
_publ_section_title
;
Structure prediction by ZEFSAII (Michael W. Deem and Ramdas Pophale) SiO2 
 PCOD9103229
Probable space group: P -1
;
_chemical_formula_sum "Si O2"
_cell_formula_units_Z 12
_cell_length_a 12.934582
_cell_length_b 9.427951
_cell_length_c 8.877241
_cell_angle_alpha 111.815845
_cell_angle_beta 41.759432
_cell_angle_gamma 133.614486
_cell_volume 498.529371
_symmetry_space_group_name_H-M "P -1"
_symmetry_group_IT_number 2
_symmetry_cell_setting 'triclinic'
loop_
_space_group_symop_operation_xyz
x,y,z
-x,-y,-z
loop_
_atom_site_type_symbol
_atom_site_label
_atom_site_fract_x
_atom_site_fract_y
_atom_site_fract_z
Si Si1 0.673343 0.529013 0.731402
Si Si2 0.112949 0.572586 0.066929
Si Si3 0.045345 0.696410 0.593839
Si Si4 0.356260 0.082927 0.801637
Si Si5 0.462310 0.115788 0.377834
Si Si6 0.996975 0.148043 0.670414
O O1 0.565430 0.296343 0.727570
O O2 0.757051 0.648917 0.528348
O O3 0.865952 0.667536 0.691386
O O4 0.500000 0.500000 0.000000
O O5 0.997013 0.367510 0.210339
O O6 0.091256 0.733622 0.219039
O O7 0.356690 0.686360 0.836715
O O8 0.000000 0.500000 0.000000
O O9 0.000000 0.500000 0.500000
O O10 0.268902 0.920724 0.419007
O O11 0.362297 0.130307 0.638063
O O12 0.401053 0.933779 0.720558
O O13 0.145158 0.984692 0.082592
O O14 0.000000 0.000000 0.500000
#
# Coordination Sequence:
#
# PCOD9103229 Si02
#       6
#     2   2   2   2   2   2
#     4  12  24  41  62  93 137 176 216 276 338 391
#     4  11  23  42  72 100 134 176 223 275 339 402
#     4  12  23  40  66 104 131 169 232 283 321 394
#     4  10  20  38  65  93 127 174 213 267 336 399
#     4  10  21  38  65  97 131 165 220 277 330 391
#     4  11  21  36  64  97 127 170 218 264 337 393
#
# _framework density 24.070796999999999
#
# number of rings (size 3 to 8) (size 9 to 14) (size 15 to 20)
#    0.000    1.000    5.000    4.000    0.000    2.000 
#    0.000    0.833    0.000    5.000    0.000    0.000 
#    0.000    0.000    0.000    0.000    0.000    0.000 
#
# Total GULP energy -66812.245656 kJ/mol
# GULP energy per Si atom -5567.687138 kJ/mol
# Density = 2.401601 g / cm^3
# Si number density = 24.070797 Si / 1000 Ang^3
#
#
#
# Elastic Constant Matrix: (Units=GPa)
#
#
# Indices 1 2 3 4 5 6 
#
# 1 43.7238 29.3267 13.3476 0.7408 -3.3741 22.7775
# 2 29.3267 95.7879 47.1668 -30.6004 -2.6817 11.0295
# 3 13.3476 47.1668 186.6562 -22.7108 -8.7094 12.5339
# 4 0.7408 -30.6004 -22.7108 50.0014 5.7911 -7.0431
# 5 -3.3741 -2.6817 -8.7094 5.7911 23.0842 -5.6345
# 6 22.7775 11.0295 12.5339 -7.0431 -5.6345 41.9572
#
#
#
# Elastic Compliance Matrix: (Units=1/GPa)
#
#
# Indices 1 2 3 4 5 6 
#
# 1 0.045694 -0.016052 0.000788 -0.013690 0.003001 -0.022717
# 2 -0.016052 0.019950 -0.002932 0.012283 -0.002742 0.006039
# 3 0.000788 -0.002932 0.006284 0.000685 0.001682 -0.001193
# 4 -0.013690 0.012283 0.000685 0.029862 -0.005798 0.008232
# 5 0.003001 -0.002742 0.001682 -0.005798 0.046470 0.003857
# 6 -0.022717 0.006039 -0.001193 0.008232 0.003857 0.036835
#
#
# Mechanical properties :
#
#
# Convention : Reuss Voigt Hill
#
# Bulk Modulus (GPa) = 28.13969 56.20557 42.17263
# Shear Modulus (GPa) = 21.42869 38.76368 30.09619
#
# Velocity S-wave (km/s) = 2.98692 4.01734 3.53982
# Velocity P-wave (km/s) = 4.85915 6.70220 5.85367
#
# Compressibility (1/GPa) = 0.03553700
#
# Stress axis : x y z
#
# Youngs Moduli (GPa) = 21.88465 50.12548 159.13344
#
# Poissons Ratio (x) = 0.80460 -0.12546
# Poissons Ratio (y) = 0.35128 0.46663
# Poissons Ratio (z) = -0.01725 0.14698
#
# Static dielectric constant tensor:
#      x y z
#    x 2.112790 -0.056550 0.089130 
#    y -0.056550 2.069280 -0.026610 
#    z 0.089130 -0.026610 2.123310 
# 
# From -- ./inp_files/303804.got.cif
#   From: 2010.05.17/outbox.cif.g08.bks.cpg/sg2_152_cif.got.tgz:303804.got - 2010.06.03 11:33:40.
