data_PCOD9103740
_publ_section_title
;
Structure prediction by ZEFSAII (Michael W. Deem and Ramdas Pophale) SiO2 
 PCOD9103740
Probable space group: P -1
;
_chemical_formula_sum "Si O2"
_cell_formula_units_Z 13
_cell_length_a 12.570326
_cell_length_b 9.421826
_cell_length_c 6.965128
_cell_angle_alpha 53.338326
_cell_angle_beta 106.192091
_cell_angle_gamma 134.049921
_cell_volume 462.128099
_symmetry_space_group_name_H-M "P -1"
_symmetry_group_IT_number 2
_symmetry_cell_setting 'triclinic'
loop_
_space_group_symop_operation_xyz
x,y,z
-x,-y,-z
loop_
_atom_site_type_symbol
_atom_site_label
_atom_site_fract_x
_atom_site_fract_y
_atom_site_fract_z
Si Si1 0.432489 0.701458 0.718199
Si Si2 0.313808 0.267924 0.249994
Si Si3 0.326572 0.460792 0.463045
Si Si4 0.000000 0.500000 0.500000
Si Si5 0.077444 0.935721 0.960532
Si Si6 0.083777 0.788418 0.705008
Si Si7 0.653760 0.189333 0.052540
O O1 0.599992 0.804143 0.739032
O O2 0.394237 0.650480 0.517823
O O3 0.399916 0.825232 0.744268
O O4 0.322842 0.431280 0.971102
O O5 0.407844 0.439914 0.346997
O O6 0.153103 0.035472 0.435137
O O7 0.219245 0.198854 0.724067
O O8 0.266530 0.557163 0.220591
O O9 0.020911 0.601359 0.651136
O O10 0.086524 0.773884 0.233808
O O11 0.997680 0.766693 0.866480
O O12 0.000000 0.000000 0.000000
O O13 0.228252 0.840646 0.833239
O O14 0.500000 0.000000 0.000000
#
# Coordination Sequence:
#
# PCOD9103740 Si02
#       7
#     2   2   2   1   2   2   2
#     4  10  20  38  68 104 141 196 241 301 385 455
#     4   9  20  39  66 101 145 187 247 305 373 459
#     4  10  22  43  69 103 149 196 247 312 376 450
#     4  12  28  52  80 108 148 206 264 324 380 448
#     4  11  28  50  78 113 150 206 266 327 384 444
#     4  11  26  49  74 112 154 200 258 320 386 456
#     4  11  26  43  72 114 157 197 245 311 386 471
#
# _framework density 28.130731999999998
#
# number of rings (size 3 to 8) (size 9 to 14) (size 15 to 20)
#    0.000    1.538    0.000    2.769    4.308   10.462 
#    0.000    0.000    0.000    0.000    0.000    0.000 
#    0.000    0.000    0.000    0.000    0.000    0.000 
#
# Total GULP energy -72370.364588 kJ/mol
# GULP energy per Si atom -5566.951122 kJ/mol
# Density = 2.806670 g / cm^3
# Si number density = 28.130732 Si / 1000 Ang^3
#
#
#
# Elastic Constant Matrix: (Units=GPa)
#
#
# Indices 1 2 3 4 5 6 
#
# 1 124.6526 54.2154 48.2574 26.4584 -12.2734 -37.2452
# 2 54.2154 189.2624 74.5529 45.3522 6.2435 -27.2271
# 3 48.2574 74.5529 181.8909 -4.4122 -17.1687 -15.8897
# 4 26.4584 45.3522 -4.4122 81.4979 -17.4326 -9.6232
# 5 -12.2734 6.2435 -17.1687 -17.4326 38.7153 3.1624
# 6 -37.2452 -27.2271 -15.8897 -9.6232 3.1624 36.3662
#
#
#
# Elastic Compliance Matrix: (Units=1/GPa)
#
#
# Indices 1 2 3 4 5 6 
#
# 1 0.013178 -0.000831 -0.002096 -0.002298 0.001431 0.011226
# 2 -0.000831 0.009286 -0.004072 -0.006144 -0.006600 0.003270
# 3 -0.002096 -0.004072 0.008303 0.004530 0.005785 -0.000871
# 4 -0.002298 -0.006144 0.004530 0.018894 0.010854 -0.000918
# 5 0.001431 -0.006600 0.005785 0.010854 0.034891 -0.001110
# 6 0.011226 0.003270 -0.000871 -0.000918 -0.001110 0.040917
#
#
# Mechanical properties :
#
#
# Convention : Reuss Voigt Hill
#
# Bulk Modulus (GPa) = 59.63269 94.42858 77.03063
# Shear Modulus (GPa) = 34.46950 52.56792 43.51871
#
# Velocity S-wave (km/s) = 3.50427 4.32754 3.93748
# Velocity P-wave (km/s) = 6.13332 7.65577 6.93644
#
# Compressibility (1/GPa) = 0.01676933
#
# Stress axis : x y z
#
# Youngs Moduli (GPa) = 75.88501 107.68612 120.44301
#
# Poissons Ratio (x) = 0.08950 0.25239
# Poissons Ratio (y) = 0.06307 0.49045
# Poissons Ratio (z) = 0.15902 0.43851
#
# Static dielectric constant tensor:
#      x y z
#    x 2.318740 0.144730 0.046640 
#    y 0.144730 2.288670 -0.003150 
#    z 0.046640 -0.003150 2.130330 
# 
# From -- ./inp_files/89700.got.cif
#   From: 2010.05.17/outbox.cif.g08.bks.cpg/sg2_45_cif.got.tgz:89700.got - 2010.06.03 11:33:40.
