data_PCOD9103758
_publ_section_title
;
Structure prediction by ZEFSAII (Michael W. Deem and Ramdas Pophale) SiO2 
 PCOD9103758
Probable space group: P -1
;
_chemical_formula_sum "Si O2"
_cell_formula_units_Z 16
_cell_length_a 12.884673
_cell_length_b 14.818395
_cell_length_c 11.287573
_cell_angle_alpha 87.012236
_cell_angle_beta 94.157301
_cell_angle_gamma 159.945174
_cell_volume 736.289029
_symmetry_space_group_name_H-M "P -1"
_symmetry_group_IT_number 2
_symmetry_cell_setting 'triclinic'
loop_
_space_group_symop_operation_xyz
x,y,z
-x,-y,-z
loop_
_atom_site_type_symbol
_atom_site_label
_atom_site_fract_x
_atom_site_fract_y
_atom_site_fract_z
Si Si1 0.770087 0.421163 0.244422
Si Si2 0.095520 0.758006 0.015495
Si Si3 0.669369 0.792874 0.794105
Si Si4 0.349816 0.861398 0.820392
Si Si5 0.518813 0.934262 0.409932
Si Si6 0.669211 0.726272 0.544755
Si Si7 0.827361 0.524189 0.498538
Si Si8 0.797321 0.692825 0.061274
O O1 0.428043 0.182809 0.241382
O O2 0.783404 0.324905 0.260889
O O3 0.915773 0.583395 0.362663
O O4 0.895106 0.547658 0.115978
O O5 0.977706 0.764897 0.993791
O O6 0.428945 0.014578 0.081888
O O7 0.115533 0.723589 0.893853
O O8 0.732300 0.785690 0.685523
O O9 0.362093 0.498137 0.838571
O O10 0.956503 0.036463 0.886530
O O11 0.526550 0.070283 0.729358
O O12 0.875444 0.198885 0.428647
O O13 0.500000 0.000000 0.500000
O O14 0.303489 0.677173 0.449996
O O15 0.500000 0.500000 0.500000
O O16 0.445763 0.627344 0.505412
O O17 0.000000 0.000000 0.500000
O O18 0.500000 0.500000 0.000000
#
# Coordination Sequence:
#
# PCOD9103758 Si02
#       8
#     2   2   2   2   2   2   2   2
#     4  10  20  38  68  90 127 169 219 273 319 400
#     4  10  23  40  62  96 124 176 221 275 327 394
#     4  10  22  40  68  95 122 170 221 266 329 397
#     4  11  22  39  64  90 138 169 223 264 334 394
#     4  12  24  41  64  99 136 179 213 271 335 407
#     4  11  23  44  70  97 132 176 224 281 334 393
#     4  11  25  42  67  98 136 170 228 270 335 406
#     4  11  22  43  66  94 127 168 223 276 330 391
#
# _framework density 21.730596999999999
#
# number of rings (size 3 to 8) (size 9 to 14) (size 15 to 20)
#    0.000    1.250    2.500    3.375    1.750    2.000 
#    6.750    0.000    0.000    0.000    0.000    0.000 
#    0.000    0.000    0.000    0.000    0.000    0.000 
#
# Total GULP energy -89289.314980 kJ/mol
# GULP energy per Si atom -5580.582186 kJ/mol
# Density = 2.168114 g / cm^3
# Si number density = 21.730597 Si / 1000 Ang^3
#
#
#
# Elastic Constant Matrix: (Units=GPa)
#
#
# Indices 1 2 3 4 5 6 
#
# 1 105.7273 23.4457 54.7514 -2.5312 -24.2359 6.9348
# 2 23.4457 99.9231 22.1619 2.8219 -13.2498 3.3952
# 3 54.7514 22.1619 85.7868 -12.2758 -18.1601 3.5293
# 4 -2.5312 2.8219 -12.2758 42.9647 8.2525 5.2364
# 5 -24.2359 -13.2498 -18.1601 8.2525 38.1676 -3.2723
# 6 6.9348 3.3952 3.5293 5.2364 -3.2723 40.4263
#
#
#
# Elastic Compliance Matrix: (Units=1/GPa)
#
#
# Indices 1 2 3 4 5 6 
#
# 1 0.015541 -0.000813 -0.008789 -0.002544 0.005867 -0.001026
# 2 -0.000813 0.011069 -0.002018 -0.001863 0.002756 -0.000150
# 3 -0.008789 -0.002018 0.018825 0.004738 0.001613 -0.000450
# 4 -0.002544 -0.001863 0.004738 0.026203 -0.005990 -0.003700
# 5 0.005867 0.002756 0.001613 -0.005990 0.033123 0.002078
# 6 -0.001026 -0.000150 -0.000450 -0.003700 0.002078 0.025612
#
#
# Mechanical properties :
#
#
# Convention : Reuss Voigt Hill
#
# Bulk Modulus (GPa) = 45.05089 54.68391 49.86740
# Shear Modulus (GPa) = 31.05404 37.05027 34.05215
#
# Velocity S-wave (km/s) = 3.78437 4.13362 3.96285
# Velocity P-wave (km/s) = 6.31442 6.92831 6.62848
#
# Compressibility (1/GPa) = 0.02219712
#
# Stress axis : x y z
#
# Youngs Moduli (GPa) = 64.34624 90.34170 53.12047
#
# Poissons Ratio (x) = 0.07342 0.46685
# Poissons Ratio (y) = 0.05229 0.10718
# Poissons Ratio (z) = 0.56551 0.18229
#
# Static dielectric constant tensor:
#      x y z
#    x 1.899220 -0.000120 0.070030 
#    y -0.000120 1.872300 0.011330 
#    z 0.070030 0.011330 1.843720 
# 
# From -- ./inp_files/80379.got.cif
#   From: 2010.05.17/outbox.cif.g08.bks.cpg/sg2_41_cif.got.tgz:80379.got - 2010.06.03 11:33:40.
