data_PCOD9103033
_publ_section_title
;
Structure prediction by ZEFSAII (Michael W. Deem and Ramdas Pophale) SiO2 
 PCOD9103033
Probable space group: P -1
;
_chemical_formula_sum "Si O2"
_cell_formula_units_Z 15
_cell_length_a 10.976372
_cell_length_b 20.021149
_cell_length_c 11.426736
_cell_angle_alpha 25.056772
_cell_angle_beta 40.612359
_cell_angle_gamma 30.139326
_cell_volume 530.496586
_symmetry_space_group_name_H-M "P -1"
_symmetry_group_IT_number 2
_symmetry_cell_setting 'triclinic'
loop_
_space_group_symop_operation_xyz
x,y,z
-x,-y,-z
loop_
_atom_site_type_symbol
_atom_site_label
_atom_site_fract_x
_atom_site_fract_y
_atom_site_fract_z
Si Si1 0.099830 0.785136 0.887913
Si Si2 0.419996 0.518264 0.874587
Si Si3 0.322756 0.227104 0.507325
Si Si4 0.384011 0.880825 0.926485
Si Si5 0.967001 0.981223 0.223718
Si Si6 0.500000 0.000000 0.000000
Si Si7 0.816033 0.459746 0.229520
Si Si8 0.157402 0.388567 0.677572
O O1 0.294893 0.591342 0.142294
O O2 0.241159 0.718784 0.768434
O O3 0.041779 0.969521 0.712655
O O4 0.862060 0.803040 0.005761
O O5 0.413812 0.351369 0.210561
O O6 0.307444 0.548269 0.783860
O O7 0.026339 0.420357 0.405952
O O8 0.435003 0.038522 0.635990
O O9 0.413482 0.116018 0.743712
O O10 0.162417 0.987191 0.009748
O O11 0.611734 0.648793 0.159232
O O12 0.289451 0.862119 0.902731
O O13 0.041986 0.767055 0.469060
O O14 0.555358 0.781009 0.255393
O O15 0.000000 0.500000 0.000000
O O16 0.000000 0.500000 0.500000
#
# Coordination Sequence:
#
# PCOD9103033 Si02
#       8
#     2   2   2   2   2   1   2   2
#     4  10  21  44  66  99 137 180 220 283 355 402
#     4  10  23  45  68 101 140 179 224 287 349 416
#     4  10  22  41  66  97 135 180 224 283 338 414
#     4  11  25  46  68 100 141 184 234 291 345 405
#     4  11  24  45  72  99 136 185 232 291 346 412
#     4  10  20  38  64  96 134 172 230 272 338 410
#     4  12  27  46  71 104 138 186 240 284 347 424
#     4   9  19  39  61  95 129 171 220 273 336 395
#
# _framework density 28.275393000000001
#
# number of rings (size 3 to 8) (size 9 to 14) (size 15 to 20)
#    0.000    1.600    1.333    2.800    1.867    4.800 
#   19.200    0.000    0.000    0.000    0.000    0.000 
#    0.000    0.000    0.000    0.000    0.000    0.000 
#
# Total GULP energy -83677.044985 kJ/mol
# GULP energy per Si atom -5578.469666 kJ/mol
# Density = 2.821104 g / cm^3
# Si number density = 28.275393 Si / 1000 Ang^3
#
#
#
# Elastic Constant Matrix: (Units=GPa)
#
#
# Indices 1 2 3 4 5 6 
#
# 1 134.1569 32.2224 10.9980 -10.5409 -6.6975 1.0166
# 2 32.2224 93.5068 31.2989 -30.6887 -8.1271 12.1958
# 3 10.9980 31.2989 117.4841 -47.2498 2.3016 2.4447
# 4 -10.5409 -30.6887 -47.2498 58.8279 0.5068 -11.4909
# 5 -6.6975 -8.1271 2.3016 0.5068 58.4739 -15.3663
# 6 1.0166 12.1958 2.4447 -11.4909 -15.3663 39.4298
#
#
#
# Elastic Compliance Matrix: (Units=1/GPa)
#
#
# Indices 1 2 3 4 5 6 
#
# 1 0.008179 -0.002824 0.000037 0.000218 0.000815 0.001041
# 2 -0.002824 0.014282 -0.001334 0.005421 0.001072 -0.002264
# 3 0.000037 -0.001334 0.012903 0.010170 -0.000112 0.002532
# 4 0.000218 0.005421 0.010170 0.029388 0.001968 0.007018
# 5 0.000815 0.001072 -0.000112 0.001968 0.019375 0.007779
# 6 0.001041 -0.002264 0.002532 0.007018 0.007779 0.030955
#
#
# Mechanical properties :
#
#
# Convention : Reuss Voigt Hill
#
# Bulk Modulus (GPa) = 36.87056 54.90961 45.89009
# Shear Modulus (GPa) = 37.77387 49.38823 43.58105
#
# Velocity S-wave (km/s) = 3.65900 4.18387 3.93021
# Velocity P-wave (km/s) = 5.56050 6.54228 6.07127
#
# Compressibility (1/GPa) = 0.02712191
#
# Stress axis : x y z
#
# Youngs Moduli (GPa) = 122.26115 70.01845 77.49872
#
# Poissons Ratio (x) = 0.19775 -0.00286
# Poissons Ratio (y) = 0.34530 0.10338
# Poissons Ratio (z) = -0.00451 0.09340
#
# Static dielectric constant tensor:
#      x y z
#    x 2.886360 0.036400 -0.359120 
#    y 0.036400 1.604000 0.507200 
#    z -0.359120 0.507200 2.070370 
# 
# From -- ./inp_files/524354.got.cif
#   From: 2010.05.17/outbox.cif.g08.bks.cpg/sg2_263_cif.got.tgz:524354.got - 2010.06.03 11:33:40.
