data_PCOD9103073
_publ_section_title
;
Structure prediction by ZEFSAII (Michael W. Deem and Ramdas Pophale) SiO2 
 PCOD9103073
Probable space group: P -1
;
_chemical_formula_sum "Si O2"
_cell_formula_units_Z 12
_cell_length_a 13.712532
_cell_length_b 13.748575
_cell_length_c 7.510832
_cell_angle_alpha 142.126848
_cell_angle_beta 136.537261
_cell_angle_gamma 34.659785
_cell_volume 482.352596
_symmetry_space_group_name_H-M "P -1"
_symmetry_group_IT_number 2
_symmetry_cell_setting 'triclinic'
loop_
_space_group_symop_operation_xyz
x,y,z
-x,-y,-z
loop_
_atom_site_type_symbol
_atom_site_label
_atom_site_fract_x
_atom_site_fract_y
_atom_site_fract_z
Si Si1 0.902804 0.139222 0.237407
Si Si2 0.184028 0.542086 0.666345
Si Si3 0.314060 0.440991 0.217892
Si Si4 0.305582 0.176816 0.069795
Si Si5 0.491807 0.584843 0.885564
Si Si6 0.999918 0.195394 0.862300
O O1 0.899153 0.324984 0.429669
O O2 0.700602 0.218642 0.064348
O O3 0.988716 0.981283 0.283056
O O4 0.000000 0.000000 0.000000
O O5 0.275279 0.318547 0.400754
O O6 0.052258 0.649632 0.815855
O O7 0.355648 0.531298 0.935391
O O8 0.243143 0.325548 0.035258
O O9 0.449756 0.442451 0.531071
O O10 0.418653 0.354902 0.050199
O O11 0.160966 0.665631 0.286489
O O12 0.177215 0.122769 0.885866
O O13 0.500000 0.000000 0.000000
#
# Coordination Sequence:
#
# PCOD9103073 Si02
#       6
#     2   2   2   2   2   2
#     4  10  20  38  64  99 125 164 219 265 319 383
#     4  10  22  43  71  92 131 173 217 270 320 387
#     4  10  22  40  69  92 133 169 211 275 323 383
#     4  12  24  43  64  99 133 174 217 266 327 389
#     4  10  20  41  66  97 127 166 220 266 326 373
#     4  10  23  43  65  96 136 170 213 263 336 394
#
# _framework density 24.878067000000001
#
# number of rings (size 3 to 8) (size 9 to 14) (size 15 to 20)
#    0.000    1.667    1.667    2.500    0.000    0.667 
#    3.000    9.167    0.000    0.000    0.000    0.000 
#    0.000    0.000    0.000    0.000    0.000    0.000 
#
# Total GULP energy -66840.594667 kJ/mol
# GULP energy per Si atom -5570.049556 kJ/mol
# Density = 2.482144 g / cm^3
# Si number density = 24.878067 Si / 1000 Ang^3
#
#
#
# Elastic Constant Matrix: (Units=GPa)
#
#
# Indices 1 2 3 4 5 6 
#
# 1 126.0912 44.9202 27.3046 -15.4785 14.5382 -10.7897
# 2 44.9202 137.1023 46.1552 5.1698 -3.3338 -4.3584
# 3 27.3046 46.1552 71.7810 -0.5422 7.0147 12.8945
# 4 -15.4785 5.1698 -0.5422 40.8981 3.6355 -18.0834
# 5 14.5382 -3.3338 7.0147 3.6355 30.0479 -5.6136
# 6 -10.7897 -4.3584 12.8945 -18.0834 -5.6136 66.9761
#
#
#
# Elastic Compliance Matrix: (Units=1/GPa)
#
#
# Indices 1 2 3 4 5 6 
#
# 1 0.011299 -0.003221 -0.002249 0.006633 -0.005471 0.003376
# 2 -0.003221 0.010740 -0.006363 -0.002596 0.004755 0.001103
# 3 -0.002249 -0.006363 0.020384 -0.001800 -0.005209 -0.005623
# 4 0.006633 -0.002596 -0.001800 0.031892 -0.005175 0.009423
# 5 -0.005471 0.004755 -0.005209 -0.005175 0.038723 0.002279
# 6 0.003376 0.001103 -0.005623 0.009423 0.002279 0.019364
#
#
# Mechanical properties :
#
#
# Convention : Reuss Voigt Hill
#
# Bulk Modulus (GPa) = 53.31193 63.52608 58.41900
# Shear Modulus (GPa) = 30.80358 42.02405 36.41381
#
# Velocity S-wave (km/s) = 3.52260 4.11445 3.82997
# Velocity P-wave (km/s) = 6.16610 6.93988 6.56440
#
# Compressibility (1/GPa) = 0.01875753
#
# Stress axis : x y z
#
# Youngs Moduli (GPa) = 88.50347 93.11222 49.05897
#
# Poissons Ratio (x) = 0.29990 0.11032
# Poissons Ratio (y) = 0.28505 0.31216
# Poissons Ratio (z) = 0.19902 0.59247
#
# Static dielectric constant tensor:
#      x y z
#    x 2.039740 0.072300 0.044900 
#    y 0.072300 1.947170 -0.066930 
#    z 0.044900 -0.066930 1.893800 
# 
# From -- ./inp_files/310603.got.cif
#   From: 2010.05.17/outbox.cif.g08.bks.cpg/sg2_156_cif.got.tgz:310603.got - 2010.06.03 11:33:40.
