data_PCOD9103491
_publ_section_title
;
Structure prediction by ZEFSAII (Michael W. Deem and Ramdas Pophale) SiO2 
 PCOD9103491
Probable space group: P -1
;
_chemical_formula_sum "Si O2"
_cell_formula_units_Z 14
_cell_length_a 11.142713
_cell_length_b 13.629448
_cell_length_c 14.447748
_cell_angle_alpha 41.781816
_cell_angle_beta 151.539397
_cell_angle_gamma 118.235474
_cell_volume 570.175644
_symmetry_space_group_name_H-M "P -1"
_symmetry_group_IT_number 2
_symmetry_cell_setting 'triclinic'
loop_
_space_group_symop_operation_xyz
x,y,z
-x,-y,-z
loop_
_atom_site_type_symbol
_atom_site_label
_atom_site_fract_x
_atom_site_fract_y
_atom_site_fract_z
Si Si1 0.276746 0.909484 0.939263
Si Si2 0.525764 0.814344 0.645111
Si Si3 0.371478 0.104714 0.635239
Si Si4 0.388925 0.788333 0.774299
Si Si5 0.848265 0.322309 0.855462
Si Si6 0.365062 0.654447 0.032459
Si Si7 0.650659 0.269234 0.582776
O O1 0.450646 0.767245 0.074390
O O2 0.479896 0.925332 0.141244
O O3 0.133536 0.820795 0.962986
O O4 0.981774 0.093530 0.571645
O O5 0.508550 0.745880 0.781206
O O6 0.272436 0.837436 0.385883
O O7 0.500000 0.000000 0.500000
O O8 0.866894 0.667489 0.937974
O O9 0.474557 0.209115 0.569273
O O10 0.004019 0.223111 0.308460
O O11 0.465847 0.922070 0.776896
O O12 0.488568 0.636008 0.025292
O O13 0.500000 0.500000 0.500000
O O14 0.896567 0.253751 0.830825
O O15 0.470166 0.473457 0.282356
#
# Coordination Sequence:
#
# PCOD9103491 Si02
#       7
#     2   2   2   2   2   2   2
#     4  10  20  38  66  94 127 164 216 263 310 371
#     4  12  24  44  65  91 132 170 210 260 316 381
#     4  10  21  37  68  93 123 170 217 257 315 367
#     4  11  24  42  59  94 132 174 206 255 319 386
#     4  11  23  40  69 100 122 156 218 273 309 365
#     4  11  23  38  61  96 136 161 210 266 317 373
#     4  11  24  38  67  95 121 168 215 264 312 369
#
# _framework density 24.553837999999999
#
# number of rings (size 3 to 8) (size 9 to 14) (size 15 to 20)
#    0.000    1.143    4.286    3.000    4.000    4.571 
#    0.000    0.714    0.000    0.000    0.000    0.000 
#    0.000    0.000    0.000    0.000    0.000    0.000 
#
# Total GULP energy -78337.370934 kJ/mol
# GULP energy per Si atom -5595.526495 kJ/mol
# Density = 2.449795 g / cm^3
# Si number density = 24.553838 Si / 1000 Ang^3
#
#
#
# Elastic Constant Matrix: (Units=GPa)
#
#
# Indices 1 2 3 4 5 6 
#
# 1 106.6574 24.6003 26.4214 8.3222 -36.5377 1.0358
# 2 24.6003 95.7206 29.4216 20.7670 -16.7247 -10.6909
# 3 26.4214 29.4216 88.3780 6.2516 -24.1008 -2.9194
# 4 8.3222 20.7670 6.2516 31.7497 -12.2861 -16.0555
# 5 -36.5377 -16.7247 -24.1008 -12.2861 44.6718 5.9230
# 6 1.0358 -10.6909 -2.9194 -16.0555 5.9230 43.2886
#
#
#
# Elastic Compliance Matrix: (Units=1/GPa)
#
#
# Indices 1 2 3 4 5 6 
#
# 1 0.013515 -0.001832 -0.000696 0.000874 0.010489 -0.001934
# 2 -0.001832 0.013652 -0.003572 -0.007752 -0.000495 0.000367
# 3 -0.000696 -0.003572 0.014306 0.002203 0.006413 0.000039
# 4 0.000874 -0.007752 0.002203 0.047006 0.010037 0.014274
# 5 0.010489 -0.000495 0.006413 0.010037 0.037173 -0.001304
# 6 -0.001934 0.000367 0.000039 0.014274 -0.001304 0.028713
#
#
# Mechanical properties :
#
#
# Convention : Reuss Voigt Hill
#
# Bulk Modulus (GPa) = 34.16008 50.18252 42.17130
# Shear Modulus (GPa) = 28.35715 37.96285 33.16000
#
# Velocity S-wave (km/s) = 3.40206 3.93632 3.67890
# Velocity P-wave (km/s) = 5.41983 6.41417 5.93785
#
# Compressibility (1/GPa) = 0.02927393
#
# Stress axis : x y z
#
# Youngs Moduli (GPa) = 73.99354 73.24849 69.89940
#
# Poissons Ratio (x) = 0.13422 0.04862
# Poissons Ratio (y) = 0.13559 0.24965
# Poissons Ratio (z) = 0.05147 0.26162
#
# Static dielectric constant tensor:
#      x y z
#    x 1.987540 -0.060360 0.025350 
#    y -0.060360 1.975490 -0.020290 
#    z 0.025350 -0.020290 1.923160 
# 
# From -- ./inp_files/522294.got.cif
#   From: 2010.05.17/outbox.cif.g08.bks.cpg/sg2_262_cif.got.tgz:522294.got - 2010.06.03 11:33:40.
