data_PCOD9103654
_publ_section_title
;
Structure prediction by ZEFSAII (Michael W. Deem and Ramdas Pophale) SiO2 
 PCOD9103654
Probable space group: P -1
;
_chemical_formula_sum "Si O2"
_cell_formula_units_Z 12
_cell_length_a 10.566127
_cell_length_b 8.352097
_cell_length_c 7.835647
_cell_angle_alpha 127.435808
_cell_angle_beta 69.315865
_cell_angle_gamma 118.320866
_cell_volume 481.262955
_symmetry_space_group_name_H-M "P -1"
_symmetry_group_IT_number 2
_symmetry_cell_setting 'triclinic'
loop_
_space_group_symop_operation_xyz
x,y,z
-x,-y,-z
loop_
_atom_site_type_symbol
_atom_site_label
_atom_site_fract_x
_atom_site_fract_y
_atom_site_fract_z
Si Si1 0.282416 0.370358 0.036948
Si Si2 0.541459 0.323418 0.074962
Si Si3 0.228567 0.566686 0.497783
Si Si4 0.864959 0.071806 0.074687
Si Si5 0.534744 0.872660 0.645743
Si Si6 0.839187 0.896408 0.593737
O O1 0.309750 0.492746 0.926027
O O2 0.187509 0.467876 0.263934
O O3 0.243079 0.117208 0.881905
O O4 0.423263 0.414459 0.117855
O O5 0.535927 0.109407 0.840862
O O6 0.507970 0.263336 0.245861
O O7 0.393075 0.742026 0.521146
O O8 0.197649 0.350604 0.486143
O O9 0.142061 0.706215 0.713040
O O10 0.833058 0.027010 0.858448
O O11 0.000000 0.000000 0.000000
O O12 0.700566 0.896470 0.548970
O O13 0.000000 0.000000 0.500000
#
# Coordination Sequence:
#
# PCOD9103654 Si02
#       6
#     2   2   2   2   2   2
#     4  10  22  41  61 100 130 163 216 266 316 379
#     4  10  20  38  67  93 133 160 210 272 314 367
#     4  11  23  43  70  95 125 172 218 266 320 378
#     4  11  24  44  64  91 134 172 213 263 320 385
#     4  11  20  42  69  97 129 168 211 273 317 377
#     4  11  26  44  63  96 132 168 216 263 322 386
#
# _framework density 24.934394999999999
#
# number of rings (size 3 to 8) (size 9 to 14) (size 15 to 20)
#    0.000    1.333    5.000    1.500    0.000    8.000 
#    3.000    0.000    0.000    0.000    0.000    0.000 
#    0.000    0.000    0.000    0.000    0.000    0.000 
#
# Total GULP energy -66943.953105 kJ/mol
# GULP energy per Si atom -5578.662759 kJ/mol
# Density = 2.487764 g / cm^3
# Si number density = 24.934395 Si / 1000 Ang^3
#
#
#
# Elastic Constant Matrix: (Units=GPa)
#
#
# Indices 1 2 3 4 5 6 
#
# 1 94.6857 -0.8547 35.2428 -2.7646 -26.7924 18.3932
# 2 -0.8547 87.1849 55.3641 -6.7833 -13.6352 11.6233
# 3 35.2428 55.3641 154.7647 26.7016 -30.7060 -13.5216
# 4 -2.7646 -6.7833 26.7016 41.3271 -12.2828 -5.5811
# 5 -26.7924 -13.6352 -30.7060 -12.2828 25.8887 -3.4645
# 6 18.3932 11.6233 -13.5216 -5.5811 -3.4645 24.3419
#
#
#
# Elastic Compliance Matrix: (Units=1/GPa)
#
#
# Indices 1 2 3 4 5 6 
#
# 1 0.032471 0.020854 -0.014935 0.020206 0.031963 -0.033608
# 2 0.020854 0.033333 -0.018901 0.021034 0.022122 -0.034202
# 3 -0.014935 -0.018901 0.020837 -0.015019 -0.004095 0.027859
# 4 0.020206 0.021034 -0.015019 0.046248 0.033675 -0.018258
# 5 0.031963 0.022122 -0.004095 0.033675 0.092318 -0.016130
# 6 -0.033608 -0.034202 0.027859 -0.018258 -0.016130 0.091801
#
#
# Mechanical properties :
#
#
# Convention : Reuss Voigt Hill
#
# Bulk Modulus (GPa) = 16.48093 57.34887 36.91490
# Shear Modulus (GPa) = 13.76654 34.77040 24.26847
#
# Velocity S-wave (km/s) = 2.35225 3.73832 3.12315
# Velocity P-wave (km/s) = 3.74186 6.45625 5.27659
#
# Compressibility (1/GPa) = 0.06067618
#
# Stress axis : x y z
#
# Youngs Moduli (GPa) = 30.79632 30.00019 47.99210
#
# Poissons Ratio (x) = -0.62562 0.71678
# Poissons Ratio (y) = -0.64223 0.90711
# Poissons Ratio (z) = 0.45995 0.56704
#
# Static dielectric constant tensor:
#      x y z
#    x 1.996650 -0.006490 0.105880 
#    y -0.006490 1.835490 0.052660 
#    z 0.105880 0.052660 1.952960 
# 
# From -- ./inp_files/245797.got.cif
#   From: 2010.05.17/outbox.cif.g08.bks.cpg/sg2_123_cif.got.tgz:245797.got - 2010.06.03 11:33:40.
