data_PCOD9103612
_publ_section_title
;
Structure prediction by ZEFSAII (Michael W. Deem and Ramdas Pophale) SiO2 
 PCOD9103612
Probable space group: P -1
;
_chemical_formula_sum "Si O2"
_cell_formula_units_Z 16
_cell_length_a 12.729558
_cell_length_b 17.567342
_cell_length_c 8.781322
_cell_angle_alpha 136.828518
_cell_angle_beta 84.677063
_cell_angle_gamma 128.520168
_cell_volume 775.375925
_symmetry_space_group_name_H-M "P -1"
_symmetry_group_IT_number 2
_symmetry_cell_setting 'triclinic'
loop_
_space_group_symop_operation_xyz
x,y,z
-x,-y,-z
loop_
_atom_site_type_symbol
_atom_site_label
_atom_site_fract_x
_atom_site_fract_y
_atom_site_fract_z
Si Si1 0.359768 0.968043 0.909531
Si Si2 0.163676 0.726755 0.271554
Si Si3 0.000175 0.374064 0.374363
Si Si4 0.528802 0.723629 0.814681
Si Si5 0.806574 0.654595 0.854431
Si Si6 0.699169 0.360417 0.020457
Si Si7 0.871823 0.658353 0.183905
Si Si8 0.065539 0.023999 0.857962
O O1 0.268740 0.850186 0.591057
O O2 0.198027 0.837582 0.861708
O O3 0.500000 0.000000 0.000000
O O4 0.459954 0.168712 0.154266
O O5 0.053961 0.740095 0.245381
O O6 0.296727 0.767463 0.206622
O O7 0.000000 0.500000 0.000000
O O8 0.091106 0.371557 0.238096
O O9 0.124872 0.472714 0.651584
O O10 0.000000 0.500000 0.500000
O O11 0.378016 0.508621 0.458718
O O12 0.462564 0.726413 0.983913
O O13 0.728494 0.845123 0.977221
O O14 0.783089 0.630166 0.002217
O O15 0.926261 0.860837 0.082556
O O16 0.735714 0.462843 0.012891
O O17 0.937627 0.817010 0.509801
O O18 0.000000 0.000000 0.000000
#
# Coordination Sequence:
#
# PCOD9103612 Si02
#       8
#     2   2   2   2   2   2   2   2
#     4  12  23  37  61  98 136 165 219 263 318 385
#     4  10  20  38  67  89 133 175 210 255 330 381
#     4  11  21  41  64  96 127 175 216 260 321 388
#     4  11  24  44  63  98 130 167 218 267 326 387
#     4  11  25  40  71  94 127 173 217 269 323 382
#     4  10  21  39  67  91 130 177 208 259 332 384
#     4  11  22  43  66  95 130 169 222 264 323 385
#     4  12  24  47  70  91 127 171 223 270 324 384
#
# _framework density 20.635152000000001
#
# number of rings (size 3 to 8) (size 9 to 14) (size 15 to 20)
#    0.000    1.000    3.750    5.250    5.250    0.500 
#    2.250    3.750    0.000    0.000    0.000    0.000 
#    0.000    0.000    0.000    0.000    0.000    0.000 
#
# Total GULP energy -89420.585551 kJ/mol
# GULP energy per Si atom -5588.786597 kJ/mol
# Density = 2.058819 g / cm^3
# Si number density = 20.635152 Si / 1000 Ang^3
#
#
#
# Elastic Constant Matrix: (Units=GPa)
#
#
# Indices 1 2 3 4 5 6 
#
# 1 78.0443 27.3864 -5.7034 -0.7244 -8.2104 7.3625
# 2 27.3864 105.4589 -2.3337 -1.3852 -3.0105 8.4669
# 3 -5.7034 -2.3337 39.2912 -5.0034 -11.2819 13.8528
# 4 -0.7244 -1.3852 -5.0034 33.3454 -3.3838 -3.4230
# 5 -8.2104 -3.0105 -11.2819 -3.3838 35.8347 6.0210
# 6 7.3625 8.4669 13.8528 -3.4230 6.0210 48.0422
#
#
#
# Elastic Compliance Matrix: (Units=1/GPa)
#
#
# Indices 1 2 3 4 5 6 
#
# 1 0.015341 -0.003385 0.005140 0.001137 0.005604 -0.003858
# 2 -0.003385 0.010546 0.001000 0.000417 0.000749 -0.001692
# 3 0.005140 0.001000 0.035891 0.005772 0.015259 -0.012814
# 4 0.001137 0.000417 0.005772 0.031385 0.005130 -0.000319
# 5 0.005604 0.000749 0.015259 0.005130 0.036147 -0.009555
# 6 -0.003858 -0.001692 -0.012814 -0.000319 -0.009555 0.026574
#
#
# Mechanical properties :
#
#
# Convention : Reuss Voigt Hill
#
# Bulk Modulus (GPa) = 14.86199 29.05478 21.95838
# Shear Modulus (GPa) = 28.93443 37.00746 32.97094
#
# Velocity S-wave (km/s) = 3.74865 4.23947 4.00159
# Velocity P-wave (km/s) = 5.09454 6.17049 5.65815
#
# Compressibility (1/GPa) = 0.06728575
#
# Stress axis : x y z
#
# Youngs Moduli (GPa) = 65.18531 94.81936 27.86246
#
# Poissons Ratio (x) = 0.32101 -0.14321
# Poissons Ratio (y) = 0.22068 -0.02785
# Poissons Ratio (z) = -0.33504 -0.09479
#
# Static dielectric constant tensor:
#      x y z
#    x 1.743520 0.006590 -0.015490 
#    y 0.006590 1.726160 0.003610 
#    z -0.015490 0.003610 1.732310 
# 
# From -- ./inp_files/272198.got.cif
#   From: 2010.05.17/outbox.cif.g08.bks.cpg/sg2_137_cif.got.tgz:272198.got - 2010.06.03 11:33:40.
