data_PCOD9103711
_publ_section_title
;
Structure prediction by ZEFSAII (Michael W. Deem and Ramdas Pophale) SiO2 
 PCOD9103711
Probable space group: P -1
;
_chemical_formula_sum "Si O2"
_cell_formula_units_Z 12
_cell_length_a 11.396524
_cell_length_b 7.008092
_cell_length_c 7.387123
_cell_angle_alpha 79.602845
_cell_angle_beta 95.806683
_cell_angle_gamma 124.761194
_cell_volume 476.741318
_symmetry_space_group_name_H-M "P -1"
_symmetry_group_IT_number 2
_symmetry_cell_setting 'triclinic'
loop_
_space_group_symop_operation_xyz
x,y,z
-x,-y,-z
loop_
_atom_site_type_symbol
_atom_site_label
_atom_site_fract_x
_atom_site_fract_y
_atom_site_fract_z
Si Si1 0.340241 0.220933 0.988243
Si Si2 0.572982 0.435684 0.671260
Si Si3 0.968853 0.193494 0.035007
Si Si4 0.112477 0.265154 0.410199
Si Si5 0.497391 0.046953 0.205781
Si Si6 0.791229 0.498478 0.224978
O O1 0.471889 0.349837 0.845329
O O2 0.277384 0.379302 0.915056
O O3 0.407116 0.163166 0.179129
O O4 0.202175 0.958755 0.966941
O O5 0.500000 0.500000 0.500000
O O6 0.736726 0.654414 0.670923
O O7 0.570725 0.202833 0.665907
O O8 0.029344 0.282720 0.228604
O O9 0.065139 0.410628 0.879216
O O10 0.000000 0.000000 0.000000
O O11 0.160167 0.409214 0.579565
O O12 0.000000 0.000000 0.500000
O O13 0.660914 0.228869 0.255862
O O14 0.500000 0.000000 0.000000
#
# Coordination Sequence:
#
# PCOD9103711 Si02
#       6
#     2   2   2   2   2   2
#     4  10  20  41  68 102 130 177 223 270 338 399
#     4  11  22  43  66  96 132 177 223 282 333 391
#     4  10  20  38  67  98 138 178 219 268 331 403
#     4  12  22  41  67  98 134 175 225 273 332 400
#     4  10  23  41  66  98 137 172 227 278 332 400
#     4  11  22  42  70 101 135 179 222 273 337 398
#
# _framework density 25.170881999999999
#
# number of rings (size 3 to 8) (size 9 to 14) (size 15 to 20)
#    0.000    1.333    5.000    2.500    0.000    2.000 
#    0.000    9.167    0.000   10.000    0.000    0.000 
#    0.000    0.000    0.000    0.000    0.000    0.000 
#
# Total GULP energy -67002.354325 kJ/mol
# GULP energy per Si atom -5583.529527 kJ/mol
# Density = 2.511359 g / cm^3
# Si number density = 25.170882 Si / 1000 Ang^3
#
#
#
# Elastic Constant Matrix: (Units=GPa)
#
#
# Indices 1 2 3 4 5 6 
#
# 1 106.9909 66.0026 42.4396 -23.9414 11.4473 12.3269
# 2 66.0026 191.1800 54.2644 4.5316 3.7603 46.0747
# 3 42.4396 54.2644 143.2823 8.4250 -4.4626 -5.3212
# 4 -23.9414 4.5316 8.4250 58.0780 -0.0685 2.0282
# 5 11.4473 3.7603 -4.4626 -0.0685 41.0830 -12.3100
# 6 12.3269 46.0747 -5.3212 2.0282 -12.3100 54.7933
#
#
#
# Elastic Compliance Matrix: (Units=1/GPa)
#
#
# Indices 1 2 3 4 5 6 
#
# 1 0.015719 -0.003932 -0.003833 0.007407 -0.005025 -0.002005
# 2 -0.003932 0.009238 -0.002587 -0.001704 -0.002308 -0.007590
# 3 -0.003833 -0.002587 0.009569 -0.002934 0.003818 0.004934
# 4 0.007407 -0.001704 -0.002934 0.020894 -0.002765 -0.001913
# 5 -0.005025 -0.002308 0.003818 -0.002765 0.029404 0.010150
# 6 -0.002005 -0.007590 0.004934 -0.001913 0.010150 0.027914
#
#
# Mechanical properties :
#
#
# Convention : Reuss Voigt Hill
#
# Bulk Modulus (GPa) = 72.35798 85.20736 78.78267
# Shear Modulus (GPa) = 36.21910 49.37397 42.79653
#
# Velocity S-wave (km/s) = 3.79744 4.43374 4.12787
# Velocity P-wave (km/s) = 6.93083 7.75473 7.35433
#
# Compressibility (1/GPa) = 0.01382018
#
# Stress axis : x y z
#
# Youngs Moduli (GPa) = 63.61768 108.25386 104.50318
#
# Poissons Ratio (x) = 0.42569 0.40057
# Poissons Ratio (y) = 0.25016 0.27038
# Poissons Ratio (z) = 0.24385 0.28008
#
# Static dielectric constant tensor:
#      x y z
#    x 2.191140 -0.139960 -0.128140 
#    y -0.139960 2.073450 -0.016720 
#    z -0.128140 -0.016720 2.141370 
# 
# From -- ./inp_files/237937.got.cif
#   From: 2010.05.17/outbox.cif.g08.bks.cpg/sg2_119_cif.got.tgz:237937.got - 2010.06.03 11:33:40.
