data_PCOD9103235
_publ_section_title
;
Structure prediction by ZEFSAII (Michael W. Deem and Ramdas Pophale) SiO2 
 PCOD9103235
Probable space group: P -1
;
_chemical_formula_sum "Si O2"
_cell_formula_units_Z 16
_cell_length_a 28.771935
_cell_length_b 12.929514
_cell_length_c 5.446272
_cell_angle_alpha 63.041643
_cell_angle_beta 52.252672
_cell_angle_gamma 26.827000
_cell_volume 698.038343
_symmetry_space_group_name_H-M "P -1"
_symmetry_group_IT_number 2
_symmetry_cell_setting 'triclinic'
loop_
_space_group_symop_operation_xyz
x,y,z
-x,-y,-z
loop_
_atom_site_type_symbol
_atom_site_label
_atom_site_fract_x
_atom_site_fract_y
_atom_site_fract_z
Si Si1 0.214417 0.924387 0.539687
Si Si2 0.171521 0.771644 0.629650
Si Si3 0.498145 0.845233 0.449272
Si Si4 0.533043 0.512813 0.627016
Si Si5 0.627539 0.710021 0.679964
Si Si6 0.974172 0.357577 0.157627
Si Si7 0.071079 0.796680 0.305883
Si Si8 0.892744 0.711411 0.805866
O O1 0.237718 0.778676 0.436639
O O2 0.321313 0.733448 0.589414
O O3 0.212022 0.048861 0.265824
O O4 0.081481 0.137925 0.858567
O O5 0.237663 0.572305 0.445955
O O6 0.172821 0.695226 0.956921
O O7 0.034798 0.041713 0.725638
O O8 0.485485 0.728126 0.576011
O O9 0.562091 0.762468 0.596168
O O10 0.385024 0.130182 0.498940
O O11 0.570281 0.768634 0.059399
O O12 0.500000 0.500000 0.500000
O O13 0.500000 0.500000 0.000000
O O14 0.052068 0.291145 0.181498
O O15 0.905429 0.366732 0.476699
O O16 0.877821 0.615522 0.091183
O O17 0.000000 0.000000 0.500000
O O18 0.000000 0.500000 0.500000
#
# Coordination Sequence:
#
# PCOD9103235 Si02
#       8
#     2   2   2   2   2   2   2   2
#     4  11  22  40  69  92 127 179 227 272 348 418
#     4  11  23  37  65  99 132 178 219 276 343 413
#     4  10  22  44  70 101 131 170 230 289 340 410
#     4  12  28  45  71 103 139 175 232 300 345 406
#     4  10  22  41  74  98 130 178 228 277 343 418
#     4  10  20  38  65  93 131 175 219 274 325 414
#     4  11  23  37  59 101 140 164 221 280 328 399
#     4   9  20  37  63  92 123 175 222 265 326 401
#
# _framework density 22.921375999999999
#
# number of rings (size 3 to 8) (size 9 to 14) (size 15 to 20)
#    0.000    1.500    3.750    0.750    5.250    0.000 
#    0.000    5.000    0.000    0.000    0.000    0.000 
#    0.000    0.000    0.000    0.000    0.000    0.000 
#
# Total GULP energy -89275.115012 kJ/mol
# GULP energy per Si atom -5579.694688 kJ/mol
# Density = 2.286921 g / cm^3
# Si number density = 22.921376 Si / 1000 Ang^3
#
#
#
# Elastic Constant Matrix: (Units=GPa)
#
#
# Indices 1 2 3 4 5 6 
#
# 1 106.5566 40.5261 12.2748 -22.0766 9.9939 17.6149
# 2 40.5261 121.1807 21.2293 -28.7224 -15.8773 25.9242
# 3 12.2748 21.2293 74.7331 -30.2131 6.8946 17.9265
# 4 -22.0766 -28.7224 -30.2131 42.1600 12.5724 -7.7233
# 5 9.9939 -15.8773 6.8946 12.5724 33.7808 -5.0196
# 6 17.6149 25.9242 17.9265 -7.7233 -5.0196 40.7144
#
#
#
# Elastic Compliance Matrix: (Units=1/GPa)
#
#
# Indices 1 2 3 4 5 6 
#
# 1 0.014835 -0.003428 0.006368 0.012721 -0.012959 -0.006224
# 2 -0.003428 0.011975 -0.000750 0.003563 0.004794 -0.004544
# 3 0.006368 -0.000750 0.027931 0.026484 -0.019572 -0.011964
# 4 0.012721 0.003563 0.026484 0.058874 -0.031205 -0.012112
# 5 -0.012959 0.004794 -0.019572 -0.031205 0.053051 0.011793
# 6 -0.006224 -0.004544 -0.011964 -0.012112 0.011793 0.034572
#
#
# Mechanical properties :
#
#
# Convention : Reuss Voigt Hill
#
# Bulk Modulus (GPa) = 16.91464 50.05896 33.48680
# Shear Modulus (GPa) = 23.08790 38.56038 30.82414
#
# Velocity S-wave (km/s) = 3.17719 4.10602 3.67110
# Velocity P-wave (km/s) = 4.56670 6.66078 5.71055
#
# Compressibility (1/GPa) = 0.05912038
#
# Stress axis : x y z
#
# Youngs Moduli (GPa) = 67.40965 83.50790 35.80269
#
# Poissons Ratio (x) = 0.28628 -0.22801
# Poissons Ratio (y) = 0.23109 0.02687
# Poissons Ratio (z) = -0.42930 0.06266
#
# Static dielectric constant tensor:
#      x y z
#    x 1.928600 -0.048760 0.030790 
#    y -0.048760 1.900960 -0.025840 
#    z 0.030790 -0.025840 1.867160 
# 
# From -- ./inp_files/126849.got.cif
#   From: 2010.05.17/outbox.cif.g08.bks.cpg/sg2_64_cif.got.tgz:126849.got - 2010.06.03 11:33:40.
