data_PCOD9103358
_publ_section_title
;
Structure prediction by ZEFSAII (Michael W. Deem and Ramdas Pophale) SiO2 
 PCOD9103358
Probable space group: P -1
;
_chemical_formula_sum "Si O2"
_cell_formula_units_Z 13
_cell_length_a 11.580726
_cell_length_b 13.251733
_cell_length_c 6.662264
_cell_angle_alpha 122.434549
_cell_angle_beta 63.026321
_cell_angle_gamma 146.843789
_cell_volume 471.933162
_symmetry_space_group_name_H-M "P -1"
_symmetry_group_IT_number 2
_symmetry_cell_setting 'triclinic'
loop_
_space_group_symop_operation_xyz
x,y,z
-x,-y,-z
loop_
_atom_site_type_symbol
_atom_site_label
_atom_site_fract_x
_atom_site_fract_y
_atom_site_fract_z
Si Si1 0.147579 0.277011 0.892255
Si Si2 0.382175 0.630492 0.296293
Si Si3 0.257710 0.871814 0.881779
Si Si4 0.038743 0.544271 0.252152
Si Si5 0.654454 0.042999 0.627942
Si Si6 0.724510 0.619651 0.537745
Si Si7 0.000000 0.000000 0.000000
O O1 0.138668 0.294589 0.681803
O O2 0.127378 0.128676 0.825272
O O3 0.360155 0.495507 0.035175
O O4 0.933384 0.175863 0.060964
O O5 0.212730 0.583146 0.249279
O O6 0.315102 0.530145 0.461381
O O7 0.579098 0.861495 0.411720
O O8 0.470857 0.012758 0.738106
O O9 0.169238 0.671257 0.728443
O O10 0.314817 0.945289 0.143925
O O11 0.138559 0.748191 0.413201
O O12 0.000000 0.500000 0.000000
O O13 0.500000 0.500000 0.500000
O O14 0.833941 0.795262 0.783309
#
# Coordination Sequence:
#
# PCOD9103358 Si02
#       7
#     2   2   2   2   2   2   1
#     4  10  23  47  70 104 144 186 242 311 371 438
#     4  10  23  41  68 107 137 191 248 285 375 442
#     4   9  21  39  65  98 145 188 233 294 360 437
#     4   9  19  39  62  94 143 189 235 297 348 425
#     4  10  20  38  66 103 143 189 241 286 363 441
#     4  11  26  49  75 103 148 190 249 320 372 447
#     4  10  24  48  76 108 136 190 248 306 396 440
#
# _framework density 27.546274
#
# number of rings (size 3 to 8) (size 9 to 14) (size 15 to 20)
#    0.000    2.154    0.000    0.923    2.154   13.538 
#    5.538    7.692    0.000    0.000    0.000    0.000 
#    0.000    0.000    0.000    0.000    0.000    0.000 
#
# Total GULP energy -72445.761157 kJ/mol
# GULP energy per Si atom -5572.750858 kJ/mol
# Density = 2.748358 g / cm^3
# Si number density = 27.546274 Si / 1000 Ang^3
#
#
#
# Elastic Constant Matrix: (Units=GPa)
#
#
# Indices 1 2 3 4 5 6 
#
# 1 134.1713 31.8174 66.6669 0.8448 21.4418 9.6360
# 2 31.8174 163.2248 71.0248 21.4408 19.3424 -33.4890
# 3 66.6669 71.0248 130.0110 11.3797 21.2472 -4.4110
# 4 0.8448 21.4408 11.3797 81.7802 -2.1299 0.3046
# 5 21.4418 19.3424 21.2472 -2.1299 30.3011 -11.3642
# 6 9.6360 -33.4890 -4.4110 0.3046 -11.3642 39.9900
#
#
#
# Elastic Compliance Matrix: (Units=1/GPa)
#
#
# Indices 1 2 3 4 5 6 
#
# 1 0.011345 -0.000654 -0.004651 0.000555 -0.006420 -0.005623
# 2 -0.000654 0.010336 -0.004896 -0.002045 0.000294 0.008372
# 3 -0.004651 -0.004896 0.013368 -0.000623 -0.003989 -0.002634
# 4 0.000555 -0.002045 -0.000623 0.012894 0.001680 -0.001536
# 5 -0.006420 0.000294 -0.003989 0.001680 0.045639 0.014310
# 6 -0.005623 0.008372 -0.002634 -0.001536 0.014310 0.037160
#
#
# Mechanical properties :
#
#
# Convention : Reuss Voigt Hill
#
# Bulk Modulus (GPa) = 68.26801 85.15838 76.71319
# Shear Modulus (GPa) = 32.04562 47.60745 39.82654
#
# Velocity S-wave (km/s) = 3.41447 4.16176 3.80650
# Velocity P-wave (km/s) = 6.35466 7.35360 6.87230
#
# Compressibility (1/GPa) = 0.01464815
#
# Stress axis : x y z
#
# Youngs Moduli (GPa) = 88.14281 96.74808 74.80315
#
# Poissons Ratio (x) = 0.06323 0.34789
# Poissons Ratio (y) = 0.05761 0.36627
# Poissons Ratio (z) = 0.40993 0.47372
#
# Static dielectric constant tensor:
#      x y z
#    x 1.424590 0.143730 0.494640 
#    y 0.143730 2.126350 -0.109510 
#    z 0.494640 -0.109510 1.832080 
# 
# From -- ./inp_files/96097.got.cif
#   From: 2010.05.17/outbox.cif.g08.bks.cpg/sg2_49_cif.got.tgz:96097.got - 2010.06.03 11:33:40.
