data_PCOD9103713
_publ_section_title
;
Structure prediction by ZEFSAII (Michael W. Deem and Ramdas Pophale) SiO2 
 PCOD9103713
Probable space group: P -1
;
_chemical_formula_sum "Si O2"
_cell_formula_units_Z 16
_cell_length_a 9.005139
_cell_length_b 5.107462
_cell_length_c 18.348822
_cell_angle_alpha 105.347217
_cell_angle_beta 119.185332
_cell_angle_gamma 78.800875
_cell_volume 708.380883
_symmetry_space_group_name_H-M "P -1"
_symmetry_group_IT_number 2
_symmetry_cell_setting 'triclinic'
loop_
_space_group_symop_operation_xyz
x,y,z
-x,-y,-z
loop_
_atom_site_type_symbol
_atom_site_label
_atom_site_fract_x
_atom_site_fract_y
_atom_site_fract_z
Si Si1 0.113632 0.579316 0.448027
Si Si2 0.876188 0.269654 0.133843
Si Si3 0.505907 0.300473 0.055582
Si Si4 0.049630 0.072581 0.299626
Si Si5 0.337000 0.554124 0.636930
Si Si6 0.862799 0.670325 0.027215
Si Si7 0.800421 0.856972 0.324593
Si Si8 0.386012 0.779960 0.417434
O O1 0.045002 0.313800 0.375366
O O2 0.180322 0.526827 0.540954
O O3 0.968877 0.820144 0.414230
O O4 0.282356 0.641243 0.446432
O O5 0.692755 0.306672 0.133870
O O6 0.880464 0.523369 0.099531
O O7 0.017670 0.212696 0.224650
O O8 0.881675 0.990955 0.066656
O O9 0.500000 0.500000 0.000000
O O10 0.324662 0.361843 0.054748
O O11 0.500000 0.000000 0.000000
O O12 0.896527 0.884759 0.272168
O O13 0.234724 0.919745 0.341702
O O14 0.498216 0.424858 0.620764
O O15 0.306158 0.386813 0.690596
O O16 0.676705 0.126655 0.326855
O O17 0.000000 0.500000 0.000000
O O18 0.500000 0.000000 0.500000
#
# Coordination Sequence:
#
# PCOD9103713 Si02
#       8
#     2   2   2   2   2   2   2   2
#     4  11  23  40  63  86 121 160 222 260 332 381
#     4  10  22  39  64  91 127 166 200 250 305 375
#     4   8  16  34  59  89 117 154 196 230 280 360
#     4  11  25  42  61  91 128 171 213 256 329 384
#     4  12  23  39  62  87 113 156 213 287 310 354
#     4  10  20  38  67  99 125 157 204 248 300 367
#     4  11  25  39  61  88 119 153 212 268 321 368
#     4  11  24  41  61  88 122 170 224 271 315 385
#
# _framework density 22.58672
#
# number of rings (size 3 to 8) (size 9 to 14) (size 15 to 20)
#    0.000    1.500    2.500    2.250    7.000    0.000 
#    0.000    2.500    0.000    0.000    0.000    0.000 
#    0.000    0.000    0.000    0.000    0.000    0.000 
#
# Total GULP energy -89357.358785 kJ/mol
# GULP energy per Si atom -5584.834924 kJ/mol
# Density = 2.253531 g / cm^3
# Si number density = 22.586720 Si / 1000 Ang^3
#
#
#
# Elastic Constant Matrix: (Units=GPa)
#
#
# Indices 1 2 3 4 5 6 
#
# 1 130.8134 32.7969 12.5172 -2.6151 7.2252 -32.8986
# 2 32.7969 129.7615 7.9267 -15.0523 -3.0365 -7.5944
# 3 12.5172 7.9267 57.1545 -12.0756 2.3602 -6.7426
# 4 -2.6151 -15.0523 -12.0756 26.6975 -7.8025 0.8649
# 5 7.2252 -3.0365 2.3602 -7.8025 21.6324 -11.1357
# 6 -32.8986 -7.5944 -6.7426 0.8649 -11.1357 48.5145
#
#
#
# Elastic Compliance Matrix: (Units=1/GPa)
#
#
# Indices 1 2 3 4 5 6 
#
# 1 0.009861 -0.002239 -0.001401 -0.001381 -0.000883 0.005963
# 2 -0.002239 0.009175 0.000524 0.006579 0.004861 0.000989
# 3 -0.001401 0.000524 0.020021 0.010091 0.003277 0.002487
# 4 -0.001381 0.006579 0.010091 0.051797 0.021842 0.005586
# 5 -0.000883 0.004861 0.003277 0.021842 0.062190 0.014503
# 6 0.005963 0.000989 0.002487 0.005586 0.014503 0.028386
#
#
# Mechanical properties :
#
#
# Convention : Reuss Voigt Hill
#
# Bulk Modulus (GPa) = 30.46445 47.13454 38.79950
# Shear Modulus (GPa) = 25.17580 37.00146 31.08863
#
# Velocity S-wave (km/s) = 3.34223 4.05185 3.71403
# Velocity P-wave (km/s) = 5.33020 6.54244 5.96719
#
# Compressibility (1/GPa) = 0.03282515
#
# Stress axis : x y z
#
# Youngs Moduli (GPa) = 101.41260 108.99092 49.94844
#
# Poissons Ratio (x) = 0.24398 0.06997
# Poissons Ratio (y) = 0.22702 -0.02616
# Poissons Ratio (z) = 0.14207 -0.05709
#
# Static dielectric constant tensor:
#      x y z
#    x 1.896840 0.026960 0.018090 
#    y 0.026960 1.874840 0.005140 
#    z 0.018090 0.005140 1.845610 
# 
# From -- ./inp_files/468501.got.cif
#   From: 2010.05.17/outbox.cif.g08.bks.cpg/sg2_235_cif.got.tgz:468501.got - 2010.06.03 11:33:40.
