data_PCOD9103507
_publ_section_title
;
Structure prediction by ZEFSAII (Michael W. Deem and Ramdas Pophale) SiO2 
 PCOD9103507
Probable space group: P -1
;
_chemical_formula_sum "Si O2"
_cell_formula_units_Z 14
_cell_length_a 15.589545
_cell_length_b 9.692585
_cell_length_c 9.946595
_cell_angle_alpha 77.306668
_cell_angle_beta 37.753595
_cell_angle_gamma 105.590048
_cell_volume 603.019818
_symmetry_space_group_name_H-M "P -1"
_symmetry_group_IT_number 2
_symmetry_cell_setting 'triclinic'
loop_
_space_group_symop_operation_xyz
x,y,z
-x,-y,-z
loop_
_atom_site_type_symbol
_atom_site_label
_atom_site_fract_x
_atom_site_fract_y
_atom_site_fract_z
Si Si1 0.522305 0.645869 0.774481
Si Si2 0.797691 0.432027 0.715519
Si Si3 0.897901 0.270618 0.166862
Si Si4 0.137418 0.863720 0.062020
Si Si5 0.378609 0.241900 0.068605
Si Si6 0.553827 0.993488 0.120224
Si Si7 0.033592 0.967269 0.760355
O O1 0.440213 0.432777 0.878070
O O2 0.770621 0.850326 0.418346
O O3 0.346369 0.629341 0.963510
O O4 0.493495 0.648500 0.972799
O O5 0.000000 0.500000 0.500000
O O6 0.915947 0.648850 0.446680
O O7 0.676339 0.209720 0.844441
O O8 0.024390 0.235781 0.086492
O O9 0.674602 0.116685 0.547731
O O10 0.860383 0.199098 0.075011
O O11 0.000000 0.500000 0.000000
O O12 0.324762 0.947532 0.903345
O O13 0.130325 0.029292 0.031165
O O14 0.436408 0.148721 0.934778
O O15 0.144320 0.055965 0.457157
#
# Coordination Sequence:
#
# PCOD9103507 Si02
#       7
#     2   2   2   2   2   2   2
#     4   9  17  36  61  96 124 155 205 265 307 371
#     4  10  20  38  66  95 124 167 204 263 319 366
#     4  12  28  41  65  92 127 172 216 256 309 379
#     4  11  24  44  64  93 131 167 209 253 324 381
#     4   9  19  34  69  90 121 157 212 256 320 357
#     4  11  24  43  64  95 132 164 202 271 317 369
#     4  10  21  41  66  89 125 167 209 261 308 375
#
# _framework density 23.216483
#
# number of rings (size 3 to 8) (size 9 to 14) (size 15 to 20)
#    0.857    0.857    2.857    0.857    6.000    1.714 
#    0.000    0.714    0.000    0.000    0.000    0.000 
#    0.000    0.000    0.000    0.000    0.000    0.000 
#
# Total GULP energy -78044.689733 kJ/mol
# GULP energy per Si atom -5574.620695 kJ/mol
# Density = 2.316364 g / cm^3
# Si number density = 23.216483 Si / 1000 Ang^3
#
#
#
# Elastic Constant Matrix: (Units=GPa)
#
#
# Indices 1 2 3 4 5 6 
#
# 1 62.0959 32.4767 3.7570 4.5321 1.1464 -19.9135
# 2 32.4767 164.9747 2.0882 -4.7048 6.6926 -40.4420
# 3 3.7570 2.0882 20.7614 -9.6880 -0.5708 0.4364
# 4 4.5321 -4.7048 -9.6880 37.6818 -6.4830 5.8907
# 5 1.1464 6.6926 -0.5708 -6.4830 19.3863 1.1753
# 6 -19.9135 -40.4420 0.4364 5.8907 1.1753 34.5505
#
#
#
# Elastic Compliance Matrix: (Units=1/GPa)
#
#
# Indices 1 2 3 4 5 6 
#
# 1 0.021912 -0.001090 -0.007773 -0.007551 -0.004455 0.012891
# 2 -0.001090 0.008941 -0.001748 -0.001530 -0.004208 0.010264
# 3 -0.007773 -0.001748 0.059295 0.019380 0.009952 -0.010917
# 4 -0.007551 -0.001530 0.019380 0.036817 0.014656 -0.013164
# 5 -0.004455 -0.004208 0.009952 0.014656 0.059228 -0.012132
# 6 0.012891 0.010264 -0.010917 -0.013164 -0.012132 0.051182
#
#
# Mechanical properties :
#
#
# Convention : Reuss Voigt Hill
#
# Bulk Modulus (GPa) = 14.50787 36.05286 25.28037
# Shear Modulus (GPa) = 17.75740 32.29106 25.02423
#
# Velocity S-wave (km/s) = 2.76861 3.73348 3.28665
# Velocity P-wave (km/s) = 4.05990 5.84362 5.03144
#
# Compressibility (1/GPa) = 0.06892810
#
# Stress axis : x y z
#
# Youngs Moduli (GPa) = 45.63783 111.83949 16.86469
#
# Poissons Ratio (x) = 0.12187 0.13109
# Poissons Ratio (y) = 0.04973 0.02947
# Poissons Ratio (z) = 0.35473 0.19547
#
# Static dielectric constant tensor:
#      x y z
#    x 1.247890 0.496480 0.592980 
#    y 0.496480 1.518910 -0.456030 
#    z 0.592980 -0.456030 1.514290 
# 
# From -- ./inp_files/468657.got.cif
#   From: 2010.05.17/outbox.cif.g08.bks.cpg/sg2_235_cif.got.tgz:468657.got - 2010.06.03 11:33:40.
