data_PCOD9103405
_publ_section_title
;
Structure prediction by ZEFSAII (Michael W. Deem and Ramdas Pophale) SiO2 
 PCOD9103405
Probable space group: P -1
;
_chemical_formula_sum "Si O2"
_cell_formula_units_Z 16
_cell_length_a 14.146351
_cell_length_b 9.403385
_cell_length_c 15.132719
_cell_angle_alpha 140.558569
_cell_angle_beta 37.835270
_cell_angle_gamma 140.912332
_cell_volume 709.455471
_symmetry_space_group_name_H-M "P -1"
_symmetry_group_IT_number 2
_symmetry_cell_setting 'triclinic'
loop_
_space_group_symop_operation_xyz
x,y,z
-x,-y,-z
loop_
_atom_site_type_symbol
_atom_site_label
_atom_site_fract_x
_atom_site_fract_y
_atom_site_fract_z
Si Si1 0.183630 0.314296 0.815927
Si Si2 0.552853 0.431540 0.573724
Si Si3 0.354073 0.017250 0.176221
Si Si4 0.807002 0.491245 0.267394
Si Si5 0.018008 0.025147 0.394689
Si Si6 0.054465 0.227377 0.239302
Si Si7 0.805487 0.463277 0.556567
Si Si8 0.865523 0.517486 0.881572
O O1 0.352973 0.277940 0.651756
O O2 0.190447 0.540068 0.854961
O O3 0.008129 0.061568 0.830408
O O4 0.213501 0.409508 0.940573
O O5 0.639196 0.382349 0.398564
O O6 0.649526 0.396167 0.572343
O O7 0.585708 0.721880 0.692223
O O8 0.262539 0.767469 0.181506
O O9 0.195234 0.013375 0.233897
O O10 0.500000 0.000000 0.000000
O O11 0.955048 0.464962 0.202338
O O12 0.862960 0.787155 0.360466
O O13 0.040474 0.293745 0.482872
O O14 0.000000 0.000000 0.500000
O O15 0.884907 0.268571 0.404799
O O16 0.200997 0.422857 0.288245
O O17 0.102155 0.302638 0.138901
#
# Coordination Sequence:
#
# PCOD9103405 Si02
#       8
#     2   2   2   2   2   2   2   2
#     4  12  25  39  61  93 130 163 198 252 313 366
#     4  11  22  40  65  92 126 153 204 266 311 345
#     4  10  19  35  63  88 117 154 198 255 314 339
#     4  11  21  39  63  93 117 160 209 250 301 366
#     4  10  16  32  63  88 111 149 205 255 294 342
#     4  11  23  39  65  90 121 165 215 239 302 371
#     4  10  20  38  63  89 114 160 211 254 291 355
#     4  11  23  41  63  90 125 166 203 251 301 369
#
# _framework density 22.552506999999999
#
# number of rings (size 3 to 8) (size 9 to 14) (size 15 to 20)
#    0.000    1.250    6.250    1.875    0.000    0.500 
#    0.000    0.625    0.000    0.000    0.000    0.000 
#    0.000    0.000    0.000    0.000    0.000    0.000 
#
# Total GULP energy -89211.505253 kJ/mol
# GULP energy per Si atom -5575.719078 kJ/mol
# Density = 2.250118 g / cm^3
# Si number density = 22.552507 Si / 1000 Ang^3
#
#
#
# Elastic Constant Matrix: (Units=GPa)
#
#
# Indices 1 2 3 4 5 6 
#
# 1 112.0904 22.8283 24.3166 -28.5512 7.7881 -20.3430
# 2 22.8283 70.7872 22.3057 -17.1793 4.5368 -12.6597
# 3 24.3166 22.3057 81.9811 -31.5345 -7.5314 -10.9218
# 4 -28.5512 -17.1793 -31.5345 35.6962 -5.9361 8.5078
# 5 7.7881 4.5368 -7.5314 -5.9361 28.4352 -13.2161
# 6 -20.3430 -12.6597 -10.9218 8.5078 -13.2161 36.5068
#
#
#
# Elastic Compliance Matrix: (Units=1/GPa)
#
#
# Indices 1 2 3 4 5 6 
#
# 1 0.012049 -0.001218 0.000994 0.008964 0.001347 0.004988
# 2 -0.001218 0.016887 -0.002142 0.004388 -0.000455 0.003350
# 3 0.000994 -0.002142 0.022316 0.020109 0.013244 0.006596
# 4 0.008964 0.004388 0.020109 0.056529 0.016440 0.005310
# 5 0.001347 -0.000455 0.013244 0.016440 0.050674 0.019068
# 6 0.004988 0.003350 0.006596 0.005310 0.019068 0.038972
#
#
# Mechanical properties :
#
#
# Convention : Reuss Voigt Hill
#
# Bulk Modulus (GPa) = 21.49530 44.86223 33.17877
# Shear Modulus (GPa) = 22.97120 33.15484 28.06302
#
# Velocity S-wave (km/s) = 3.19496 3.83837 3.53135
# Velocity P-wave (km/s) = 4.81272 6.29124 5.60098
#
# Compressibility (1/GPa) = 0.04652180
#
# Stress axis : x y z
#
# Youngs Moduli (GPa) = 82.99666 59.21590 44.81042
#
# Poissons Ratio (x) = 0.07210 -0.04454
# Poissons Ratio (y) = 0.10106 0.09596
# Poissons Ratio (z) = -0.08249 0.12681
#
# Static dielectric constant tensor:
#      x y z
#    x 2.142860 -0.003120 0.244130 
#    y -0.003120 1.854150 0.035180 
#    z 0.244130 0.035180 2.044070 
# 
# From -- ./inp_files/529050.got.cif
#   From: 2010.05.17/outbox.cif.g08.bks.cpg/sg2_265_cif.got.tgz:529050.got - 2010.06.03 11:33:40.
