data_PCOD9103276
_publ_section_title
;
Structure prediction by ZEFSAII (Michael W. Deem and Ramdas Pophale) SiO2 
 PCOD9103276
Probable space group: P -1
;
_chemical_formula_sum "Si O2"
_cell_formula_units_Z 16
_cell_length_a 19.757907
_cell_length_b 5.075152
_cell_length_c 9.340462
_cell_angle_alpha 76.801718
_cell_angle_beta 120.258319
_cell_angle_gamma 116.895148
_cell_volume 721.501915
_symmetry_space_group_name_H-M "P -1"
_symmetry_group_IT_number 2
_symmetry_cell_setting 'triclinic'
loop_
_space_group_symop_operation_xyz
x,y,z
-x,-y,-z
loop_
_atom_site_type_symbol
_atom_site_label
_atom_site_fract_x
_atom_site_fract_y
_atom_site_fract_z
Si Si1 0.057173 0.311697 0.094317
Si Si2 0.981746 0.008278 0.313537
Si Si3 0.125460 0.604941 0.864123
Si Si4 0.437716 0.119848 0.035492
Si Si5 0.620757 0.462022 0.248005
Si Si6 0.641263 0.759805 0.788007
Si Si7 0.597431 0.253707 0.569996
Si Si8 0.280974 0.533480 0.911585
O O1 0.061044 0.227243 0.274132
O O2 0.134384 0.491395 0.048107
O O3 0.000000 0.500000 0.000000
O O4 0.000000 0.000000 0.000000
O O5 0.907488 0.133605 0.202211
O O6 0.948765 0.679958 0.254350
O O7 0.000000 0.000000 0.500000
O O8 0.208226 0.645652 0.855565
O O9 0.537053 0.184909 0.133838
O O10 0.425293 0.281874 0.147584
O O11 0.405363 0.268740 0.855455
O O12 0.370501 0.790153 0.023546
O O13 0.624747 0.400436 0.425607
O O14 0.703119 0.509565 0.232596
O O15 0.607254 0.511639 0.660626
O O16 0.654455 0.073388 0.696135
O O17 0.722126 0.737626 0.958583
O O18 0.500000 0.000000 0.500000
#
# Coordination Sequence:
#
# PCOD9103276 Si02
#       8
#     2   2   2   2   2   2   2   2
#     4   8  16  34  57  88 113 148 193 227 276 350
#     4  10  20  38  65  95 125 152 197 241 299 359
#     4  10  22  37  65  89 122 164 195 246 294 364
#     4  10  21  40  60  87 115 169 215 265 297 368
#     4  10  23  36  62  86 121 161 219 260 310 364
#     4  11  23  39  60  84 117 152 206 256 314 361
#     4  12  23  38  61  85 112 149 202 271 324 353
#     4  11  23  41  61  88 127 163 216 247 318 360
#
# _framework density 22.175964
#
# number of rings (size 3 to 8) (size 9 to 14) (size 15 to 20)
#    0.000    1.750    2.500    1.125    5.250    1.000 
#    0.000    2.500    0.000    0.000    0.000    0.000 
#    0.000    0.000    0.000    0.000    0.000    0.000 
#
# Total GULP energy -89303.994524 kJ/mol
# GULP energy per Si atom -5581.499658 kJ/mol
# Density = 2.212549 g / cm^3
# Si number density = 22.175964 Si / 1000 Ang^3
#
#
#
# Elastic Constant Matrix: (Units=GPa)
#
#
# Indices 1 2 3 4 5 6 
#
# 1 95.2205 15.5365 27.8530 -13.2980 -20.8677 -1.2012
# 2 15.5365 77.9291 36.1641 -14.7924 -7.2803 -23.8035
# 3 27.8530 36.1641 114.2886 -36.9980 -39.2479 10.1195
# 4 -13.2980 -14.7924 -36.9980 37.8700 7.5882 -5.7033
# 5 -20.8677 -7.2803 -39.2479 7.5882 34.3640 -3.1302
# 6 -1.2012 -23.8035 10.1195 -5.7033 -3.1302 33.1362
#
#
#
# Elastic Compliance Matrix: (Units=1/GPa)
#
#
# Indices 1 2 3 4 5 6 
#
# 1 0.012650 -0.001646 0.001341 0.003521 0.008109 0.000239
# 2 -0.001646 0.024100 -0.010157 0.003247 -0.006360 0.020312
# 3 0.001341 -0.010157 0.025558 0.015214 0.023563 -0.010208
# 4 0.003521 0.003247 0.015214 0.042423 0.011398 0.006192
# 5 0.008109 -0.006360 0.023563 0.011398 0.056694 -0.004153
# 6 0.000239 0.020312 -0.010208 0.006192 -0.004153 0.048570
#
#
# Mechanical properties :
#
#
# Convention : Reuss Voigt Hill
#
# Bulk Modulus (GPa) = 24.16286 49.61617 36.88951
# Shear Modulus (GPa) = 20.43225 34.93299 27.68262
#
# Velocity S-wave (km/s) = 3.03870 3.97326 3.53699
# Velocity P-wave (km/s) = 4.81988 6.59329 5.77506
#
# Compressibility (1/GPa) = 0.04138583
#
# Stress axis : x y z
#
# Youngs Moduli (GPa) = 79.05152 41.49362 39.12732
#
# Poissons Ratio (x) = 0.06828 -0.05248
# Poissons Ratio (y) = 0.13008 0.39740
# Poissons Ratio (z) = -0.10602 0.42143
#
# Static dielectric constant tensor:
#      x y z
#    x 1.907110 -0.011790 -0.036410 
#    y -0.011790 1.880640 0.004130 
#    z -0.036410 0.004130 1.847840 
# 
# From -- ./inp_files/340354.got.cif
#   From: 2010.05.17/outbox.cif.g08.bks.cpg/sg2_171_cif.got.tgz:340354.got - 2010.06.03 11:33:40.
