data_PCOD9103937
_publ_section_title
;
Structure prediction by ZEFSAII (Michael W. Deem and Ramdas Pophale) SiO2 
 PCOD9103937
Probable space group: P -1
;
_chemical_formula_sum "Si O2"
_cell_formula_units_Z 16
_cell_length_a 9.586469
_cell_length_b 10.603075
_cell_length_c 9.749188
_cell_angle_alpha 136.728666
_cell_angle_beta 108.630374
_cell_angle_gamma 79.665297
_cell_volume 641.504996
_symmetry_space_group_name_H-M "P -1"
_symmetry_group_IT_number 2
_symmetry_cell_setting 'triclinic'
loop_
_space_group_symop_operation_xyz
x,y,z
-x,-y,-z
loop_
_atom_site_type_symbol
_atom_site_label
_atom_site_fract_x
_atom_site_fract_y
_atom_site_fract_z
Si Si1 0.837043 0.390885 0.604318
Si Si2 0.541603 0.482984 0.661540
Si Si3 0.071658 0.166683 0.032095
Si Si4 0.115981 0.668564 0.712696
Si Si5 0.066656 0.082053 0.446000
Si Si6 0.641713 0.795011 0.240040
Si Si7 0.650971 0.433731 0.086375
Si Si8 0.367135 0.090339 0.959291
O O1 0.686148 0.368461 0.626763
O O2 0.780081 0.325510 0.381853
O O3 0.977546 0.268408 0.558580
O O4 0.888445 0.610162 0.806797
O O5 0.500000 0.500000 0.500000
O O6 0.419940 0.448017 0.715963
O O7 0.588760 0.694343 0.873647
O O8 0.227406 0.078450 0.005218
O O9 0.010056 0.824486 0.841526
O O10 0.978100 0.067802 0.802878
O O11 0.210682 0.641688 0.855816
O O12 0.000000 0.500000 0.500000
O O13 0.243459 0.119868 0.542362
O O14 0.000000 0.000000 0.500000
O O15 0.689088 0.580884 0.093885
O O16 0.670746 0.939371 0.236524
O O17 0.464881 0.733821 0.135299
O O18 0.500000 0.000000 0.000000
#
# Coordination Sequence:
#
# PCOD9103937 Si02
#       8
#     2   2   2   2   2   2   2   2
#     4  10  23  43  71 104 138 185 238 298 353 424
#     4  10  20  38  70 104 128 184 242 280 361 425
#     4  10  23  43  70 106 134 185 237 289 362 423
#     4  10  20  41  71 103 137 179 234 296 358 418
#     4  12  25  45  70 102 147 184 242 297 356 435
#     4  10  22  43  66  98 139 188 230 293 359 416
#     4  10  21  42  71  99 144 184 238 298 352 433
#     4  10  22  41  68  98 141 180 233 300 358 428
#
# _framework density 24.941348000000001
#
# number of rings (size 3 to 8) (size 9 to 14) (size 15 to 20)
#    0.000    1.750    2.500    1.500    1.750    1.000 
#    9.000    0.625    0.000    0.000    0.000    0.000 
#    0.000    0.000    0.000    0.000    0.000    0.000 
#
# Total GULP energy -89086.288550 kJ/mol
# GULP energy per Si atom -5567.893034 kJ/mol
# Density = 2.488458 g / cm^3
# Si number density = 24.941348 Si / 1000 Ang^3
#
#
#
# Elastic Constant Matrix: (Units=GPa)
#
#
# Indices 1 2 3 4 5 6 
#
# 1 120.2611 37.0726 53.1465 -0.5837 -9.7291 -11.5924
# 2 37.0726 113.0863 35.6077 -9.6954 -4.2109 -11.0296
# 3 53.1465 35.6077 139.0379 1.7353 -6.4140 -27.7776
# 4 -0.5837 -9.6954 1.7353 35.9892 -7.5150 4.5545
# 5 -9.7291 -4.2109 -6.4140 -7.5150 39.8647 -7.4717
# 6 -11.5924 -11.0296 -27.7776 4.5545 -7.4717 45.8712
#
#
#
# Elastic Compliance Matrix: (Units=1/GPa)
#
#
# Indices 1 2 3 4 5 6 
#
# 1 0.010701 -0.002346 -0.003313 0.000047 0.001922 0.000442
# 2 -0.002346 0.010493 -0.001619 0.002970 0.000988 0.000816
# 3 -0.003313 -0.001619 0.009985 -0.001346 0.001343 0.005173
# 4 0.000047 0.002970 -0.001346 0.030050 0.005361 -0.002199
# 5 0.001922 0.000988 0.001343 0.005361 0.027926 0.005553
# 6 0.000442 0.000816 0.005173 -0.002199 0.005553 0.026363
#
#
# Mechanical properties :
#
#
# Convention : Reuss Voigt Hill
#
# Bulk Modulus (GPa) = 60.15799 69.33767 64.74783
# Shear Modulus (GPa) = 36.86909 40.78223 38.82566
#
# Velocity S-wave (km/s) = 3.84895 4.04806 3.94976
# Velocity P-wave (km/s) = 6.62757 7.05051 6.84231
#
# Compressibility (1/GPa) = 0.01662290
#
# Stress axis : x y z
#
# Youngs Moduli (GPa) = 93.44917 95.30500 100.14600
#
# Poissons Ratio (x) = 0.22360 0.33179
# Poissons Ratio (y) = 0.21924 0.16213
# Poissons Ratio (z) = 0.30960 0.15429
#
# Static dielectric constant tensor:
#      x y z
#    x 2.265720 0.464680 -0.237430 
#    y 0.464680 2.841340 -0.459720 
#    z -0.237430 -0.459720 2.439480 
# 
# From -- ./inp_files/424579.got.cif
#   From: 2010.05.17/outbox.cif.g08.bks.cpg/sg2_213_cif.got.tgz:424579.got - 2010.06.03 11:33:40.
