data_PCOD9103755
_publ_section_title
;
Structure prediction by ZEFSAII (Michael W. Deem and Ramdas Pophale) SiO2 
 PCOD9103755
Probable space group: P -1
;
_chemical_formula_sum "Si O2"
_cell_formula_units_Z 14
_cell_length_a 9.377472
_cell_length_b 16.936043
_cell_length_c 10.961147
_cell_angle_alpha 132.271167
_cell_angle_beta 44.686736
_cell_angle_gamma 98.930251
_cell_volume 710.248851
_symmetry_space_group_name_H-M "P -1"
_symmetry_group_IT_number 2
_symmetry_cell_setting 'triclinic'
loop_
_space_group_symop_operation_xyz
x,y,z
-x,-y,-z
loop_
_atom_site_type_symbol
_atom_site_label
_atom_site_fract_x
_atom_site_fract_y
_atom_site_fract_z
Si Si1 0.420564 0.831266 0.795486
Si Si2 0.587716 0.019315 0.282673
Si Si3 0.569252 0.558540 0.125113
Si Si4 0.209812 0.017800 0.351583
Si Si5 0.166178 0.307761 0.939922
Si Si6 0.888027 0.247021 0.210199
Si Si7 0.981047 0.679828 0.232634
O O1 0.249044 0.781585 0.838508
O O2 0.725902 0.707810 0.474793
O O3 0.366416 0.917474 0.795316
O O4 0.352145 0.925004 0.050180
O O5 0.418666 0.977192 0.287121
O O6 0.403190 0.145571 0.616870
O O7 0.855514 0.895584 0.047017
O O8 0.710176 0.616722 0.045974
O O9 0.314991 0.674826 0.475796
O O10 0.500000 0.500000 0.000000
O O11 0.765757 0.440443 0.978286
O O12 0.072794 0.176005 0.572297
O O13 0.000000 0.000000 0.500000
O O14 0.026489 0.345301 0.932097
O O15 0.977051 0.329196 0.182357
#
# Coordination Sequence:
#
# PCOD9103755 Si02
#       7
#     2   2   2   2   2   2   2
#     4  10  20  38  68  90 122 172 205 257 324 362
#     4  10  21  39  65  97 129 157 209 266 313 374
#     4  12  28  43  63  90 130 173 209 259 316 373
#     4  10  21  38  64 100 124 164 211 260 312 369
#     4  10  23  45  65  94 124 164 218 257 308 380
#     4  12  24  41  67  96 126 168 208 260 324 362
#     4  10  22  44  63  90 130 165 213 254 305 388
#
# _framework density 19.711400999999999
#
# number of rings (size 3 to 8) (size 9 to 14) (size 15 to 20)
#    0.000    1.714    2.857    4.714    4.000    2.286 
#    2.571    0.000    0.000    0.000    0.000    0.000 
#    0.000    0.000    0.000    0.000    0.000    0.000 
#
# Total GULP energy -78258.321622 kJ/mol
# GULP energy per Si atom -5589.880116 kJ/mol
# Density = 1.966654 g / cm^3
# Si number density = 19.711401 Si / 1000 Ang^3
#
#
#
# Elastic Constant Matrix: (Units=GPa)
#
#
# Indices 1 2 3 4 5 6 
#
# 1 82.6944 31.1109 32.5578 15.4122 -12.3708 24.5450
# 2 31.1109 81.2961 18.2502 -15.4886 -10.7204 28.0332
# 3 32.5578 18.2502 30.5970 8.2751 -23.3195 1.8914
# 4 15.4122 -15.4886 8.2751 27.5195 -0.9461 -2.2703
# 5 -12.3708 -10.7204 -23.3195 -0.9461 37.7969 6.3993
# 6 24.5450 28.0332 1.8914 -2.2703 6.3993 29.9038
#
#
#
# Elastic Compliance Matrix: (Units=1/GPa)
#
#
# Indices 1 2 3 4 5 6 
#
# 1 0.037584 0.002881 -0.045286 -0.008564 -0.010097 -0.029174
# 2 0.002881 0.030275 -0.026385 0.021066 -0.001628 -0.027129
# 3 -0.045286 -0.026385 0.151305 -0.029781 0.064145 0.036348
# 4 -0.008564 0.021066 -0.029781 0.061216 -0.013096 -0.003385
# 5 -0.010097 -0.001628 0.064145 -0.013096 0.063430 -0.008811
# 6 -0.029174 -0.027129 0.036348 -0.003385 -0.008811 0.082148
#
#
# Mechanical properties :
#
#
# Convention : Reuss Voigt Hill
#
# Bulk Modulus (GPa) = 12.25757 39.82502 26.04130
# Shear Modulus (GPa) = 8.46407 26.55530 17.50969
#
# Velocity S-wave (km/s) = 2.07444 3.67441 2.98367
# Velocity P-wave (km/s) = 3.45974 6.18463 5.01096
#
# Compressibility (1/GPa) = 0.08158223
#
# Stress axis : x y z
#
# Youngs Moduli (GPa) = 26.60732 33.03044 6.60919
#
# Poissons Ratio (x) = -0.09514 0.29931
# Poissons Ratio (y) = -0.07664 0.17438
# Poissons Ratio (z) = 1.20495 0.87150
#
# Static dielectric constant tensor:
#      x y z
#    x 1.677560 0.006690 -0.000400 
#    y 0.006690 1.711130 -0.014250 
#    z -0.000400 -0.014250 1.683500 
# 
# From -- ./inp_files/255735.got.cif
#   From: 2010.05.17/outbox.cif.g08.bks.cpg/sg2_128_cif.got.tgz:255735.got - 2010.06.03 11:33:40.
