data_PCOD9103779
_publ_section_title
;
Structure prediction by ZEFSAII (Michael W. Deem and Ramdas Pophale) SiO2 
 PCOD9103779
Probable space group: P -1
;
_chemical_formula_sum "Si O2"
_cell_formula_units_Z 15
_cell_length_a 15.975781
_cell_length_b 4.929337
_cell_length_c 11.474637
_cell_angle_alpha 81.155902
_cell_angle_beta 138.623320
_cell_angle_gamma 108.135770
_cell_volume 563.029036
_symmetry_space_group_name_H-M "P -1"
_symmetry_group_IT_number 2
_symmetry_cell_setting 'triclinic'
loop_
_space_group_symop_operation_xyz
x,y,z
-x,-y,-z
loop_
_atom_site_type_symbol
_atom_site_label
_atom_site_fract_x
_atom_site_fract_y
_atom_site_fract_z
Si Si1 0.563289 0.550201 0.254895
Si Si2 0.903666 0.553875 0.745872
Si Si3 0.500000 0.000000 0.000000
Si Si4 0.350268 0.139440 0.218922
Si Si5 0.181644 0.464620 0.597049
Si Si6 0.187570 0.561717 0.997356
Si Si7 0.729705 0.905216 0.612808
Si Si8 0.203360 0.928358 0.759393
O O1 0.480734 0.718275 0.086790
O O2 0.473724 0.297785 0.257798
O O3 0.660428 0.434354 0.280561
O O4 0.655176 0.782751 0.424274
O O5 0.894785 0.639565 0.595111
O O6 0.852660 0.772366 0.754900
O O7 0.048687 0.526509 0.918982
O O8 0.793325 0.245324 0.658472
O O9 0.638408 0.955766 0.099818
O O10 0.365027 0.187858 0.369046
O O11 0.231994 0.275908 0.050521
O O12 0.303392 0.800177 0.169717
O O13 0.849469 0.266528 0.396532
O O14 0.156321 0.208731 0.680359
O O15 0.176539 0.721480 0.854816
#
# Coordination Sequence:
#
# PCOD9103779 Si02
#       8
#     2   2   1   2   2   2   2   2
#     4  10  23  43  71 103 136 174 223 280 342 403
#     4  11  24  46  68  97 135 176 236 276 331 405
#     4  10  20  38  68  92 138 164 212 268 334 408
#     4  12  26  44  68 101 139 175 228 281 338 398
#     4  10  23  40  67  94 132 179 219 270 335 403
#     4  12  27  43  66 102 137 179 226 281 335 396
#     4  11  25  46  71  97 132 184 229 279 334 394
#     4  11  23  39  63 100 131 179 216 269 342 396
#
# _framework density 26.641608999999999
#
# number of rings (size 3 to 8) (size 9 to 14) (size 15 to 20)
#    0.000    1.067    1.333    5.200    1.867    7.467 
#    0.000    4.667    0.000    0.000    0.000    0.000 
#    0.000    0.000    0.000    0.000    0.000    0.000 
#
# Total GULP energy -83975.125886 kJ/mol
# GULP energy per Si atom -5598.341726 kJ/mol
# Density = 2.658097 g / cm^3
# Si number density = 26.641609 Si / 1000 Ang^3
#
#
#
# Elastic Constant Matrix: (Units=GPa)
#
#
# Indices 1 2 3 4 5 6 
#
# 1 87.5999 12.7223 15.8425 7.9871 -8.8368 4.5204
# 2 12.7223 93.7732 13.5966 -12.5332 -6.5204 -6.0803
# 3 15.8425 13.5966 46.5090 -13.8553 6.3234 11.7932
# 4 7.9871 -12.5332 -13.8553 26.1089 4.7951 6.1100
# 5 -8.8368 -6.5204 6.3234 4.7951 49.8745 -4.4726
# 6 4.5204 -6.0803 11.7932 6.1100 -4.4726 32.2801
#
#
#
# Elastic Compliance Matrix: (Units=1/GPa)
#
#
# Indices 1 2 3 4 5 6 
#
# 1 0.015024 -0.001582 -0.010429 -0.012969 0.005438 0.004616
# 2 -0.001582 0.012106 -0.002866 0.003770 0.001577 0.003054
# 3 -0.010429 -0.002866 0.043006 0.032298 -0.012814 -0.022680
# 4 -0.012969 0.003770 0.032298 0.069672 -0.014796 -0.024511
# 5 0.005438 0.001577 -0.012814 -0.014796 0.025210 0.010511
# 6 0.004616 0.003054 -0.022680 -0.024511 0.010511 0.045289
#
#
# Mechanical properties :
#
#
# Convention : Reuss Voigt Hill
#
# Bulk Modulus (GPa) = 24.76269 34.68942 29.72606
# Shear Modulus (GPa) = 19.72225 34.03406 26.87816
#
# Velocity S-wave (km/s) = 2.72376 3.57806 3.17973
# Velocity P-wave (km/s) = 4.38255 5.48808 4.96618
#
# Compressibility (1/GPa) = 0.04038334
#
# Stress axis : x y z
#
# Youngs Moduli (GPa) = 66.55945 82.60541 23.25244
#
# Poissons Ratio (x) = 0.13069 0.24249
# Poissons Ratio (y) = 0.10531 0.06663
# Poissons Ratio (z) = 0.69412 0.23672
#
# Static dielectric constant tensor:
#      x y z
#    x 2.083560 -0.018180 -0.082210 
#    y -0.018180 2.128100 0.189810 
#    z -0.082210 0.189810 2.317550 
# 
# From -- ./inp_files/441855.got.cif
#   From: 2010.05.17/outbox.cif.g08.bks.cpg/sg2_221_cif.got.tgz:441855.got - 2010.06.03 11:33:40.
