data_PCOD9103279
_publ_section_title
;
Structure prediction by ZEFSAII (Michael W. Deem and Ramdas Pophale) SiO2 
 PCOD9103279
Probable space group: P -1
;
_chemical_formula_sum "Si O2"
_cell_formula_units_Z 16
_cell_length_a 7.219315
_cell_length_b 23.230691
_cell_length_c 17.404478
_cell_angle_alpha 18.796637
_cell_angle_beta 51.549949
_cell_angle_gamma 55.287343
_cell_volume 734.415389
_symmetry_space_group_name_H-M "P -1"
_symmetry_group_IT_number 2
_symmetry_cell_setting 'triclinic'
loop_
_space_group_symop_operation_xyz
x,y,z
-x,-y,-z
loop_
_atom_site_type_symbol
_atom_site_label
_atom_site_fract_x
_atom_site_fract_y
_atom_site_fract_z
Si Si1 0.262557 0.087043 0.313228
Si Si2 0.467067 0.212969 0.360738
Si Si3 0.711027 0.507164 0.377079
Si Si4 0.811154 0.126134 0.853526
Si Si5 0.720462 0.473132 0.084845
Si Si6 0.690328 0.904215 0.887697
Si Si7 0.962164 0.165969 0.598321
Si Si8 0.696869 0.493172 0.227185
O O1 0.347596 0.065666 0.230330
O O2 0.428472 0.964847 0.472744
O O3 0.263684 0.296602 0.064195
O O4 0.000000 0.000000 0.500000
O O5 0.659517 0.326289 0.220664
O O6 0.240500 0.156668 0.543363
O O7 0.377175 0.345687 0.151888
O O8 0.500000 0.500000 0.500000
O O9 0.869367 0.343842 0.563392
O O10 0.593019 0.478216 0.359046
O O11 0.811726 0.713046 0.097937
O O12 0.817363 0.090388 0.805440
O O13 0.557133 0.100362 0.994772
O O14 0.000000 0.000000 0.000000
O O15 0.590747 0.418345 0.268727
O O16 0.000000 0.500000 0.000000
O O17 0.864016 0.056344 0.688748
O O18 0.919029 0.374819 0.334167
#
# Coordination Sequence:
#
# PCOD9103279 Si02
#       8
#     2   2   2   2   2   2   2   2
#     4  11  24  40  63  93 130 171 216 270 324 384
#     4  11  25  40  65  94 132 172 220 270 322 391
#     4   8  18  38  63  88 124 170 209 258 326 382
#     4  10  20  38  65  95 126 161 219 274 320 386
#     4  11  22  42  66  92 129 170 221 269 324 381
#     4  10  21  41  64  90 130 175 210 268 328 382
#     4  11  22  40  65  94 125 172 222 261 331 394
#     4  10  21  38  62  89 126 167 212 264 323 381
#
# _framework density 21.786035999999999
#
# number of rings (size 3 to 8) (size 9 to 14) (size 15 to 20)
#    0.000    1.750    1.250    2.625    3.500    0.500 
#    0.000    1.875    0.000    0.000    0.000    0.000 
#    0.000    0.000    0.000    0.000    0.000    0.000 
#
# Total GULP energy -89174.124081 kJ/mol
# GULP energy per Si atom -5573.382755 kJ/mol
# Density = 2.173645 g / cm^3
# Si number density = 21.786036 Si / 1000 Ang^3
#
#
#
# Elastic Constant Matrix: (Units=GPa)
#
#
# Indices 1 2 3 4 5 6 
#
# 1 91.7469 41.7055 44.2768 -14.6519 11.8327 3.1536
# 2 41.7055 88.3756 24.1004 0.1456 17.7090 8.4506
# 3 44.2768 24.1004 110.1849 -30.8521 30.1430 -11.2861
# 4 -14.6519 0.1456 -30.8521 46.9154 -8.7053 11.4502
# 5 11.8327 17.7090 30.1430 -8.7053 32.6396 -1.8007
# 6 3.1536 8.4506 -11.2861 11.4502 -1.8007 35.1553
#
#
#
# Elastic Compliance Matrix: (Units=1/GPa)
#
#
# Indices 1 2 3 4 5 6 
#
# 1 0.016845 -0.006869 -0.005688 0.002776 0.003481 -0.002412
# 2 -0.006869 0.016254 0.000162 -0.002797 -0.007373 -0.002705
# 3 -0.005688 0.000162 0.016516 0.006185 -0.011454 0.003173
# 4 0.002776 -0.002797 0.006185 0.028256 0.001967 -0.006694
# 5 0.003481 -0.007373 -0.011454 0.001967 0.044446 -0.000581
# 6 -0.002412 -0.002705 0.003173 -0.006694 -0.000581 0.032481
#
#
# Mechanical properties :
#
#
# Convention : Reuss Voigt Hill
#
# Bulk Modulus (GPa) = 40.28546 56.71921 48.50233
# Shear Modulus (GPa) = 26.61503 34.95704 30.78604
#
# Velocity S-wave (km/s) = 3.49901 4.01004 3.76321
# Velocity P-wave (km/s) = 5.90387 6.89433 6.41823
#
# Compressibility (1/GPa) = 0.02482285
#
# Stress axis : x y z
#
# Youngs Moduli (GPa) = 59.36595 61.52451 60.54675
#
# Poissons Ratio (x) = 0.42264 0.34442
# Poissons Ratio (y) = 0.40781 -0.00981
# Poissons Ratio (z) = 0.33770 -0.00997
#
# Static dielectric constant tensor:
#      x y z
#    x 1.763840 0.015690 0.028060 
#    y 0.015690 1.846440 0.005110 
#    z 0.028060 0.005110 1.869770 
# 
# From -- ./inp_files/528297.got.cif
#   From: 2010.05.17/outbox.cif.g08.bks.cpg/sg2_265_cif.got.tgz:528297.got - 2010.06.03 11:33:40.
