data_PCOD9103632
_publ_section_title
;
Structure prediction by ZEFSAII (Michael W. Deem and Ramdas Pophale) SiO2 
 PCOD9103632
Probable space group: P -1
;
_chemical_formula_sum "Si O2"
_cell_formula_units_Z 16
_cell_length_a 5.204793
_cell_length_b 12.450892
_cell_length_c 10.059098
_cell_angle_alpha 92.461877
_cell_angle_beta 97.549274
_cell_angle_gamma 92.202389
_cell_volume 644.986691
_symmetry_space_group_name_H-M "P -1"
_symmetry_group_IT_number 2
_symmetry_cell_setting 'triclinic'
loop_
_space_group_symop_operation_xyz
x,y,z
-x,-y,-z
loop_
_atom_site_type_symbol
_atom_site_label
_atom_site_fract_x
_atom_site_fract_y
_atom_site_fract_z
Si Si1 0.757773 0.642986 0.550397
Si Si2 0.458678 0.027529 0.654721
Si Si3 0.759469 0.456019 0.069325
Si Si4 0.180879 0.079016 0.106896
Si Si5 0.682880 0.214898 0.126275
Si Si6 0.653269 0.250734 0.641075
Si Si7 0.125329 0.832128 0.608999
Si Si8 0.066428 0.554912 0.319549
O O1 0.503550 0.666456 0.453572
O O2 0.963537 0.602403 0.453394
O O3 0.864010 0.760893 0.610326
O O4 0.752382 0.546777 0.650834
O O5 0.468330 0.155949 0.684434
O O6 0.500000 0.000000 0.500000
O O7 0.676716 0.981623 0.765253
O O8 0.189811 0.957169 0.656298
O O9 0.715303 0.328700 0.067291
O O10 0.825013 0.502432 0.221686
O O11 0.500000 0.500000 0.000000
O O12 0.000000 0.500000 0.000000
O O13 0.432450 0.141727 0.060206
O O14 0.961216 0.161892 0.131570
O O15 0.000000 0.000000 0.000000
O O16 0.664910 0.226067 0.286755
O O17 0.821773 0.184392 0.544614
O O18 0.819332 0.337569 0.742554
#
# Coordination Sequence:
#
# PCOD9103632 Si02
#       8
#     2   2   2   2   2   2   2   2
#     4  10  20  38  67  91 131 171 225 274 352 412
#     4   9  21  39  61  99 134 166 229 287 353 401
#     4  12  28  46  70 103 138 186 238 294 345 409
#     4  11  25  48  72 102 136 189 239 285 353 432
#     4  11  24  46  74  98 136 187 237 291 341 426
#     4  10  21  37  61  99 135 177 214 292 351 414
#     4   9  20  37  61  97 127 172 227 270 345 413
#     4  10  23  41  58  98 129 177 228 278 343 418
#
# _framework density 24.806711
#
# number of rings (size 3 to 8) (size 9 to 14) (size 15 to 20)
#    0.000    1.750    1.250    1.500    7.000    3.500 
#   11.250    0.000    0.000    0.000    0.000    0.000 
#    0.000    0.000    0.000    0.000    0.000    0.000 
#
# Total GULP energy -89273.661366 kJ/mol
# GULP energy per Si atom -5579.603835 kJ/mol
# Density = 2.475025 g / cm^3
# Si number density = 24.806711 Si / 1000 Ang^3
#
#
#
# Elastic Constant Matrix: (Units=GPa)
#
#
# Indices 1 2 3 4 5 6 
#
# 1 100.0963 44.3014 22.3498 -0.5413 22.6879 10.8778
# 2 44.3014 156.0810 56.3976 -10.0893 20.0335 27.2619
# 3 22.3498 56.3976 87.8710 -2.5259 27.7835 4.8501
# 4 -0.5413 -10.0893 -2.5259 31.4992 5.7986 11.3911
# 5 22.6879 20.0335 27.7835 5.7986 33.3868 -2.6286
# 6 10.8778 27.2619 4.8501 11.3911 -2.6286 40.9082
#
#
#
# Elastic Compliance Matrix: (Units=1/GPa)
#
#
# Indices 1 2 3 4 5 6 
#
# 1 0.013233 -0.002231 0.001346 0.002652 -0.009513 -0.003541
# 2 -0.002231 0.011060 -0.005032 0.006560 -0.002716 -0.008182
# 3 0.001346 -0.005032 0.018891 0.002886 -0.014193 -0.000960
# 4 0.002652 0.006560 0.002886 0.044109 -0.017282 -0.018812
# 5 -0.009513 -0.002716 -0.014193 -0.017282 0.053985 0.014303
# 6 -0.003541 -0.008182 -0.000960 -0.018812 0.014303 0.037110
#
#
# Mechanical properties :
#
#
# Convention : Reuss Voigt Hill
#
# Bulk Modulus (GPa) = 31.89888 65.57177 48.73532
# Shear Modulus (GPa) = 24.91607 35.89212 30.40410
#
# Velocity S-wave (km/s) = 3.17268 3.80790 3.50471
# Velocity P-wave (km/s) = 5.12914 6.76934 6.00550
#
# Compressibility (1/GPa) = 0.03134907
#
# Stress axis : x y z
#
# Youngs Moduli (GPa) = 75.56995 90.41313 52.93462
#
# Poissons Ratio (x) = 0.20174 -0.07124
# Poissons Ratio (y) = 0.16862 0.26638
# Poissons Ratio (z) = -0.10171 0.45498
#
# Static dielectric constant tensor:
#      x y z
#    x 2.005990 0.057550 -0.099760 
#    y 0.057550 2.031310 0.000570 
#    z -0.099760 0.000570 2.108910 
# 
# From -- ./inp_files/364645.got.cif
#   From: 2010.05.17/outbox.cif.g08.bks.cpg/sg2_183_cif.got.tgz:364645.got - 2010.06.03 11:33:40.
