data_PCOD9103731
_publ_section_title
;
Structure prediction by ZEFSAII (Michael W. Deem and Ramdas Pophale) SiO2 
 PCOD9103731
Probable space group: P -1
;
_chemical_formula_sum "Si O2"
_cell_formula_units_Z 14
_cell_length_a 8.803263
_cell_length_b 9.013777
_cell_length_c 11.793280
_cell_angle_alpha 67.161795
_cell_angle_beta 122.727695
_cell_angle_gamma 78.897272
_cell_volume 620.146283
_symmetry_space_group_name_H-M "P -1"
_symmetry_group_IT_number 2
_symmetry_cell_setting 'triclinic'
loop_
_space_group_symop_operation_xyz
x,y,z
-x,-y,-z
loop_
_atom_site_type_symbol
_atom_site_label
_atom_site_fract_x
_atom_site_fract_y
_atom_site_fract_z
Si Si1 0.529615 0.962120 0.387265
Si Si2 0.818285 0.582002 0.494136
Si Si3 0.182484 0.668628 0.883988
Si Si4 0.088270 0.078742 0.106114
Si Si5 0.056688 0.552577 0.182685
Si Si6 0.601191 0.289385 0.253126
Si Si7 0.514930 0.471499 0.378457
O O1 0.327342 0.945085 0.280403
O O2 0.539624 0.130802 0.280349
O O3 0.500000 0.000000 0.500000
O O4 0.732052 0.772755 0.475822
O O5 0.925851 0.424957 0.683186
O O6 0.607992 0.603566 0.346256
O O7 0.000000 0.500000 0.500000
O O8 0.226765 0.738113 0.762698
O O9 0.070638 0.838564 0.877157
O O10 0.028056 0.585872 0.834385
O O11 0.401717 0.494001 0.073710
O O12 0.088282 0.254610 0.996931
O O13 0.000000 0.000000 0.000000
O O14 0.291585 0.491120 0.254714
O O15 0.664971 0.298948 0.406523
O O16 0.500000 0.500000 0.500000
#
# Coordination Sequence:
#
# PCOD9103731 Si02
#       7
#     2   2   2   2   2   2   2
#     4  12  26  46  72 107 140 185 246 295 348 435
#     4  11  25  44  68 102 143 186 224 298 375 418
#     4  11  23  42  70 100 139 184 232 286 361 414
#     4  12  25  43  70 105 139 184 243 297 350 420
#     4  11  21  44  70  96 136 191 235 280 350 439
#     4  11  23  42  69 104 139 183 231 292 349 428
#     4  10  20  38  68 100 135 181 233 278 350 429
#
# _framework density 22.575317999999999
#
# number of rings (size 3 to 8) (size 9 to 14) (size 15 to 20)
#    0.000    0.857    2.857    5.571    0.000    2.286 
#    0.000    6.429    0.000    0.000    0.000    0.000 
#    0.000    0.000    0.000    0.000    0.000    0.000 
#
# Total GULP energy -78007.815246 kJ/mol
# GULP energy per Si atom -5571.986803 kJ/mol
# Density = 2.252394 g / cm^3
# Si number density = 22.575318 Si / 1000 Ang^3
#
#
#
# Elastic Constant Matrix: (Units=GPa)
#
#
# Indices 1 2 3 4 5 6 
#
# 1 176.3733 95.6015 44.2638 12.3237 -11.6643 -28.1079
# 2 95.6015 137.2237 29.4887 18.9690 14.3083 -18.3436
# 3 44.2638 29.4887 47.1774 11.2197 1.6125 -17.2692
# 4 12.3237 18.9690 11.2197 34.6844 2.5114 4.5131
# 5 -11.6643 14.3083 1.6125 2.5114 36.2309 7.8624
# 6 -28.1079 -18.3436 -17.2692 4.5131 7.8624 45.4044
#
#
#
# Elastic Compliance Matrix: (Units=1/GPa)
#
#
# Indices 1 2 3 4 5 6 
#
# 1 0.012070 -0.007859 -0.006978 0.001720 0.007129 0.000238
# 2 -0.007859 0.014660 0.001083 -0.005400 -0.008758 0.003523
# 3 -0.006978 0.001083 0.033639 -0.009992 -0.005848 0.010918
# 4 0.001720 -0.005400 -0.009992 0.035373 0.002607 -0.008885
# 5 0.007129 -0.008758 -0.005848 0.002607 0.035102 -0.007687
# 6 0.000238 0.003523 0.010918 -0.008885 -0.007687 0.029962
#
#
# Mechanical properties :
#
#
# Convention : Reuss Voigt Hill
#
# Bulk Modulus (GPa) = 30.43003 77.72025 54.07514
# Shear Modulus (GPa) = 25.09177 36.02530 30.55854
#
# Velocity S-wave (km/s) = 3.33749 3.99906 3.68316
# Velocity P-wave (km/s) = 5.32544 7.47162 6.48789
#
# Compressibility (1/GPa) = 0.03286227
#
# Stress axis : x y z
#
# Youngs Moduli (GPa) = 82.85013 68.21137 29.72702
#
# Poissons Ratio (x) = 0.53605 0.20744
# Poissons Ratio (y) = 0.65110 -0.03220
# Poissons Ratio (z) = 0.57813 -0.07388
#
# Static dielectric constant tensor:
#      x y z
#    x 1.863190 0.008590 0.036200 
#    y 0.008590 1.831530 -0.035560 
#    z 0.036200 -0.035560 1.953490 
# 
# From -- ./inp_files/381398.got.cif
#   From: 2010.05.17/outbox.cif.g08.bks.cpg/sg2_191_cif.got.tgz:381398.got - 2010.06.03 11:33:40.
