data_PCOD9103686
_publ_section_title
;
Structure prediction by ZEFSAII (Michael W. Deem and Ramdas Pophale) SiO2 
 PCOD9103686
Probable space group: P -1
;
_chemical_formula_sum "Si O2"
_cell_formula_units_Z 14
_cell_length_a 12.665919
_cell_length_b 9.542776
_cell_length_c 5.113459
_cell_angle_alpha 88.847519
_cell_angle_beta 98.884117
_cell_angle_gamma 78.452887
_cell_volume 597.447864
_symmetry_space_group_name_H-M "P -1"
_symmetry_group_IT_number 2
_symmetry_cell_setting 'triclinic'
loop_
_space_group_symop_operation_xyz
x,y,z
-x,-y,-z
loop_
_atom_site_type_symbol
_atom_site_label
_atom_site_fract_x
_atom_site_fract_y
_atom_site_fract_z
Si Si1 0.927181 0.482207 0.721764
Si Si2 0.127257 0.789022 0.058945
Si Si3 0.561385 0.618687 0.123179
Si Si4 0.348121 0.856352 0.096076
Si Si5 0.934556 0.921498 0.672413
Si Si6 0.697494 0.952361 0.425195
Si Si7 0.315713 0.343269 0.351004
O O1 0.890127 0.328022 0.731810
O O2 0.813258 0.596272 0.683638
O O3 0.000000 0.500000 0.500000
O O4 0.000000 0.500000 0.000000
O O5 0.251855 0.766489 0.008974
O O6 0.109316 0.955297 0.135536
O O7 0.024801 0.793868 0.826573
O O8 0.465966 0.757708 0.116145
O O9 0.622826 0.573791 0.421248
O O10 0.500000 0.500000 0.000000
O O11 0.645049 0.645871 0.929741
O O12 0.333691 0.920026 0.380809
O O13 0.334263 0.984547 0.874459
O O14 0.828364 0.894674 0.488580
O O15 0.000000 0.000000 0.500000
O O16 0.652637 0.818721 0.521434
#
# Coordination Sequence:
#
# PCOD9103686 Si02
#       7
#     2   2   2   2   2   2   2
#     4  12  28  45  69 102 142 186 227 280 348 425
#     4  10  23  39  64  97 134 176 232 278 340 406
#     4  12  27  48  73  98 137 186 239 286 347 409
#     4  11  24  43  70 100 131 181 233 290 335 414
#     4  10  20  38  67  96 133 179 217 285 339 409
#     4  11  24  41  69 103 139 173 232 281 358 408
#     4  12  27  47  71 102 142 183 226 297 346 410
#
# _framework density 23.433005999999999
#
# number of rings (size 3 to 8) (size 9 to 14) (size 15 to 20)
#    0.000    0.857    1.429    4.714    4.000    5.714 
#    0.000    0.000    0.000    0.000    0.000    0.000 
#    0.000    0.000    0.000    0.000    0.000    0.000 
#
# Total GULP energy -78317.844011 kJ/mol
# GULP energy per Si atom -5594.131715 kJ/mol
# Density = 2.337967 g / cm^3
# Si number density = 23.433006 Si / 1000 Ang^3
#
#
#
# Elastic Constant Matrix: (Units=GPa)
#
#
# Indices 1 2 3 4 5 6 
#
# 1 133.7625 31.1743 33.9804 -3.5827 -1.3529 -38.1427
# 2 31.1743 52.4096 2.4880 -16.2666 0.9919 4.7766
# 3 33.9804 2.4880 91.5971 -3.9631 -2.2706 -21.6934
# 4 -3.5827 -16.2666 -3.9631 34.4147 7.3066 -0.4390
# 5 -1.3529 0.9919 -2.2706 7.3066 51.8221 -4.4014
# 6 -38.1427 4.7766 -21.6934 -0.4390 -4.4014 32.1618
#
#
#
# Elastic Compliance Matrix: (Units=1/GPa)
#
#
# Indices 1 2 3 4 5 6 
#
# 1 0.017161 -0.013899 -0.000877 -0.005303 0.003309 0.022206
# 2 -0.013899 0.034335 -0.000548 0.015524 -0.005139 -0.022444
# 3 -0.000877 -0.000548 0.013261 0.001044 0.001114 0.008152
# 4 -0.005303 0.015524 0.001044 0.037203 -0.006336 -0.008250
# 5 0.003309 -0.005139 0.001114 -0.006336 0.021124 0.008244
# 6 0.022206 -0.022444 0.008152 -0.008250 0.008244 0.067276
#
#
# Mechanical properties :
#
#
# Convention : Reuss Voigt Hill
#
# Bulk Modulus (GPa) = 29.31695 45.89496 37.60595
# Shear Modulus (GPa) = 21.51671 37.68815 29.60243
#
# Velocity S-wave (km/s) = 3.03351 4.01476 3.55812
# Velocity P-wave (km/s) = 4.98073 6.41242 5.74138
#
# Compressibility (1/GPa) = 0.03410997
#
# Stress axis : x y z
#
# Youngs Moduli (GPa) = 58.27000 29.12508 75.40742
#
# Poissons Ratio (x) = 0.40480 0.06615
# Poissons Ratio (y) = 0.80989 0.04130
# Poissons Ratio (z) = 0.05112 0.01595
#
# Static dielectric constant tensor:
#      x y z
#    x 1.708360 0.139400 0.166720 
#    y 0.139400 2.030520 -0.060350 
#    z 0.166720 -0.060350 1.777920 
# 
# From -- ./inp_files/60463.got.cif
#   From: 2010.05.17/outbox.cif.g08.bks.cpg/sg2_31_cif.got.tgz:60463.got - 2010.06.03 11:33:40.
