data_PCOD9103647
_publ_section_title
;
Structure prediction by ZEFSAII (Michael W. Deem and Ramdas Pophale) SiO2 
 PCOD9103647
Probable space group: P -1
;
_chemical_formula_sum "Si O2"
_cell_formula_units_Z 14
_cell_length_a 14.198066
_cell_length_b 11.685995
_cell_length_c 8.435737
_cell_angle_alpha 143.031261
_cell_angle_beta 124.484844
_cell_angle_gamma 47.105767
_cell_volume 615.855986
_symmetry_space_group_name_H-M "P -1"
_symmetry_group_IT_number 2
_symmetry_cell_setting 'triclinic'
loop_
_space_group_symop_operation_xyz
x,y,z
-x,-y,-z
loop_
_atom_site_type_symbol
_atom_site_label
_atom_site_fract_x
_atom_site_fract_y
_atom_site_fract_z
Si Si1 0.622166 0.084628 0.444092
Si Si2 0.449156 0.300153 0.066090
Si Si3 0.898887 0.270705 0.397300
Si Si4 0.691897 0.264101 0.406501
Si Si5 0.589354 0.748141 0.359917
Si Si6 0.131471 0.347188 0.365181
Si Si7 0.165333 0.968170 0.163578
O O1 0.687468 0.135990 0.415169
O O2 0.481683 0.268589 0.568104
O O3 0.712041 0.059223 0.652452
O O4 0.597674 0.881043 0.156259
O O5 0.600802 0.220069 0.147473
O O6 0.379337 0.488295 0.332784
O O7 0.414013 0.379138 0.939369
O O8 0.827396 0.226768 0.425406
O O9 0.881461 0.513179 0.649235
O O10 0.045376 0.097140 0.310466
O O11 0.830488 0.244992 0.141198
O O12 0.733742 0.695930 0.475777
O O13 0.500000 0.000000 0.500000
O O14 0.138264 0.116711 0.144803
O O15 0.000000 0.500000 0.500000
#
# Coordination Sequence:
#
# PCOD9103647 Si02
#       7
#     2   2   2   2   2   2   2
#     4  11  23  39  66  91 123 162 209 258 311 365
#     4  10  23  41  57  89 128 160 211 252 311 370
#     4  10  24  40  64  93 126 164 210 251 319 373
#     4  11  25  39  57  91 131 165 196 257 321 376
#     4  10  20  38  67  93 119 158 219 255 300 363
#     4  10  21  39  66  93 123 160 209 263 305 362
#     4  10  21  43  67  92 119 164 215 264 298 369
#
# _framework density 22.732588
#
# number of rings (size 3 to 8) (size 9 to 14) (size 15 to 20)
#    0.000    1.714    2.857    1.286    8.000    2.286 
#    0.000    0.714    0.000    0.000    0.000    0.000 
#    0.000    0.000    0.000    0.000    0.000    0.000 
#
# Total GULP energy -78076.332801 kJ/mol
# GULP energy per Si atom -5576.880914 kJ/mol
# Density = 2.268085 g / cm^3
# Si number density = 22.732588 Si / 1000 Ang^3
#
#
#
# Elastic Constant Matrix: (Units=GPa)
#
#
# Indices 1 2 3 4 5 6 
#
# 1 183.9390 36.1055 -8.7302 -8.5560 -3.1379 3.3217
# 2 36.1055 37.3906 3.4071 5.5685 2.7225 -2.1836
# 3 -8.7302 3.4071 120.0037 32.0908 17.8617 -0.5133
# 4 -8.5560 5.5685 32.0908 39.0851 7.5332 10.3728
# 5 -3.1379 2.7225 17.8617 7.5332 32.3979 0.1916
# 6 3.3217 -2.1836 -0.5133 10.3728 0.1916 43.0421
#
#
#
# Elastic Compliance Matrix: (Units=1/GPa)
#
#
# Indices 1 2 3 4 5 6 
#
# 1 0.007068 -0.007414 -0.000214 0.003084 0.000718 -0.001671
# 2 -0.007414 0.035464 0.001024 -0.008220 -0.002378 0.004375
# 3 -0.000214 0.001024 0.011456 -0.009445 -0.004242 0.002500
# 4 0.003084 -0.008220 -0.009445 0.038353 -0.002662 -0.009999
# 5 0.000718 -0.002378 -0.004242 -0.002662 0.034091 0.000263
# 6 -0.001671 0.004375 0.002500 -0.009999 0.000263 0.026022
#
#
# Mechanical properties :
#
#
# Convention : Reuss Voigt Hill
#
# Bulk Modulus (GPa) = 24.52241 44.76644 34.64443
# Shear Modulus (GPa) = 27.89313 43.60840 35.75077
#
# Velocity S-wave (km/s) = 3.50667 4.38462 3.96999
# Velocity P-wave (km/s) = 5.21598 6.73562 6.02391
#
# Compressibility (1/GPa) = 0.04077903
#
# Stress axis : x y z
#
# Youngs Moduli (GPa) = 141.48857 28.19778 87.28955
#
# Poissons Ratio (x) = 0.20907 0.01870
# Poissons Ratio (y) = 1.04907 -0.08942
# Poissons Ratio (z) = 0.03030 -0.02889
#
# Static dielectric constant tensor:
#      x y z
#    x 1.896180 0.055370 0.010810 
#    y 0.055370 1.897510 0.049830 
#    z 0.010810 0.049830 1.855920 
# 
# From -- ./inp_files/304420.got.cif
#   From: 2010.05.17/outbox.cif.g08.bks.cpg/sg2_153_cif.got.tgz:304420.got - 2010.06.03 11:33:40.
