data_PCOD9103425
_publ_section_title
;
Structure prediction by ZEFSAII (Michael W. Deem and Ramdas Pophale) SiO2 
 PCOD9103425
Probable space group: P -1
;
_chemical_formula_sum "Si O2"
_cell_formula_units_Z 14
_cell_length_a 5.099828
_cell_length_b 15.057454
_cell_length_c 10.734096
_cell_angle_alpha 134.860366
_cell_angle_beta 89.913505
_cell_angle_gamma 83.278721
_cell_volume 576.101717
_symmetry_space_group_name_H-M "P -1"
_symmetry_group_IT_number 2
_symmetry_cell_setting 'triclinic'
loop_
_space_group_symop_operation_xyz
x,y,z
-x,-y,-z
loop_
_atom_site_type_symbol
_atom_site_label
_atom_site_fract_x
_atom_site_fract_y
_atom_site_fract_z
Si Si1 0.876911 0.658296 0.341905
Si Si2 0.325944 0.899855 0.347159
Si Si3 0.242481 0.655853 0.724079
Si Si4 0.278586 0.925503 0.876172
Si Si5 0.385153 0.641477 0.177075
Si Si6 0.782401 0.552574 0.698289
Si Si7 0.019797 0.918783 0.623824
O O1 0.071427 0.649861 0.212455
O O2 0.027769 0.539426 0.300497
O O3 0.901945 0.793503 0.537878
O O4 0.567642 0.660629 0.316664
O O5 0.448848 0.751947 0.194194
O O6 0.127720 0.895081 0.459888
O O7 0.500000 0.000000 0.500000
O O8 0.194027 0.955088 0.273766
O O9 0.307626 0.780657 0.780034
O O10 0.474677 0.608870 0.777186
O O11 0.238443 0.541725 0.511846
O O12 0.944260 0.667906 0.788134
O O13 0.247788 0.932103 0.733573
O O14 0.500000 0.000000 0.000000
O O15 0.000000 0.000000 0.000000
O O16 0.500000 0.500000 0.000000
#
# Coordination Sequence:
#
# PCOD9103425 Si02
#       7
#     2   2   2   2   2   2   2
#     4  11  21  41  69  90 123 175 219 268 331 402
#     4  10  21  43  72  97 127 176 233 282 323 402
#     4  10  21  40  61  91 126 163 216 266 319 382
#     4  12  27  45  65  98 143 181 219 279 345 404
#     4  11  24  41  62  99 135 162 211 283 350 394
#     4  10  20  38  66  91 118 160 222 273 299 384
#     4  10  23  43  69  97 126 178 237 274 329 406
#
# _framework density 24.301265999999998
#
# number of rings (size 3 to 8) (size 9 to 14) (size 15 to 20)
#    0.000    1.429    2.857    2.143    2.000    0.000 
#    7.714    0.000    0.000    0.000    0.000    0.000 
#    0.000    0.000    0.000    0.000    0.000    0.000 
#
# Total GULP energy -78159.906098 kJ/mol
# GULP energy per Si atom -5582.850436 kJ/mol
# Density = 2.424596 g / cm^3
# Si number density = 24.301266 Si / 1000 Ang^3
#
#
#
# Elastic Constant Matrix: (Units=GPa)
#
#
# Indices 1 2 3 4 5 6 
#
# 1 103.6592 22.8441 23.9394 11.0987 28.5257 -10.5378
# 2 22.8441 151.5443 43.3241 28.1083 31.4435 -19.6592
# 3 23.9394 43.3241 76.5455 14.2293 29.3013 -6.6509
# 4 11.0987 28.1083 14.2293 34.9296 1.7868 3.4144
# 5 28.5257 31.4435 29.3013 1.7868 42.1438 2.1054
# 6 -10.5378 -19.6592 -6.6509 3.4144 2.1054 32.4275
#
#
#
# Elastic Compliance Matrix: (Units=1/GPa)
#
#
# Indices 1 2 3 4 5 6 
#
# 1 0.013608 0.002331 0.000721 -0.006629 -0.011541 0.007430
# 2 0.002331 0.011583 -0.000920 -0.010102 -0.009615 0.009279
# 3 0.000721 -0.000920 0.020711 -0.007755 -0.014155 0.005660
# 4 -0.006629 -0.010102 -0.007755 0.042694 0.016376 -0.015428
# 5 -0.011541 -0.009615 -0.014155 0.016376 0.048729 -0.017371
# 6 0.007430 0.009279 0.005660 -0.015428 -0.017371 0.042791
#
#
# Mechanical properties :
#
#
# Convention : Reuss Voigt Hill
#
# Bulk Modulus (GPa) = 19.93426 56.88493 38.40959
# Shear Modulus (GPa) = 25.96391 38.00959 31.98675
#
# Velocity S-wave (km/s) = 3.27221 3.95916 3.63196
# Velocity P-wave (km/s) = 4.74313 6.66025 5.78171
#
# Compressibility (1/GPa) = 0.05016489
#
# Stress axis : x y z
#
# Youngs Moduli (GPa) = 73.48653 86.33524 48.28237
#
# Poissons Ratio (x) = -0.20122 -0.03480
# Poissons Ratio (y) = -0.17127 0.04442
# Poissons Ratio (z) = -0.05296 0.07943
#
# Static dielectric constant tensor:
#      x y z
#    x 2.010380 0.013640 -0.083450 
#    y 0.013640 2.035350 0.035250 
#    z -0.083450 0.035250 2.006760 
# 
# From -- ./inp_files/94341.got.cif
#   From: 2010.05.17/outbox.cif.g08.bks.cpg/sg2_48_cif.got.tgz:94341.got - 2010.06.03 11:33:40.
