data_PCOD9103530
_publ_section_title
;
Structure prediction by ZEFSAII (Michael W. Deem and Ramdas Pophale) SiO2 
 PCOD9103530
Probable space group: P -1
;
_chemical_formula_sum "Si O2"
_cell_formula_units_Z 16
_cell_length_a 8.798695
_cell_length_b 22.484806
_cell_length_c 15.724415
_cell_angle_alpha 17.224769
_cell_angle_beta 61.838199
_cell_angle_gamma 70.587796
_cell_volume 723.762173
_symmetry_space_group_name_H-M "P -1"
_symmetry_group_IT_number 2
_symmetry_cell_setting 'triclinic'
loop_
_space_group_symop_operation_xyz
x,y,z
-x,-y,-z
loop_
_atom_site_type_symbol
_atom_site_label
_atom_site_fract_x
_atom_site_fract_y
_atom_site_fract_z
Si Si1 0.157177 0.913025 0.595149
Si Si2 0.527446 0.015906 0.259952
Si Si3 0.536768 0.433974 0.175353
Si Si4 0.932376 0.420837 0.355021
Si Si5 0.847375 0.744578 0.364748
Si Si6 0.570624 0.326473 0.681701
Si Si7 0.798805 0.937453 0.433137
Si Si8 0.821369 0.960014 0.910575
O O1 0.356703 0.043891 0.313883
O O2 0.197229 0.939630 0.648670
O O3 0.000000 0.000000 0.500000
O O4 0.065631 0.648206 0.960180
O O5 0.428641 0.782478 0.551811
O O6 0.670854 0.988083 0.327775
O O7 0.635023 0.217598 0.890787
O O8 0.345533 0.345536 0.404464
O O9 0.500000 0.500000 0.000000
O O10 0.700981 0.669013 0.844974
O O11 0.740554 0.427743 0.430033
O O12 0.048939 0.402779 0.431512
O O13 0.880202 0.197429 0.618428
O O14 0.803017 0.771045 0.242940
O O15 0.000000 0.000000 0.000000
O O16 0.500000 0.500000 0.500000
O O17 0.383765 0.126169 0.962134
O O18 0.010025 0.010026 0.239974
#
# Coordination Sequence:
#
# PCOD9103530 Si02
#       8
#     2   2   2   2   2   2   2   2
#     4  12  26  42  60  91 130 165 204 255 309 368
#     4  11  22  42  65  89 121 166 207 250 307 372
#     4  10  20  38  66  97 122 155 208 263 304 360
#     4  11  22  42  65  89 121 166 207 250 307 372
#     4  10  20  38  66  97 122 155 208 263 304 360
#     4  12  26  42  60  91 130 165 204 255 309 368
#     4  11  23  42  65  93 123 160 207 260 312 366
#     4  11  23  42  65  93 123 160 207 260 312 366
#
# _framework density 22.10671
#
# number of rings (size 3 to 8) (size 9 to 14) (size 15 to 20)
#    0.000    1.000    0.000   10.500    0.000    4.000 
#    0.000    5.000    0.000    0.000    0.000    0.000 
#    0.000    0.000    0.000    0.000    0.000    0.000 
#
# Total GULP energy -89508.090377 kJ/mol
# GULP energy per Si atom -5594.255649 kJ/mol
# Density = 2.205639 g / cm^3
# Si number density = 22.106710 Si / 1000 Ang^3
#
#
#
# Elastic Constant Matrix: (Units=GPa)
#
#
# Indices 1 2 3 4 5 6 
#
# 1 57.5581 -7.0603 -8.2872 0.9056 -3.0643 2.7617
# 2 -7.0603 66.0183 6.4146 10.1080 -23.4962 -10.4192
# 3 -8.2872 6.4146 61.8641 15.7217 3.8730 10.5564
# 4 0.9056 10.1080 15.7217 45.6952 -19.9220 -11.5425
# 5 -3.0643 -23.4962 3.8730 -19.9220 30.3631 4.1850
# 6 2.7617 -10.4192 10.5564 -11.5425 4.1850 33.2872
#
#
#
# Elastic Compliance Matrix: (Units=1/GPa)
#
#
# Indices 1 2 3 4 5 6 
#
# 1 0.018376 0.002639 0.002649 -0.001052 0.003186 -0.002304
# 2 0.002639 0.026548 -0.009557 0.012993 0.028901 0.011993
# 3 0.002649 -0.009557 0.026996 -0.020963 -0.022084 -0.016265
# 4 -0.001052 0.012993 -0.020963 0.050669 0.042696 0.023004
# 5 0.003186 0.028901 -0.022084 0.042696 0.083685 0.020069
# 6 -0.002304 0.011993 -0.016265 0.023004 0.020069 0.044598
#
#
# Mechanical properties :
#
#
# Convention : Reuss Voigt Hill
#
# Bulk Modulus (GPa) = 15.77747 18.61940 17.19843
# Shear Modulus (GPa) = 17.82305 34.82734 26.32520
#
# Velocity S-wave (km/s) = 2.84250 3.97346 3.45458
# Velocity P-wave (km/s) = 4.23385 5.43065 4.86916
#
# Compressibility (1/GPa) = 0.06338153
#
# Stress axis : x y z
#
# Youngs Moduli (GPa) = 54.41996 37.66829 37.04298
#
# Poissons Ratio (x) = -0.09941 -0.09813
# Poissons Ratio (y) = -0.14362 0.35401
# Poissons Ratio (z) = -0.14416 0.35999
#
# Static dielectric constant tensor:
#      x y z
#    x 1.827760 0.053090 0.001840 
#    y 0.053090 1.800010 -0.038670 
#    z 0.001840 -0.038670 1.801890 
# 
# From -- ./inp_files/508054.got.cif
#   From: 2010.05.17/outbox.cif.g08.bks.cpg/sg2_255_cif.got.tgz:508054.got - 2010.06.03 11:33:40.
