data_PCOD9103550
_publ_section_title
;
Structure prediction by ZEFSAII (Michael W. Deem and Ramdas Pophale) SiO2 
 PCOD9103550
Probable space group: P -1
;
_chemical_formula_sum "Si O2"
_cell_formula_units_Z 14
_cell_length_a 9.053651
_cell_length_b 19.093953
_cell_length_c 9.063710
_cell_angle_alpha 126.869418
_cell_angle_beta 110.320823
_cell_angle_gamma 31.302309
_cell_volume 597.479985
_symmetry_space_group_name_H-M "P -1"
_symmetry_group_IT_number 2
_symmetry_cell_setting 'triclinic'
loop_
_space_group_symop_operation_xyz
x,y,z
-x,-y,-z
loop_
_atom_site_type_symbol
_atom_site_label
_atom_site_fract_x
_atom_site_fract_y
_atom_site_fract_z
Si Si1 0.676706 0.506259 0.533395
Si Si2 0.658530 0.686196 0.953264
Si Si3 0.809508 0.019393 0.049491
Si Si4 0.093693 0.975836 0.338226
Si Si5 0.732248 0.305189 0.649423
Si Si6 0.867352 0.805288 0.884564
Si Si7 0.174846 0.574561 0.995243
O O1 0.500000 0.500000 0.500000
O O2 0.684282 0.579979 0.747943
O O3 0.481715 0.623855 0.469038
O O4 0.017261 0.320385 0.353512
O O5 0.508859 0.823978 0.951183
O O6 0.024243 0.416083 0.030053
O O7 0.415816 0.798708 0.146712
O O8 0.819955 0.055612 0.258691
O O9 0.977412 0.846580 0.909120
O O10 0.000000 0.000000 0.000000
O O11 0.046679 0.102796 0.475073
O O12 0.000000 0.000000 0.500000
O O13 0.801391 0.374004 0.789133
O O14 0.519689 0.385922 0.820626
O O15 0.020260 0.705531 0.969624
O O16 0.500000 0.000000 0.000000
#
# Coordination Sequence:
#
# PCOD9103550 Si02
#       7
#     2   2   2   2   2   2   2
#     4  11  24  42  68 102 135 186 228 281 348 411
#     4  11  23  42  71  99 133 180 240 284 334 421
#     4  10  20  38  66  98 132 177 226 284 332 408
#     4  11  23  41  69  96 137 181 234 280 354 407
#     4  10  23  42  65  95 140 184 217 289 352 412
#     4  11  22  38  67 104 140 172 234 289 337 406
#     4  10  23  43  66  98 143 179 226 289 357 402
#
# _framework density 23.431747999999999
#
# number of rings (size 3 to 8) (size 9 to 14) (size 15 to 20)
#    0.000    1.429    2.857    2.571    2.000    6.286 
#    0.000    4.286    0.000    0.000    0.000    0.000 
#    0.000    0.000    0.000    0.000    0.000    0.000 
#
# Total GULP energy -78065.154321 kJ/mol
# GULP energy per Si atom -5576.082452 kJ/mol
# Density = 2.337842 g / cm^3
# Si number density = 23.431748 Si / 1000 Ang^3
#
#
#
# Elastic Constant Matrix: (Units=GPa)
#
#
# Indices 1 2 3 4 5 6 
#
# 1 117.5623 23.4250 63.3910 3.0267 16.5175 -17.2665
# 2 23.4250 59.0074 48.7728 5.0576 -4.8714 5.1553
# 3 63.3910 48.7728 209.5039 10.7007 20.3653 -8.1891
# 4 3.0267 5.0576 10.7007 33.5321 0.6776 1.3664
# 5 16.5175 -4.8714 20.3653 0.6776 33.1118 1.8781
# 6 -17.2665 5.1553 -8.1891 1.3664 1.8781 40.4020
#
#
#
# Elastic Compliance Matrix: (Units=1/GPa)
#
#
# Indices 1 2 3 4 5 6 
#
# 1 0.011965 -0.004155 -0.001881 0.000038 -0.005737 0.005528
# 2 -0.004155 0.024704 -0.005598 -0.001494 0.009547 -0.006456
# 3 -0.001881 -0.005598 0.007199 -0.001260 -0.004379 0.001616
# 4 0.000038 -0.001494 -0.001260 0.030491 -0.000026 -0.001079
# 5 -0.005737 0.009547 -0.004379 -0.000026 0.037518 -0.006301
# 6 0.005528 -0.006456 0.001616 -0.001079 -0.006301 0.028594
#
#
# Mechanical properties :
#
#
# Convention : Reuss Voigt Hill
#
# Bulk Modulus (GPa) = 48.54455 73.02790 60.78622
# Shear Modulus (GPa) = 29.30726 38.10815 33.70771
#
# Velocity S-wave (km/s) = 3.54043 4.03717 3.79693
# Velocity P-wave (km/s) = 6.12171 7.27775 6.72461
#
# Compressibility (1/GPa) = 0.02059964
#
# Stress axis : x y z
#
# Youngs Moduli (GPa) = 83.57377 40.47983 138.91235
#
# Poissons Ratio (x) = 0.16819 0.26134
# Poissons Ratio (y) = 0.34724 0.77762
# Poissons Ratio (z) = 0.15723 0.22660
#
# Static dielectric constant tensor:
#      x y z
#    x 2.060790 0.077590 0.013600 
#    y 0.077590 1.997750 0.040020 
#    z 0.013600 0.040020 1.883350 
# 
# From -- ./inp_files/274550.got.cif
#   From: 2010.05.17/outbox.cif.g08.bks.cpg/sg2_138_cif.got.tgz:274550.got - 2010.06.03 11:33:40.
