data_PCOD9103601
_publ_section_title
;
Structure prediction by ZEFSAII (Michael W. Deem and Ramdas Pophale) SiO2 
 PCOD9103601
Probable space group: P -1
;
_chemical_formula_sum "Si O2"
_cell_formula_units_Z 14
_cell_length_a 22.385789
_cell_length_b 9.653057
_cell_length_c 12.109341
_cell_angle_alpha 53.706661
_cell_angle_beta 145.742991
_cell_angle_gamma 151.305137
_cell_volume 615.541395
_symmetry_space_group_name_H-M "P -1"
_symmetry_group_IT_number 2
_symmetry_cell_setting 'triclinic'
loop_
_space_group_symop_operation_xyz
x,y,z
-x,-y,-z
loop_
_atom_site_type_symbol
_atom_site_label
_atom_site_fract_x
_atom_site_fract_y
_atom_site_fract_z
Si Si1 0.213379 0.695210 0.577187
Si Si2 0.334976 0.129519 0.745706
Si Si3 0.238903 0.845411 0.952502
Si Si4 0.938605 0.820368 0.295954
Si Si5 0.740285 0.884985 0.939340
Si Si6 0.323080 0.115984 0.405036
Si Si7 0.935297 0.736340 0.084082
O O1 0.207482 0.487604 0.699539
O O2 0.985853 0.408747 0.315392
O O3 0.251280 0.854272 0.673738
O O4 0.362925 0.981246 0.577399
O O5 0.532920 0.485847 0.822685
O O6 0.379448 0.114315 0.942578
O O7 0.162228 0.040353 0.537218
O O8 0.219089 0.612432 0.041540
O O9 0.276182 0.986522 0.058488
O O10 0.863695 0.678051 0.124400
O O11 0.919484 0.998598 0.193043
O O12 0.762283 0.989272 0.800011
O O13 0.500000 0.500000 0.500000
O O14 0.154677 0.947103 0.314810
O O15 0.000000 0.000000 0.000000
#
# Coordination Sequence:
#
# PCOD9103601 Si02
#       7
#     2   2   2   2   2   2   2
#     4  10  20  38  67  87 128 175 206 260 318 371
#     4  11  20  42  67  91 134 168 207 267 318 371
#     4  10  22  41  64  94 128 169 207 266 326 366
#     4  11  21  41  67  95 122 170 224 252 310 391
#     4  12  25  38  69  99 127 165 214 265 323 376
#     4  11  21  38  62  93 127 165 209 262 318 374
#     4  11  20  38  65  89 121 171 211 255 308 381
#
# _framework density 22.744205999999998
#
# number of rings (size 3 to 8) (size 9 to 14) (size 15 to 20)
#    0.000    1.143    7.143    1.286    0.000    5.143 
#    2.571    0.000    3.143    1.714    0.000    0.000 
#    0.000    0.000    0.000    0.000    0.000    0.000 
#
# Total GULP energy -78112.223656 kJ/mol
# GULP energy per Si atom -5579.444547 kJ/mol
# Density = 2.269244 g / cm^3
# Si number density = 22.744206 Si / 1000 Ang^3
#
#
#
# Elastic Constant Matrix: (Units=GPa)
#
#
# Indices 1 2 3 4 5 6 
#
# 1 61.0815 28.5215 14.6898 -14.2937 -2.0445 8.6906
# 2 28.5215 117.1371 11.4667 -38.3619 -6.3173 24.7064
# 3 14.6898 11.4667 32.0259 -10.4995 9.1358 6.3318
# 4 -14.2937 -38.3619 -10.4995 40.6542 11.2219 -8.0714
# 5 -2.0445 -6.3173 9.1358 11.2219 28.1186 -4.1583
# 6 8.6906 24.7064 6.3318 -8.0714 -4.1583 28.5439
#
#
#
# Elastic Compliance Matrix: (Units=1/GPa)
#
#
# Indices 1 2 3 4 5 6 
#
# 1 0.020492 -0.003706 -0.008754 0.000453 0.003248 -0.000488
# 2 -0.003706 0.015328 0.004095 0.013647 -0.005071 -0.009927
# 3 -0.008754 0.004095 0.048562 0.017998 -0.024168 -0.010083
# 4 0.000453 0.013647 0.017998 0.047336 -0.022503 -0.005836
# 5 0.003248 -0.005071 -0.024168 -0.022503 0.052990 0.010118
# 6 -0.000488 -0.009927 -0.010083 -0.005836 0.010118 0.045836
#
#
# Mechanical properties :
#
#
# Convention : Reuss Voigt Hill
#
# Bulk Modulus (GPa) = 14.78138 35.51115 25.14627
# Shear Modulus (GPa) = 18.53066 29.83443 24.18254
#
# Velocity S-wave (km/s) = 2.85747 3.62572 3.26427
# Velocity P-wave (km/s) = 4.17132 5.75977 5.02866
#
# Compressibility (1/GPa) = 0.06765266
#
# Stress axis : x y z
#
# Youngs Moduli (GPa) = 48.80071 65.23862 20.59225
#
# Poissons Ratio (x) = 0.24177 0.18026
# Poissons Ratio (y) = 0.18085 -0.08433
# Poissons Ratio (z) = 0.42719 -0.26716
#
# Static dielectric constant tensor:
#      x y z
#    x 1.846600 -0.025350 0.083410 
#    y -0.025350 1.985590 -0.102460 
#    z 0.083410 -0.102460 1.969260 
# 
# From -- ./inp_files/227711.got.cif
#   From: 2010.05.17/outbox.cif.g08.bks.cpg/sg2_114_cif.got.tgz:227711.got - 2010.06.03 11:33:40.
