data_PCOD9103866
_publ_section_title
;
Structure prediction by ZEFSAII (Michael W. Deem and Ramdas Pophale) SiO2 
 PCOD9103866
Probable space group: P -1
;
_chemical_formula_sum "Si O2"
_cell_formula_units_Z 16
_cell_length_a 18.078362
_cell_length_b 6.015117
_cell_length_c 16.395725
_cell_angle_alpha 103.420674
_cell_angle_beta 30.754443
_cell_angle_gamma 83.020938
_cell_volume 677.475211
_symmetry_space_group_name_H-M "P -1"
_symmetry_group_IT_number 2
_symmetry_cell_setting 'triclinic'
loop_
_space_group_symop_operation_xyz
x,y,z
-x,-y,-z
loop_
_atom_site_type_symbol
_atom_site_label
_atom_site_fract_x
_atom_site_fract_y
_atom_site_fract_z
Si Si1 0.910980 0.684740 0.702020
Si Si2 0.328341 0.412586 0.882788
Si Si3 0.562554 0.363118 0.517652
Si Si4 0.691192 0.647165 0.792365
Si Si5 0.922497 0.812016 0.057946
Si Si6 0.408485 0.234910 0.367636
Si Si7 0.441378 0.669831 0.923651
Si Si8 0.004388 0.472229 0.208872
O O1 0.792737 0.576951 0.777989
O O2 0.926531 0.698872 0.784873
O O3 0.124957 0.471655 0.446686
O O4 0.769391 0.023130 0.829115
O O5 0.390095 0.441848 0.739774
O O6 0.414851 0.471729 0.878874
O O7 0.423100 0.069360 0.774345
O O8 0.105145 0.614194 0.117855
O O9 0.500000 0.500000 0.500000
O O10 0.636367 0.494927 0.514350
O O11 0.728357 0.022929 0.310652
O O12 0.597520 0.511371 0.833957
O O13 0.500000 0.000000 0.000000
O O14 0.930365 0.739795 0.948742
O O15 0.000000 0.500000 0.000000
O O16 0.000000 0.000000 0.000000
O O17 0.472241 0.239936 0.217286
O O18 0.219957 0.278887 0.552186
#
# Coordination Sequence:
#
# PCOD9103866 Si02
#       8
#     2   2   2   2   2   2   2   2
#     4  10  20  38  69 102 135 179 237 292 367 441
#     4  11  26  42  66 104 136 186 241 304 369 446
#     4  11  26  46  70  96 145 192 251 311 377 444
#     4   9  19  38  69 102 136 183 227 290 368 451
#     4  12  28  48  72 108 150 202 262 315 387 456
#     4  11  22  44  65  98 137 184 235 296 366 436
#     4  10  21  40  67  96 137 182 230 287 364 436
#     4  12  24  41  71  99 140 185 244 304 367 441
#
# _framework density 23.617100000000001
#
# number of rings (size 3 to 8) (size 9 to 14) (size 15 to 20)
#    0.000    1.250    3.750    1.500    3.500    2.000 
#    0.000    0.625    0.000    4.500    0.000    0.000 
#    0.000    0.000    0.000    0.000    0.000    0.000 
#
# Total GULP energy -89259.545758 kJ/mol
# GULP energy per Si atom -5578.721610 kJ/mol
# Density = 2.356335 g / cm^3
# Si number density = 23.617100 Si / 1000 Ang^3
#
#
#
# Elastic Constant Matrix: (Units=GPa)
#
#
# Indices 1 2 3 4 5 6 
#
# 1 140.6981 28.9969 52.4475 -7.5603 9.0059 -0.3264
# 2 28.9969 67.1146 38.3847 -7.8634 -4.1596 -3.8600
# 3 52.4475 38.3847 157.0904 -8.1904 -18.0177 11.0808
# 4 -7.5603 -7.8634 -8.1904 39.6595 6.8767 -0.5650
# 5 9.0059 -4.1596 -18.0177 6.8767 41.5066 0.6908
# 6 -0.3264 -3.8600 11.0808 -0.5650 0.6908 18.3503
#
#
#
# Elastic Compliance Matrix: (Units=1/GPa)
#
#
# Indices 1 2 3 4 5 6 
#
# 1 0.008958 -0.002172 -0.002929 0.001334 -0.003681 0.001651
# 2 -0.002172 0.018938 -0.004233 0.002561 -0.000002 0.006580
# 3 -0.002929 -0.004233 0.009347 -0.000333 0.004436 -0.006764
# 4 0.001334 0.002561 -0.000333 0.026737 -0.004636 0.001761
# 5 -0.003681 -0.000002 0.004436 -0.004636 0.027650 -0.003928
# 6 0.001651 0.006580 -0.006764 0.001761 -0.003928 0.060195
#
#
# Mechanical properties :
#
#
# Convention : Reuss Voigt Hill
#
# Bulk Modulus (GPa) = 53.83931 67.17345 60.50638
# Shear Modulus (GPa) = 28.29902 36.24155 32.27028
#
# Velocity S-wave (km/s) = 3.46532 3.92158 3.70049
# Velocity P-wave (km/s) = 6.23358 7.00068 6.62824
#
# Compressibility (1/GPa) = 0.01857379
#
# Stress axis : x y z
#
# Youngs Moduli (GPa) = 111.63054 52.80490 106.98987
#
# Poissons Ratio (x) = 0.11469 0.31340
# Poissons Ratio (y) = 0.24246 0.45290
# Poissons Ratio (z) = 0.32700 0.22353
#
# Static dielectric constant tensor:
#      x y z
#    x 1.953390 0.045080 -0.013590 
#    y 0.045080 1.962610 -0.008700 
#    z -0.013590 -0.008700 1.884080 
# 
# From -- ./inp_files/576808.got.cif
#   From: 2010.05.17/outbox.cif.g08.bks.cpg/sg2_289_cif.got.tgz:576808.got - 2010.06.03 11:33:40.
