data_PCOD9103545
_publ_section_title
;
Structure prediction by ZEFSAII (Michael W. Deem and Ramdas Pophale) SiO2 
 PCOD9103545
Probable space group: P -1
;
_chemical_formula_sum "Si O2"
_cell_formula_units_Z 12
_cell_length_a 11.910185
_cell_length_b 10.325904
_cell_length_c 5.025247
_cell_angle_alpha 107.374088
_cell_angle_beta 115.395561
_cell_angle_gamma 54.822246
_cell_volume 455.225552
_symmetry_space_group_name_H-M "P -1"
_symmetry_group_IT_number 2
_symmetry_cell_setting 'triclinic'
loop_
_space_group_symop_operation_xyz
x,y,z
-x,-y,-z
loop_
_atom_site_type_symbol
_atom_site_label
_atom_site_fract_x
_atom_site_fract_y
_atom_site_fract_z
Si Si1 0.603684 0.121883 0.849651
Si Si2 0.135859 0.616101 0.165501
Si Si3 0.147753 0.903393 0.245414
Si Si4 0.560769 0.549824 0.850388
Si Si5 0.126829 0.370103 0.365205
Si Si6 0.310160 0.056185 0.673900
O O1 0.502183 0.266030 0.030436
O O2 0.646311 0.972709 0.994346
O O3 0.729081 0.154849 0.896105
O O4 0.575155 0.073942 0.500463
O O5 0.970097 0.676562 0.946930
O O6 0.147324 0.768443 0.339815
O O7 0.264960 0.537193 0.031518
O O8 0.180962 0.469297 0.317902
O O9 0.180019 0.019020 0.516303
O O10 0.000000 0.000000 0.000000
O O11 0.500000 0.500000 0.500000
O O12 0.500000 0.500000 0.000000
O O13 0.244739 0.225772 0.573396
O O14 0.000000 0.500000 0.500000
#
# Coordination Sequence:
#
# PCOD9103545 Si02
#       6
#     2   2   2   2   2   2
#     4  10  22  41  65  99 133 175 224 290 336 409
#     4  11  24  45  67 106 136 187 230 289 353 414
#     4  10  20  38  66  98 130 171 231 286 341 395
#     4  12  24  44  72 105 143 177 234 294 350 408
#     4  11  27  43  69  99 148 187 230 284 352 426
#     4  10  23  43  67  95 138 178 231 280 347 404
#
# _framework density 26.360558000000001
#
# number of rings (size 3 to 8) (size 9 to 14) (size 15 to 20)
#    1.000    0.333    3.333    2.000    9.333    2.000 
#    0.000    1.667    0.000    0.000    0.000    0.000 
#    0.000    0.000    0.000    0.000    0.000    0.000 
#
# Total GULP energy -67011.486202 kJ/mol
# GULP energy per Si atom -5584.290517 kJ/mol
# Density = 2.630056 g / cm^3
# Si number density = 26.360558 Si / 1000 Ang^3
#
#
#
# Elastic Constant Matrix: (Units=GPa)
#
#
# Indices 1 2 3 4 5 6 
#
# 1 129.7254 48.1853 39.5577 3.5636 0.0221 35.2572
# 2 48.1853 158.0227 39.2549 -18.3307 -2.8288 41.0875
# 3 39.5577 39.2549 136.0589 -14.5680 -1.4726 17.2058
# 4 3.5636 -18.3307 -14.5680 33.7766 11.0190 -20.5323
# 5 0.0221 -2.8288 -1.4726 11.0190 44.8868 2.5749
# 6 35.2572 41.0875 17.2058 -20.5323 2.5749 60.5358
#
#
#
# Elastic Compliance Matrix: (Units=1/GPa)
#
#
# Indices 1 2 3 4 5 6 
#
# 1 0.011632 -0.001793 -0.002802 -0.009032 0.002461 -0.007929
# 2 -0.001793 0.008350 -0.001221 0.001908 0.000227 -0.003639
# 3 -0.002802 -0.001221 0.008811 0.004756 -0.001047 0.001614
# 4 -0.009032 0.001908 0.004756 0.050247 -0.013214 0.020218
# 5 0.002461 0.000227 -0.001047 -0.013214 0.025895 -0.006874
# 6 -0.007929 -0.003639 0.001614 0.020218 -0.006874 0.030298
#
#
# Mechanical properties :
#
#
# Convention : Reuss Voigt Hill
#
# Bulk Modulus (GPa) = 58.27440 75.31143 66.79292
# Shear Modulus (GPa) = 32.76885 47.62710 40.19798
#
# Velocity S-wave (km/s) = 3.52959 4.25521 3.90927
# Velocity P-wave (km/s) = 6.22618 7.26458 6.76533
#
# Compressibility (1/GPa) = 0.01716019
#
# Stress axis : x y z
#
# Youngs Moduli (GPa) = 85.97171 119.76662 113.50091
#
# Poissons Ratio (x) = 0.21469 0.31806
# Poissons Ratio (y) = 0.15411 0.13858
# Poissons Ratio (z) = 0.24092 0.14623
#
# Static dielectric constant tensor:
#      x y z
#    x 2.251990 0.186150 0.007190 
#    y 0.186150 2.382410 -0.009600 
#    z 0.007190 -0.009600 2.101140 
# 
# From -- ./inp_files/59697.got.cif
#   From: 2010.05.17/outbox.cif.g08.bks.cpg/sg2_30_cif.got.tgz:59697.got - 2010.06.03 11:33:40.
