data_PCOD9103465
_publ_section_title
;
Structure prediction by ZEFSAII (Michael W. Deem and Ramdas Pophale) SiO2 
 PCOD9103465
Probable space group: P -1
;
_chemical_formula_sum "Si O2"
_cell_formula_units_Z 16
_cell_length_a 9.009344
_cell_length_b 12.085521
_cell_length_c 10.129290
_cell_angle_alpha 61.549368
_cell_angle_beta 65.513719
_cell_angle_gamma 109.506081
_cell_volume 659.803582
_symmetry_space_group_name_H-M "P -1"
_symmetry_group_IT_number 2
_symmetry_cell_setting 'triclinic'
loop_
_space_group_symop_operation_xyz
x,y,z
-x,-y,-z
loop_
_atom_site_type_symbol
_atom_site_label
_atom_site_fract_x
_atom_site_fract_y
_atom_site_fract_z
Si Si1 0.889769 0.579451 0.483644
Si Si2 0.696070 0.066801 0.991442
Si Si3 0.940937 0.256111 0.037856
Si Si4 0.861971 0.908853 0.920753
Si Si5 0.289997 0.276030 0.443615
Si Si6 0.322845 0.602664 0.588474
Si Si7 0.688643 0.125542 0.464521
Si Si8 0.252077 0.108597 0.307840
O O1 0.791500 0.622539 0.605589
O O2 0.700651 0.457784 0.516576
O O3 0.000000 0.500000 0.500000
O O4 0.087983 0.763683 0.250101
O O5 0.739942 0.939329 0.048078
O O6 0.727735 0.135902 0.089495
O O7 0.500000 0.000000 0.000000
O O8 0.889223 0.235862 0.223596
O O9 0.077604 0.198327 0.993633
O O10 0.091678 0.447295 0.828485
O O11 0.714811 0.831010 0.887226
O O12 0.090396 0.090801 0.684490
O O13 0.484135 0.366688 0.423980
O O14 0.371872 0.249746 0.295553
O O15 0.345915 0.763897 0.506626
O O16 0.500000 0.000000 0.500000
O O17 0.716788 0.023284 0.609572
O O18 0.000000 0.000000 0.500000
#
# Coordination Sequence:
#
# PCOD9103465 Si02
#       8
#     2   2   2   2   2   2   2   2
#     4  10  24  39  61  90 128 166 206 259 307 367
#     4  10  24  39  61  91 128 163 209 256 308 371
#     4  11  23  42  58  93 131 162 202 258 323 365
#     4  10  21  40  65  87 122 166 211 257 297 377
#     4  10  20  41  61  90 120 163 218 245 299 378
#     4  11  24  39  61  93 128 165 200 261 322 365
#     4  12  23  40  68  92 119 166 215 255 304 380
#     4  10  20  38  66  93 114 154 225 256 293 353
#
# _framework density 24.249639999999999
#
# number of rings (size 3 to 8) (size 9 to 14) (size 15 to 20)
#    0.000    1.500    3.750    1.125    7.000    2.000 
#    0.000    0.625    0.000    0.000    0.000    0.000 
#    0.000    0.000    0.000    0.000    0.000    0.000 
#
# Total GULP energy -89456.356476 kJ/mol
# GULP energy per Si atom -5591.022280 kJ/mol
# Density = 2.419445 g / cm^3
# Si number density = 24.249640 Si / 1000 Ang^3
#
#
#
# Elastic Constant Matrix: (Units=GPa)
#
#
# Indices 1 2 3 4 5 6 
#
# 1 107.7164 38.2145 7.2595 -15.2727 9.6673 -6.9261
# 2 38.2145 121.2020 24.1986 -11.2381 1.5584 -3.6016
# 3 7.2595 24.1986 36.6854 -7.4668 0.8323 -4.4014
# 4 -15.2727 -11.2381 -7.4668 35.2557 1.3818 3.2954
# 5 9.6673 1.5584 0.8323 1.3818 24.9505 -3.3425
# 6 -6.9261 -3.6016 -4.4014 3.2954 -3.3425 57.0192
#
#
#
# Elastic Compliance Matrix: (Units=1/GPa)
#
#
# Indices 1 2 3 4 5 6 
#
# 1 0.011438 -0.003334 0.000981 0.004202 -0.004388 0.000755
# 2 -0.003334 0.010588 -0.006245 0.000597 0.000778 -0.000207
# 3 0.000981 -0.006245 0.032489 0.005184 -0.001111 0.001868
# 4 0.004202 0.000597 0.005184 0.031722 -0.003743 -0.001105
# 5 -0.004388 0.000778 -0.001111 -0.003743 0.042260 0.002124
# 6 0.000755 -0.000207 0.001868 -0.001105 0.002124 0.017949
#
#
# Mechanical properties :
#
#
# Convention : Reuss Voigt Hill
#
# Bulk Modulus (GPa) = 26.79655 44.99432 35.89543
# Shear Modulus (GPa) = 28.39582 36.50716 32.45149
#
# Velocity S-wave (km/s) = 3.42567 3.88425 3.66215
# Velocity P-wave (km/s) = 5.16926 6.22185 5.71982
#
# Compressibility (1/GPa) = 0.03731824
#
# Stress axis : x y z
#
# Youngs Moduli (GPa) = 87.42532 94.44695 30.77999
#
# Poissons Ratio (x) = 0.31487 -0.03019
# Poissons Ratio (y) = 0.29147 0.19223
# Poissons Ratio (z) = -0.08575 0.58985
#
# Static dielectric constant tensor:
#      x y z
#    x 1.947620 -0.006660 -0.028160 
#    y -0.006660 2.044960 0.052200 
#    z -0.028160 0.052200 1.979530 
# 
# From -- ./inp_files/389389.got.cif
#   From: 2010.05.17/outbox.cif.g08.bks.cpg/sg2_195_cif.got.tgz:389389.got - 2010.06.03 11:33:40.
