data_PCOD9103953
_publ_section_title
;
Structure prediction by ZEFSAII (Michael W. Deem and Ramdas Pophale) SiO2 
 PCOD9103953
Probable space group: P -1
;
_chemical_formula_sum "Si O2"
_cell_formula_units_Z 11
_cell_length_a 8.182781
_cell_length_b 9.137920
_cell_length_c 8.997723
_cell_angle_alpha 48.109072
_cell_angle_beta 67.630643
_cell_angle_gamma 73.011534
_cell_volume 462.441351
_symmetry_space_group_name_H-M "P -1"
_symmetry_group_IT_number 2
_symmetry_cell_setting 'triclinic'
loop_
_space_group_symop_operation_xyz
x,y,z
-x,-y,-z
loop_
_atom_site_type_symbol
_atom_site_label
_atom_site_fract_x
_atom_site_fract_y
_atom_site_fract_z
Si Si1 0.238838 0.118086 0.151308
Si Si2 0.493879 0.546700 0.144878
Si Si3 0.117527 0.670373 0.149284
Si Si4 0.000000 0.500000 0.000000
Si Si5 0.780789 0.914903 0.161697
Si Si6 0.431652 0.861018 0.484603
O O1 0.075781 0.270387 0.131201
O O2 0.274341 0.965249 0.374580
O O3 0.407417 0.256225 0.995506
O O4 0.225163 0.037485 0.044487
O O5 0.287808 0.572298 0.241872
O O6 0.603061 0.359970 0.304050
O O7 0.500000 0.500000 0.000000
O O8 0.063212 0.528746 0.133491
O O9 0.942495 0.754209 0.239149
O O10 0.188859 0.874358 0.918652
O O11 0.598174 0.839108 0.330694
O O12 0.500000 0.000000 0.500000
#
# Coordination Sequence:
#
# PCOD9103953 Si02
#       6
#     2   2   2   1   2   2
#     4  11  23  43  65  97 129 167 211 268 318 380
#     4  12  22  40  69  93 130 170 216 262 314 377
#     4  10  20  40  66  93 130 170 204 269 315 374
#     4  10  20  38  70  90 126 170 210 254 326 374
#     4  10  23  41  66  94 134 165 210 267 324 370
#     4  12  23  39  68  96 127 172 216 258 322 382
#
# _framework density 23.786799999999999
#
# number of rings (size 3 to 8) (size 9 to 14) (size 15 to 20)
#    0.000    1.091    5.455    0.545    0.000    1.455 
#    0.000    0.909   12.000    0.000    0.000    0.000 
#    0.000    0.000    0.000    0.000    0.000    0.000 
#
# Total GULP energy -61277.939140 kJ/mol
# GULP energy per Si atom -5570.721740 kJ/mol
# Density = 2.373266 g / cm^3
# Si number density = 23.786800 Si / 1000 Ang^3
#
#
#
# Elastic Constant Matrix: (Units=GPa)
#
#
# Indices 1 2 3 4 5 6 
#
# 1 75.1723 17.2016 12.3611 -9.7787 34.9338 -10.9246
# 2 17.2016 95.2126 16.1711 -4.5654 18.2972 6.5151
# 3 12.3611 16.1711 78.5661 -16.8274 30.3029 -14.5744
# 4 -9.7787 -4.5654 -16.8274 24.0492 -8.7269 11.0451
# 5 34.9338 18.2972 30.3029 -8.7269 36.9405 -14.4573
# 6 -10.9246 6.5151 -14.5744 11.0451 -14.4573 49.5418
#
#
#
# Elastic Compliance Matrix: (Units=1/GPa)
#
#
# Indices 1 2 3 4 5 6 
#
# 1 0.027853 0.000315 0.009581 0.007005 -0.033666 -0.002467
# 2 0.000315 0.012267 -0.000100 0.001542 -0.007539 -0.004117
# 3 0.009581 -0.000100 0.023523 0.011387 -0.026044 -0.001093
# 4 0.007005 0.001542 0.011387 0.054344 -0.007673 -0.009663
# 5 -0.033666 -0.007539 -0.026044 -0.007673 0.087320 0.013098
# 6 -0.002467 -0.004117 -0.001093 -0.009663 0.013098 0.025837
#
#
# Mechanical properties :
#
#
# Convention : Reuss Voigt Hill
#
# Bulk Modulus (GPa) = 12.01431 37.82428 24.91929
# Shear Modulus (GPa) = 20.89445 35.65412 28.27429
#
# Velocity S-wave (km/s) = 2.96701 3.87577 3.45143
# Velocity P-wave (km/s) = 4.09869 5.99705 5.13634
#
# Compressibility (1/GPa) = 0.08323409
#
# Stress axis : x y z
#
# Youngs Moduli (GPa) = 35.90265 81.51730 42.51196
#
# Poissons Ratio (x) = -0.02569 -0.40729
# Poissons Ratio (y) = -0.01131 0.00426
# Poissons Ratio (z) = -0.34397 0.00817
#
# Static dielectric constant tensor:
#      x y z
#    x 1.988260 -0.041400 -0.030130 
#    y -0.041400 1.880990 0.020300 
#    z -0.030130 0.020300 1.892730 
# 
# From -- ./inp_files/145775.got.cif
#   From: 2010.05.17/outbox.cif.g08.bks.cpg/sg2_73_cif.got.tgz:145775.got - 2010.06.03 11:33:40.
