data_PCOD9103665
_publ_section_title
;
Structure prediction by ZEFSAII (Michael W. Deem and Ramdas Pophale) SiO2 
 PCOD9103665
Probable space group: P -1
;
_chemical_formula_sum "Si O2"
_cell_formula_units_Z 16
_cell_length_a 9.683396
_cell_length_b 17.882216
_cell_length_c 6.988950
_cell_angle_alpha 95.818275
_cell_angle_beta 68.094770
_cell_angle_gamma 44.179186
_cell_volume 642.632693
_symmetry_space_group_name_H-M "P -1"
_symmetry_group_IT_number 2
_symmetry_cell_setting 'triclinic'
loop_
_space_group_symop_operation_xyz
x,y,z
-x,-y,-z
loop_
_atom_site_type_symbol
_atom_site_label
_atom_site_fract_x
_atom_site_fract_y
_atom_site_fract_z
Si Si1 0.717045 0.200793 0.021013
Si Si2 0.665361 0.354036 0.371489
Si Si3 0.734140 0.042624 0.155270
Si Si4 0.790496 0.811207 0.478942
Si Si5 0.335153 0.003186 0.197554
Si Si6 0.551243 0.668474 0.205755
Si Si7 0.051364 0.379687 0.900733
Si Si8 0.878227 0.729244 0.829718
O O1 0.642064 0.311100 0.185536
O O2 0.405305 0.670133 0.419161
O O3 0.024007 0.059806 0.856452
O O4 0.618053 0.238143 0.865022
O O5 0.500000 0.500000 0.500000
O O6 0.958458 0.263470 0.210837
O O7 0.513286 0.079651 0.359142
O O8 0.618680 0.171635 0.194214
O O9 0.814923 0.979427 0.884218
O O10 0.821577 0.885652 0.535130
O O11 0.931344 0.712186 0.209589
O O12 0.868119 0.731835 0.607684
O O13 0.582901 0.852346 0.093100
O O14 0.500000 0.000000 0.000000
O O15 0.812840 0.518453 0.960745
O O16 0.685058 0.681727 0.256557
O O17 0.990927 0.393966 0.161725
#
# Coordination Sequence:
#
# PCOD9103665 Si02
#       8
#     2   2   2   2   2   2   2   2
#     4  11  23  42  69  92 137 175 213 272 335 386
#     4  12  25  43  65  96 136 175 218 263 329 392
#     4   9  19  42  67 100 129 172 218 269 332 394
#     4  10  20  38  67  94 125 171 217 267 330 377
#     4   8  16  35  64  93 125 161 218 263 320 381
#     4  11  26  44  63  98 131 176 220 272 319 391
#     4  11  24  42  65  94 131 166 229 266 317 393
#     4  10  21  41  64  94 131 169 209 277 319 389
#
# _framework density 24.897580000000001
#
# number of rings (size 3 to 8) (size 9 to 14) (size 15 to 20)
#    0.000    2.000    1.250    4.500    1.750    2.000 
#    0.000   15.000    0.000    0.750    0.000    0.000 
#    0.000    0.000    0.000    0.000    0.000    0.000 
#
# Total GULP energy -89335.324813 kJ/mol
# GULP energy per Si atom -5583.457801 kJ/mol
# Density = 2.484091 g / cm^3
# Si number density = 24.897580 Si / 1000 Ang^3
#
#
#
# Elastic Constant Matrix: (Units=GPa)
#
#
# Indices 1 2 3 4 5 6 
#
# 1 119.2098 40.4381 27.7475 -7.4664 6.2350 -4.0316
# 2 40.4381 130.6796 27.0689 -12.3375 -2.5686 -12.3296
# 3 27.7475 27.0689 70.1088 -3.9881 11.1357 0.0746
# 4 -7.4664 -12.3375 -3.9881 29.6075 7.9591 3.5512
# 5 6.2350 -2.5686 11.1357 7.9591 20.6695 -5.1420
# 6 -4.0316 -12.3296 0.0746 3.5512 -5.1420 43.8123
#
#
#
# Elastic Compliance Matrix: (Units=1/GPa)
#
#
# Indices 1 2 3 4 5 6 
#
# 1 0.010072 -0.002504 -0.002455 0.001964 -0.002850 -0.000267
# 2 -0.002504 0.009580 -0.003219 0.001581 0.003764 0.002785
# 3 -0.002455 -0.003219 0.018622 0.004123 -0.012003 -0.002906
# 4 0.001964 0.001581 0.004123 0.041423 -0.019828 -0.005066
# 5 -0.002850 0.003764 -0.012003 -0.019828 0.066350 0.010212
# 6 -0.000267 0.002785 -0.002906 -0.005066 0.010212 0.025198
#
#
# Mechanical properties :
#
#
# Convention : Reuss Voigt Hill
#
# Bulk Modulus (GPa) = 45.62252 56.72304 51.17278
# Shear Modulus (GPa) = 25.65337 33.80076 29.72707
#
# Velocity S-wave (km/s) = 3.21340 3.68855 3.45914
# Velocity P-wave (km/s) = 5.66849 6.40098 6.04584
#
# Compressibility (1/GPa) = 0.02191900
#
# Stress axis : x y z
#
# Youngs Moduli (GPa) = 99.28046 104.38564 53.70010
#
# Poissons Ratio (x) = 0.26140 0.13183
# Poissons Ratio (y) = 0.24861 0.17283
# Poissons Ratio (z) = 0.24373 0.33597
#
# Static dielectric constant tensor:
#      x y z
#    x 2.008210 0.007730 -0.007930 
#    y 0.007730 2.047010 0.077210 
#    z -0.007930 0.077210 2.045430 
# 
# From -- ./inp_files/280635.got.cif
#   From: 2010.05.17/outbox.cif.g08.bks.cpg/sg2_141_cif.got.tgz:280635.got - 2010.06.03 11:33:40.
