data_PCOD9103077
_publ_section_title
;
Structure prediction by ZEFSAII (Michael W. Deem and Ramdas Pophale) SiO2 
 PCOD9103077
Probable space group: P -1
;
_chemical_formula_sum "Si O2"
_cell_formula_units_Z 16
_cell_length_a 15.061022
_cell_length_b 21.089801
_cell_length_c 7.626017
_cell_angle_alpha 117.890149
_cell_angle_beta 56.669769
_cell_angle_gamma 160.361680
_cell_volume 669.432115
_symmetry_space_group_name_H-M "P -1"
_symmetry_group_IT_number 2
_symmetry_cell_setting 'triclinic'
loop_
_space_group_symop_operation_xyz
x,y,z
-x,-y,-z
loop_
_atom_site_type_symbol
_atom_site_label
_atom_site_fract_x
_atom_site_fract_y
_atom_site_fract_z
Si Si1 0.689611 0.978256 0.634252
Si Si2 0.109817 0.051558 0.636308
Si Si3 0.536315 0.702025 0.979046
Si Si4 0.013869 0.310901 0.866528
Si Si5 0.030205 0.233295 0.093387
Si Si6 0.236039 0.705994 0.055282
Si Si7 0.513578 0.599188 0.211311
Si Si8 0.548439 0.191519 0.686551
O O1 0.851921 0.007555 0.447625
O O2 0.526148 0.863015 0.847022
O O3 0.459476 0.841197 0.547753
O O4 0.915075 0.182268 0.688297
O O5 0.406881 0.278543 0.620996
O O6 0.000000 0.000000 0.500000
O O7 0.856860 0.921446 0.863779
O O8 0.333573 0.543113 0.840921
O O9 0.559684 0.652748 0.029608
O O10 0.407917 0.695090 0.191576
O O11 0.832181 0.262425 0.925503
O O12 0.952196 0.243182 0.043577
O O13 0.195022 0.372547 0.257889
O O14 0.261826 0.321656 0.880042
O O15 0.762124 0.023991 0.184628
O O16 0.255988 0.722750 0.266209
O O17 0.000000 0.500000 0.000000
#
# Coordination Sequence:
#
# PCOD9103077 Si02
#       8
#     2   2   2   2   2   2   2   2
#     4  12  27  44  72 110 136 180 241 288 340 424
#     4  12  23  37  68 102 146 178 229 280 346 421
#     4  11  22  43  71  99 143 189 222 280 355 409
#     4  11  25  47  70  98 140 186 234 291 346 409
#     4  10  21  39  69  97 139 184 226 273 350 404
#     4  12  27  51  75  94 140 187 234 299 351 402
#     4  10  20  38  64  99 138 186 221 272 338 421
#     4  12  23  45  74 105 136 188 233 284 351 411
#
# _framework density 23.900853999999999
#
# number of rings (size 3 to 8) (size 9 to 14) (size 15 to 20)
#    0.000    0.750    5.000    3.000    0.000    2.500 
#    0.000    0.000    0.000    0.000    0.000    0.000 
#    0.000    0.000    0.000    0.000    0.000    0.000 
#
# Total GULP energy -89376.378107 kJ/mol
# GULP energy per Si atom -5586.023632 kJ/mol
# Density = 2.384646 g / cm^3
# Si number density = 23.900854 Si / 1000 Ang^3
#
#
#
# Elastic Constant Matrix: (Units=GPa)
#
#
# Indices 1 2 3 4 5 6 
#
# 1 94.9754 8.6948 10.4713 14.0597 -3.5171 -6.4076
# 2 8.6948 118.4153 28.3677 52.2015 -4.8504 -11.8321
# 3 10.4713 28.3677 55.2139 33.0922 10.0548 -2.6555
# 4 14.0597 52.2015 33.0922 46.7457 -7.2669 1.2655
# 5 -3.5171 -4.8504 10.0548 -7.2669 39.5080 12.2221
# 6 -6.4076 -11.8321 -2.6555 1.2655 12.2221 34.9730
#
#
#
# Elastic Compliance Matrix: (Units=1/GPa)
#
#
# Indices 1 2 3 4 5 6 
#
# 1 0.011488 0.002608 0.001876 -0.008100 -0.001887 0.004082
# 2 0.002608 0.022760 0.013470 -0.037995 -0.011954 0.014753
# 3 0.001876 0.013470 0.050629 -0.056318 -0.027760 0.020484
# 4 -0.008100 -0.037995 -0.056318 0.113558 0.041333 -0.037168
# 5 -0.001887 -0.011954 -0.027760 0.041333 0.045764 -0.023987
# 6 0.004082 0.014753 0.020484 -0.037168 -0.023987 0.045616
#
#
# Mechanical properties :
#
#
# Convention : Reuss Voigt Hill
#
# Bulk Modulus (GPa) = 8.27909 40.40803 24.34356
# Shear Modulus (GPa) = 16.99708 38.98340 27.99024
#
# Velocity S-wave (km/s) = 2.66963 4.04300 3.42584
# Velocity P-wave (km/s) = 3.60195 6.22396 5.08487
#
# Compressibility (1/GPa) = 0.12078620
#
# Stress axis : x y z
#
# Youngs Moduli (GPa) = 87.04695 43.93622 19.75141
#
# Poissons Ratio (x) = -0.11461 -0.03705
# Poissons Ratio (y) = -0.22706 -0.26605
# Poissons Ratio (z) = -0.16329 -0.59182
#
# Static dielectric constant tensor:
#      x y z
#    x 1.890300 0.027110 0.011080 
#    y 0.027110 1.976110 0.031450 
#    z 0.011080 0.031450 1.932240 
# 
# From -- ./inp_files/263057.got.cif
#   From: 2010.05.17/outbox.cif.g08.bks.cpg/sg2_132_cif.got.tgz:263057.got - 2010.06.03 11:33:40.
