data_PCOD9103724
_publ_section_title
;
Structure prediction by ZEFSAII (Michael W. Deem and Ramdas Pophale) SiO2 
 PCOD9103724
Probable space group: P -1
;
_chemical_formula_sum "Si O2"
_cell_formula_units_Z 16
_cell_length_a 8.177554
_cell_length_b 6.133844
_cell_length_c 13.141467
_cell_angle_alpha 86.423419
_cell_angle_beta 85.333148
_cell_angle_gamma 92.973156
_cell_volume 654.633630
_symmetry_space_group_name_H-M "P -1"
_symmetry_group_IT_number 2
_symmetry_cell_setting 'triclinic'
loop_
_space_group_symop_operation_xyz
x,y,z
-x,-y,-z
loop_
_atom_site_type_symbol
_atom_site_label
_atom_site_fract_x
_atom_site_fract_y
_atom_site_fract_z
Si Si1 0.553343 0.248611 0.297297
Si Si2 0.170391 0.030416 0.677747
Si Si3 0.388477 0.280415 0.493938
Si Si4 0.661920 0.019313 0.836727
Si Si5 0.446139 0.388781 0.861915
Si Si6 0.951866 0.353505 0.790993
Si Si7 0.767125 0.616206 0.948339
Si Si8 0.952152 0.662311 0.590921
O O1 0.724806 0.147277 0.266337
O O2 0.518527 0.171909 0.416873
O O3 0.562191 0.500344 0.251980
O O4 0.407944 0.132390 0.244134
O O5 0.051575 0.894252 0.606006
O O6 0.294249 0.187875 0.600067
O O7 0.083447 0.175635 0.762043
O O8 0.500000 0.500000 0.500000
O O9 0.237417 0.310225 0.423772
O O10 0.502584 0.142360 0.878387
O O11 0.781915 0.212307 0.783248
O O12 0.765933 0.872885 0.911439
O O13 0.596848 0.523652 0.906242
O O14 0.277241 0.415127 0.930337
O O15 0.910136 0.481566 0.894006
O O16 0.974026 0.532142 0.697259
O O17 0.000000 0.500000 0.500000
#
# Coordination Sequence:
#
# PCOD9103724 Si02
#       8
#     2   2   2   2   2   2   2   2
#     4  11  25  40  63  97 135 174 231 273 340 392
#     4  12  27  44  65  98 141 187 222 278 340 405
#     4  12  26  45  69  98 134 178 232 285 334 398
#     4  10  20  38  68 100 132 173 223 280 336 405
#     4   9  19  37  65  96 138 168 223 284 335 400
#     4  11  23  40  67  94 138 175 228 274 334 410
#     4   9  18  37  64 101 129 176 222 278 339 403
#     4  12  25  44  68  96 135 180 230 274 343 401
#
# _framework density 24.441151999999999
#
# number of rings (size 3 to 8) (size 9 to 14) (size 15 to 20)
#    0.000    1.250    1.250    5.625    5.250    1.000 
#    0.000    0.625    0.000    3.750    0.000    0.000 
#    0.000    0.000    0.000    0.000    0.000    0.000 
#
# Total GULP energy -89195.699334 kJ/mol
# GULP energy per Si atom -5574.731208 kJ/mol
# Density = 2.438552 g / cm^3
# Si number density = 24.441152 Si / 1000 Ang^3
#
#
#
# Elastic Constant Matrix: (Units=GPa)
#
#
# Indices 1 2 3 4 5 6 
#
# 1 91.4136 43.3209 20.3866 7.3085 -21.7641 -4.4012
# 2 43.3209 109.8249 52.7044 8.7354 -22.2311 2.9604
# 3 20.3866 52.7044 120.7873 15.5637 -34.4112 2.9925
# 4 7.3085 8.7354 15.5637 30.1778 -11.8596 -13.6960
# 5 -21.7641 -22.2311 -34.4112 -11.8596 36.2528 13.6328
# 6 -4.4012 2.9604 2.9925 -13.6960 13.6328 56.4985
#
#
#
# Elastic Compliance Matrix: (Units=1/GPa)
#
#
# Indices 1 2 3 4 5 6 
#
# 1 0.014792 -0.005200 0.002046 -0.000379 0.007753 -0.000646
# 2 -0.005200 0.013710 -0.004686 -0.000399 0.001180 -0.001257
# 3 0.002046 -0.004686 0.013938 -0.003464 0.011980 -0.004064
# 4 -0.000379 -0.000399 -0.003464 0.041667 0.006606 0.008681
# 5 0.007753 0.001180 0.011980 0.006606 0.050510 -0.010679
# 6 -0.000646 -0.001257 -0.004064 0.008681 -0.010679 0.022612
#
#
# Mechanical properties :
#
#
# Convention : Reuss Voigt Hill
#
# Bulk Modulus (GPa) = 37.36861 61.64995 49.50928
# Shear Modulus (GPa) = 27.49853 38.29341 32.89597
#
# Velocity S-wave (km/s) = 3.35788 3.96253 3.67267
# Velocity P-wave (km/s) = 5.50965 6.79809 6.18750
#
# Compressibility (1/GPa) = 0.02676043
#
# Stress axis : x y z
#
# Youngs Moduli (GPa) = 67.60341 72.94192 71.74462
#
# Poissons Ratio (x) = 0.37927 -0.14676
# Poissons Ratio (y) = 0.35152 0.33618
# Poissons Ratio (z) = -0.13829 0.34179
#
# Static dielectric constant tensor:
#      x y z
#    x 1.963830 -0.066690 -0.061670 
#    y -0.066690 2.087200 0.091550 
#    z -0.061670 0.091550 2.008130 
# 
# From -- ./inp_files/111705.got.cif
#   From: 2010.05.17/outbox.cif.g08.bks.cpg/sg2_56_cif.got.tgz:111705.got - 2010.06.03 11:33:40.
