data_PCOD9103506
_publ_section_title
;
Structure prediction by ZEFSAII (Michael W. Deem and Ramdas Pophale) SiO2 
 PCOD9103506
Probable space group: P -1
;
_chemical_formula_sum "Si O2"
_cell_formula_units_Z 16
_cell_length_a 15.279537
_cell_length_b 8.132949
_cell_length_c 9.355538
_cell_angle_alpha 104.060755
_cell_angle_beta 134.766139
_cell_angle_gamma 99.280839
_cell_volume 701.287156
_symmetry_space_group_name_H-M "P -1"
_symmetry_group_IT_number 2
_symmetry_cell_setting 'triclinic'
loop_
_space_group_symop_operation_xyz
x,y,z
-x,-y,-z
loop_
_atom_site_type_symbol
_atom_site_label
_atom_site_fract_x
_atom_site_fract_y
_atom_site_fract_z
Si Si1 0.267965 0.010610 0.036202
Si Si2 0.805206 0.045711 0.745639
Si Si3 0.589042 0.605277 0.397878
Si Si4 0.869403 0.340661 0.402650
Si Si5 0.318030 0.444576 0.203893
Si Si6 0.443812 0.958991 0.695456
Si Si7 0.414092 0.689554 0.875018
Si Si8 0.009792 0.356805 0.866487
O O1 0.294633 0.228870 0.095306
O O2 0.420260 0.021334 0.226931
O O3 0.179865 0.922177 0.060893
O O4 0.192067 0.869273 0.787030
O O5 0.694731 0.111935 0.572858
O O6 0.945490 0.154953 0.837192
O O7 0.721302 0.815717 0.579871
O O8 0.444632 0.595843 0.283671
O O9 0.630514 0.516018 0.564124
O O10 0.560765 0.474639 0.199951
O O11 0.743550 0.393069 0.266461
O O12 0.916628 0.332943 0.616031
O O13 0.000000 0.500000 0.500000
O O14 0.169156 0.434959 0.017724
O O15 0.422940 0.822511 0.777572
O O16 0.481859 0.165246 0.856325
O O17 0.000000 0.500000 0.000000
#
# Coordination Sequence:
#
# PCOD9103506 Si02
#       8
#     2   2   2   2   2   2   2   2
#     4  10  22  41  65  92 132 166 215 267 323 376
#     4  11  24  39  66 101 126 166 219 269 319 385
#     4  10  22  41  65  96 132 167 217 271 320 374
#     4  11  24  42  64  93 129 174 216 262 326 384
#     4  10  23  40  64  94 129 175 210 266 325 382
#     4  10  20  38  66  95 122 171 215 263 318 374
#     4  10  20  39  66  90 130 169 214 264 321 373
#     4  12  26  43  66  95 131 170 218 264 324 397
#
# _framework density 22.815190999999999
#
# number of rings (size 3 to 8) (size 9 to 14) (size 15 to 20)
#    0.000    1.500    2.500    1.875    0.000    7.000 
#    0.000    0.000    0.000    0.000    0.000    0.000 
#    0.000    0.000    0.000    0.000    0.000    0.000 
#
# Total GULP energy -89567.932214 kJ/mol
# GULP energy per Si atom -5597.995763 kJ/mol
# Density = 2.276326 g / cm^3
# Si number density = 22.815191 Si / 1000 Ang^3
#
#
#
# Elastic Constant Matrix: (Units=GPa)
#
#
# Indices 1 2 3 4 5 6 
#
# 1 82.9726 10.9824 35.0725 19.4112 -5.6359 4.4475
# 2 10.9824 50.7883 11.8923 17.4934 -16.6042 10.6202
# 3 35.0725 11.8923 115.7071 6.3115 -18.7177 -8.6690
# 4 19.4112 17.4934 6.3115 33.6824 1.9822 -0.9579
# 5 -5.6359 -16.6042 -18.7177 1.9822 42.9747 6.4356
# 6 4.4475 10.6202 -8.6690 -0.9579 6.4356 44.0029
#
#
#
# Elastic Compliance Matrix: (Units=1/GPa)
#
#
# Indices 1 2 3 4 5 6 
#
# 1 0.016370 0.002475 -0.004600 -0.010087 0.002117 -0.003687
# 2 0.002475 0.033748 -0.001505 -0.019897 0.015328 -0.011367
# 3 -0.004600 -0.001505 0.010810 0.001298 0.003084 0.002535
# 4 -0.010087 -0.019897 0.001298 0.046545 -0.011915 0.008833
# 5 0.002117 0.015328 0.003084 -0.011915 0.032610 -0.008335
# 6 -0.003687 -0.011367 0.002535 0.008833 -0.008335 0.027753
#
#
# Mechanical properties :
#
#
# Convention : Reuss Voigt Hill
#
# Bulk Modulus (GPa) = 18.63356 40.59583 29.61469
# Shear Modulus (GPa) = 25.90852 36.90006 31.40429
#
# Velocity S-wave (km/s) = 3.37350 4.02599 3.71410
# Velocity P-wave (km/s) = 4.83310 6.28040 5.60367
#
# Compressibility (1/GPa) = 0.05366662
#
# Stress axis : x y z
#
# Youngs Moduli (GPa) = 61.08630 29.63107 92.51086
#
# Poissons Ratio (x) = -0.07333 0.42555
# Poissons Ratio (y) = -0.15117 0.13927
# Poissons Ratio (z) = 0.28100 0.04461
#
# Static dielectric constant tensor:
#      x y z
#    x 1.836270 -0.007250 0.004790 
#    y -0.007250 1.906680 0.003170 
#    z 0.004790 0.003170 1.820810 
# 
# From -- ./inp_files/207658.got.cif
#   From: 2010.05.17/outbox.cif.g08.bks.cpg/sg2_104_cif.got.tgz:207658.got - 2010.06.03 11:33:40.
