data_PCOD9103410
_publ_section_title
;
Structure prediction by ZEFSAII (Michael W. Deem and Ramdas Pophale) SiO2 
 PCOD9103410
Probable space group: P -1
;
_chemical_formula_sum "Si O2"
_cell_formula_units_Z 14
_cell_length_a 25.921143
_cell_length_b 17.341660
_cell_length_c 14.687760
_cell_angle_alpha 155.170686
_cell_angle_beta 18.687907
_cell_angle_gamma 161.570742
_cell_volume 666.209875
_symmetry_space_group_name_H-M "P -1"
_symmetry_group_IT_number 2
_symmetry_cell_setting 'triclinic'
loop_
_space_group_symop_operation_xyz
x,y,z
-x,-y,-z
loop_
_atom_site_type_symbol
_atom_site_label
_atom_site_fract_x
_atom_site_fract_y
_atom_site_fract_z
Si Si1 0.451069 0.444370 0.915986
Si Si2 0.994724 0.472883 0.088192
Si Si3 0.679901 0.148735 0.779830
Si Si4 0.543205 0.327407 0.458812
Si Si5 0.211647 0.028387 0.163190
Si Si6 0.601329 0.771954 0.748934
Si Si7 0.010935 0.788328 0.539683
O O1 0.195650 0.259702 0.132770
O O2 0.500000 0.500000 0.000000
O O3 0.531166 0.345748 0.607726
O O4 0.586440 0.714801 0.939504
O O5 0.231297 0.598050 0.860051
O O6 0.929393 0.600989 0.391080
O O7 0.849243 0.182497 0.027481
O O8 0.000000 0.500000 0.000000
O O9 0.639647 0.945268 0.563352
O O10 0.612382 0.284695 0.987669
O O11 0.901321 0.282550 0.605112
O O12 0.500000 0.000000 0.000000
O O13 0.551093 0.529441 0.609338
O O14 0.292432 0.039711 0.141414
O O15 0.000000 0.000000 0.500000
O O16 0.790202 0.935473 0.532350
#
# Coordination Sequence:
#
# PCOD9103410 Si02
#       7
#     2   2   2   2   2   2   2
#     4  11  24  39  61  96 129 159 202 266 320 372
#     4  12  20  36  66  90 120 165 205 258 314 366
#     4  10  21  41  62  94 124 162 215 262 298 368
#     4  11  22  40  67  90 120 171 217 244 314 376
#     4  11  20  37  63  90 118 160 216 249 307 384
#     4  10  20  38  66  90 120 166 215 257 300 373
#     4  11  23  39  61  93 131 157 206 266 313 360
#
# _framework density 21.014399000000001
#
# number of rings (size 3 to 8) (size 9 to 14) (size 15 to 20)
#    0.000    1.143    7.143    1.714    0.000    3.429 
#    0.000    4.286    0.000    0.000    0.000    0.000 
#    0.000    0.000    0.000    0.000    0.000    0.000 
#
# Total GULP energy -78072.610737 kJ/mol
# GULP energy per Si atom -5576.615053 kJ/mol
# Density = 2.096657 g / cm^3
# Si number density = 21.014399 Si / 1000 Ang^3
#
#
#
# Elastic Constant Matrix: (Units=GPa)
#
#
# Indices 1 2 3 4 5 6 
#
# 1 90.3867 1.1749 9.3408 -5.4779 -13.4975 -3.2868
# 2 1.1749 47.9491 5.7874 2.6672 8.2279 -4.0864
# 3 9.3408 5.7874 60.3292 -5.6203 -2.2375 -7.2519
# 4 -5.4779 2.6672 -5.6203 31.4912 7.0800 0.5305
# 5 -13.4975 8.2279 -2.2375 7.0800 33.9803 6.3009
# 6 -3.2868 -4.0864 -7.2519 0.5305 6.3009 29.3881
#
#
#
# Elastic Compliance Matrix: (Units=1/GPa)
#
#
# Indices 1 2 3 4 5 6 
#
# 1 0.011989 -0.000991 -0.001533 0.000827 0.004768 -0.000212
# 2 -0.000991 0.022622 -0.001874 -0.001024 -0.006521 0.003989
# 3 -0.001533 -0.001874 0.017743 0.003073 -0.000363 0.003969
# 4 0.000827 -0.001024 0.003073 0.033988 -0.006582 0.001506
# 5 0.004768 -0.006521 -0.000363 -0.006582 0.035734 -0.008006
# 6 -0.000212 0.003989 0.003969 0.001506 -0.008006 0.037227
#
#
# Mechanical properties :
#
#
# Convention : Reuss Voigt Hill
#
# Bulk Modulus (GPa) = 22.95836 25.69681 24.32759
# Shear Modulus (GPa) = 27.37942 31.12939 29.25441
#
# Velocity S-wave (km/s) = 3.61347 3.85299 3.73515
# Velocity P-wave (km/s) = 5.32526 5.66116 5.49578
#
# Compressibility (1/GPa) = 0.04355711
#
# Stress axis : x y z
#
# Youngs Moduli (GPa) = 83.40737 44.20506 56.36095
#
# Poissons Ratio (x) = 0.04381 0.08639
# Poissons Ratio (y) = 0.08267 0.10565
# Poissons Ratio (z) = 0.12785 0.08286
#
# Static dielectric constant tensor:
#      x y z
#    x 1.851650 -0.022040 0.004910 
#    y -0.022040 1.814270 0.023480 
#    z 0.004910 0.023480 1.756370 
# 
# From -- ./inp_files/544283.got.cif
#   From: 2010.05.17/outbox.cif.g08.bks.cpg/sg2_273_cif.got.tgz:544283.got - 2010.06.03 11:33:40.
