data_PCOD9103027
_publ_section_title
;
Structure prediction by ZEFSAII (Michael W. Deem and Ramdas Pophale) SiO2 
 PCOD9103027
Probable space group: P -1
;
_chemical_formula_sum "Si O2"
_cell_formula_units_Z 16
_cell_length_a 14.912135
_cell_length_b 9.740264
_cell_length_c 12.197214
_cell_angle_alpha 35.403449
_cell_angle_beta 105.646761
_cell_angle_gamma 81.210326
_cell_volume 735.483803
_symmetry_space_group_name_H-M "P -1"
_symmetry_group_IT_number 2
_symmetry_cell_setting 'triclinic'
loop_
_space_group_symop_operation_xyz
x,y,z
-x,-y,-z
loop_
_atom_site_type_symbol
_atom_site_label
_atom_site_fract_x
_atom_site_fract_y
_atom_site_fract_z
Si Si1 0.806126 0.926922 0.273274
Si Si2 0.988749 0.738873 0.152450
Si Si3 0.384040 0.049552 0.385694
Si Si4 0.292480 0.895120 0.117402
Si Si5 0.514541 0.171399 0.653847
Si Si6 0.394866 0.878160 0.735609
Si Si7 0.962535 0.672267 0.760530
Si Si8 0.163795 0.730910 0.779853
O O1 0.917148 0.548024 0.544714
O O2 0.705379 0.022754 0.269921
O O3 0.867122 0.063588 0.254144
O O4 0.734745 0.078118 0.037987
O O5 0.040865 0.540555 0.185585
O O6 0.844126 0.907907 0.003908
O O7 0.000000 0.000000 0.000000
O O8 0.500000 0.000000 0.500000
O O9 0.435548 0.804586 0.461983
O O10 0.333850 0.027542 0.497253
O O11 0.292404 0.388201 0.075585
O O12 0.392247 0.521833 0.424097
O O13 0.368868 0.997494 0.115166
O O14 0.465079 0.993902 0.727019
O O15 0.500000 0.500000 0.000000
O O16 0.073104 0.666589 0.767759
O O17 0.847693 0.053022 0.460183
O O18 0.000000 0.500000 0.000000
#
# Coordination Sequence:
#
# PCOD9103027 Si02
#       8
#     2   2   2   2   2   2   2   2
#     4  11  23  40  67  98 131 179 222 280 337 400
#     4  11  25  43  64  97 133 175 229 272 344 409
#     4  10  20  38  64  96 130 173 212 278 333 392
#     4  11  23  43  64  88 130 182 221 270 337 404
#     4  10  22  41  66  89 132 175 221 273 336 402
#     4  11  22  38  65 102 134 170 229 277 340 403
#     4  10  24  44  69 100 129 177 225 282 339 394
#     4  10  22  41  67  97 135 168 223 275 339 393
#
# _framework density 21.754387999999999
#
# number of rings (size 3 to 8) (size 9 to 14) (size 15 to 20)
#    0.000    1.500    0.000    5.625    5.250    0.500 
#    4.500    1.250    0.000    0.000    0.000    0.000 
#    0.000    0.000    0.000    0.000    0.000    0.000 
#
# Total GULP energy -89250.036466 kJ/mol
# GULP energy per Si atom -5578.127279 kJ/mol
# Density = 2.170487 g / cm^3
# Si number density = 21.754388 Si / 1000 Ang^3
#
#
#
# Elastic Constant Matrix: (Units=GPa)
#
#
# Indices 1 2 3 4 5 6 
#
# 1 77.6064 20.3264 25.5405 -7.2751 6.8011 11.9526
# 2 20.3264 84.1582 18.8124 4.2837 -8.7807 13.8642
# 3 25.5405 18.8124 135.7082 -6.3174 14.9278 -0.3872
# 4 -7.2751 4.2837 -6.3174 47.0505 1.9087 -0.4126
# 5 6.8011 -8.7807 14.9278 1.9087 34.8603 0.7288
# 6 11.9526 13.8642 -0.3872 -0.4126 0.7288 45.4819
#
#
#
# Elastic Compliance Matrix: (Units=1/GPa)
#
#
# Indices 1 2 3 4 5 6 
#
# 1 0.015345 -0.003205 -0.002004 0.002491 -0.003016 -0.003002
# 2 -0.003205 0.014411 -0.002104 -0.002340 0.005361 -0.003675
# 3 -0.002004 -0.002104 0.008524 0.001195 -0.003882 0.001314
# 4 0.002491 -0.002340 0.001195 0.022129 -0.002805 0.000314
# 5 -0.003016 0.005361 -0.003882 -0.002805 0.032470 -0.001420
# 6 -0.003002 -0.003675 0.001314 0.000314 -0.001420 0.023933
#
#
# Mechanical properties :
#
#
# Convention : Reuss Voigt Hill
#
# Bulk Modulus (GPa) = 42.27742 47.42572 44.85157
# Shear Modulus (GPa) = 35.88800 40.99810 38.44305
#
# Velocity S-wave (km/s) = 4.06604 4.34590 4.20830
# Velocity P-wave (km/s) = 6.44358 6.85786 6.65395
#
# Compressibility (1/GPa) = 0.02365329
#
# Stress axis : x y z
#
# Youngs Moduli (GPa) = 65.16825 69.39306 117.31630
#
# Poissons Ratio (x) = 0.22242 0.23515
# Poissons Ratio (y) = 0.20888 0.24678
# Poissons Ratio (z) = 0.13062 0.14597
#
# Static dielectric constant tensor:
#      x y z
#    x 1.842660 -0.014200 0.011410 
#    y -0.014200 1.830710 0.012120 
#    z 0.011410 0.012120 1.854930 
# 
# From -- ./inp_files/460952.got.cif
#   From: 2010.05.17/outbox.cif.g08.bks.cpg/sg2_231_cif.got.tgz:460952.got - 2010.06.03 11:33:40.
