data_PCOD9103389
_publ_section_title
;
Structure prediction by ZEFSAII (Michael W. Deem and Ramdas Pophale) SiO2 
 PCOD9103389
Probable space group: P -1
;
_chemical_formula_sum "Si O2"
_cell_formula_units_Z 15
_cell_length_a 12.145331
_cell_length_b 10.319680
_cell_length_c 13.225985
_cell_angle_alpha 136.365723
_cell_angle_beta 42.907697
_cell_angle_gamma 141.742957
_cell_volume 653.949567
_symmetry_space_group_name_H-M "P -1"
_symmetry_group_IT_number 2
_symmetry_cell_setting 'triclinic'
loop_
_space_group_symop_operation_xyz
x,y,z
-x,-y,-z
loop_
_atom_site_type_symbol
_atom_site_label
_atom_site_fract_x
_atom_site_fract_y
_atom_site_fract_z
Si Si1 0.586773 0.372471 0.007202
Si Si2 0.179233 0.980478 0.525204
Si Si3 0.025754 0.805224 0.748051
Si Si4 0.593660 0.709692 0.700806
Si Si5 0.412697 0.711070 0.617757
Si Si6 0.978189 0.457201 0.724084
Si Si7 0.000000 0.000000 0.500000
Si Si8 0.684450 0.818439 0.091701
O O1 0.489399 0.293817 0.135956
O O2 0.592513 0.594676 0.094699
O O3 0.804268 0.432431 0.891291
O O4 0.465378 0.201817 0.901551
O O5 0.073142 0.877560 0.641944
O O6 0.062973 0.790410 0.406361
O O7 0.156413 0.159855 0.582201
O O8 0.401912 0.066326 0.430288
O O9 0.968154 0.557800 0.679111
O O10 0.213783 0.977829 0.784366
O O11 0.854338 0.828050 0.917256
O O12 0.472393 0.728166 0.703502
O O13 0.584706 0.481115 0.556545
O O14 0.813683 0.907294 0.651663
O O15 0.190142 0.628973 0.718274
#
# Coordination Sequence:
#
# PCOD9103389 Si02
#       8
#     2   2   2   2   2   2   1   2
#     4  10  21  39  64  88 127 164 204 254 314 360
#     4  11  22  40  63  92 126 166 203 256 311 361
#     4  10  21  39  63  92 126 164 206 256 312 360
#     4  10  20  41  65  90 119 169 206 255 303 370
#     4  10  23  39  64  91 125 156 216 252 299 374
#     4  11  24  40  60  96 132 157 202 265 305 370
#     4  10  20  38  66  88 120 156 212 250 290 368
#     4   9  20  38  61  92 122 163 215 249 296 385
#
# _framework density 22.937546999999999
#
# number of rings (size 3 to 8) (size 9 to 14) (size 15 to 20)
#    0.000    1.867    1.333    2.000    1.867    1.067 
#    4.800    4.000    2.933    0.000    0.000    0.000 
#    0.000    0.000    0.000    0.000    0.000    0.000 
#
# Total GULP energy -83608.849713 kJ/mol
# GULP energy per Si atom -5573.923314 kJ/mol
# Density = 2.288534 g / cm^3
# Si number density = 22.937547 Si / 1000 Ang^3
#
#
#
# Elastic Constant Matrix: (Units=GPa)
#
#
# Indices 1 2 3 4 5 6 
#
# 1 89.5934 29.0319 61.5105 -30.5876 2.0867 13.0691
# 2 29.0319 82.0343 38.9686 -29.8443 11.3976 11.1109
# 3 61.5105 38.9686 102.7740 -47.6289 25.8015 -8.8576
# 4 -30.5876 -29.8443 -47.6289 50.2429 -6.5613 -3.2177
# 5 2.0867 11.3976 25.8015 -6.5613 34.0751 -16.7316
# 6 13.0691 11.1109 -8.8576 -3.2177 -16.7316 42.1834
#
#
#
# Elastic Compliance Matrix: (Units=1/GPa)
#
#
# Indices 1 2 3 4 5 6 
#
# 1 0.023658 -0.000889 -0.017456 -0.002154 0.007807 -0.007829
# 2 -0.000889 0.017764 -0.002030 0.006812 -0.006402 -0.006850
# 3 -0.017456 -0.002030 0.035033 0.019667 -0.017045 0.008038
# 4 -0.002154 0.006812 0.019667 0.040459 -0.007771 0.003007
# 5 0.007807 -0.006402 -0.017045 -0.007771 0.049690 0.014805
# 6 -0.007829 -0.006850 0.008038 0.003007 0.014805 0.035725
#
#
# Mechanical properties :
#
#
# Convention : Reuss Voigt Hill
#
# Bulk Modulus (GPa) = 28.00553 59.26932 43.63742
# Shear Modulus (GPa) = 19.60929 34.95964 27.28447
#
# Velocity S-wave (km/s) = 2.92704 3.90824 3.45267
# Velocity P-wave (km/s) = 4.86409 6.80156 5.91273
#
# Compressibility (1/GPa) = 0.03570724
#
# Stress axis : x y z
#
# Youngs Moduli (GPa) = 42.26828 56.29296 28.54435
#
# Poissons Ratio (x) = 0.05003 0.49826
# Poissons Ratio (y) = 0.03757 0.05794
# Poissons Ratio (z) = 0.73782 0.11427
#
# Static dielectric constant tensor:
#      x y z
#    x 2.733350 -0.526630 -0.219990 
#    y -0.526630 2.226610 0.147110 
#    z -0.219990 0.147110 1.837950 
# 
# From -- ./inp_files/296686.got.cif
#   From: 2010.05.17/outbox.cif.g08.bks.cpg/sg2_149_cif.got.tgz:296686.got - 2010.06.03 11:33:40.
