data_PCOD9103748
_publ_section_title
;
Structure prediction by ZEFSAII (Michael W. Deem and Ramdas Pophale) SiO2 
 PCOD9103748
Probable space group: P -1
;
_chemical_formula_sum "Si O2"
_cell_formula_units_Z 16
_cell_length_a 8.457557
_cell_length_b 6.033341
_cell_length_c 22.557026
_cell_angle_alpha 122.237318
_cell_angle_beta 125.831572
_cell_angle_gamma 54.058873
_cell_volume 723.242224
_symmetry_space_group_name_H-M "P -1"
_symmetry_group_IT_number 2
_symmetry_cell_setting 'triclinic'
loop_
_space_group_symop_operation_xyz
x,y,z
-x,-y,-z
loop_
_atom_site_type_symbol
_atom_site_label
_atom_site_fract_x
_atom_site_fract_y
_atom_site_fract_z
Si Si1 0.048892 0.504759 0.332316
Si Si2 0.332879 0.803629 0.924619
Si Si3 0.612516 0.289922 0.611806
Si Si4 0.172519 0.845820 0.245448
Si Si5 0.176797 0.378590 0.472212
Si Si6 0.210514 0.280761 0.799079
Si Si7 0.605732 0.919699 0.908997
Si Si8 0.041339 0.600517 0.087842
O O1 0.254093 0.533242 0.353690
O O2 0.072108 0.539841 0.411905
O O3 0.842453 0.716633 0.281884
O O4 0.072023 0.185030 0.278775
O O5 0.231617 0.575353 0.861923
O O6 0.532514 0.735883 0.914724
O O7 0.179333 0.121903 0.913823
O O8 0.377747 0.840067 0.008918
O O9 0.623715 0.275809 0.683930
O O10 0.386291 0.408697 0.547381
O O11 0.742979 0.961044 0.572099
O O12 0.198324 0.743165 0.168747
O O13 0.993899 0.740894 0.217145
O O14 0.000000 0.500000 0.500000
O O15 0.427266 0.040649 0.837187
O O16 0.833818 0.718926 0.903253
O O17 0.000000 0.500000 0.000000
#
# Coordination Sequence:
#
# PCOD9103748 Si02
#       8
#     2   2   2   2   2   2   2   2
#     4  10  20  38  68  88 125 172 197 248 316 371
#     4  10  20  39  58  81 119 161 205 261 314 363
#     4   9  21  40  65  91 124 162 201 245 305 373
#     4  10  20  40  62  84 126 167 202 256 307 356
#     4  10  21  41  68  96 123 155 198 252 305 368
#     4  11  19  37  63  84 120 165 205 252 313 367
#     4  10  21  36  59  84 117 160 208 262 312 360
#     4  10  20  39  60  84 121 163 208 261 305 352
#
# _framework density 22.122603000000002
#
# number of rings (size 3 to 8) (size 9 to 14) (size 15 to 20)
#    0.000    2.000    2.500    0.750    0.000    0.500 
#   11.250    1.250    5.500    0.000    0.000    0.000 
#    0.000    0.000    0.000    0.000    0.000    0.000 
#
# Total GULP energy -89078.163176 kJ/mol
# GULP energy per Si atom -5567.385198 kJ/mol
# Density = 2.207225 g / cm^3
# Si number density = 22.122603 Si / 1000 Ang^3
#
#
#
# Elastic Constant Matrix: (Units=GPa)
#
#
# Indices 1 2 3 4 5 6 
#
# 1 42.5117 30.6415 31.5343 -0.7044 11.2693 -0.6430
# 2 30.6415 62.0224 48.1314 -30.9240 7.4684 -8.8824
# 3 31.5343 48.1314 186.8023 -37.1255 3.7397 -6.4296
# 4 -0.7044 -30.9240 -37.1255 40.2739 11.5435 6.8655
# 5 11.2693 7.4684 3.7397 11.5435 31.9340 9.8615
# 6 -0.6430 -8.8824 -6.4296 6.8655 9.8615 26.1166
#
#
#
# Elastic Compliance Matrix: (Units=1/GPa)
#
#
# Indices 1 2 3 4 5 6 
#
# 1 0.060534 -0.049027 -0.006859 -0.044148 0.009613 -0.008897
# 2 -0.049027 0.079107 0.002839 0.068317 -0.032639 0.020762
# 3 -0.006859 0.002839 0.007879 0.010014 -0.003190 0.001308
# 4 -0.044148 0.068317 0.010014 0.094790 -0.040459 0.014972
# 5 0.009613 -0.032639 -0.003190 -0.040459 0.057581 -0.022756
# 6 -0.008897 0.020762 0.001308 0.014972 -0.022756 0.050111
#
#
# Mechanical properties :
#
#
# Convention : Reuss Voigt Hill
#
# Bulk Modulus (GPa) = 24.13931 56.88343 40.51137
# Shear Modulus (GPa) = 10.64045 31.73353 21.18699
#
# Velocity S-wave (km/s) = 2.19550 3.79151 3.09804
# Velocity P-wave (km/s) = 4.16680 6.70343 5.58114
#
# Compressibility (1/GPa) = 0.04142621
#
# Stress axis : x y z
#
# Youngs Moduli (GPa) = 16.51962 12.64106 126.92301
#
# Poissons Ratio (x) = 0.61975 0.87060
# Poissons Ratio (y) = 0.80990 -0.36034
# Poissons Ratio (z) = 0.11331 -0.03589
#
# Static dielectric constant tensor:
#      x y z
#    x 1.860910 0.000680 -0.068100 
#    y 0.000680 1.843880 -0.029470 
#    z -0.068100 -0.029470 1.899440 
# 
# From -- ./inp_files/605906.got.cif
#   From: 2010.05.17/outbox.cif.g08.bks.cpg/sg2_303_cif.got.tgz:605906.got - 2010.06.03 11:33:40.
