data_PCOD9103503
_publ_section_title
;
Structure prediction by ZEFSAII (Michael W. Deem and Ramdas Pophale) SiO2 
 PCOD9103503
Probable space group: P -1
;
_chemical_formula_sum "Si O2"
_cell_formula_units_Z 14
_cell_length_a 5.883527
_cell_length_b 8.191240
_cell_length_c 19.095112
_cell_angle_alpha 45.430259
_cell_angle_beta 72.822736
_cell_angle_gamma 70.051569
_cell_volume 614.102641
_symmetry_space_group_name_H-M "P -1"
_symmetry_group_IT_number 2
_symmetry_cell_setting 'triclinic'
loop_
_space_group_symop_operation_xyz
x,y,z
-x,-y,-z
loop_
_atom_site_type_symbol
_atom_site_label
_atom_site_fract_x
_atom_site_fract_y
_atom_site_fract_z
Si Si1 0.199219 0.105106 0.498735
Si Si2 0.775165 0.708199 0.972730
Si Si3 0.720021 0.376163 0.187939
Si Si4 0.994255 0.116393 0.887856
Si Si5 0.460996 0.949181 0.812928
Si Si6 0.129367 0.041291 0.316582
Si Si7 0.723018 0.592566 0.706883
O O1 0.182145 0.367239 0.390843
O O2 0.500000 0.000000 0.500000
O O3 0.000000 0.000000 0.500000
O O4 0.075253 0.083389 0.592762
O O5 0.589580 0.749121 0.914519
O O6 0.673782 0.623704 0.079141
O O7 0.863505 0.947447 0.904454
O O8 0.000000 0.500000 0.000000
O O9 0.560581 0.406927 0.263044
O O10 0.989399 0.261214 0.218518
O O11 0.647605 0.190412 0.196007
O O12 0.257644 0.100676 0.834006
O O13 0.854903 0.378061 0.806487
O O14 0.000000 0.000000 0.000000
O O15 0.655853 0.079076 0.718396
O O16 0.252320 0.167452 0.328460
#
# Coordination Sequence:
#
# PCOD9103503 Si02
#       7
#     2   2   2   2   2   2   2
#     4  10  20  40  68 103 133 173 226 283 337 404
#     4  12  23  38  61  89 122 174 218 257 326 401
#     4  11  20  37  64  88 122 166 220 265 317 401
#     4  12  26  41  60  95 137 168 217 275 337 389
#     4  11  23  39  60  87 129 168 220 263 328 403
#     4  10  20  38  66  95 119 168 221 268 326 401
#     4  10  23  38  62  96 132 167 213 280 338 385
#
# _framework density 22.797491000000001
#
# number of rings (size 3 to 8) (size 9 to 14) (size 15 to 20)
#    0.000    1.143    4.286    2.143    2.000    3.429 
#    0.000    0.714    0.000    3.429    0.000    0.000 
#    0.000    0.000    0.000    0.000    0.000    0.000 
#
# Total GULP energy -77972.103977 kJ/mol
# GULP energy per Si atom -5569.435998 kJ/mol
# Density = 2.274560 g / cm^3
# Si number density = 22.797491 Si / 1000 Ang^3
#
#
#
# Elastic Constant Matrix: (Units=GPa)
#
#
# Indices 1 2 3 4 5 6 
#
# 1 77.4667 23.6673 12.8079 9.1523 -5.4290 -14.0574
# 2 23.6673 55.4486 30.8208 16.4606 -22.3013 -21.1471
# 3 12.8079 30.8208 127.4572 29.3233 -25.2055 -20.2914
# 4 9.1523 16.4606 29.3233 28.8943 -12.6697 -12.4517
# 5 -5.4290 -22.3013 -25.2055 -12.6697 40.8867 13.6594
# 6 -14.0574 -21.1471 -20.2914 -12.4517 13.6594 41.9658
#
#
#
# Elastic Compliance Matrix: (Units=1/GPa)
#
#
# Indices 1 2 3 4 5 6 
#
# 1 0.015230 -0.006265 0.000224 -0.001557 -0.002548 0.002421
# 2 -0.006265 0.030484 -0.002316 -0.005425 0.010286 0.007185
# 3 0.000224 -0.002316 0.010965 -0.008342 0.002650 0.000872
# 4 -0.001557 -0.005425 -0.008342 0.051835 0.005667 0.006247
# 5 -0.002548 0.010286 0.002650 0.005667 0.034427 -0.003913
# 6 0.002421 0.007185 0.000872 0.006247 -0.003913 0.031809
#
#
# Mechanical properties :
#
#
# Convention : Reuss Voigt Hill
#
# Bulk Modulus (GPa) = 25.02077 43.88496 34.45286
# Shear Modulus (GPa) = 24.41574 35.22114 29.81844
#
# Velocity S-wave (km/s) = 3.27614 3.93486 3.62051
# Velocity P-wave (km/s) = 5.03089 6.31948 5.71164
#
# Compressibility (1/GPa) = 0.03996680
#
# Stress axis : x y z
#
# Youngs Moduli (GPa) = 65.65849 32.80438 91.19627
#
# Poissons Ratio (x) = 0.20551 -0.02044
# Poissons Ratio (y) = 0.41133 0.21118
# Poissons Ratio (z) = -0.01472 0.07596
#
# Static dielectric constant tensor:
#      x y z
#    x 1.921430 -0.009060 -0.038330 
#    y -0.009060 1.969850 0.112830 
#    z -0.038330 0.112830 1.947780 
# 
# From -- ./inp_files/34275.got.cif
#   From: 2010.05.17/outbox.cif.g08.bks.cpg/sg2_18_cif.got.tgz:34275.got - 2010.06.03 11:33:40.
