data_PCOD9103191
_publ_section_title
;
Structure prediction by ZEFSAII (Michael W. Deem and Ramdas Pophale) SiO2 
 PCOD9103191
Probable space group: P -1
;
_chemical_formula_sum "Si O2"
_cell_formula_units_Z 16
_cell_length_a 8.164093
_cell_length_b 19.656338
_cell_length_c 13.931682
_cell_angle_alpha 158.898498
_cell_angle_beta 74.849768
_cell_angle_gamma 93.140306
_cell_volume 651.906659
_symmetry_space_group_name_H-M "P -1"
_symmetry_group_IT_number 2
_symmetry_cell_setting 'triclinic'
loop_
_space_group_symop_operation_xyz
x,y,z
-x,-y,-z
loop_
_atom_site_type_symbol
_atom_site_label
_atom_site_fract_x
_atom_site_fract_y
_atom_site_fract_z
Si Si1 0.567377 0.517868 0.406835
Si Si2 0.348122 0.219090 0.750797
Si Si3 0.766795 0.803117 0.782034
Si Si4 0.923415 0.755237 0.323828
Si Si5 0.188645 0.382507 0.174733
Si Si6 0.489394 0.985500 0.728459
Si Si7 0.022755 0.894353 0.164359
Si Si8 0.847727 0.100241 0.065323
O O1 0.500000 0.500000 0.500000
O O2 0.655823 0.675814 0.608668
O O3 0.357036 0.655462 0.562486
O O4 0.765433 0.274131 0.033414
O O5 0.161405 0.210477 0.725896
O O6 0.500000 0.000000 0.500000
O O7 0.466489 0.192476 0.598312
O O8 0.261565 0.411072 0.096635
O O9 0.989381 0.615925 0.542878
O O10 0.640316 0.990229 0.128661
O O11 0.782613 0.919884 0.839375
O O12 0.716018 0.908989 0.618368
O O13 0.058335 0.855811 0.455545
O O14 0.000000 0.500000 0.000000
O O15 0.368365 0.235711 0.028986
O O16 0.108784 0.214573 0.950509
O O17 0.064883 0.894654 0.044244
O O18 0.000000 0.000000 0.000000
#
# Coordination Sequence:
#
# PCOD9103191 Si02
#       8
#     2   2   2   2   2   2   2   2
#     4   9  20  39  58  85 125 162 201 249 311 368
#     4   8  19  39  62  85 116 157 209 251 296 373
#     4  11  21  35  66  96 122 163 205 258 311 364
#     4  10  22  39  65  83 121 163 205 249 315 359
#     4  10  20  38  65  92 120 158 210 251 308 370
#     4   9  19  37  60  89 122 158 199 250 306 370
#     4  10  22  40  60  85 125 162 202 257 305 370
#     4  11  23  37  57  94 131 161 204 255 310 366
#
# _framework density 24.543389000000001
#
# number of rings (size 3 to 8) (size 9 to 14) (size 15 to 20)
#    0.750    1.500    0.000    3.000    1.750    3.500 
#    2.250    0.625    0.000    0.000    0.000    0.000 
#    0.000    0.000    0.000    0.000    0.000    0.000 
#
# Total GULP energy -89236.715487 kJ/mol
# GULP energy per Si atom -5577.294718 kJ/mol
# Density = 2.448753 g / cm^3
# Si number density = 24.543389 Si / 1000 Ang^3
#
#
#
# Elastic Constant Matrix: (Units=GPa)
#
#
# Indices 1 2 3 4 5 6 
#
# 1 68.5964 20.2214 36.0326 12.3022 -12.1532 -18.9482
# 2 20.2214 110.7043 27.7527 -8.7117 1.8743 -6.8016
# 3 36.0326 27.7527 91.0868 14.7454 2.3176 0.1501
# 4 12.3022 -8.7117 14.7454 42.3331 1.0307 -3.0108
# 5 -12.1532 1.8743 2.3176 1.0307 40.2106 3.1714
# 6 -18.9482 -6.8016 0.1501 -3.0108 3.1714 40.5368
#
#
#
# Elastic Compliance Matrix: (Units=1/GPa)
#
#
# Indices 1 2 3 4 5 6 
#
# 1 0.024612 -0.002139 -0.008635 -0.004030 0.007327 0.010305
# 2 -0.002139 0.010575 -0.002988 0.003950 -0.001161 0.001170
# 3 -0.008635 -0.002988 0.016026 -0.003948 -0.002926 -0.004661
# 4 -0.004030 0.003950 -0.003948 0.027097 -0.001945 0.000958
# 5 0.007327 -0.001161 -0.002926 -0.001945 0.027280 0.000962
# 6 0.010305 0.001170 -0.004661 0.000958 0.000962 0.029695
#
#
# Mechanical properties :
#
#
# Convention : Reuss Voigt Hill
#
# Bulk Modulus (GPa) = 42.21371 48.71122 45.46246
# Shear Modulus (GPa) = 29.29013 37.04149 33.16581
#
# Velocity S-wave (km/s) = 3.45831 3.88909 3.68001
# Velocity P-wave (km/s) = 5.76051 6.32904 6.05146
#
# Compressibility (1/GPa) = 0.02368899
#
# Stress axis : x y z
#
# Youngs Moduli (GPa) = 40.63070 94.56132 62.39815
#
# Poissons Ratio (x) = 0.20226 0.53883
# Poissons Ratio (y) = 0.08690 0.18643
# Poissons Ratio (z) = 0.35086 0.28253
#
# Static dielectric constant tensor:
#      x y z
#    x 1.990100 0.045920 -0.011250 
#    y 0.045920 1.912600 0.005770 
#    z -0.011250 0.005770 1.988680 
# 
# From -- ./inp_files/508001.got.cif
#   From: 2010.05.17/outbox.cif.g08.bks.cpg/sg2_255_cif.got.tgz:508001.got - 2010.06.03 11:33:40.
