data_PCOD9103009
_publ_section_title
;
Structure prediction by ZEFSAII (Michael W. Deem and Ramdas Pophale) SiO2 
 PCOD9103009
Probable space group: P -1
;
_chemical_formula_sum "Si O2"
_cell_formula_units_Z 11
_cell_length_a 7.293738
_cell_length_b 10.203417
_cell_length_c 7.174818
_cell_angle_alpha 100.195062
_cell_angle_beta 53.741746
_cell_angle_gamma 92.737597
_cell_volume 422.672125
_symmetry_space_group_name_H-M "P -1"
_symmetry_group_IT_number 2
_symmetry_cell_setting 'triclinic'
loop_
_space_group_symop_operation_xyz
x,y,z
-x,-y,-z
loop_
_atom_site_type_symbol
_atom_site_label
_atom_site_fract_x
_atom_site_fract_y
_atom_site_fract_z
Si Si1 0.939349 0.420386 0.732379
Si Si2 0.500000 0.500000 0.000000
Si Si3 0.519387 0.257817 0.631958
Si Si4 0.121773 0.135060 0.977879
Si Si5 0.753622 0.379120 0.201075
Si Si6 0.989860 0.855727 0.561327
O O1 0.116002 0.501519 0.757578
O O2 0.030805 0.273160 0.587915
O O3 0.770830 0.505704 0.719210
O O4 0.710616 0.406400 0.012920
O O5 0.541491 0.638661 0.139115
O O6 0.551029 0.337318 0.440833
O O7 0.763121 0.183104 0.507015
O O8 0.334524 0.149960 0.721249
O O9 0.183830 0.142213 0.161246
O O10 0.942757 0.256170 0.059934
O O11 0.000000 0.000000 0.000000
O O12 0.000000 0.000000 0.500000
#
# Coordination Sequence:
#
# PCOD9103009 Si02
#       6
#     2   1   2   2   2   2
#     4  10  21  41  65  96 131 167 210 268 311 383
#     4  10  20  38  64  96 124 158 214 256 324 364
#     4  10  23  39  67  93 125 172 209 266 318 376
#     4  11  23  42  65  90 132 170 214 263 316 384
#     4  10  22  40  64  97 129 167 216 258 322 376
#     4  10  23  41  63  94 127 169 213 265 318 379
#
# _framework density 26.024898
#
# number of rings (size 3 to 8) (size 9 to 14) (size 15 to 20)
#    0.000    1.818    1.818    1.091    2.545    6.545 
#    0.000    3.636    0.000    0.000    0.000    0.000 
#    0.000    0.000    0.000    0.000    0.000    0.000 
#
# Total GULP energy -61416.228639 kJ/mol
# GULP energy per Si atom -5583.293513 kJ/mol
# Density = 2.596566 g / cm^3
# Si number density = 26.024898 Si / 1000 Ang^3
#
#
#
# Elastic Constant Matrix: (Units=GPa)
#
#
# Indices 1 2 3 4 5 6 
#
# 1 70.0357 27.5858 19.2132 -10.8904 11.5350 -0.3968
# 2 27.5858 170.8881 43.2463 -9.1456 20.6734 10.3417
# 3 19.2132 43.2463 94.8466 -22.5681 20.4495 15.2409
# 4 -10.8904 -9.1456 -22.5681 50.6840 -0.0615 -5.8054
# 5 11.5350 20.6734 20.4495 -0.0615 53.9710 -2.3534
# 6 -0.3968 10.3417 15.2409 -5.8054 -2.3534 54.4338
#
#
#
# Elastic Compliance Matrix: (Units=1/GPa)
#
#
# Indices 1 2 3 4 5 6 
#
# 1 0.016200 -0.001903 -0.001520 0.002583 -0.002107 0.001090
# 2 -0.001903 0.006974 -0.002459 -0.000333 -0.001366 -0.000745
# 3 -0.001520 -0.002459 0.014751 0.005416 -0.004460 -0.003289
# 4 0.002583 -0.000333 0.005416 0.022735 -0.002412 0.000886
# 5 -0.002107 -0.001366 -0.004460 -0.002412 0.021283 0.002156
# 6 0.001090 -0.000745 -0.003289 0.000886 0.002156 0.019629
#
#
# Mechanical properties :
#
#
# Convention : Reuss Voigt Hill
#
# Bulk Modulus (GPa) = 38.22658 57.31790 47.77224
# Shear Modulus (GPa) = 40.96439 48.19945 44.58192
#
# Velocity S-wave (km/s) = 3.97173 4.30822 4.14339
# Velocity P-wave (km/s) = 5.97940 6.84249 6.42545
#
# Compressibility (1/GPa) = 0.02615981
#
# Stress axis : x y z
#
# Youngs Moduli (GPa) = 61.72880 143.39269 67.79051
#
# Poissons Ratio (x) = 0.27291 0.10305
# Poissons Ratio (y) = 0.11748 0.16672
# Poissons Ratio (z) = 0.09383 0.35265
#
# Static dielectric constant tensor:
#      x y z
#    x 2.225990 0.001230 -0.010310 
#    y 0.001230 2.059430 -0.132960 
#    z -0.010310 -0.132960 2.480750 
# 
# From -- ./inp_files/17426.got.cif
#   From: 2010.05.17/outbox.cif.g08.bks.cpg/sg2_9_cif.got.tgz:17426.got - 2010.06.03 11:33:40.
