data_PCOD9103810
_publ_section_title
;
Structure prediction by ZEFSAII (Michael W. Deem and Ramdas Pophale) SiO2 
 PCOD9103810
Probable space group: P -1
;
_chemical_formula_sum "Si O2"
_cell_formula_units_Z 16
_cell_length_a 9.771047
_cell_length_b 29.141099
_cell_length_c 15.403667
_cell_angle_alpha 160.541056
_cell_angle_beta 136.944050
_cell_angle_gamma 35.033741
_cell_volume 818.921699
_symmetry_space_group_name_H-M "P -1"
_symmetry_group_IT_number 2
_symmetry_cell_setting 'triclinic'
loop_
_space_group_symop_operation_xyz
x,y,z
-x,-y,-z
loop_
_atom_site_type_symbol
_atom_site_label
_atom_site_fract_x
_atom_site_fract_y
_atom_site_fract_z
Si Si1 0.886076 0.400332 0.798940
Si Si2 0.505017 0.721588 0.904599
Si Si3 0.435506 0.529870 0.379466
Si Si4 0.224605 0.060956 0.460457
Si Si5 0.000824 0.685315 0.785265
Si Si6 0.974578 0.588800 0.782340
Si Si7 0.418227 0.612766 0.079579
Si Si8 0.928013 0.025302 0.408811
O O1 0.782993 0.366876 0.605016
O O2 0.640192 0.528982 0.967267
O O3 0.063759 0.237917 0.651352
O O4 0.000000 0.500000 0.000000
O O5 0.431296 0.642211 0.654786
O O6 0.567260 0.616632 0.834952
O O7 0.756910 0.688676 0.927975
O O8 0.281527 0.910580 0.155176
O O9 0.702823 0.433828 0.287983
O O10 0.097668 0.053257 0.475218
O O11 0.500000 0.000000 0.500000
O O12 0.942816 0.604388 0.533685
O O13 0.882408 0.662842 0.775279
O O14 0.930565 0.872874 0.095446
O O15 0.188052 0.613820 0.941716
O O16 0.500000 0.500000 0.000000
O O17 0.332439 0.798410 0.396346
O O18 0.000000 0.000000 0.500000
#
# Coordination Sequence:
#
# PCOD9103810 Si02
#       8
#     2   2   2   2   2   2   2   2
#     4  12  27  43  65  92 133 175 211 270 330 385
#     4  10  22  38  69  95 127 166 217 266 315 389
#     4  10  20  42  64  94 127 172 215 259 325 386
#     4  12  26  42  63  97 131 168 223 270 320 386
#     4  10  20  38  68  96 123 168 217 266 315 385
#     4  10  21  39  66  96 127 166 214 260 325 383
#     4  12  25  43  63  96 133 172 213 269 324 388
#     4  12  23  41  68  96 128 167 219 270 320 381
#
# _framework density 19.537887999999999
#
# number of rings (size 3 to 8) (size 9 to 14) (size 15 to 20)
#    0.000    1.000    5.000    1.500    3.500    0.500 
#    0.000    0.625    2.750    0.000    0.000    0.000 
#    0.000    0.000    0.000    0.000    0.000    0.000 
#
# Total GULP energy -89251.243343 kJ/mol
# GULP energy per Si atom -5578.202709 kJ/mol
# Density = 1.949342 g / cm^3
# Si number density = 19.537888 Si / 1000 Ang^3
#
#
#
# Elastic Constant Matrix: (Units=GPa)
#
#
# Indices 1 2 3 4 5 6 
#
# 1 155.0381 32.1929 34.7532 9.2678 2.1498 -1.0120
# 2 32.1929 65.9936 36.9898 10.0585 1.3326 0.2914
# 3 34.7532 36.9898 141.3150 11.2337 -0.2862 -2.6974
# 4 9.2678 10.0585 11.2337 26.2290 0.9643 3.0788
# 5 2.1498 1.3326 -0.2862 0.9643 31.2027 0.7281
# 6 -1.0120 0.2914 -2.6974 3.0788 0.7281 28.0880
#
#
#
# Elastic Compliance Matrix: (Units=1/GPa)
#
#
# Indices 1 2 3 4 5 6 
#
# 1 0.007333 -0.002865 -0.000960 -0.001107 -0.000365 0.000333
# 2 -0.002865 0.019545 -0.004041 -0.004714 -0.000525 -0.000164
# 3 -0.000960 -0.004041 0.008542 -0.001903 0.000352 0.001027
# 4 -0.001107 -0.004714 -0.001903 0.041728 -0.000919 -0.004724
# 5 -0.000365 -0.000525 0.000352 -0.000919 0.032144 -0.000706
# 6 0.000333 -0.000164 0.001027 -0.004724 -0.000706 0.036251
#
#
# Mechanical properties :
#
#
# Convention : Reuss Voigt Hill
#
# Bulk Modulus (GPa) = 50.78947 63.35762 57.07354
# Shear Modulus (GPa) = 29.79065 34.33134 32.06100
#
# Velocity S-wave (km/s) = 3.90906 4.19641 4.05528
# Velocity P-wave (km/s) = 6.81367 7.48186 7.15557
#
# Compressibility (1/GPa) = 0.01968912
#
# Stress axis : x y z
#
# Youngs Moduli (GPa) = 136.36104 51.16341 117.07071
#
# Poissons Ratio (x) = 0.14656 0.11239
# Poissons Ratio (y) = 0.39062 0.47308
# Poissons Ratio (z) = 0.13091 0.20675
#
# Static dielectric constant tensor:
#      x y z
#    x 1.677470 0.074900 -0.026490 
#    y 0.074900 1.589800 0.041280 
#    z -0.026490 0.041280 1.697940 
# 
# From -- ./inp_files/509031.got.cif
#   From: 2010.05.17/outbox.cif.g08.bks.cpg/sg2_255_cif.got.tgz:509031.got - 2010.06.03 11:33:40.
