data_PCOD9103838
_publ_section_title
;
Structure prediction by ZEFSAII (Michael W. Deem and Ramdas Pophale) SiO2 
 PCOD9103838
Probable space group: P -1
;
_chemical_formula_sum "Si O2"
_cell_formula_units_Z 16
_cell_length_a 16.179599
_cell_length_b 9.286883
_cell_length_c 9.056545
_cell_angle_alpha 133.408779
_cell_angle_beta 88.783552
_cell_angle_gamma 118.211236
_cell_volume 766.942353
_symmetry_space_group_name_H-M "P -1"
_symmetry_group_IT_number 2
_symmetry_cell_setting 'triclinic'
loop_
_space_group_symop_operation_xyz
x,y,z
-x,-y,-z
loop_
_atom_site_type_symbol
_atom_site_label
_atom_site_fract_x
_atom_site_fract_y
_atom_site_fract_z
Si Si1 0.801011 0.520358 0.966807
Si Si2 0.381805 0.390547 0.471324
Si Si3 0.607495 0.152837 0.198335
Si Si4 0.752310 0.823613 0.392738
Si Si5 0.724196 0.185325 0.466121
Si Si6 0.088111 0.487272 0.547127
Si Si7 0.764030 0.184407 0.993557
Si Si8 0.963882 0.016294 0.675030
O O1 0.736261 0.380459 0.721730
O O2 0.773964 0.291734 0.909070
O O3 0.767869 0.664078 0.164925
O O4 0.929533 0.720307 0.078706
O O5 0.500000 0.500000 0.500000
O O6 0.369372 0.594790 0.563429
O O7 0.350566 0.346654 0.615814
O O8 0.298306 0.113883 0.208566
O O9 0.619827 0.031709 0.255912
O O10 0.694671 0.228902 0.126878
O O11 0.500000 0.000000 0.000000
O O12 0.742928 0.008114 0.426540
O O13 0.854871 0.968441 0.604047
O O14 0.818258 0.359041 0.467339
O O15 0.000000 0.500000 0.500000
O O16 0.059822 0.216557 0.392511
O O17 0.123426 0.639059 0.807563
O O18 0.000000 0.000000 0.500000
#
# Coordination Sequence:
#
# PCOD9103838 Si02
#       8
#     2   2   2   2   2   2   2   2
#     4  11  22  42  69 100 143 182 224 278 337 400
#     4  12  24  42  75  99 122 181 237 273 351 411
#     4  11  24  48  69  93 135 172 223 292 345 402
#     4  11  22  43  67 100 141 175 233 280 334 408
#     4  11  26  40  69 104 132 177 228 285 344 403
#     4  11  22  40  64 103 147 181 229 275 333 410
#     4  11  22  42  70  97 137 183 220 282 339 398
#     4  10  20  38  68  97 137 194 219 263 341 402
#
# _framework density 20.862062000000002
#
# number of rings (size 3 to 8) (size 9 to 14) (size 15 to 20)
#    0.000    1.000    6.250    2.250    0.000    5.000 
#    0.000    3.125    0.000    0.000    0.000    0.000 
#    0.000    0.000    0.000    0.000    0.000    0.000 
#
# Total GULP energy -89254.630965 kJ/mol
# GULP energy per Si atom -5578.414435 kJ/mol
# Density = 2.081458 g / cm^3
# Si number density = 20.862062 Si / 1000 Ang^3
#
#
#
# Elastic Constant Matrix: (Units=GPa)
#
#
# Indices 1 2 3 4 5 6 
#
# 1 102.4241 46.1874 33.8719 -6.2707 6.4491 -11.5130
# 2 46.1874 110.9059 14.1086 -10.4644 12.7590 -16.2098
# 3 33.8719 14.1086 91.8037 -8.6488 13.9389 -11.4961
# 4 -6.2707 -10.4644 -8.6488 37.2924 -7.4012 -4.7458
# 5 6.4491 12.7590 13.9389 -7.4012 36.7437 -4.6458
# 6 -11.5130 -16.2098 -11.4961 -4.7458 -4.6458 39.8281
#
#
#
# Elastic Compliance Matrix: (Units=1/GPa)
#
#
# Indices 1 2 3 4 5 6 
#
# 1 0.013485 -0.005078 -0.004257 0.000178 0.001143 0.000757
# 2 -0.005078 0.012114 0.001162 0.002760 -0.002718 0.003809
# 3 -0.004257 0.001162 0.013470 0.002331 -0.003924 0.002950
# 4 0.000178 0.002760 0.002331 0.029895 0.004904 0.005982
# 5 0.001143 -0.002718 -0.003924 0.004904 0.030721 0.002259
# 6 0.000757 0.003809 0.002950 0.005982 0.002259 0.028705
#
#
# Mechanical properties :
#
#
# Convention : Reuss Voigt Hill
#
# Bulk Modulus (GPa) = 44.01144 54.82995 49.42069
# Shear Modulus (GPa) = 32.82776 36.83724 34.83250
#
# Velocity S-wave (km/s) = 3.97112 4.20664 4.09058
# Velocity P-wave (km/s) = 6.49373 7.06638 6.78610
#
# Compressibility (1/GPa) = 0.02272136
#
# Stress axis : x y z
#
# Youngs Moduli (GPa) = 74.15491 82.55112 74.24087
#
# Poissons Ratio (x) = 0.41924 0.31604
# Poissons Ratio (y) = 0.37660 -0.08626
# Poissons Ratio (z) = 0.31568 -0.09591
#
# Static dielectric constant tensor:
#      x y z
#    x 1.820150 -0.030180 0.038100 
#    y -0.030180 1.734490 -0.032620 
#    z 0.038100 -0.032620 1.826040 
# 
# From -- ./inp_files/218517.got.cif
#   From: 2010.05.17/outbox.cif.g08.bks.cpg/sg2_110_cif.got.tgz:218517.got - 2010.06.03 11:33:40.
