data_PCOD9103448
_publ_section_title
;
Structure prediction by ZEFSAII (Michael W. Deem and Ramdas Pophale) SiO2 
 PCOD9103448
Probable space group: P -1
;
_chemical_formula_sum "Si O2"
_cell_formula_units_Z 13
_cell_length_a 9.765426
_cell_length_b 11.936991
_cell_length_c 7.269713
_cell_angle_alpha 57.315764
_cell_angle_beta 132.798597
_cell_angle_gamma 131.200848
_cell_volume 461.234452
_symmetry_space_group_name_H-M "P -1"
_symmetry_group_IT_number 2
_symmetry_cell_setting 'triclinic'
loop_
_space_group_symop_operation_xyz
x,y,z
-x,-y,-z
loop_
_atom_site_type_symbol
_atom_site_label
_atom_site_fract_x
_atom_site_fract_y
_atom_site_fract_z
Si Si1 0.065588 0.336452 0.422856
Si Si2 0.975480 0.025697 0.666721
Si Si3 0.597855 0.340433 0.620295
Si Si4 0.609020 0.286321 0.089167
Si Si5 0.500000 0.500000 0.000000
Si Si6 0.500348 0.969402 0.314622
Si Si7 0.855093 0.713477 0.869448
O O1 0.262797 0.500222 0.494461
O O2 0.041188 0.318588 0.191201
O O3 0.110600 0.204671 0.658409
O O4 0.848365 0.320054 0.320863
O O5 0.739008 0.002291 0.476566
O O6 0.990495 0.888679 0.904835
O O7 0.000000 0.000000 0.500000
O O8 0.640809 0.204023 0.717220
O O9 0.357013 0.295527 0.405191
O O10 0.626560 0.366328 0.840137
O O11 0.504298 0.340802 0.100399
O O12 0.476636 0.106062 0.080008
O O13 0.256380 0.407862 0.964050
O O14 0.500000 0.000000 0.500000
#
# Coordination Sequence:
#
# PCOD9103448 Si02
#       7
#     2   2   2   2   1   2   2
#     4  10  20  38  66  92 124 160 212 250 304 368
#     4   8  17  35  61  86 117 162 198 242 303 362
#     4  11  21  38  68  93 121 159 218 253 303 370
#     4  11  23  39  64  93 125 167 203 257 307 370
#     4  12  24  38  64  88 130 160 206 250 320 356
#     4  10  21  40  62  89 124 163 207 255 313 364
#     4  10  21  39  63  91 124 169 204 251 307 372
#
# _framework density 28.185231999999999
#
# number of rings (size 3 to 8) (size 9 to 14) (size 15 to 20)
#    0.000    1.846    1.538    3.231    0.000    0.000 
#    0.000    6.923    0.000    1.846    0.000    0.000 
#    0.000    0.000    0.000    0.000    0.000    0.000 
#
# Total GULP energy -72598.848696 kJ/mol
# GULP energy per Si atom -5584.526823 kJ/mol
# Density = 2.812108 g / cm^3
# Si number density = 28.185232 Si / 1000 Ang^3
#
#
#
# Elastic Constant Matrix: (Units=GPa)
#
#
# Indices 1 2 3 4 5 6 
#
# 1 192.7414 53.1348 23.6121 -7.0510 6.6641 -29.1305
# 2 53.1348 209.2652 16.7760 -30.9892 10.0130 -8.7677
# 3 23.6121 16.7760 44.7781 -9.7152 -4.4344 -2.9388
# 4 -7.0510 -30.9892 -9.7152 51.5899 4.6798 -1.1289
# 5 6.6641 10.0130 -4.4344 4.6798 45.1395 -12.3915
# 6 -29.1305 -8.7677 -2.9388 -1.1289 -12.3915 51.7458
#
#
#
# Elastic Compliance Matrix: (Units=1/GPa)
#
#
# Indices 1 2 3 4 5 6 
#
# 1 0.006354 -0.001315 -0.002728 -0.000365 0.000000 0.003191
# 2 -0.001315 0.005732 -0.000913 0.003228 -0.001534 -0.000118
# 3 -0.002728 -0.000913 0.025204 0.003577 0.002848 0.000501
# 4 -0.000365 0.003228 0.003577 0.022182 -0.002492 0.000432
# 5 0.000000 -0.001534 0.002848 -0.002492 0.024608 0.005740
# 6 0.003191 -0.000118 0.000501 0.000432 0.005740 0.022514
#
#
# Mechanical properties :
#
#
# Convention : Reuss Voigt Hill
#
# Bulk Modulus (GPa) = 36.52585 70.42562 53.47574
# Shear Modulus (GPa) = 39.79863 53.24582 46.52223
#
# Velocity S-wave (km/s) = 3.76179 4.35114 4.06715
# Velocity P-wave (km/s) = 5.64406 7.09113 6.40857
#
# Compressibility (1/GPa) = 0.02737787
#
# Stress axis : x y z
#
# Youngs Moduli (GPa) = 157.38244 174.45120 39.67624
#
# Poissons Ratio (x) = 0.22941 0.10823
# Poissons Ratio (y) = 0.20697 0.03624
# Poissons Ratio (z) = 0.42929 0.15935
#
# Static dielectric constant tensor:
#      x y z
#    x 2.113060 0.034170 -0.009400 
#    y 0.034170 2.573170 0.516950 
#    z -0.009400 0.516950 4.021350 
# 
# From -- ./inp_files/185415.got.cif
#   From: 2010.05.17/outbox.cif.g08.bks.cpg/sg2_93_cif.got.tgz:185415.got - 2010.06.03 11:33:40.
