data_PCOD9103174
_publ_section_title
;
Structure prediction by ZEFSAII (Michael W. Deem and Ramdas Pophale) SiO2 
 PCOD9103174
Probable space group: P -1
;
_chemical_formula_sum "Si O2"
_cell_formula_units_Z 16
_cell_length_a 9.316047
_cell_length_b 15.920221
_cell_length_c 22.138013
_cell_angle_alpha 17.251323
_cell_angle_beta 132.094228
_cell_angle_gamma 127.104084
_cell_volume 712.300934
_symmetry_space_group_name_H-M "P -1"
_symmetry_group_IT_number 2
_symmetry_cell_setting 'triclinic'
loop_
_space_group_symop_operation_xyz
x,y,z
-x,-y,-z
loop_
_atom_site_type_symbol
_atom_site_label
_atom_site_fract_x
_atom_site_fract_y
_atom_site_fract_z
Si Si1 0.550742 0.656982 0.251903
Si Si2 0.218564 0.495942 0.454683
Si Si3 0.556815 0.532674 0.063467
Si Si4 0.297910 0.194931 0.287492
Si Si5 0.065383 0.967774 0.471531
Si Si6 0.785083 0.578826 0.625204
Si Si7 0.150943 0.784965 0.428182
Si Si8 0.145305 0.073001 0.099420
O O1 0.665240 0.604590 0.383215
O O2 0.365293 0.492704 0.317889
O O3 0.684574 0.493054 0.349474
O O4 0.500000 0.000000 0.000000
O O5 0.313070 0.433030 0.459480
O O6 0.029466 0.339558 0.509332
O O7 0.159988 0.834660 0.215967
O O8 0.371798 0.476672 0.089291
O O9 0.743667 0.283948 0.301170
O O10 0.500000 0.500000 0.000000
O O11 0.647180 0.817810 0.906859
O O12 0.500000 0.000000 0.500000
O O13 0.141695 0.216471 0.283467
O O14 0.219982 0.014955 0.334715
O O15 0.876769 0.865526 0.459317
O O16 0.000000 0.000000 0.500000
O O17 0.973153 0.327895 0.857752
O O18 0.098549 0.935113 0.245215
#
# Coordination Sequence:
#
# PCOD9103174 Si02
#       8
#     2   2   2   2   2   2   2   2
#     4  11  24  40  60  92 128 162 203 255 316 375
#     4  11  22  40  64  91 123 168 210 252 312 369
#     4  10  20  38  65  91 125 159 211 256 299 373
#     4  10  21  39  64  92 121 162 216 250 310 373
#     4  10  23  40  63  87 123 165 205 263 319 360
#     4  11  22  39  60  90 129 160 205 261 312 367
#     4  11  21  40  68  88 124 168 207 256 307 375
#     4  10  21  37  63  95 124 167 208 253 309 375
#
# _framework density 22.462416999999999
#
# number of rings (size 3 to 8) (size 9 to 14) (size 15 to 20)
#    0.000    1.500    2.500    3.750    3.500    0.000 
#    0.000    0.625    0.000    0.000    0.000    0.000 
#    0.000    0.000    0.000    0.000    0.000    0.000 
#
# Total GULP energy -89401.730183 kJ/mol
# GULP energy per Si atom -5587.608136 kJ/mol
# Density = 2.241129 g / cm^3
# Si number density = 22.462417 Si / 1000 Ang^3
#
#
#
# Elastic Constant Matrix: (Units=GPa)
#
#
# Indices 1 2 3 4 5 6 
#
# 1 114.0012 8.2167 17.0065 -13.9483 -32.1721 1.4680
# 2 8.2167 83.9118 -9.7239 -5.1997 -4.4644 3.0714
# 3 17.0065 -9.7239 56.6824 -4.7554 -11.4581 6.2845
# 4 -13.9483 -5.1997 -4.7554 24.0739 9.1094 -6.1296
# 5 -32.1721 -4.4644 -11.4581 9.1094 31.1719 -1.1798
# 6 1.4680 3.0714 6.2845 -6.1296 -1.1798 40.0252
#
#
#
# Elastic Compliance Matrix: (Units=1/GPa)
#
#
# Indices 1 2 3 4 5 6 
#
# 1 0.012639 -0.000632 -0.001375 0.002627 0.011702 0.000548
# 2 -0.000632 0.012573 0.002957 0.002066 0.001593 -0.001043
# 3 -0.001375 0.002957 0.020195 0.000748 0.006093 -0.003053
# 4 0.002627 0.002066 0.000748 0.049548 -0.010937 0.006893
# 5 0.011702 0.001593 0.006093 -0.010937 0.049756 -0.001716
# 6 0.000548 -0.001043 -0.003053 0.006893 -0.001716 0.026529
#
#
# Mechanical properties :
#
#
# Convention : Reuss Voigt Hill
#
# Bulk Modulus (GPa) = 21.13852 31.73267 26.43559
# Shear Modulus (GPa) = 27.01112 34.99395 31.00253
#
# Velocity S-wave (km/s) = 3.47147 3.95129 3.71913
# Velocity P-wave (km/s) = 5.04968 5.91393 5.49881
#
# Compressibility (1/GPa) = 0.04730701
#
# Stress axis : x y z
#
# Youngs Moduli (GPa) = 79.11869 79.53734 49.51695
#
# Poissons Ratio (x) = 0.05025 0.06811
# Poissons Ratio (y) = 0.04998 -0.14643
# Poissons Ratio (z) = 0.10883 -0.23521
#
# Static dielectric constant tensor:
#      x y z
#    x 1.816130 0.057320 -0.061390 
#    y 0.057320 1.737260 0.105120 
#    z -0.061390 0.105120 1.689900 
# 
# From -- ./inp_files/590431.got.cif
#   From: 2010.05.17/outbox.cif.g08.bks.cpg/sg2_296_cif.got.tgz:590431.got - 2010.06.03 11:33:40.
