data_PCOD9103692
_publ_section_title
;
Structure prediction by ZEFSAII (Michael W. Deem and Ramdas Pophale) SiO2 
 PCOD9103692
Probable space group: P -1
;
_chemical_formula_sum "Si O2"
_cell_formula_units_Z 16
_cell_length_a 24.057168
_cell_length_b 9.559333
_cell_length_c 5.203666
_cell_angle_alpha 80.965167
_cell_angle_beta 58.073327
_cell_angle_gamma 55.325856
_cell_volume 817.356236
_symmetry_space_group_name_H-M "P -1"
_symmetry_group_IT_number 2
_symmetry_cell_setting 'triclinic'
loop_
_space_group_symop_operation_xyz
x,y,z
-x,-y,-z
loop_
_atom_site_type_symbol
_atom_site_label
_atom_site_fract_x
_atom_site_fract_y
_atom_site_fract_z
Si Si1 0.809195 0.215378 0.488843
Si Si2 0.407581 0.574223 0.191228
Si Si3 0.214660 0.187225 0.914023
Si Si4 0.941048 0.190220 0.474327
Si Si5 0.267195 0.966625 0.368540
Si Si6 0.333072 0.542677 0.902525
Si Si7 0.219382 0.510615 0.918492
Si Si8 0.029095 0.377602 0.211669
O O1 0.896723 0.163813 0.356837
O O2 0.770729 0.387996 0.362639
O O3 0.799326 0.076040 0.422366
O O4 0.750892 0.273217 0.864316
O O5 0.376442 0.557104 0.547634
O O6 0.351547 0.778665 0.197190
O O7 0.500000 0.500000 0.000000
O O8 0.389266 0.486720 0.029966
O O9 0.268150 0.063943 0.586094
O O10 0.214269 0.357243 0.883560
O O11 0.243091 0.084723 0.142286
O O12 0.124492 0.252185 0.047097
O O13 0.991704 0.269176 0.294683
O O14 0.864344 0.339202 0.786009
O O15 0.000000 0.000000 0.500000
O O16 0.295539 0.439404 0.940249
O O17 0.000000 0.500000 0.500000
O O18 0.000000 0.500000 0.000000
#
# Coordination Sequence:
#
# PCOD9103692 Si02
#       8
#     2   2   2   2   2   2   2   2
#     4  10  22  41  65  88 129 167 226 266 321 377
#     4  11  22  41  71 105 134 160 205 269 327 382
#     4  12  26  41  66  91 134 174 219 270 323 387
#     4  11  25  39  62  93 126 169 228 282 329 377
#     4  11  24  42  66  98 124 166 221 264 318 391
#     4  10  20  38  67  97 124 167 214 250 308 393
#     4  11  23  42  64  91 128 178 217 263 327 385
#     4  12  25  45  61  89 132 173 221 270 337 379
#
# _framework density 19.575309000000001
#
# number of rings (size 3 to 8) (size 9 to 14) (size 15 to 20)
#    0.000    1.000    3.750    4.125    7.000    0.500 
#    0.000    0.000    0.000    4.500    0.000    0.000 
#    0.000    0.000    0.000    0.000    0.000    0.000 
#
# Total GULP energy -89310.222444 kJ/mol
# GULP energy per Si atom -5581.888903 kJ/mol
# Density = 1.953075 g / cm^3
# Si number density = 19.575309 Si / 1000 Ang^3
#
#
#
# Elastic Constant Matrix: (Units=GPa)
#
#
# Indices 1 2 3 4 5 6 
#
# 1 152.5472 53.9912 47.5888 -2.6484 -8.0922 7.9596
# 2 53.9912 109.7966 40.8224 -11.5450 5.5934 18.8478
# 3 47.5888 40.8224 82.3937 -14.9422 1.1279 1.4842
# 4 -2.6484 -11.5450 -14.9422 27.1605 -9.0777 0.7335
# 5 -8.0922 5.5934 1.1279 -9.0777 32.4587 -2.0287
# 6 7.9596 18.8478 1.4842 0.7335 -2.0287 33.4013
#
#
#
# Elastic Compliance Matrix: (Units=1/GPa)
#
#
# Indices 1 2 3 4 5 6 
#
# 1 0.009060 -0.003317 -0.003968 -0.001895 0.002443 0.000079
# 2 -0.003317 0.014009 -0.004414 0.002443 -0.002851 -0.007145
# 3 -0.003968 -0.004414 0.018018 0.008106 0.001572 0.002553
# 4 -0.001895 0.002443 0.008106 0.046053 0.011605 -0.001594
# 5 0.002443 -0.002851 0.001572 0.011605 0.035278 0.002845
# 6 0.000079 -0.007145 0.002553 -0.001594 0.002845 0.034046
#
#
# Mechanical properties :
#
#
# Convention : Reuss Voigt Hill
#
# Bulk Modulus (GPa) = 56.53356 69.94913 63.24134
# Shear Modulus (GPa) = 26.91689 32.09310 29.50499
#
# Velocity S-wave (km/s) = 3.71218 4.05343 3.88655
# Velocity P-wave (km/s) = 6.87869 7.59723 7.24687
#
# Compressibility (1/GPa) = 0.01768861
#
# Stress axis : x y z
#
# Youngs Moduli (GPa) = 110.37845 71.38443 55.50010
#
# Poissons Ratio (x) = 0.23679 0.22021
# Poissons Ratio (y) = 0.36614 0.24498
# Poissons Ratio (z) = 0.43796 0.31509
#
# Static dielectric constant tensor:
#      x y z
#    x 1.608640 -0.085670 0.027190 
#    y -0.085670 1.584510 -0.006320 
#    z 0.027190 -0.006320 1.745170 
# 
# From -- ./inp_files/47001.got.cif
#   From: 2010.05.17/outbox.cif.g08.bks.cpg/sg2_24_cif.got.tgz:47001.got - 2010.06.03 11:33:40.
