data_PCOD9103814
_publ_section_title
;
Structure prediction by ZEFSAII (Michael W. Deem and Ramdas Pophale) SiO2 
 PCOD9103814
Probable space group: P -1
;
_chemical_formula_sum "Si O2"
_cell_formula_units_Z 16
_cell_length_a 7.939384
_cell_length_b 22.609852
_cell_length_c 10.175975
_cell_angle_alpha 148.743762
_cell_angle_beta 60.614559
_cell_angle_gamma 131.544845
_cell_volume 695.554147
_symmetry_space_group_name_H-M "P -1"
_symmetry_group_IT_number 2
_symmetry_cell_setting 'triclinic'
loop_
_space_group_symop_operation_xyz
x,y,z
-x,-y,-z
loop_
_atom_site_type_symbol
_atom_site_label
_atom_site_fract_x
_atom_site_fract_y
_atom_site_fract_z
Si Si1 0.562763 0.984647 0.745945
Si Si2 0.828246 0.839034 0.977142
Si Si3 0.198323 0.118403 0.365067
Si Si4 0.683048 0.477572 0.207652
Si Si5 0.358824 0.585455 0.606961
Si Si6 0.103897 0.734163 0.518867
Si Si7 0.704882 0.811732 0.257276
Si Si8 0.628440 0.262118 0.328843
O O1 0.669615 0.957478 0.784637
O O2 0.295444 0.864725 0.614245
O O3 0.679657 0.941474 0.509589
O O4 0.611833 0.132419 0.021408
O O5 0.848511 0.825112 0.100013
O O6 0.561402 0.739106 0.860882
O O7 0.947959 0.995464 0.189901
O O8 0.956206 0.780229 0.741122
O O9 0.196794 0.185071 0.630082
O O10 0.366851 0.220152 0.383712
O O11 0.486457 0.511866 0.367700
O O12 0.760372 0.478055 0.329921
O O13 0.904396 0.593034 0.264177
O O14 0.545276 0.326453 0.916923
O O15 0.247149 0.611470 0.575786
O O16 0.246340 0.708771 0.524379
#
# Coordination Sequence:
#
# PCOD9103814 Si02
#       8
#     2   2   2   2   2   2   2   2
#     4   9  18  32  52  84 102 132 160 221 264 303
#     4  10  16  33  52  81  98 139 175 204 255 308
#     4   9  17  30  53  78 104 131 168 210 258 309
#     4   9  19  38  48  75 102 144 183 194 253 315
#     4   9  21  33  55  73 108 138 169 224 246 299
#     4  10  17  32  60  73 103 137 177 212 243 314
#     4   9  19  31  55  76 106 140 168 210 254 312
#     4  11  18  34  52  84 105 128 173 221 265 293
#
# _framework density 23.003243000000001
#
# number of rings (size 3 to 8) (size 9 to 14) (size 15 to 20)
#    0.750    1.750    2.500    1.875    0.000    1.500 
#    0.000    3.125    0.000    1.500    0.000    0.000 
#    0.000    0.000    0.000    0.000    0.000    0.000 
#
# Total GULP energy -89182.862651 kJ/mol
# GULP energy per Si atom -5573.928916 kJ/mol
# Density = 2.295089 g / cm^3
# Si number density = 23.003243 Si / 1000 Ang^3
#
#
#
# Elastic Constant Matrix: (Units=GPa)
#
#
# Indices 1 2 3 4 5 6 
#
# 1 25.1528 7.8218 8.3861 11.1755 0.9986 -5.1892
# 2 7.8218 50.9896 1.3872 13.4473 -1.5656 2.8097
# 3 8.3861 1.3872 66.2699 -1.0480 9.3299 0.4694
# 4 11.1755 13.4473 -1.0480 28.6379 6.6980 5.9294
# 5 0.9986 -1.5656 9.3299 6.6980 20.8725 14.0143
# 6 -5.1892 2.8097 0.4694 5.9294 14.0143 35.8735
#
#
#
# Elastic Compliance Matrix: (Units=1/GPa)
#
#
# Indices 1 2 3 4 5 6 
#
# 1 0.056065 -0.002981 -0.007414 -0.023212 -0.000524 0.012482
# 2 -0.002981 0.023541 -0.001495 -0.011198 0.008732 -0.003816
# 3 -0.007414 -0.001495 0.017716 0.006415 -0.011151 0.002109
# 4 -0.023212 -0.011198 0.006415 0.054413 -0.016670 -0.005046
# 5 -0.000524 0.008732 -0.011151 -0.016670 0.077925 -0.028301
# 6 0.012482 -0.003816 0.002109 -0.005046 -0.028301 0.041842
#
#
# Mechanical properties :
#
#
# Convention : Reuss Voigt Hill
#
# Bulk Modulus (GPa) = 13.59768 19.73363 16.66565
# Shear Modulus (GPa) = 15.63491 25.39793 20.51642
#
# Velocity S-wave (km/s) = 2.60990 3.32641 2.98970
# Velocity P-wave (km/s) = 3.87378 4.83224 4.37931
#
# Compressibility (1/GPa) = 0.07354196
#
# Stress axis : x y z
#
# Youngs Moduli (GPa) = 17.83648 42.47848 56.44717
#
# Poissons Ratio (x) = 0.12662 0.41850
# Poissons Ratio (y) = 0.05317 0.08439
# Poissons Ratio (z) = 0.13224 0.06351
#
# Static dielectric constant tensor:
#      x y z
#    x 1.933120 0.007660 0.036020 
#    y 0.007660 1.930620 0.022230 
#    z 0.036020 0.022230 1.876100 
# 
# From -- ./inp_files/319811.got.cif
#   From: 2010.05.17/outbox.cif.g08.bks.cpg/sg2_160_cif.got.tgz:319811.got - 2010.06.03 11:33:40.
