data_PCOD9103167
_publ_section_title
;
Structure prediction by ZEFSAII (Michael W. Deem and Ramdas Pophale) SiO2 
 PCOD9103167
Probable space group: P -1
;
_chemical_formula_sum "Si O2"
_cell_formula_units_Z 16
_cell_length_a 10.978972
_cell_length_b 16.346923
_cell_length_c 9.233492
_cell_angle_alpha 48.506964
_cell_angle_beta 104.881561
_cell_angle_gamma 67.697248
_cell_volume 780.680514
_symmetry_space_group_name_H-M "P -1"
_symmetry_group_IT_number 2
_symmetry_cell_setting 'triclinic'
loop_
_space_group_symop_operation_xyz
x,y,z
-x,-y,-z
loop_
_atom_site_type_symbol
_atom_site_label
_atom_site_fract_x
_atom_site_fract_y
_atom_site_fract_z
Si Si1 0.232302 0.650666 0.495567
Si Si2 0.195736 0.051872 0.045628
Si Si3 0.876231 0.698876 0.085922
Si Si4 0.587325 0.806143 0.105432
Si Si5 0.749587 0.834551 0.357961
Si Si6 0.326056 0.470353 0.471457
Si Si7 0.496812 0.658977 0.633273
Si Si8 0.171456 0.488356 0.875321
O O1 0.327989 0.570118 0.462789
O O2 0.367008 0.637316 0.650896
O O3 0.193035 0.557125 0.663924
O O4 0.024885 0.839793 0.175064
O O5 0.344321 0.856560 0.331601
O O6 0.202531 0.126830 0.102229
O O7 0.233639 0.097387 0.857617
O O8 0.776454 0.704071 0.186436
O O9 0.827829 0.640464 0.016233
O O10 0.105129 0.569546 0.295981
O O11 0.648879 0.795927 0.300444
O O12 0.538633 0.711844 0.202304
O O13 0.405021 0.002678 0.778421
O O14 0.962277 0.660093 0.677261
O O15 0.386611 0.443926 0.356913
O O16 0.651649 0.596650 0.869716
#
# Coordination Sequence:
#
# PCOD9103167 Si02
#       8
#     2   2   2   2   2   2   2   2
#     4  10  22  41  63  80 110 161 201 227 269 344
#     4   9  20  36  61  85 112 149 195 242 273 334
#     4  10  20  35  59  89 113 149 188 234 296 336
#     4  10  16  32  60  84 111 142 202 228 270 343
#     4   9  18  32  57  87 110 150 188 233 279 341
#     4  11  20  36  62  87 110 147 196 247 273 329
#     4  12  24  38  56  89 121 151 187 236 292 333
#     4  11  22  38  60  85 122 149 184 237 292 351
#
# _framework density 20.49494
#
# number of rings (size 3 to 8) (size 9 to 14) (size 15 to 20)
#    0.000    1.750    3.750    2.250    0.000    1.000 
#    0.000    2.500    0.000    0.750    0.000    0.000 
#    0.000    0.000    0.000    0.000    0.000    0.000 
#
# Total GULP energy -89108.918142 kJ/mol
# GULP energy per Si atom -5569.307384 kJ/mol
# Density = 2.044829 g / cm^3
# Si number density = 20.494940 Si / 1000 Ang^3
#
#
#
# Elastic Constant Matrix: (Units=GPa)
#
#
# Indices 1 2 3 4 5 6 
#
# 1 57.1184 31.4672 20.5434 -0.6021 23.7152 8.0707
# 2 31.4672 78.2304 42.0820 -6.5098 21.0675 3.9802
# 3 20.5434 42.0820 84.8396 0.5895 31.4359 4.1499
# 4 -0.6021 -6.5098 0.5895 24.2212 2.7238 13.0770
# 5 23.7152 21.0675 31.4359 2.7238 27.6858 7.1289
# 6 8.0707 3.9802 4.1499 13.0770 7.1289 31.3516
#
#
#
# Elastic Compliance Matrix: (Units=1/GPa)
#
#
# Indices 1 2 3 4 5 6 
#
# 1 0.031995 -0.008677 0.007289 0.003050 -0.028644 -0.002859
# 2 -0.008677 0.021453 -0.008899 0.006979 0.001167 -0.002488
# 3 0.007289 -0.008899 0.024754 -0.001203 -0.028205 0.002892
# 4 0.003050 0.006979 -0.001203 0.056816 -0.006008 -0.023844
# 5 -0.028644 0.001167 -0.028205 -0.006008 0.094446 -0.008011
# 6 -0.002859 -0.002488 0.002892 -0.023844 -0.008011 0.044333
#
#
# Mechanical properties :
#
#
# Convention : Reuss Voigt Hill
#
# Bulk Modulus (GPa) = 17.35306 45.37484 31.36395
# Shear Modulus (GPa) = 15.94478 25.05811 20.50144
#
# Velocity S-wave (km/s) = 2.79227 3.50043 3.16621
# Velocity P-wave (km/s) = 4.34523 6.20685 5.35752
#
# Compressibility (1/GPa) = 0.05762672
#
# Stress axis : x y z
#
# Youngs Moduli (GPa) = 31.25461 46.61266 40.39777
#
# Poissons Ratio (x) = 0.40448 -0.29445
# Poissons Ratio (y) = 0.27121 0.35951
# Poissons Ratio (z) = -0.22781 0.41481
#
# Static dielectric constant tensor:
#      x y z
#    x 1.788570 0.002800 0.004900 
#    y 0.002800 1.785940 -0.017900 
#    z 0.004900 -0.017900 1.721110 
# 
# From -- ./inp_files/187881.got.cif
#   From: 2010.05.17/outbox.cif.g08.bks.cpg/sg2_94_cif.got.tgz:187881.got - 2010.06.03 11:33:40.
