data_PCOD9103071
_publ_section_title
;
Structure prediction by ZEFSAII (Michael W. Deem and Ramdas Pophale) SiO2 
 PCOD9103071
Probable space group: P -1
;
_chemical_formula_sum "Si O2"
_cell_formula_units_Z 16
_cell_length_a 16.001344
_cell_length_b 5.597546
_cell_length_c 9.757457
_cell_angle_alpha 73.903119
_cell_angle_beta 71.154955
_cell_angle_gamma 121.270007
_cell_volume 590.410649
_symmetry_space_group_name_H-M "P -1"
_symmetry_group_IT_number 2
_symmetry_cell_setting 'triclinic'
loop_
_space_group_symop_operation_xyz
x,y,z
-x,-y,-z
loop_
_atom_site_type_symbol
_atom_site_label
_atom_site_fract_x
_atom_site_fract_y
_atom_site_fract_z
Si Si1 0.962885 0.521938 0.223634
Si Si2 0.815479 0.330180 0.849676
Si Si3 0.232909 0.521515 0.770196
Si Si4 0.069494 0.310325 0.518528
Si Si5 0.624825 0.378932 0.846987
Si Si6 0.458202 0.205608 0.465381
Si Si7 0.360133 0.408355 0.915479
Si Si8 0.756065 0.744944 0.459484
O O1 0.897990 0.602386 0.146824
O O2 0.002049 0.758730 0.296311
O O3 0.071377 0.536159 0.134710
O O4 0.856607 0.133807 0.382752
O O5 0.874774 0.381197 0.660550
O O6 0.739983 0.431490 0.826345
O O7 0.714816 0.970451 0.024433
O O8 0.283674 0.503921 0.887384
O O9 0.254487 0.326317 0.686187
O O10 0.318968 0.906928 0.611905
O O11 0.181905 0.397594 0.514066
O O12 0.000000 0.000000 0.500000
O O13 0.645949 0.523886 0.659034
O O14 0.625981 0.586777 0.930803
O O15 0.500000 0.000000 0.000000
O O16 0.500000 0.500000 0.500000
O O17 0.514390 0.354458 0.263909
O O18 0.500000 0.000000 0.500000
#
# Coordination Sequence:
#
# PCOD9103071 Si02
#       8
#     2   2   2   2   2   2   2   2
#     4  11  23  39  70 102 141 193 247 290 363 443
#     4  11  25  39  70 102 139 190 232 298 375 430
#     4  10  25  44  71 106 143 194 248 300 359 451
#     4  10  20  38  64  98 138 186 247 291 353 437
#     4  11  26  45  70 105 145 178 239 310 376 432
#     4  10  24  45  75 102 140 195 253 300 361 444
#     4  11  26  45  72 104 149 188 237 303 381 438
#     4  10  22  41  70 102 142 185 250 295 360 443
#
# _framework density 27.099779999999999
#
# number of rings (size 3 to 8) (size 9 to 14) (size 15 to 20)
#    0.000    1.500    1.250    1.875   10.500    2.000 
#    0.000    1.250    0.000    0.000    0.000    0.000 
#    0.000    0.000    0.000    0.000    0.000    0.000 
#
# Total GULP energy -89156.125404 kJ/mol
# GULP energy per Si atom -5572.257838 kJ/mol
# Density = 2.703810 g / cm^3
# Si number density = 27.099780 Si / 1000 Ang^3
#
#
#
# Elastic Constant Matrix: (Units=GPa)
#
#
# Indices 1 2 3 4 5 6 
#
# 1 149.3921 -4.6935 -0.8959 16.0953 -31.9267 -0.0404
# 2 -4.6935 110.6492 30.2258 13.3392 1.4644 9.0102
# 3 -0.8959 30.2258 84.0442 0.5655 18.0996 9.3364
# 4 16.0953 13.3392 0.5655 52.8946 7.4741 6.4903
# 5 -31.9267 1.4644 18.0996 7.4741 32.8197 -0.2538
# 6 -0.0404 9.0102 9.3364 6.4903 -0.2538 23.6329
#
#
#
# Elastic Compliance Matrix: (Units=1/GPa)
#
#
# Indices 1 2 3 4 5 6 
#
# 1 0.010110 0.001700 -0.003539 -0.005605 0.013006 0.002446
# 2 0.001700 0.010888 -0.004732 -0.003716 0.004614 -0.001209
# 3 -0.003539 -0.004732 0.017244 0.004846 -0.013895 -0.006494
# 4 -0.005605 -0.003716 0.004846 0.024311 -0.013552 -0.007329
# 5 0.013006 0.004614 -0.013895 -0.013552 0.053727 0.008051
# 6 0.002446 -0.001209 -0.006494 -0.007329 0.008051 0.047444
#
#
# Mechanical properties :
#
#
# Convention : Reuss Voigt Hill
#
# Bulk Modulus (GPa) = 39.84051 43.70649 41.77350
# Shear Modulus (GPa) = 26.99335 43.16604 35.07969
#
# Velocity S-wave (km/s) = 3.15949 3.99539 3.60177
# Velocity P-wave (km/s) = 5.29558 6.11941 5.72234
#
# Compressibility (1/GPa) = 0.02510008
#
# Stress axis : x y z
#
# Youngs Moduli (GPa) = 98.91154 91.84731 57.99202
#
# Poissons Ratio (x) = -0.15613 0.20521
# Poissons Ratio (y) = -0.16814 0.27442
# Poissons Ratio (z) = 0.35000 0.43462
#
# Static dielectric constant tensor:
#      x y z
#    x 2.311160 -0.035260 -0.094860 
#    y -0.035260 2.281360 0.085330 
#    z -0.094860 0.085330 2.154670 
# 
# From -- ./inp_files/468369.got.cif
#   From: 2010.05.17/outbox.cif.g08.bks.cpg/sg2_235_cif.got.tgz:468369.got - 2010.06.03 11:33:40.
