data_PCOD9103140
_publ_section_title
;
Structure prediction by ZEFSAII (Michael W. Deem and Ramdas Pophale) SiO2 
 PCOD9103140
Probable space group: P -1
;
_chemical_formula_sum "Si O2"
_cell_formula_units_Z 16
_cell_length_a 9.564048
_cell_length_b 15.408570
_cell_length_c 8.650650
_cell_angle_alpha 89.545710
_cell_angle_beta 97.452152
_cell_angle_gamma 39.026594
_cell_volume 783.804765
_symmetry_space_group_name_H-M "P -1"
_symmetry_group_IT_number 2
_symmetry_cell_setting 'triclinic'
loop_
_space_group_symop_operation_xyz
x,y,z
-x,-y,-z
loop_
_atom_site_type_symbol
_atom_site_label
_atom_site_fract_x
_atom_site_fract_y
_atom_site_fract_z
Si Si1 0.247547 0.639854 0.116386
Si Si2 0.968210 0.627271 0.113207
Si Si3 0.799080 0.155138 0.032321
Si Si4 0.251984 0.586543 0.755448
Si Si5 0.212231 0.407562 0.647380
Si Si6 0.953110 0.149268 0.390796
Si Si7 0.366440 0.297356 0.129565
Si Si8 0.627648 0.171456 0.489795
O O1 0.044646 0.686557 0.167824
O O2 0.488410 0.506609 0.233620
O O3 0.230902 0.750217 0.089049
O O4 0.234871 0.608688 0.938471
O O5 0.199101 0.461329 0.114570
O O6 0.840849 0.635484 0.226411
O O7 0.798014 0.701631 0.943146
O O8 0.874853 0.154441 0.210061
O O9 0.562750 0.221243 0.033305
O O10 0.000000 0.000000 0.000000
O O11 0.219886 0.502057 0.710418
O O12 0.087516 0.728511 0.631601
O O13 0.447833 0.273334 0.597576
O O14 0.000000 0.500000 0.500000
O O15 0.787345 0.179208 0.486151
O O16 0.203627 0.990869 0.457439
O O17 0.486105 0.226664 0.311335
#
# Coordination Sequence:
#
# PCOD9103140 Si02
#       8
#     2   2   2   2   2   2   2   2
#     4  10  20  38  66  94 124 162 216 263 308 365
#     4  11  21  38  65  92 123 165 211 256 312 373
#     4  10  21  37  63  96 124 163 215 264 311 370
#     4  10  21  40  66  95 123 166 215 265 305 372
#     4  12  25  39  64  98 132 164 208 261 316 374
#     4   9  21  40  65  87 127 168 212 258 319 373
#     4  10  20  38  65  89 125 170 205 254 319 379
#     4  10  21  41  62  95 127 169 208 257 320 375
#
# _framework density 20.413247999999999
#
# number of rings (size 3 to 8) (size 9 to 14) (size 15 to 20)
#    0.000    1.750    1.250    5.250    3.500    0.500 
#    0.000    1.250    2.750    0.000    0.000    0.000 
#    0.000    0.000    0.000    0.000    0.000    0.000 
#
# Total GULP energy -89390.939182 kJ/mol
# GULP energy per Si atom -5586.933699 kJ/mol
# Density = 2.036679 g / cm^3
# Si number density = 20.413248 Si / 1000 Ang^3
#
#
#
# Elastic Constant Matrix: (Units=GPa)
#
#
# Indices 1 2 3 4 5 6 
#
# 1 110.8940 54.5204 28.2652 1.2297 -8.2856 -5.8061
# 2 54.5204 122.8872 33.7881 -10.0046 -19.1358 -17.4687
# 3 28.2652 33.7881 47.0484 -17.3067 1.5951 -2.0013
# 4 1.2297 -10.0046 -17.3067 33.9418 -7.7862 -5.1968
# 5 -8.2856 -19.1358 1.5951 -7.7862 32.4629 -1.3722
# 6 -5.8061 -17.4687 -2.0013 -5.1968 -1.3722 29.0994
#
#
#
# Elastic Compliance Matrix: (Units=1/GPa)
#
#
# Indices 1 2 3 4 5 6 
#
# 1 0.012925 -0.004753 -0.006451 -0.005561 -0.000593 -0.001739
# 2 -0.004753 0.015115 -0.006049 0.005138 0.009610 0.009080
# 3 -0.006451 -0.006049 0.035405 0.015810 -0.003152 0.000191
# 4 -0.005561 0.005138 0.015810 0.043694 0.011795 0.011421
# 5 -0.000593 0.009610 -0.003152 0.011795 0.039700 0.009412
# 6 -0.001739 0.009080 0.000191 0.011421 0.009412 0.041966
#
#
# Mechanical properties :
#
#
# Convention : Reuss Voigt Hill
#
# Bulk Modulus (GPa) = 34.55556 57.10857 45.83207
# Shear Modulus (GPa) = 21.46325 30.05120 25.75722
#
# Velocity S-wave (km/s) = 3.24611 3.84101 3.55602
# Velocity P-wave (km/s) = 5.56905 6.90711 6.27385
#
# Compressibility (1/GPa) = 0.02893890
#
# Stress axis : x y z
#
# Youngs Moduli (GPa) = 77.36997 66.15981 28.24449
#
# Poissons Ratio (x) = 0.31445 0.18221
# Poissons Ratio (y) = 0.36773 0.17086
# Poissons Ratio (z) = 0.49911 0.40021
#
# Static dielectric constant tensor:
#      x y z
#    x 1.747740 0.001990 -0.006050 
#    y 0.001990 1.730530 0.013410 
#    z -0.006050 0.013410 1.780810 
# 
# From -- ./inp_files/207385.got.cif
#   From: 2010.05.17/outbox.cif.g08.bks.cpg/sg2_104_cif.got.tgz:207385.got - 2010.06.03 11:33:40.
