data_PCOD9103130
_publ_section_title
;
Structure prediction by ZEFSAII (Michael W. Deem and Ramdas Pophale) SiO2 
 PCOD9103130
Probable space group: P -1
;
_chemical_formula_sum "Si O2"
_cell_formula_units_Z 16
_cell_length_a 15.513131
_cell_length_b 9.158727
_cell_length_c 16.475142
_cell_angle_alpha 139.580029
_cell_angle_beta 138.811570
_cell_angle_gamma 36.038396
_cell_volume 833.412828
_symmetry_space_group_name_H-M "P -1"
_symmetry_group_IT_number 2
_symmetry_cell_setting 'triclinic'
loop_
_space_group_symop_operation_xyz
x,y,z
-x,-y,-z
loop_
_atom_site_type_symbol
_atom_site_label
_atom_site_fract_x
_atom_site_fract_y
_atom_site_fract_z
Si Si1 0.625323 0.653749 0.079814
Si Si2 0.380155 0.902899 0.633559
Si Si3 0.337187 0.221266 0.581871
Si Si4 0.694859 0.297743 0.140390
Si Si5 0.027298 0.739339 0.131472
Si Si6 0.707830 0.854091 0.657848
Si Si7 0.733162 0.464435 0.638416
Si Si8 0.846588 0.208956 0.928249
O O1 0.675537 0.445457 0.102934
O O2 0.631600 0.902928 0.221539
O O3 0.449572 0.738941 0.970015
O O4 0.743089 0.490468 0.021245
O O5 0.565017 0.688432 0.654750
O O6 0.300420 0.736659 0.517757
O O7 0.303306 0.089010 0.577407
O O8 0.314932 0.496932 0.712537
O O9 0.250176 0.247835 0.447950
O O10 0.521278 0.008069 0.603916
O O11 0.859851 0.017052 0.141133
O O12 0.139704 0.679123 0.261855
O O13 0.106050 0.757096 0.112873
O O14 0.000000 0.500000 0.000000
O O15 0.781301 0.614870 0.673929
O O16 0.749209 0.071153 0.795972
O O17 0.000000 0.000000 0.000000
#
# Coordination Sequence:
#
# PCOD9103130 Si02
#       8
#     2   2   2   2   2   2   2   2
#     4  10  20  39  67  92 118 157 209 256 290 359
#     4   9  19  38  63  89 123 164 200 244 304 365
#     4   9  18  37  65  91 112 155 213 253 286 354
#     4  10  20  39  64  91 121 158 206 250 305 354
#     4  12  25  41  60  90 129 164 195 250 318 365
#     4  10  20  38  65  89 118 156 204 256 297 351
#     4  10  21  39  60  89 128 164 196 243 317 366
#     4  12  23  40  62  94 121 156 208 250 302 359
#
# _framework density 19.198167999999999
#
# number of rings (size 3 to 8) (size 9 to 14) (size 15 to 20)
#    0.000    1.750    2.500    2.250    1.750    1.000 
#    4.500    3.750    0.000    0.000    0.000    0.000 
#    0.000    0.000    0.000    0.000    0.000    0.000 
#
# Total GULP energy -89376.167362 kJ/mol
# GULP energy per Si atom -5586.010460 kJ/mol
# Density = 1.915447 g / cm^3
# Si number density = 19.198168 Si / 1000 Ang^3
#
#
#
# Elastic Constant Matrix: (Units=GPa)
#
#
# Indices 1 2 3 4 5 6 
#
# 1 45.1236 30.0258 12.8275 9.7496 -9.7785 -0.4178
# 2 30.0258 102.5585 49.8716 7.1931 -12.8331 -7.8243
# 3 12.8275 49.8716 93.6009 20.6131 -15.1697 -4.7292
# 4 9.7496 7.1931 20.6131 35.1706 0.6495 2.5025
# 5 -9.7785 -12.8331 -15.1697 0.6495 28.3829 9.5029
# 6 -0.4178 -7.8243 -4.7292 2.5025 9.5029 21.4895
#
#
#
# Elastic Compliance Matrix: (Units=1/GPa)
#
#
# Indices 1 2 3 4 5 6 
#
# 1 0.031790 -0.009877 0.004415 -0.009170 0.010998 -0.005802
# 2 -0.009877 0.016557 -0.008459 0.004034 -0.002000 0.004389
# 3 0.004415 -0.008459 0.018047 -0.010120 0.008042 -0.001400
# 4 -0.009170 0.004034 -0.010120 0.036360 -0.006861 -0.002137
# 5 0.010998 -0.002000 0.008042 -0.006861 0.049164 -0.019686
# 6 -0.005802 0.004389 -0.001400 -0.002137 -0.019686 0.056666
#
#
# Mechanical properties :
#
#
# Convention : Reuss Voigt Hill
#
# Bulk Modulus (GPa) = 25.93938 47.41476 36.67707
# Shear Modulus (GPa) = 20.05804 26.91247 23.48525
#
# Velocity S-wave (km/s) = 3.23583 3.74816 3.50138
# Velocity P-wave (km/s) = 5.24419 6.59414 5.95753
#
# Compressibility (1/GPa) = 0.03855142
#
# Stress axis : x y z
#
# Youngs Moduli (GPa) = 31.45678 60.39604 55.41098
#
# Poissons Ratio (x) = 0.59654 -0.24463
# Poissons Ratio (y) = 0.31070 0.46872
# Poissons Ratio (z) = -0.13888 0.51089
#
# Static dielectric constant tensor:
#      x y z
#    x 1.671680 0.012220 0.003220 
#    y 0.012220 1.654960 -0.003560 
#    z 0.003220 -0.003560 1.660390 
# 
# From -- ./inp_files/273476.got.cif
#   From: 2010.05.17/outbox.cif.g08.bks.cpg/sg2_137_cif.got.tgz:273476.got - 2010.06.03 11:33:40.
