data_PCOD9103178
_publ_section_title
;
Structure prediction by ZEFSAII (Michael W. Deem and Ramdas Pophale) SiO2 
 PCOD9103178
Probable space group: P -1
;
_chemical_formula_sum "Si O2"
_cell_formula_units_Z 14
_cell_length_a 13.021515
_cell_length_b 16.408242
_cell_length_c 23.548111
_cell_angle_alpha 155.381607
_cell_angle_beta 160.598026
_cell_angle_gamma 32.662305
_cell_volume 691.800737
_symmetry_space_group_name_H-M "P -1"
_symmetry_group_IT_number 2
_symmetry_cell_setting 'triclinic'
loop_
_space_group_symop_operation_xyz
x,y,z
-x,-y,-z
loop_
_atom_site_type_symbol
_atom_site_label
_atom_site_fract_x
_atom_site_fract_y
_atom_site_fract_z
Si Si1 0.136268 0.458379 0.283132
Si Si2 0.268422 0.725467 0.131840
Si Si3 0.146638 0.156964 0.631988
Si Si4 0.280248 0.615490 0.874623
Si Si5 0.898510 0.920115 0.576471
Si Si6 0.886911 0.450630 0.473949
Si Si7 0.851557 0.655230 0.981745
O O1 0.500000 0.500000 0.500000
O O2 0.021239 0.652732 0.320411
O O3 0.987421 0.449216 0.261268
O O4 0.976821 0.275460 0.047926
O O5 0.492518 0.555008 0.125838
O O6 0.527375 0.912481 0.391293
O O7 0.056757 0.675550 0.044392
O O8 0.096079 0.112123 0.510041
O O9 0.504026 0.211126 0.871947
O O10 0.000000 0.000000 0.500000
O O11 0.085171 0.629486 0.724809
O O12 0.018869 0.749262 0.571647
O O13 0.095057 0.127166 0.824701
O O14 0.000000 0.500000 0.500000
O O15 0.512420 0.423412 0.265824
O O16 0.000000 0.500000 0.000000
#
# Coordination Sequence:
#
# PCOD9103178 Si02
#       7
#     2   2   2   2   2   2   2
#     4  11  20  39  68  94 127 166 216 267 328 388
#     4  10  20  38  65  91 125 170 215 268 325 379
#     4  11  23  40  69  99 129 174 214 269 333 392
#     4  10  20  44  66  93 130 167 215 266 333 388
#     4  11  23  45  66  94 137 175 220 271 330 391
#     4  11  24  43  68  96 131 177 218 268 332 391
#     4  12  26  41  64  99 132 176 227 270 323 394
#
# _framework density 20.237041000000001
#
# number of rings (size 3 to 8) (size 9 to 14) (size 15 to 20)
#    0.000    1.143    4.286    4.286    6.000    0.000 
#    0.000    2.143    0.000    0.000    0.000    0.000 
#    0.000    0.000    0.000    0.000    0.000    0.000 
#
# Total GULP energy -77949.379268 kJ/mol
# GULP energy per Si atom -5567.812805 kJ/mol
# Density = 2.019098 g / cm^3
# Si number density = 20.237041 Si / 1000 Ang^3
#
#
#
# Elastic Constant Matrix: (Units=GPa)
#
#
# Indices 1 2 3 4 5 6 
#
# 1 116.2480 40.9315 65.8228 -4.8460 8.9949 17.3007
# 2 40.9315 46.1097 35.0612 -16.2766 0.6440 18.2971
# 3 65.8228 35.0612 128.1028 -46.4724 9.7849 -3.6556
# 4 -4.8460 -16.2766 -46.4724 31.3560 -3.8996 3.1257
# 5 8.9949 0.6440 9.7849 -3.8996 44.1553 -5.9133
# 6 17.3007 18.2971 -3.6556 3.1257 -5.9133 28.5632
#
#
#
# Elastic Compliance Matrix: (Units=1/GPa)
#
#
# Indices 1 2 3 4 5 6 
#
# 1 0.028604 -0.020373 -0.024202 -0.042204 -0.004384 -0.003662
# 2 -0.020373 0.060454 0.009420 0.045321 0.001180 -0.029896
# 3 -0.024202 0.009420 0.038820 0.058209 0.002364 0.007712
# 4 -0.042204 0.045321 0.058209 0.136865 0.005813 -0.009793
# 5 -0.004384 0.001180 0.002364 0.005813 0.024399 0.006618
# 6 -0.003662 -0.029896 0.007712 -0.009793 0.006618 0.059808
#
#
# Mechanical properties :
#
#
# Convention : Reuss Voigt Hill
#
# Bulk Modulus (GPa) = 17.37040 63.78793 40.57916
# Shear Modulus (GPa) = 11.40381 30.72457 21.06419
#
# Velocity S-wave (km/s) = 2.37642 3.90068 3.22976
# Velocity P-wave (km/s) = 4.01645 7.20249 5.83129
#
# Compressibility (1/GPa) = 0.05756921
#
# Stress axis : x y z
#
# Youngs Moduli (GPa) = 34.95975 16.54140 25.75991
#
# Poissons Ratio (x) = 0.33700 0.62344
# Poissons Ratio (y) = 0.71223 -0.24266
# Poissons Ratio (z) = 0.84609 -0.15582
#
# Static dielectric constant tensor:
#      x y z
#    x 1.720440 -0.012290 -0.051010 
#    y -0.012290 1.731760 0.019930 
#    z -0.051010 0.019930 1.819750 
# 
# From -- ./inp_files/177147.got.cif
#   From: 2010.05.17/outbox.cif.g08.bks.cpg/sg2_89_cif.got.tgz:177147.got - 2010.06.03 11:33:40.
