data_PCOD9103045
_publ_section_title
;
Structure prediction by ZEFSAII (Michael W. Deem and Ramdas Pophale) SiO2 
 PCOD9103045
Probable space group: P -1
;
_chemical_formula_sum "Si O2"
_cell_formula_units_Z 15
_cell_length_a 9.495376
_cell_length_b 11.018871
_cell_length_c 13.814877
_cell_angle_alpha 30.481946
_cell_angle_beta 89.984288
_cell_angle_gamma 74.592188
_cell_volume 624.811417
_symmetry_space_group_name_H-M "P -1"
_symmetry_group_IT_number 2
_symmetry_cell_setting 'triclinic'
loop_
_space_group_symop_operation_xyz
x,y,z
-x,-y,-z
loop_
_atom_site_type_symbol
_atom_site_label
_atom_site_fract_x
_atom_site_fract_y
_atom_site_fract_z
Si Si1 0.112884 0.274626 0.324993
Si Si2 0.500000 0.500000 0.500000
Si Si3 0.875217 0.274693 0.597242
Si Si4 0.660890 0.567774 0.873060
Si Si5 0.545478 0.450411 0.750665
Si Si6 0.806761 0.877747 0.196895
Si Si7 0.187604 0.705637 0.625018
Si Si8 0.663226 0.026106 0.301008
O O1 0.178317 0.416150 0.155415
O O2 0.919150 0.404343 0.248428
O O3 0.183996 0.953572 0.513865
O O4 0.201609 0.230961 0.458519
O O5 0.701642 0.350088 0.588792
O O6 0.513529 0.594265 0.548255
O O7 0.863401 0.570895 0.372381
O O8 0.897512 0.150071 0.576177
O O9 0.034949 0.108754 0.778936
O O10 0.593725 0.557760 0.772173
O O11 0.517626 0.835364 0.746900
O O12 0.691215 0.290100 0.117399
O O13 0.375058 0.469585 0.765962
O O14 0.689835 0.129350 0.954214
O O15 0.693918 0.931585 0.255053
#
# Coordination Sequence:
#
# PCOD9103045 Si02
#       8
#     2   1   2   2   2   2   2   2
#     4  11  21  39  67  90 129 180 204 267 322 378
#     4  10  24  36  60  90 128 156 210 258 326 364
#     4  10  22  42  63  90 124 169 207 264 321 380
#     4  10  22  37  67  97 124 166 226 251 325 383
#     4  10  22  42  62  92 130 166 212 275 305 391
#     4  10  22  40  68  86 122 172 215 251 322 375
#     4  10  22  38  61  92 133 166 211 263 330 368
#     4  10  20  38  64  97 124 158 216 275 293 390
#
# _framework density 24.007244
#
# number of rings (size 3 to 8) (size 9 to 14) (size 15 to 20)
#    0.000    1.867    2.667    0.400    1.867    3.733 
#    0.000    6.667    5.867    0.000    0.000    0.000 
#    0.000    0.000    0.000    0.000    0.000    0.000 
#
# Total GULP energy -83585.711207 kJ/mol
# GULP energy per Si atom -5572.380747 kJ/mol
# Density = 2.395260 g / cm^3
# Si number density = 24.007244 Si / 1000 Ang^3
#
#
#
# Elastic Constant Matrix: (Units=GPa)
#
#
# Indices 1 2 3 4 5 6 
#
# 1 160.4450 2.8160 32.2307 12.5822 -3.7476 -36.2930
# 2 2.8160 84.1031 -3.4572 16.9552 -4.1018 -7.3471
# 3 32.2307 -3.4572 45.3436 0.5480 -0.2624 -0.7160
# 4 12.5822 16.9552 0.5480 17.3746 -10.6725 4.1151
# 5 -3.7476 -4.1018 -0.2624 -10.6725 30.8870 6.7606
# 6 -36.2930 -7.3471 -0.7160 4.1151 6.7606 34.2401
#
#
#
# Elastic Compliance Matrix: (Units=1/GPa)
#
#
# Indices 1 2 3 4 5 6 
#
# 1 0.016081 0.007186 -0.010170 -0.032912 -0.014048 0.025103
# 2 0.007186 0.020130 -0.002895 -0.037688 -0.013684 0.019108
# 3 -0.010170 -0.002895 0.028667 0.017530 0.007847 -0.014457
# 4 -0.032912 -0.037688 0.017530 0.179159 0.070125 -0.077983
# 5 -0.014048 -0.013684 0.007847 0.070125 0.061521 -0.038237
# 6 0.025103 0.019108 -0.014457 -0.077983 -0.038237 0.076534
#
#
# Mechanical properties :
#
#
# Convention : Reuss Voigt Hill
#
# Bulk Modulus (GPa) = 18.82496 39.23009 29.02752
# Shear Modulus (GPa) = 12.14903 33.72051 22.93477
#
# Velocity S-wave (km/s) = 2.25201 3.75186 3.09419
# Velocity P-wave (km/s) = 3.82367 5.92832 4.98826
#
# Compressibility (1/GPa) = 0.05312097
#
# Stress axis : x y z
#
# Youngs Moduli (GPa) = 62.18640 49.67632 34.88332
#
# Poissons Ratio (x) = -0.35699 0.35475
# Poissons Ratio (y) = -0.44690 0.10100
# Poissons Ratio (z) = 0.63241 0.14383
#
# Static dielectric constant tensor:
#      x y z
#    x 1.896510 0.054700 -0.004090 
#    y 0.054700 1.900410 -0.018550 
#    z -0.004090 -0.018550 1.924670 
# 
# From -- ./inp_files/307774.got.cif
#   From: 2010.05.17/outbox.cif.g08.bks.cpg/sg2_154_cif.got.tgz:307774.got - 2010.06.03 11:33:40.
