data_PCOD9103252
_publ_section_title
;
Structure prediction by ZEFSAII (Michael W. Deem and Ramdas Pophale) SiO2 
 PCOD9103252
Probable space group: P -1
;
_chemical_formula_sum "Si O2"
_cell_formula_units_Z 16
_cell_length_a 11.354299
_cell_length_b 10.147148
_cell_length_c 17.113186
_cell_angle_alpha 153.563624
_cell_angle_beta 48.018660
_cell_angle_gamma 123.603215
_cell_volume 646.323973
_symmetry_space_group_name_H-M "P -1"
_symmetry_group_IT_number 2
_symmetry_cell_setting 'triclinic'
loop_
_space_group_symop_operation_xyz
x,y,z
-x,-y,-z
loop_
_atom_site_type_symbol
_atom_site_label
_atom_site_fract_x
_atom_site_fract_y
_atom_site_fract_z
Si Si1 0.459945 0.662233 0.477808
Si Si2 0.369892 0.555516 0.873581
Si Si3 0.862181 0.265362 0.727648
Si Si4 0.823546 0.964552 0.871392
Si Si5 0.665923 0.790053 0.599034
Si Si6 0.817267 0.956528 0.288675
Si Si7 0.914865 0.288688 0.145884
Si Si8 0.290518 0.593331 0.295186
O O1 0.555446 0.598345 0.321412
O O2 0.554542 0.818447 0.585829
O O3 0.425535 0.351267 0.366346
O O4 0.296348 0.864987 0.631867
O O5 0.225644 0.377929 0.867392
O O6 0.519794 0.502257 0.836469
O O7 0.303221 0.891374 0.058497
O O8 0.772910 0.391221 0.755719
O O9 0.954769 0.530836 0.856554
O O10 0.741304 0.093818 0.739531
O O11 0.000000 0.000000 0.500000
O O12 0.002063 0.986013 0.774183
O O13 0.791873 0.642376 0.741934
O O14 0.806067 0.171302 0.065982
O O15 0.809474 0.523156 0.372778
O O16 0.760274 0.098052 0.473114
O O17 0.000000 0.000000 0.000000
#
# Coordination Sequence:
#
# PCOD9103252 Si02
#       8
#     2   2   2   2   2   2   2   2
#     4  10  20  38  67  94 126 170 216 267 319 384
#     4  11  23  44  67  95 129 172 214 274 323 383
#     4  10  22  38  65  98 125 165 217 268 317 379
#     4  12  24  42  64  99 134 169 211 267 334 379
#     4  10  20  38  65  94 125 169 225 255 315 393
#     4  11  24  41  68  96 128 170 222 264 320 389
#     4  11  21  39  63  91 135 168 203 270 331 376
#     4  11  23  43  69  93 131 172 218 263 322 388
#
# _framework density 24.755386000000001
#
# number of rings (size 3 to 8) (size 9 to 14) (size 15 to 20)
#    0.000    1.250    2.500    4.875    3.500    0.000 
#    0.000    1.250    0.000    5.250    0.000    0.000 
#    0.000    0.000    0.000    0.000    0.000    0.000 
#
# Total GULP energy -89665.889046 kJ/mol
# GULP energy per Si atom -5604.118065 kJ/mol
# Density = 2.469904 g / cm^3
# Si number density = 24.755386 Si / 1000 Ang^3
#
#
#
# Elastic Constant Matrix: (Units=GPa)
#
#
# Indices 1 2 3 4 5 6 
#
# 1 -4.1253 -14.9399 35.4275 23.5330 50.7310 26.1294
# 2 -14.9399 105.8665 25.8611 -3.0819 16.8423 27.5382
# 3 35.4275 25.8611 56.8758 -3.3577 -24.2384 3.2094
# 4 23.5330 -3.0819 -3.3577 24.3913 -5.7313 -3.8945
# 5 50.7310 16.8423 -24.2384 -5.7313 0.0770 -7.1529
# 6 26.1294 27.5382 3.2094 -3.8945 -7.1529 40.9700
#
#
#
# Elastic Compliance Matrix: (Units=1/GPa)
#
#
# Indices 1 2 3 4 5 6 
#
# 1 0.003898 -0.003492 0.005154 0.000182 0.014302 0.001971
# 2 -0.003492 0.009700 -0.000656 0.004587 0.002627 -0.003347
# 3 0.005154 -0.000656 0.012982 -0.004995 -0.003935 -0.005025
# 4 0.000182 0.004587 -0.004995 0.037695 -0.011956 -0.001312
# 5 0.014302 0.002627 -0.003935 -0.011956 0.014923 -0.009110
# 6 0.001971 -0.003347 -0.005025 -0.001312 -0.009110 0.024079
#
#
# Mechanical properties :
#
#
# Convention : Reuss Voigt Hill
#
# Bulk Modulus (GPa) = 34.97509 27.92382 31.44946
# Shear Modulus (GPa) = 45.12791 20.57220 32.85006
#
# Velocity S-wave (km/s) = 4.27424 2.88587 3.64673
# Velocity P-wave (km/s) = 6.20627 4.73378 5.51935
#
# Compressibility (1/GPa) = 0.02859177
#
# Stress axis : x y z
#
# Youngs Moduli (GPa) = 256.51964 103.09650 77.02937
#
# Poissons Ratio (x) = 0.35996 -0.39699
# Poissons Ratio (y) = 0.89564 0.05056
# Poissons Ratio (z) = -1.32203 0.06767
#
# Static dielectric constant tensor:
#      x y z
#    x 1.928670 0.003830 -0.006140 
#    y 0.003830 1.953650 -0.033420 
#    z -0.006140 -0.033420 1.991670 
# 
# From -- ./inp_files/349000.got.cif
#   From: 2010.05.17/outbox.cif.g08.bks.cpg/sg2_175_cif.got.tgz:349000.got - 2010.06.03 11:33:40.
