data_PCOD9103053
_publ_section_title
;
Structure prediction by ZEFSAII (Michael W. Deem and Ramdas Pophale) SiO2 
 PCOD9103053
Probable space group: P -1
;
_chemical_formula_sum "Si O2"
_cell_formula_units_Z 16
_cell_length_a 14.683166
_cell_length_b 14.144404
_cell_length_c 7.983934
_cell_angle_alpha 125.296378
_cell_angle_beta 56.157391
_cell_angle_gamma 146.632183
_cell_volume 734.066395
_symmetry_space_group_name_H-M "P -1"
_symmetry_group_IT_number 2
_symmetry_cell_setting 'triclinic'
loop_
_space_group_symop_operation_xyz
x,y,z
-x,-y,-z
loop_
_atom_site_type_symbol
_atom_site_label
_atom_site_fract_x
_atom_site_fract_y
_atom_site_fract_z
Si Si1 0.864216 0.401378 0.892036
Si Si2 0.521358 0.228140 0.198309
Si Si3 0.076059 0.188493 0.634198
Si Si4 0.525512 0.674171 0.006245
Si Si5 0.120319 0.984482 0.832331
Si Si6 0.592245 0.515645 0.580724
Si Si7 0.809216 0.105660 0.647672
Si Si8 0.852066 0.619436 0.917752
O O1 0.850593 0.262423 0.686437
O O2 0.895160 0.529688 0.862088
O O3 0.689210 0.295121 0.050973
O O4 0.000000 0.500000 0.000000
O O5 0.471939 0.255629 0.104691
O O6 0.554105 0.351082 0.432863
O O7 0.372192 0.034105 0.226231
O O8 0.211488 0.310117 0.474086
O O9 0.934484 0.171161 0.735125
O O10 0.162338 0.295701 0.829786
O O11 0.000000 0.000000 0.500000
O O12 0.538970 0.548064 0.825062
O O13 0.335731 0.542723 0.133821
O O14 0.697016 0.849381 0.100720
O O15 0.165049 0.979665 0.594327
O O16 0.003818 0.788825 0.825631
O O17 0.000000 0.000000 0.000000
O O18 0.500000 0.500000 0.500000
#
# Coordination Sequence:
#
# PCOD9103053 Si02
#       8
#     2   2   2   2   2   2   2   2
#     4  11  22  44  71 100 125 169 230 283 333 386
#     4  10  21  40  68  97 128 165 227 286 327 385
#     4  12  20  36  67  96 126 169 225 285 334 385
#     4  10  22  41  66  97 135 177 219 274 341 397
#     4  12  28  45  63 100 144 181 220 267 341 414
#     4  10  16  32  59  94 121 156 216 273 334 382
#     4  12  25  41  64  99 134 174 224 276 334 400
#     4  11  23  45  68  95 136 178 223 277 333 398
#
# _framework density 21.796393999999999
#
# number of rings (size 3 to 8) (size 9 to 14) (size 15 to 20)
#    0.000    1.000    5.000    4.875    1.750    1.000 
#    4.500    2.500    0.000    0.000    0.000    0.000 
#    0.000    0.000    0.000    0.000    0.000    0.000 
#
# Total GULP energy -89377.168627 kJ/mol
# GULP energy per Si atom -5586.073039 kJ/mol
# Density = 2.174678 g / cm^3
# Si number density = 21.796394 Si / 1000 Ang^3
#
#
#
# Elastic Constant Matrix: (Units=GPa)
#
#
# Indices 1 2 3 4 5 6 
#
# 1 94.0765 63.1286 24.1502 6.4275 -13.7585 10.7134
# 2 63.1286 129.4450 14.3231 10.0772 -5.9315 17.9541
# 3 24.1502 14.3231 65.6452 4.9037 -4.9011 5.1439
# 4 6.4275 10.0772 4.9037 31.1790 -4.7765 -8.1751
# 5 -13.7585 -5.9315 -4.9011 -4.7765 28.7377 10.8327
# 6 10.7134 17.9541 5.1439 -8.1751 10.8327 39.2098
#
#
#
# Elastic Compliance Matrix: (Units=1/GPa)
#
#
# Indices 1 2 3 4 5 6 
#
# 1 0.018360 -0.007684 -0.004246 -0.000282 0.007601 -0.003100
# 2 -0.007684 0.012284 0.000767 -0.003654 0.000038 -0.004398
# 3 -0.004246 0.000767 0.017111 -0.002451 0.001529 -0.002369
# 4 -0.000282 -0.003654 -0.002451 0.036325 0.001222 0.009308
# 5 0.007601 0.000038 0.001529 0.001222 0.044290 -0.014277
# 6 -0.003100 -0.004398 -0.002369 0.009308 -0.014277 0.034561
#
#
# Mechanical properties :
#
#
# Convention : Reuss Voigt Hill
#
# Bulk Modulus (GPa) = 39.32564 54.70784 47.01674
# Shear Modulus (GPa) = 25.80868 32.32962 29.06915
#
# Velocity S-wave (km/s) = 3.44478 3.85548 3.65590
# Velocity P-wave (km/s) = 5.82267 6.70624 6.28001
#
# Compressibility (1/GPa) = 0.02542870
#
# Stress axis : x y z
#
# Youngs Moduli (GPa) = 54.46696 81.40687 58.44140
#
# Poissons Ratio (x) = 0.62551 0.24817
# Poissons Ratio (y) = 0.41851 -0.04483
# Poissons Ratio (z) = 0.23129 -0.06244
#
# Static dielectric constant tensor:
#      x y z
#    x 1.827970 0.029650 0.019650 
#    y 0.029650 1.848960 0.013640 
#    z 0.019650 0.013640 1.794730 
# 
# From -- ./inp_files/272747.got.cif
#   From: 2010.05.17/outbox.cif.g08.bks.cpg/sg2_137_cif.got.tgz:272747.got - 2010.06.03 11:33:40.
