data_PCOD9103771
_publ_section_title
;
Structure prediction by ZEFSAII (Michael W. Deem and Ramdas Pophale) SiO2 
 PCOD9103771
Probable space group: P -1
;
_chemical_formula_sum "Si O2"
_cell_formula_units_Z 16
_cell_length_a 9.391360
_cell_length_b 13.816517
_cell_length_c 9.188825
_cell_angle_alpha 63.202757
_cell_angle_beta 95.134017
_cell_angle_gamma 50.185764
_cell_volume 681.902165
_symmetry_space_group_name_H-M "P -1"
_symmetry_group_IT_number 2
_symmetry_cell_setting 'triclinic'
loop_
_space_group_symop_operation_xyz
x,y,z
-x,-y,-z
loop_
_atom_site_type_symbol
_atom_site_label
_atom_site_fract_x
_atom_site_fract_y
_atom_site_fract_z
Si Si1 0.587155 0.481561 0.363748
Si Si2 0.117381 0.022078 0.393952
Si Si3 0.556525 0.071149 0.056300
Si Si4 0.774878 0.582831 0.362513
Si Si5 0.486950 0.619529 0.827299
Si Si6 0.755669 0.165632 0.063623
Si Si7 0.364897 0.312021 0.401828
Si Si8 0.721592 0.873804 0.509034
O O1 0.500000 0.500000 0.500000
O O2 0.787814 0.450709 0.405207
O O3 0.636914 0.353705 0.347530
O O4 0.381363 0.670378 0.154298
O O5 0.102949 0.148254 0.383002
O O6 0.988103 0.081024 0.191182
O O7 0.379161 0.856985 0.504965
O O8 0.000000 0.000000 0.500000
O O9 0.749780 0.050827 0.067056
O O10 0.632268 0.974770 0.280740
O O11 0.342055 0.273674 0.866612
O O12 0.500000 0.000000 0.000000
O O13 0.631376 0.662278 0.445072
O O14 0.000000 0.500000 0.500000
O O15 0.385962 0.756819 0.849086
O O16 0.693899 0.559030 0.807144
O O17 0.500000 0.500000 0.000000
O O18 0.220841 0.286785 0.389357
O O19 0.500000 0.000000 0.500000
#
# Coordination Sequence:
#
# PCOD9103771 Si02
#       8
#     2   2   2   2   2   2   2   2
#     4  10  21  41  66  91 131 180 224 282 333 396
#     4  11  20  38  68 103 130 171 225 277 341 409
#     4  11  21  42  67  97 139 181 219 285 346 397
#     4  11  25  44  63  93 139 184 228 272 337 414
#     4  10  20  38  68  91 128 177 223 271 341 394
#     4  10  21  39  66 100 131 170 224 276 338 408
#     4  11  21  40  64  97 137 173 221 285 338 398
#     4  10  21  38  67  97 138 176 217 283 346 400
#
# _framework density 23.463775999999999
#
# number of rings (size 3 to 8) (size 9 to 14) (size 15 to 20)
#    0.000    1.500    5.000    0.750    0.000    1.000 
#    6.750    2.500    0.000   14.250    0.000    0.000 
#    0.000    0.000    0.000    0.000    0.000    0.000 
#
# Total GULP energy -89109.955331 kJ/mol
# GULP energy per Si atom -5569.372208 kJ/mol
# Density = 2.341037 g / cm^3
# Si number density = 23.463776 Si / 1000 Ang^3
#
#
#
# Elastic Constant Matrix: (Units=GPa)
#
#
# Indices 1 2 3 4 5 6 
#
# 1 175.8954 36.0227 49.7613 -1.7952 7.0957 49.9313
# 2 36.0227 60.0515 2.2801 17.0836 -8.9173 28.2305
# 3 49.7613 2.2801 124.1331 9.6496 -8.0375 3.8513
# 4 -1.7952 17.0836 9.6496 23.3358 5.0854 -0.5499
# 5 7.0957 -8.9173 -8.0375 5.0854 42.1158 6.0808
# 6 49.9313 28.2305 3.8513 -0.5499 6.0808 57.6774
#
#
#
# Elastic Compliance Matrix: (Units=1/GPa)
#
#
# Indices 1 2 3 4 5 6 
#
# 1 0.009897 -0.006740 -0.004647 0.008464 -0.004365 -0.004418
# 2 -0.006740 0.042785 0.006731 -0.039140 0.018791 -0.017910
# 3 -0.004647 0.006731 0.011056 -0.011131 0.005767 -0.000724
# 4 0.008464 -0.039140 -0.011131 0.082383 -0.024080 0.015898
# 5 -0.004365 0.018791 0.005767 -0.024080 0.033853 -0.009602
# 6 -0.004418 -0.017910 -0.000724 0.015898 -0.009602 0.031141
#
#
# Mechanical properties :
#
#
# Convention : Reuss Voigt Hill
#
# Bulk Modulus (GPa) = 18.37367 59.57869 38.97618
# Shear Modulus (GPa) = 20.95850 42.76019 31.85934
#
# Velocity S-wave (km/s) = 2.99193 4.27358 3.68884
# Velocity P-wave (km/s) = 4.44783 7.05678 5.89836
#
# Compressibility (1/GPa) = 0.05442572
#
# Stress axis : x y z
#
# Youngs Moduli (GPa) = 101.04506 23.37293 90.44726
#
# Poissons Ratio (x) = 0.15752 0.42031
# Poissons Ratio (y) = 0.68100 -0.60878
# Poissons Ratio (z) = 0.46956 -0.15732
#
# Static dielectric constant tensor:
#      x y z
#    x 1.964640 0.027280 -0.010750 
#    y 0.027280 1.924000 -0.049720 
#    z -0.010750 -0.049720 1.998760 
# 
# From -- ./inp_files/200242.got.cif
#   From: 2010.05.17/outbox.cif.g08.bks.cpg/sg2_101_cif.got.tgz:200242.got - 2010.06.03 11:33:40.
