data_PCOD9103385
_publ_section_title
;
Structure prediction by ZEFSAII (Michael W. Deem and Ramdas Pophale) SiO2 
 PCOD9103385
Probable space group: P -1
;
_chemical_formula_sum "Si O2"
_cell_formula_units_Z 15
_cell_length_a 20.135508
_cell_length_b 14.414738
_cell_length_c 9.598769
_cell_angle_alpha 59.166846
_cell_angle_beta 60.325954
_cell_angle_gamma 17.169134
_cell_volume 706.020273
_symmetry_space_group_name_H-M "P -1"
_symmetry_group_IT_number 2
_symmetry_cell_setting 'triclinic'
loop_
_space_group_symop_operation_xyz
x,y,z
-x,-y,-z
loop_
_atom_site_type_symbol
_atom_site_label
_atom_site_fract_x
_atom_site_fract_y
_atom_site_fract_z
Si Si1 0.111874 0.915625 0.823153
Si Si2 0.779198 0.654947 0.199328
Si Si3 0.128538 0.222803 0.957014
Si Si4 0.527756 0.226642 0.802403
Si Si5 0.979944 0.175491 0.471633
Si Si6 0.500000 0.000000 0.000000
Si Si7 0.363426 0.763622 0.841170
Si Si8 0.375408 0.518635 0.474192
O O1 0.307502 0.578524 0.820779
O O2 0.210205 0.893557 0.803111
O O3 0.968671 0.143724 0.663622
O O4 0.000000 0.000000 0.000000
O O5 0.849916 0.677651 0.165467
O O6 0.889147 0.415909 0.359504
O O7 0.878486 0.518566 0.038299
O O8 0.524152 0.978445 0.168310
O O9 0.224013 0.028114 0.881376
O O10 0.278002 0.008432 0.105720
O O11 0.494505 0.142902 0.885587
O O12 0.562483 0.238406 0.608406
O O13 0.811257 0.326813 0.439197
O O14 0.233593 0.814834 0.431333
O O15 0.528368 0.603356 0.686013
O O16 0.500000 0.500000 0.000000
#
# Coordination Sequence:
#
# PCOD9103385 Si02
#       8
#     2   2   2   2   2   1   2   2
#     4  11  25  39  62  92 127 158 207 253 314 360
#     4  10  21  41  64  90 120 164 209 248 302 370
#     4  10  23  39  64  89 127 159 208 249 305 365
#     4  10  21  40  62  94 119 165 200 249 303 371
#     4  10  21  39  63  91 123 165 201 258 297 368
#     4  10  20  38  66  88 114 162 208 250 298 360
#     4  12  23  40  61  92 125 164 196 259 309 362
#     4  10  22  38  64  93 125 156 206 248 311 364
#
# _framework density 21.245849
#
# number of rings (size 3 to 8) (size 9 to 14) (size 15 to 20)
#    0.000    1.600    2.667    1.600    3.733    1.067 
#    0.000    2.667    0.000    0.000    0.000    0.000 
#    0.000    0.000    0.000    0.000    0.000    0.000 
#
# Total GULP energy -83550.422710 kJ/mol
# GULP energy per Si atom -5570.028181 kJ/mol
# Density = 2.119749 g / cm^3
# Si number density = 21.245849 Si / 1000 Ang^3
#
#
#
# Elastic Constant Matrix: (Units=GPa)
#
#
# Indices 1 2 3 4 5 6 
#
# 1 95.6764 11.4341 13.4665 -1.4412 -1.0900 17.7463
# 2 11.4341 42.6804 45.4689 -10.6657 0.3319 24.6712
# 3 13.4665 45.4689 98.2741 -19.3887 6.3114 29.6209
# 4 -1.4412 -10.6657 -19.3887 43.6050 3.9608 3.9643
# 5 -1.0900 0.3319 6.3114 3.9608 31.8961 -3.6418
# 6 17.7463 24.6712 29.6209 3.9643 -3.6418 29.8896
#
#
#
# Elastic Compliance Matrix: (Units=1/GPa)
#
#
# Indices 1 2 3 4 5 6 
#
# 1 0.012024 0.002615 0.000992 0.002583 -0.001365 -0.010789
# 2 0.002615 0.069706 -0.015356 0.014962 -0.004757 -0.046435
# 3 0.000992 -0.015356 0.023046 0.008299 -0.006845 -0.012687
# 4 0.002583 0.014962 0.008299 0.033707 -0.009056 -0.027682
# 5 -0.001365 -0.004757 -0.006845 -0.009056 0.035784 0.017082
# 6 -0.010789 -0.046435 -0.012687 -0.027682 0.017082 0.096515
#
#
# Mechanical properties :
#
#
# Convention : Reuss Voigt Hill
#
# Bulk Modulus (GPa) = 12.30364 41.93002 27.11683
# Shear Modulus (GPa) = 15.55816 32.16223 23.86020
#
# Velocity S-wave (km/s) = 2.70902 3.89500 3.35483
# Velocity P-wave (km/s) = 3.94826 6.32507 5.27234
#
# Compressibility (1/GPa) = 0.08127674
#
# Stress axis : x y z
#
# Youngs Moduli (GPa) = 83.16436 14.34592 43.39230
#
# Poissons Ratio (x) = -0.03751 -0.04303
# Poissons Ratio (y) = -0.21747 0.66635
# Poissons Ratio (z) = -0.08247 0.22030
#
# Static dielectric constant tensor:
#      x y z
#    x 1.905790 -0.121610 -0.067160 
#    y -0.121610 1.770080 0.124910 
#    z -0.067160 0.124910 1.863190 
# 
# From -- ./inp_files/201514.got.cif
#   From: 2010.05.17/outbox.cif.g08.bks.cpg/sg2_101_cif.got.tgz:201514.got - 2010.06.03 11:33:40.
