data_PCOD9103365
_publ_section_title
;
Structure prediction by ZEFSAII (Michael W. Deem and Ramdas Pophale) SiO2 
 PCOD9103365
Probable space group: P -1
;
_chemical_formula_sum "Si O2"
_cell_formula_units_Z 15
_cell_length_a 5.297401
_cell_length_b 24.685868
_cell_length_c 14.937821
_cell_angle_alpha 18.482178
_cell_angle_beta 75.769733
_cell_angle_gamma 74.030408
_cell_volume 594.625818
_symmetry_space_group_name_H-M "P -1"
_symmetry_group_IT_number 2
_symmetry_cell_setting 'triclinic'
loop_
_space_group_symop_operation_xyz
x,y,z
-x,-y,-z
loop_
_atom_site_type_symbol
_atom_site_label
_atom_site_fract_x
_atom_site_fract_y
_atom_site_fract_z
Si Si1 0.851038 0.858484 0.189272
Si Si2 0.000000 0.500000 0.500000
Si Si3 0.112493 0.109857 0.239352
Si Si4 0.799337 0.626107 0.710481
Si Si5 0.694279 0.363176 0.593977
Si Si6 0.360707 0.398290 0.048030
Si Si7 0.312779 0.120955 0.024903
Si Si8 0.453590 0.694696 0.010981
O O1 0.711252 0.775489 0.412851
O O2 0.714583 0.928564 0.998966
O O3 0.056144 0.694784 0.398192
O O4 0.000000 0.000000 0.000000
O O5 0.240371 0.515793 0.522089
O O6 0.127511 0.303764 0.765228
O O7 0.213498 0.020667 0.276085
O O8 0.355575 0.198083 0.118089
O O9 0.000000 0.000000 0.500000
O O10 0.851754 0.249392 0.028169
O O11 0.612714 0.484188 0.923573
O O12 0.104779 0.536573 0.826416
O O13 0.735408 0.692142 0.713521
O O14 0.596015 0.184753 0.911293
O O15 0.498280 0.491257 0.348238
O O16 0.459650 0.285996 0.129352
#
# Coordination Sequence:
#
# PCOD9103365 Si02
#       8
#     2   1   2   2   2   2   2   2
#     4  11  26  44  66 101 146 187 233 289 356 419
#     4  10  20  38  66 108 130 174 226 298 336 412
#     4  12  29  47  68 104 144 182 227 288 363 437
#     4  10  21  42  65  99 137 177 236 286 340 404
#     4  11  23  40  73 103 141 180 241 293 349 413
#     4  10  21  40  70 100 131 178 233 293 336 400
#     4  11  24  42  70  99 142 178 236 287 359 413
#     4  12  24  44  75 103 139 181 236 289 352 419
#
# _framework density 25.225944999999999
#
# number of rings (size 3 to 8) (size 9 to 14) (size 15 to 20)
#    0.000    1.067    2.667    3.200    5.600    1.600 
#    2.400    0.000    0.000    0.000    0.000    0.000 
#    0.000    0.000    0.000    0.000    0.000    0.000 
#
# Total GULP energy -83623.936039 kJ/mol
# GULP energy per Si atom -5574.929069 kJ/mol
# Density = 2.516853 g / cm^3
# Si number density = 25.225945 Si / 1000 Ang^3
#
#
#
# Elastic Constant Matrix: (Units=GPa)
#
#
# Indices 1 2 3 4 5 6 
#
# 1 95.9672 49.8728 7.6183 6.1558 3.5542 8.9002
# 2 49.8728 188.9304 36.9277 38.9998 -9.2824 28.0187
# 3 7.6183 36.9277 40.9729 17.8399 -4.6871 -1.9151
# 4 6.1558 38.9998 17.8399 40.9490 -8.6477 -9.1327
# 5 3.5542 -9.2824 -4.6871 -8.6477 36.7503 -11.0966
# 6 8.9002 28.0187 -1.9151 -9.1327 -11.0966 36.8752
#
#
#
# Elastic Compliance Matrix: (Units=1/GPa)
#
#
# Indices 1 2 3 4 5 6 
#
# 1 0.012285 -0.003400 0.000209 0.000665 -0.002119 -0.000844
# 2 -0.003400 0.011131 -0.005549 -0.011094 -0.003740 -0.011798
# 3 0.000209 -0.005549 0.033194 -0.007636 0.002444 0.004734
# 4 0.000665 -0.011094 -0.007636 0.046504 0.014252 0.023679
# 5 -0.002119 -0.003740 0.002444 0.014252 0.035476 0.017686
# 6 -0.000844 -0.011798 0.004734 0.023679 0.017686 0.047719
#
#
# Mechanical properties :
#
#
# Convention : Reuss Voigt Hill
#
# Bulk Modulus (GPa) = 25.55579 57.18980 41.37280
# Shear Modulus (GPa) = 23.05932 38.34502 30.70217
#
# Velocity S-wave (km/s) = 3.02671 3.90303 3.49246
# Velocity P-wave (km/s) = 4.72941 6.55986 5.71835
#
# Compressibility (1/GPa) = 0.03913007
#
# Stress axis : x y z
#
# Youngs Moduli (GPa) = 81.40311 89.83961 30.12567
#
# Poissons Ratio (x) = 0.30543 -0.00629
# Poissons Ratio (y) = 0.27675 0.16716
# Poissons Ratio (z) = -0.01700 0.49851
#
# Static dielectric constant tensor:
#      x y z
#    x 2.039880 -0.030560 -0.013380 
#    y -0.030560 1.938130 -0.539710 
#    z -0.013380 -0.539710 -1.151520 
# 
# From -- ./inp_files/485894.got.cif
#   From: 2010.05.17/outbox.cif.g08.bks.cpg/sg2_243_cif.got.tgz:485894.got - 2010.06.03 11:33:40.
