data_PCOD9103368
_publ_section_title
;
Structure prediction by ZEFSAII (Michael W. Deem and Ramdas Pophale) SiO2 
 PCOD9103368
Probable space group: P -1
;
_chemical_formula_sum "Si O2"
_cell_formula_units_Z 16
_cell_length_a 8.996648
_cell_length_b 15.821619
_cell_length_c 7.801717
_cell_angle_alpha 97.237965
_cell_angle_beta 112.434641
_cell_angle_gamma 49.265809
_cell_volume 765.698985
_symmetry_space_group_name_H-M "P -1"
_symmetry_group_IT_number 2
_symmetry_cell_setting 'triclinic'
loop_
_space_group_symop_operation_xyz
x,y,z
-x,-y,-z
loop_
_atom_site_type_symbol
_atom_site_label
_atom_site_fract_x
_atom_site_fract_y
_atom_site_fract_z
Si Si1 0.422662 0.374468 0.025224
Si Si2 0.145698 0.212135 0.111628
Si Si3 0.029572 0.511949 0.314125
Si Si4 0.429593 0.855095 0.822824
Si Si5 0.057089 0.061857 0.929434
Si Si6 0.357480 0.261541 0.423975
Si Si7 0.246830 0.579468 0.235145
Si Si8 0.613160 0.299806 0.737523
O O1 0.558655 0.354791 0.914808
O O2 0.185422 0.432018 0.869647
O O3 0.539893 0.248196 0.108006
O O4 0.392973 0.460202 0.169622
O O5 0.347140 0.170951 0.071787
O O6 0.203267 0.234075 0.327752
O O7 0.139769 0.112812 0.090388
O O8 0.935493 0.323648 0.956098
O O9 0.212305 0.382977 0.295266
O O10 0.119829 0.573852 0.327311
O O11 0.000000 0.500000 0.500000
O O12 0.432227 0.837179 0.615666
O O13 0.233714 0.973014 0.846846
O O14 0.839305 0.175285 0.786617
O O15 0.000000 0.000000 0.000000
O O16 0.440591 0.285056 0.626913
O O17 0.377545 0.618874 0.354447
#
# Coordination Sequence:
#
# PCOD9103368 Si02
#       8
#     2   2   2   2   2   2   2   2
#     4  12  19  38  63  91 118 161 201 242 291 364
#     4   9  20  38  65  84 113 162 207 235 292 364
#     4  12  21  36  62  89 125 158 195 243 298 363
#     4  10  20  38  66  80 116 162 204 239 293 353
#     4  11  22  39  61  91 116 153 209 254 287 344
#     4  10  21  40  58  88 120 159 193 241 305 354
#     4  11  21  39  60  93 120 159 200 244 294 360
#     4  11  25  38  59  91 128 153 197 252 302 347
#
# _framework density 20.895938999999998
#
# number of rings (size 3 to 8) (size 9 to 14) (size 15 to 20)
#    0.750    0.500    6.250    1.125    0.000    1.000 
#    0.000    1.875    0.000    0.000    0.000    0.000 
#    0.000    0.000    0.000    0.000    0.000    0.000 
#
# Total GULP energy -89098.164522 kJ/mol
# GULP energy per Si atom -5568.635283 kJ/mol
# Density = 2.084838 g / cm^3
# Si number density = 20.895939 Si / 1000 Ang^3
#
#
#
# Elastic Constant Matrix: (Units=GPa)
#
#
# Indices 1 2 3 4 5 6 
#
# 1 85.4507 39.2495 14.2180 12.1889 -2.1956 16.4263
# 2 39.2495 124.5973 19.0928 14.8497 10.3178 4.1471
# 3 14.2180 19.0928 54.2074 18.2403 7.0866 6.3085
# 4 12.1889 14.8497 18.2403 19.7284 -0.0197 5.6684
# 5 -2.1956 10.3178 7.0866 -0.0197 22.1325 -3.6655
# 6 16.4263 4.1471 6.3085 5.6684 -3.6655 50.3045
#
#
#
# Elastic Compliance Matrix: (Units=1/GPa)
#
#
# Indices 1 2 3 4 5 6 
#
# 1 0.015251 -0.004291 -0.001094 -0.004088 0.003232 -0.003793
# 2 -0.004291 0.010429 -0.000212 -0.005234 -0.005094 0.000786
# 3 -0.001094 -0.000212 0.028714 -0.025421 -0.009399 -0.001046
# 4 -0.004088 -0.005234 -0.025421 0.081686 0.009659 -0.003546
# 5 0.003232 -0.005094 -0.009399 0.009659 0.051426 0.003202
# 6 -0.003793 0.000786 -0.001046 -0.003546 0.003202 0.021817
#
#
# Mechanical properties :
#
#
# Convention : Reuss Voigt Hill
#
# Bulk Modulus (GPa) = 23.14840 45.48622 34.31731
# Shear Modulus (GPa) = 21.28403 31.21276 26.24840
#
# Velocity S-wave (km/s) = 3.19497 3.86906 3.54806
# Velocity P-wave (km/s) = 4.97116 6.46334 5.76573
#
# Compressibility (1/GPa) = 0.04319953
#
# Stress axis : x y z
#
# Youngs Moduli (GPa) = 65.57032 95.88208 34.82622
#
# Poissons Ratio (x) = 0.41139 0.03811
# Poissons Ratio (y) = 0.28134 0.00740
# Poissons Ratio (z) = 0.07176 0.02036
#
# Static dielectric constant tensor:
#      x y z
#    x 1.791630 0.006440 0.027050 
#    y 0.006440 1.729770 0.020170 
#    z 0.027050 0.020170 1.827080 
# 
# From -- ./inp_files/207898.got.cif
#   From: 2010.05.17/outbox.cif.g08.bks.cpg/sg2_104_cif.got.tgz:207898.got - 2010.06.03 11:33:40.
