data_PCOD9103135
_publ_section_title
;
Structure prediction by ZEFSAII (Michael W. Deem and Ramdas Pophale) SiO2 
 PCOD9103135
Probable space group: P -1
;
_chemical_formula_sum "Si O2"
_cell_formula_units_Z 16
_cell_length_a 10.632569
_cell_length_b 8.299872
_cell_length_c 9.328850
_cell_angle_alpha 64.872390
_cell_angle_beta 63.966647
_cell_angle_gamma 86.138864
_cell_volume 662.519063
_symmetry_space_group_name_H-M "P -1"
_symmetry_group_IT_number 2
_symmetry_cell_setting 'triclinic'
loop_
_space_group_symop_operation_xyz
x,y,z
-x,-y,-z
loop_
_atom_site_type_symbol
_atom_site_label
_atom_site_fract_x
_atom_site_fract_y
_atom_site_fract_z
Si Si1 0.422963 0.633555 0.078903
Si Si2 0.695927 0.768064 0.072590
Si Si3 0.107522 0.810783 0.819844
Si Si4 0.912358 0.559002 0.185967
Si Si5 0.576020 0.172799 0.277368
Si Si6 0.778781 0.389239 0.571534
Si Si7 0.510412 0.216245 0.582052
Si Si8 0.926780 0.039274 0.675732
O O1 0.547420 0.728755 0.080367
O O2 0.288715 0.556192 0.268315
O O3 0.500000 0.500000 0.000000
O O4 0.382701 0.759439 0.926864
O O5 0.788999 0.610115 0.121639
O O6 0.635993 0.801706 0.249543
O O7 0.793229 0.906846 0.866470
O O8 0.062622 0.642712 0.795011
O O9 0.273731 0.849174 0.723868
O O10 0.045875 0.990533 0.744089
O O11 0.040721 0.716274 0.033003
O O12 0.867959 0.545205 0.377492
O O13 0.508143 0.287186 0.391698
O O14 0.470768 0.990903 0.371535
O O15 0.643503 0.319288 0.561946
O O16 0.869020 0.228082 0.617151
O O17 0.000000 0.000000 0.500000
#
# Coordination Sequence:
#
# PCOD9103135 Si02
#       8
#     2   2   2   2   2   2   2   2
#     4  11  25  39  63  92 129 158 199 267 313 362
#     4  10  23  40  65  91 120 164 213 247 312 372
#     4  10  21  38  63  92 125 165 206 247 306 370
#     4  10  20  38  65  89 123 167 206 248 297 383
#     4  11  21  40  61  93 128 160 204 256 318 358
#     4  11  22  41  67  93 122 162 215 252 309 368
#     4  10  22  38  66  90 121 163 204 262 304 375
#     4  11  20  38  65  95 118 162 214 256 294 361
#
# _framework density 24.150248000000001
#
# number of rings (size 3 to 8) (size 9 to 14) (size 15 to 20)
#    0.000    1.500    2.500    2.250    1.750    4.000 
#    0.000    6.250    2.750    0.000    0.000    0.000 
#    0.000    0.000    0.000    0.000    0.000    0.000 
#
# Total GULP energy -89233.986255 kJ/mol
# GULP energy per Si atom -5577.124141 kJ/mol
# Density = 2.409528 g / cm^3
# Si number density = 24.150248 Si / 1000 Ang^3
#
#
#
# Elastic Constant Matrix: (Units=GPa)
#
#
# Indices 1 2 3 4 5 6 
#
# 1 44.9353 13.3495 42.4981 0.0217 -13.2094 -21.8717
# 2 13.3495 46.7861 36.4839 12.0337 -0.0142 -17.1322
# 3 42.4981 36.4839 244.7135 18.1191 -21.6768 -15.9821
# 4 0.0217 12.0337 18.1191 39.9598 -8.6994 0.7060
# 5 -13.2094 -0.0142 -21.6768 -8.6994 32.9073 1.1328
# 6 -21.8717 -17.1322 -15.9821 0.7060 1.1328 28.2837
#
#
#
# Elastic Compliance Matrix: (Units=1/GPa)
#
#
# Indices 1 2 3 4 5 6 
#
# 1 0.048342 0.001906 -0.005345 0.004676 0.015925 0.034763
# 2 0.001906 0.033697 -0.003745 -0.009896 -0.004999 0.020216
# 3 -0.005345 -0.003745 0.005554 -0.001036 0.001351 -0.003291
# 4 0.004676 -0.009896 -0.001036 0.030596 0.009420 -0.004105
# 5 0.015925 -0.004999 0.001351 0.009420 0.039876 0.008218
# 6 0.034763 0.020216 -0.003291 -0.004105 0.008218 0.072397
#
#
# Mechanical properties :
#
#
# Convention : Reuss Voigt Hill
#
# Bulk Modulus (GPa) = 13.65626 57.89975 35.77801
# Shear Modulus (GPa) = 18.57093 36.50371 27.53732
#
# Velocity S-wave (km/s) = 2.77605 3.89205 3.38042
# Velocity P-wave (km/s) = 3.99277 6.65013 5.48482
#
# Compressibility (1/GPa) = 0.07322648
#
# Stress axis : x y z
#
# Youngs Moduli (GPa) = 20.68582 29.67655 180.04030
#
# Poissons Ratio (x) = -0.05656 0.96227
# Poissons Ratio (y) = -0.03943 0.67417
# Poissons Ratio (z) = 0.11056 0.11112
#
# Static dielectric constant tensor:
#      x y z
#    x 1.818070 0.064560 -0.079900 
#    y 0.064560 1.877030 0.202850 
#    z -0.079900 0.202850 1.818130 
# 
# From -- ./inp_files/242466.got.cif
#   From: 2010.05.17/outbox.cif.g08.bks.cpg/sg2_122_cif.got.tgz:242466.got - 2010.06.03 11:33:40.
