data_PCOD9103615
_publ_section_title
;
Structure prediction by ZEFSAII (Michael W. Deem and Ramdas Pophale) SiO2 
 PCOD9103615
Probable space group: P -1
;
_chemical_formula_sum "Si O2"
_cell_formula_units_Z 16
_cell_length_a 9.550318
_cell_length_b 24.710638
_cell_length_c 24.165110
_cell_angle_alpha 17.608134
_cell_angle_beta 148.141404
_cell_angle_gamma 147.832360
_cell_volume 885.872860
_symmetry_space_group_name_H-M "P -1"
_symmetry_group_IT_number 2
_symmetry_cell_setting 'triclinic'
loop_
_space_group_symop_operation_xyz
x,y,z
-x,-y,-z
loop_
_atom_site_type_symbol
_atom_site_label
_atom_site_fract_x
_atom_site_fract_y
_atom_site_fract_z
Si Si1 0.627545 0.959260 0.842443
Si Si2 0.131917 0.066529 0.618541
Si Si3 0.671684 0.922034 0.211032
Si Si4 0.785771 0.871895 0.174201
Si Si5 0.295719 0.534469 0.490870
Si Si6 0.286918 0.419901 0.726941
Si Si7 0.930320 0.235809 0.192521
Si Si8 0.853636 0.624980 0.756561
O O1 0.395432 0.856971 0.820437
O O2 0.455494 0.078447 0.702569
O O3 0.682985 0.789357 0.061600
O O4 0.913907 0.070562 0.807648
O O5 0.115728 0.030562 0.713246
O O6 0.063133 0.249035 0.392401
O O7 0.986060 0.895030 0.698360
O O8 0.799734 0.941902 0.173744
O O9 0.519719 0.709756 0.376162
O O10 0.437996 0.038719 0.018526
O O11 0.690322 0.652166 0.353370
O O12 0.314267 0.495698 0.600192
O O13 0.997938 0.575810 0.344975
O O14 0.531721 0.541500 0.725612
O O15 0.070614 0.251321 0.283924
O O16 0.971091 0.443198 0.980634
#
# Coordination Sequence:
#
# PCOD9103615 Si02
#       8
#     2   2   2   2   2   2   2   2
#     4   9  19  34  51  80 101 134 168 212 260 295
#     4  10  19  32  55  78  99 135 168 214 255 296
#     4  11  23  36  51  76 105 141 176 205 252 309
#     4  11  23  36  51  72 110 142 170 210 251 308
#     4  11  21  34  51  77 103 137 174 210 260 297
#     4  10  19  30  55  79 104 129 170 222 250 303
#     4   8  20  30  52  80 103 128 165 214 262 298
#     4  10  16  33  49  82 105 127 164 216 259 300
#
# _framework density 18.061283
#
# number of rings (size 3 to 8) (size 9 to 14) (size 15 to 20)
#    0.750    1.250    2.500    2.250    1.750    1.000 
#    0.000    0.000    0.000    0.750    0.000    2.625 
#    0.000    0.000    0.000    0.000    0.000    0.000 
#
# Total GULP energy -89136.092448 kJ/mol
# GULP energy per Si atom -5571.005778 kJ/mol
# Density = 1.802017 g / cm^3
# Si number density = 18.061283 Si / 1000 Ang^3
#
#
#
# Elastic Constant Matrix: (Units=GPa)
#
#
# Indices 1 2 3 4 5 6 
#
# 1 19.8506 1.1664 -1.5317 3.2122 -0.3732 -10.2872
# 2 1.1664 44.0711 0.4896 2.6741 -2.5953 -19.1418
# 3 -1.5317 0.4896 65.7175 -2.3036 -2.0158 -8.9707
# 4 3.2122 2.6741 -2.3036 28.4312 -8.6260 -3.6463
# 5 -0.3732 -2.5953 -2.0158 -8.6260 20.4642 1.8282
# 6 -10.2872 -19.1418 -8.9707 -3.6463 1.8282 21.9144
#
#
#
# Elastic Compliance Matrix: (Units=1/GPa)
#
#
# Indices 1 2 3 4 5 6 
#
# 1 0.085231 0.027193 0.010901 -0.002980 -0.001239 0.067832
# 2 0.027193 0.046654 0.008176 0.001311 0.002691 0.056857
# 3 0.010901 0.008176 0.018314 0.002787 0.002426 0.020017
# 4 -0.002980 0.001311 0.002787 0.041708 0.017397 0.006375
# 5 -0.001239 0.002691 0.002426 0.017397 0.056674 0.000929
# 6 0.067832 0.056857 0.020017 0.006375 0.000929 0.136315
#
#
# Mechanical properties :
#
#
# Convention : Reuss Voigt Hill
#
# Bulk Modulus (GPa) = 4.11964 14.43199 9.27581
# Shear Modulus (GPa) = 13.39515 22.79630 18.09572
#
# Velocity S-wave (km/s) = 2.72628 3.55655 3.16873
# Velocity P-wave (km/s) = 3.49228 4.98731 4.30519
#
# Compressibility (1/GPa) = 0.24273965
#
# Stress axis : x y z
#
# Youngs Moduli (GPa) = 11.73276 21.43432 54.60213
#
# Poissons Ratio (x) = -0.58287 -0.59521
# Poissons Ratio (y) = -0.31905 -0.44642
# Poissons Ratio (z) = -0.12790 -0.17525
#
# Static dielectric constant tensor:
#      x y z
#    x 1.597030 -0.027460 0.008470 
#    y -0.027460 1.635490 -0.000650 
#    z 0.008470 -0.000650 1.655110 
# 
# From -- ./inp_files/284584.got.cif
#   From: 2010.05.17/outbox.cif.g08.bks.cpg/sg2_143_cif.got.tgz:284584.got - 2010.06.03 11:33:40.
