data_PCOD9103786
_publ_section_title
;
Structure prediction by ZEFSAII (Michael W. Deem and Ramdas Pophale) SiO2 
 PCOD9103786
Probable space group: P -1
;
_chemical_formula_sum "Si O2"
_cell_formula_units_Z 16
_cell_length_a 15.349245
_cell_length_b 12.164026
_cell_length_c 9.977845
_cell_angle_alpha 51.999938
_cell_angle_beta 106.123600
_cell_angle_gamma 139.864555
_cell_volume 875.331769
_symmetry_space_group_name_H-M "P -1"
_symmetry_group_IT_number 2
_symmetry_cell_setting 'triclinic'
loop_
_space_group_symop_operation_xyz
x,y,z
-x,-y,-z
loop_
_atom_site_type_symbol
_atom_site_label
_atom_site_fract_x
_atom_site_fract_y
_atom_site_fract_z
Si Si1 0.900689 0.297481 0.501476
Si Si2 0.925324 0.057600 0.097789
Si Si3 0.405688 0.007056 0.028118
Si Si4 0.062808 0.613112 0.086036
Si Si5 0.570385 0.975476 0.650923
Si Si6 0.578472 0.648317 0.288554
Si Si7 0.419471 0.507236 0.863844
Si Si8 0.898888 0.981442 0.835489
O O1 0.885007 0.113672 0.660159
O O2 0.000000 0.500000 0.500000
O O3 0.975277 0.417150 0.303020
O O4 0.738549 0.161572 0.542258
O O5 0.754635 0.849181 0.218716
O O6 0.976149 0.270362 0.003474
O O7 0.955049 0.089386 0.926713
O O8 0.002493 0.008108 0.212384
O O9 0.236055 0.800731 0.056531
O O10 0.422598 0.999854 0.201598
O O11 0.500000 0.000000 0.000000
O O12 0.454393 0.227753 0.853615
O O13 0.000000 0.500000 0.000000
O O14 0.477975 0.727116 0.762951
O O15 0.500000 0.000000 0.500000
O O16 0.500000 0.500000 0.500000
O O17 0.542096 0.498863 0.263969
O O18 0.500000 0.500000 0.000000
O O19 0.250246 0.278393 0.996781
#
# Coordination Sequence:
#
# PCOD9103786 Si02
#       8
#     2   2   2   2   2   2   2   2
#     4  12  22  42  68  93 130 168 221 268 318 384
#     4   9  20  39  63  92 124 159 215 261 324 377
#     4  11  25  45  61  94 139 171 212 274 328 382
#     4  11  25  43  63  92 134 172 208 267 332 386
#     4  12  27  41  68 103 128 172 227 271 323 388
#     4  10  22  40  66  91 129 174 208 262 329 391
#     4  11  21  42  64  91 128 164 215 272 322 371
#     4  10  20  38  68  94 119 166 210 271 318 372
#
# _framework density 18.278784000000002
#
# number of rings (size 3 to 8) (size 9 to 14) (size 15 to 20)
#    0.000    1.250    5.000    0.750    5.250    3.000 
#    0.000    0.625    0.000    0.000    0.000    0.000 
#    0.000    0.000    0.000    0.000    0.000    0.000 
#
# Total GULP energy -89141.727172 kJ/mol
# GULP energy per Si atom -5571.357948 kJ/mol
# Density = 1.823718 g / cm^3
# Si number density = 18.278784 Si / 1000 Ang^3
#
#
#
# Elastic Constant Matrix: (Units=GPa)
#
#
# Indices 1 2 3 4 5 6 
#
# 1 155.5243 65.3694 65.1288 2.1618 12.4830 1.1613
# 2 65.3694 127.4925 60.9607 7.8514 6.7525 -18.4078
# 3 65.1288 60.9607 136.7752 13.6442 -0.2665 -1.8608
# 4 2.1618 7.8514 13.6442 27.1218 -4.0470 3.2452
# 5 12.4830 6.7525 -0.2665 -4.0470 32.3222 7.1424
# 6 1.1613 -18.4078 -1.8608 3.2452 7.1424 24.0795
#
#
#
# Elastic Compliance Matrix: (Units=1/GPa)
#
#
# Indices 1 2 3 4 5 6 
#
# 1 0.009500 -0.003953 -0.003016 0.002039 -0.001853 -0.003438
# 2 -0.003953 0.013988 -0.003789 -0.004028 -0.004700 0.012528
# 3 -0.003016 -0.003789 0.010764 -0.003525 0.002058 -0.002055
# 4 0.002039 -0.004028 -0.003525 0.042189 0.007840 -0.011462
# 5 -0.001853 -0.004700 0.002058 0.007840 0.037034 -0.015386
# 6 -0.003438 0.012528 -0.002055 -0.011462 -0.015386 0.057222
#
#
# Mechanical properties :
#
#
# Convention : Reuss Voigt Hill
#
# Bulk Modulus (GPa) = 78.51435 89.18997 83.85216
# Shear Modulus (GPa) = 25.45074 31.92690 28.68882
#
# Velocity S-wave (km/s) = 3.73549 4.18385 3.96601
# Velocity P-wave (km/s) = 7.85189 8.49939 8.18205
#
# Compressibility (1/GPa) = 0.01273653
#
# Stress axis : x y z
#
# Youngs Moduli (GPa) = 105.25929 71.49018 92.90474
#
# Poissons Ratio (x) = 0.28260 0.28018
# Poissons Ratio (y) = 0.41609 0.35201
# Poissons Ratio (z) = 0.31744 0.27087
#
# Static dielectric constant tensor:
#      x y z
#    x 1.688630 -0.056330 0.080540 
#    y -0.056330 1.783960 -0.088750 
#    z 0.080540 -0.088750 1.722700 
# 
# From -- ./inp_files/299277.got.cif
#   From: 2010.05.17/outbox.cif.g08.bks.cpg/sg2_150_cif.got.tgz:299277.got - 2010.06.03 11:33:40.
