data_PCOD9103300
_publ_section_title
;
Structure prediction by ZEFSAII (Michael W. Deem and Ramdas Pophale) SiO2 
 PCOD9103300
Probable space group: P -1
;
_chemical_formula_sum "Si O2"
_cell_formula_units_Z 14
_cell_length_a 9.019845
_cell_length_b 14.484702
_cell_length_c 10.723482
_cell_angle_alpha 149.943584
_cell_angle_beta 99.406060
_cell_angle_gamma 95.655805
_cell_volume 605.120748
_symmetry_space_group_name_H-M "P -1"
_symmetry_group_IT_number 2
_symmetry_cell_setting 'triclinic'
loop_
_space_group_symop_operation_xyz
x,y,z
-x,-y,-z
loop_
_atom_site_type_symbol
_atom_site_label
_atom_site_fract_x
_atom_site_fract_y
_atom_site_fract_z
Si Si1 0.699423 0.108002 0.680628
Si Si2 0.345320 0.295424 0.799577
Si Si3 0.799997 0.841466 0.822277
Si Si4 0.252576 0.798842 0.856289
Si Si5 0.911851 0.643535 0.802639
Si Si6 0.612937 0.378016 0.135165
Si Si7 0.986838 0.690442 0.161077
O O1 0.816193 0.127278 0.601009
O O2 0.500000 0.000000 0.500000
O O3 0.698315 0.915956 0.531803
O O4 0.730489 0.330744 0.997825
O O5 0.166325 0.292386 0.777870
O O6 0.500000 0.500000 0.000000
O O7 0.432715 0.312827 0.967928
O O8 0.810581 0.757620 0.863812
O O9 0.711254 0.621638 0.475383
O O10 0.708224 0.981973 0.945888
O O11 0.000000 0.000000 0.000000
O O12 0.191934 0.607307 0.526639
O O13 0.392812 0.775093 0.932328
O O14 0.086080 0.728417 0.842628
O O15 0.952261 0.682468 0.998538
O O16 0.000000 0.500000 0.000000
#
# Coordination Sequence:
#
# PCOD9103300 Si02
#       7
#     2   2   2   2   2   2   2
#     4  10  22  43  66  98 137 176 227 287 338 413
#     4  11  26  43  66  98 136 190 238 280 349 406
#     4   9  19  34  63 103 129 172 227 278 349 408
#     4   9  17  36  63  98 128 174 221 279 345 403
#     4   9  19  36  61  96 134 167 227 286 329 410
#     4  10  20  38  65  96 132 173 224 282 336 407
#     4  12  24  44  67 100 141 185 232 284 343 410
#
# _framework density 23.135878000000002
#
# number of rings (size 3 to 8) (size 9 to 14) (size 15 to 20)
#    0.000    2.000    1.429    3.000    2.000    0.000 
#    5.143    2.857    0.000    1.714    0.000    0.000 
#    0.000    0.000    0.000    0.000    0.000    0.000 
#
# Total GULP energy -77978.616307 kJ/mol
# GULP energy per Si atom -5569.901165 kJ/mol
# Density = 2.308322 g / cm^3
# Si number density = 23.135878 Si / 1000 Ang^3
#
#
#
# Elastic Constant Matrix: (Units=GPa)
#
#
# Indices 1 2 3 4 5 6 
#
# 1 114.2711 29.1407 30.3557 14.8695 -0.0831 -20.0545
# 2 29.1407 112.5534 57.7893 27.1710 -8.1733 -30.5793
# 3 30.3557 57.7893 123.2670 32.7902 0.4737 -17.5990
# 4 14.8695 27.1710 32.7902 33.3454 -12.6725 -6.4199
# 5 -0.0831 -8.1733 0.4737 -12.6725 28.3188 6.8038
# 6 -20.0545 -30.5793 -17.5990 -6.4199 6.8038 42.3739
#
#
#
# Elastic Compliance Matrix: (Units=1/GPa)
#
#
# Indices 1 2 3 4 5 6 
#
# 1 0.010266 -0.000474 -0.000713 -0.003749 -0.002756 0.004095
# 2 -0.000474 0.014699 -0.003883 -0.006646 -0.000555 0.007852
# 3 -0.000713 -0.003883 0.013711 -0.012444 -0.007366 0.001852
# 4 -0.003749 -0.006646 -0.012444 0.057760 0.025841 -0.007137
# 5 -0.002756 -0.000555 -0.007366 0.025841 0.048922 -0.008704
# 6 0.004095 0.007852 0.001852 -0.007137 -0.008704 0.032290
#
#
# Mechanical properties :
#
#
# Convention : Reuss Voigt Hill
#
# Bulk Modulus (GPa) = 35.04453 64.96254 50.00353
# Shear Modulus (GPa) = 25.34212 36.32801 30.83506
#
# Velocity S-wave (km/s) = 3.31321 3.96688 3.65469
# Velocity P-wave (km/s) = 5.46046 7.00865 6.28243
#
# Compressibility (1/GPa) = 0.02853512
#
# Stress axis : x y z
#
# Youngs Moduli (GPa) = 97.40872 68.03338 72.93209
#
# Poissons Ratio (x) = 0.03227 0.05202
# Poissons Ratio (y) = 0.04621 0.28319
# Poissons Ratio (z) = 0.06947 0.26417
#
# Static dielectric constant tensor:
#      x y z
#    x 1.919850 -0.018680 0.063620 
#    y -0.018680 2.117690 0.079900 
#    z 0.063620 0.079900 1.981840 
# 
# From -- ./inp_files/400092.got.cif
#   From: 2010.05.17/outbox.cif.g08.bks.cpg/sg2_201_cif.got.tgz:400092.got - 2010.06.03 11:33:40.
