data_PCOD9103328
_publ_section_title
;
Structure prediction by ZEFSAII (Michael W. Deem and Ramdas Pophale) SiO2 
 PCOD9103328
Probable space group: P -1
;
_chemical_formula_sum "Si O2"
_cell_formula_units_Z 14
_cell_length_a 20.428751
_cell_length_b 8.726590
_cell_length_c 9.009361
_cell_angle_alpha 125.840332
_cell_angle_beta 128.075835
_cell_angle_gamma 30.459407
_cell_volume 635.045993
_symmetry_space_group_name_H-M "P -1"
_symmetry_group_IT_number 2
_symmetry_cell_setting 'triclinic'
loop_
_space_group_symop_operation_xyz
x,y,z
-x,-y,-z
loop_
_atom_site_type_symbol
_atom_site_label
_atom_site_fract_x
_atom_site_fract_y
_atom_site_fract_z
Si Si1 0.206714 0.916478 0.525105
Si Si2 0.851343 0.182097 0.902093
Si Si3 0.055183 0.697731 0.455418
Si Si4 0.806889 0.865980 0.829956
Si Si5 0.686433 0.649014 0.183541
Si Si6 0.356620 0.658590 0.888297
Si Si7 0.381693 0.860541 0.541720
O O1 0.200150 0.767818 0.306404
O O2 0.304982 0.700307 0.676351
O O3 0.264952 0.992089 0.562372
O O4 0.057764 0.198774 0.542658
O O5 0.854833 0.975629 0.880204
O O6 0.749848 0.498894 0.027149
O O7 0.000000 0.000000 0.000000
O O8 0.091046 0.488809 0.254389
O O9 0.187561 0.509054 0.627899
O O10 0.000000 0.000000 0.500000
O O11 0.677535 0.033538 0.646619
O O12 0.755684 0.008001 0.001885
O O13 0.636033 0.541679 0.115813
O O14 0.580240 0.004888 0.262178
O O15 0.500000 0.500000 0.000000
O O16 0.500000 0.500000 0.500000
#
# Coordination Sequence:
#
# PCOD9103328 Si02
#       7
#     2   2   2   2   2   2   2
#     4  11  23  39  68  98 130 169 219 265 323 387
#     4  10  20  38  65  98 131 162 211 263 331 389
#     4  11  21  41  65  99 135 162 217 269 334 388
#     4   9  23  40  64  92 134 173 204 276 329 372
#     4  10  22  42  68  95 133 173 206 278 330 378
#     4  11  23  46  65  94 133 175 223 264 318 390
#     4  10  22  44  66  94 132 174 221 264 319 387
#
# _framework density 22.045646000000001
#
# number of rings (size 3 to 8) (size 9 to 14) (size 15 to 20)
#    0.000    1.714    2.857    0.857    2.000    2.286 
#    5.143   12.143    0.000    0.000    0.000    0.000 
#    0.000    0.000    0.000    0.000    0.000    0.000 
#
# Total GULP energy -78276.520802 kJ/mol
# GULP energy per Si atom -5591.180057 kJ/mol
# Density = 2.199547 g / cm^3
# Si number density = 22.045646 Si / 1000 Ang^3
#
#
#
# Elastic Constant Matrix: (Units=GPa)
#
#
# Indices 1 2 3 4 5 6 
#
# 1 86.3507 27.9844 46.6566 7.4351 4.9969 -26.1488
# 2 27.9844 97.9235 51.1645 29.8299 5.3144 -1.7158
# 3 46.6566 51.1645 153.4436 22.2036 -11.1325 -6.3653
# 4 7.4351 29.8299 22.2036 45.2250 5.2364 10.1689
# 5 4.9969 5.3144 -11.1325 5.2364 32.4394 -7.7944
# 6 -26.1488 -1.7158 -6.3653 10.1689 -7.7944 22.1375
#
#
#
# Elastic Compliance Matrix: (Units=1/GPa)
#
#
# Indices 1 2 3 4 5 6 
#
# 1 0.025359 -0.002049 -0.003890 -0.009272 0.004921 0.034668
# 2 -0.002049 0.015080 -0.003361 -0.007919 -0.001845 0.000770
# 3 -0.003890 -0.003361 0.009615 -0.002664 0.005103 0.000929
# 4 -0.009272 -0.007919 -0.002664 0.039561 -0.013004 -0.035083
# 5 0.004921 -0.001845 0.005103 -0.013004 0.040825 0.027484
# 6 0.034668 0.000770 0.000929 -0.035083 0.027484 0.112241
#
#
# Mechanical properties :
#
#
# Convention : Reuss Voigt Hill
#
# Bulk Modulus (GPa) = 31.79499 65.48095 48.63797
# Shear Modulus (GPa) = 18.39817 34.08788 26.24302
#
# Velocity S-wave (km/s) = 2.89199 3.93649 3.45395
# Velocity P-wave (km/s) = 5.06015 7.10128 6.16577
#
# Compressibility (1/GPa) = 0.03145150
#
# Stress axis : x y z
#
# Youngs Moduli (GPa) = 39.43419 66.31403 104.00498
#
# Poissons Ratio (x) = 0.13589 0.40463
# Poissons Ratio (y) = 0.08081 0.34958
# Poissons Ratio (z) = 0.15342 0.22289
#
# Static dielectric constant tensor:
#      x y z
#    x 1.801680 0.016830 0.006290 
#    y 0.016830 1.860540 0.012260 
#    z 0.006290 0.012260 1.827630 
# 
# From -- ./inp_files/220728.got.cif
#   From: 2010.05.17/outbox.cif.g08.bks.cpg/sg2_111_cif.got.tgz:220728.got - 2010.06.03 11:33:40.
