data_PCOD9103496
_publ_section_title
;
Structure prediction by ZEFSAII (Michael W. Deem and Ramdas Pophale) SiO2 
 PCOD9103496
Probable space group: P -1
;
_chemical_formula_sum "Si O2"
_cell_formula_units_Z 16
_cell_length_a 14.467079
_cell_length_b 9.176632
_cell_length_c 13.945236
_cell_angle_alpha 138.066058
_cell_angle_beta 136.337528
_cell_angle_gamma 42.597343
_cell_volume 771.557945
_symmetry_space_group_name_H-M "P -1"
_symmetry_group_IT_number 2
_symmetry_cell_setting 'triclinic'
loop_
_space_group_symop_operation_xyz
x,y,z
-x,-y,-z
loop_
_atom_site_type_symbol
_atom_site_label
_atom_site_fract_x
_atom_site_fract_y
_atom_site_fract_z
Si Si1 0.051552 0.326279 0.151866
Si Si2 0.550055 0.293853 0.289381
Si Si3 0.388114 0.577031 0.122127
Si Si4 0.458240 0.101433 0.625846
Si Si5 0.911405 0.021096 0.815451
Si Si6 0.763810 0.744591 0.200420
Si Si7 0.134160 0.254852 0.510814
Si Si8 0.647887 0.630561 0.649528
O O1 0.198544 0.355766 0.250989
O O2 0.904731 0.578857 0.159917
O O3 0.055720 0.211108 0.204945
O O4 0.031124 0.126254 0.972847
O O5 0.501056 0.420656 0.212506
O O6 0.637760 0.410221 0.476634
O O7 0.399580 0.358955 0.270212
O O8 0.651606 0.010432 0.213257
O O9 0.462834 0.730280 0.202547
O O10 0.242742 0.775685 0.162178
O O11 0.331677 0.411478 0.937762
O O12 0.283361 0.242385 0.569128
O O13 0.500000 0.000000 0.500000
O O14 0.515916 0.870473 0.624283
O O15 0.895478 0.956767 0.663597
O O16 0.834258 0.770249 0.365864
O O17 0.000000 0.500000 0.500000
#
# Coordination Sequence:
#
# PCOD9103496 Si02
#       8
#     2   2   2   2   2   2   2   2
#     4  10  21  41  66  95 128 171 212 264 324 383
#     4  11  24  42  65  93 136 171 214 265 318 385
#     4  11  23  42  72  92 127 174 219 264 323 379
#     4  12  21  40  69  97 121 168 226 266 311 386
#     4  10  20  38  66  94 129 167 211 268 320 377
#     4  11  25  42  62  97 137 169 206 269 329 382
#     4  12  23  38  62  98 135 161 209 273 327 369
#     4  11  22  40  69  98 124 172 223 261 314 388
#
# _framework density 20.737262000000001
#
# number of rings (size 3 to 8) (size 9 to 14) (size 15 to 20)
#    0.000    1.000    6.250    0.375    1.750    1.000 
#    2.250    2.500    2.750    0.000    0.000    0.000 
#    0.000    0.000    0.000    0.000    0.000    0.000 
#
# Total GULP energy -89416.185050 kJ/mol
# GULP energy per Si atom -5588.511566 kJ/mol
# Density = 2.069006 g / cm^3
# Si number density = 20.737262 Si / 1000 Ang^3
#
#
#
# Elastic Constant Matrix: (Units=GPa)
#
#
# Indices 1 2 3 4 5 6 
#
# 1 51.3417 -0.3003 21.8392 6.6953 22.1878 -16.4969
# 2 -0.3003 83.4646 6.7274 20.0613 6.1890 -18.5754
# 3 21.8392 6.7274 114.7094 14.9601 14.3496 -9.0744
# 4 6.6953 20.0613 14.9601 27.5674 1.7266 2.6242
# 5 22.1878 6.1890 14.3496 1.7266 35.8196 -12.2409
# 6 -16.4969 -18.5754 -9.0744 2.6242 -12.2409 30.2571
#
#
#
# Elastic Compliance Matrix: (Units=1/GPa)
#
#
# Indices 1 2 3 4 5 6 
#
# 1 0.035209 0.009469 -0.001788 -0.015383 -0.015281 0.019626
# 2 0.009469 0.021267 0.001439 -0.020245 -0.002515 0.019389
# 3 -0.001788 0.001439 0.010265 -0.006315 -0.002020 0.002717
# 4 -0.015383 -0.020245 -0.006315 0.060469 0.003584 -0.026504
# 5 -0.015281 -0.002515 -0.002020 0.003584 0.040344 0.005530
# 6 0.019626 0.019389 0.002717 -0.026504 0.005530 0.061005
#
#
# Mechanical properties :
#
#
# Convention : Reuss Voigt Hill
#
# Bulk Modulus (GPa) = 11.76751 34.00539 22.88645
# Shear Modulus (GPa) = 20.95150 33.47878 27.21514
#
# Velocity S-wave (km/s) = 3.18202 4.02235 3.62661
# Velocity P-wave (km/s) = 4.38032 6.16492 5.34759
#
# Compressibility (1/GPa) = 0.08497973
#
# Stress axis : x y z
#
# Youngs Moduli (GPa) = 28.40148 47.02179 97.41779
#
# Poissons Ratio (x) = -0.44525 0.17423
# Poissons Ratio (y) = -0.26894 -0.14014
# Poissons Ratio (z) = 0.05079 -0.06764
#
# Static dielectric constant tensor:
#      x y z
#    x 1.747500 -0.003340 -0.018110 
#    y -0.003340 1.685520 0.010070 
#    z -0.018110 0.010070 1.773450 
# 
# From -- ./inp_files/399300.got.cif
#   From: 2010.05.17/outbox.cif.g08.bks.cpg/sg2_200_cif.got.tgz:399300.got - 2010.06.03 11:33:40.
