data_PCOD9103918
_publ_section_title
;
Structure prediction by ZEFSAII (Michael W. Deem and Ramdas Pophale) SiO2 
 PCOD9103918
Probable space group: P -1
;
_chemical_formula_sum "Si O2"
_cell_formula_units_Z 14
_cell_length_a 8.388439
_cell_length_b 9.139503
_cell_length_c 21.726827
_cell_angle_alpha 29.670891
_cell_angle_beta 45.660140
_cell_angle_gamma 47.888533
_cell_volume 580.225372
_symmetry_space_group_name_H-M "P -1"
_symmetry_group_IT_number 2
_symmetry_cell_setting 'triclinic'
loop_
_space_group_symop_operation_xyz
x,y,z
-x,-y,-z
loop_
_atom_site_type_symbol
_atom_site_label
_atom_site_fract_x
_atom_site_fract_y
_atom_site_fract_z
Si Si1 0.196569 0.199268 0.376746
Si Si2 0.500718 0.366831 0.451780
Si Si3 0.304657 0.513332 0.767394
Si Si4 0.434794 0.846987 0.942392
Si Si5 0.794034 0.687980 0.808573
Si Si6 0.241228 0.605421 0.891708
Si Si7 0.179323 0.312308 0.664180
O O1 0.258930 0.240519 0.274196
O O2 0.077708 0.518490 0.318780
O O3 0.389748 0.981694 0.439923
O O4 0.000000 0.000000 0.500000
O O5 0.513766 0.422067 0.355699
O O6 0.271408 0.409131 0.538028
O O7 0.666297 0.560959 0.371880
O O8 0.329450 0.579326 0.807662
O O9 0.056078 0.689742 0.749929
O O10 0.311811 0.157260 0.889300
O O11 0.613850 0.898418 0.822644
O O12 0.256787 0.644628 0.041082
O O13 0.588194 0.631140 0.027976
O O14 0.207589 0.954656 0.792327
O O15 0.000000 0.500000 0.000000
#
# Coordination Sequence:
#
# PCOD9103918 Si02
#       7
#     2   2   2   2   2   2   2
#     4  10  20  38  70 100 132 165 223 290 335 387
#     4  10  23  42  73 101 133 173 242 275 339 400
#     4  12  25  43  70  99 142 180 223 288 342 411
#     4  11  27  42  69  96 140 186 233 283 332 408
#     4  11  23  41  70 105 130 174 247 277 336 399
#     4  12  27  48  66 100 147 184 226 278 354 411
#     4  10  23  42  69  98 135 180 220 288 332 403
#
# _framework density 24.128556
#
# number of rings (size 3 to 8) (size 9 to 14) (size 15 to 20)
#    0.000    1.143    4.286    1.714   12.000    0.571 
#    2.571    0.714    0.000    0.000    0.000    0.000 
#    0.000    0.000    0.000    0.000    0.000    0.000 
#
# Total GULP energy -78400.877787 kJ/mol
# GULP energy per Si atom -5600.062699 kJ/mol
# Density = 2.407364 g / cm^3
# Si number density = 24.128556 Si / 1000 Ang^3
#
#
#
# Elastic Constant Matrix: (Units=GPa)
#
#
# Indices 1 2 3 4 5 6 
#
# 1 38.0185 32.6479 23.7274 14.8580 15.6173 3.9370
# 2 32.6479 143.8052 52.3575 0.1929 19.0327 13.8394
# 3 23.7274 52.3575 101.0187 21.5378 11.7688 10.9490
# 4 14.8580 0.1929 21.5378 50.0027 6.5083 7.6082
# 5 15.6173 19.0327 11.7688 6.5083 45.3108 5.2704
# 6 3.9370 13.8394 10.9490 7.6082 5.2704 27.5377
#
#
#
# Elastic Compliance Matrix: (Units=1/GPa)
#
#
# Indices 1 2 3 4 5 6 
#
# 1 0.042401 -0.007593 -0.003061 -0.010575 -0.009544 0.003719
# 2 -0.007593 0.010717 -0.004261 0.004750 -0.001027 -0.003722
# 3 -0.003061 -0.004261 0.014037 -0.004878 0.000094 -0.001672
# 4 -0.010575 0.004750 -0.004878 0.026176 -0.000128 -0.006143
# 5 -0.009544 -0.001027 0.000094 -0.000128 0.026148 -0.003126
# 6 0.003719 -0.003722 -0.001672 -0.006143 -0.003126 0.040613
#
#
# Mechanical properties :
#
#
# Convention : Reuss Voigt Hill
#
# Bulk Modulus (GPa) = 26.79028 55.58980 41.19004
# Shear Modulus (GPa) = 24.70826 36.17755 30.44290
#
# Velocity S-wave (km/s) = 3.20351 3.87637 3.55589
# Velocity P-wave (km/s) = 4.98102 6.56689 5.82814
#
# Compressibility (1/GPa) = 0.03732698
#
# Stress axis : x y z
#
# Youngs Moduli (GPa) = 23.58414 93.31316 71.24223
#
# Poissons Ratio (x) = 0.70849 0.21804
# Poissons Ratio (y) = 0.17906 0.30354
# Poissons Ratio (z) = 0.07218 0.39757
#
# Static dielectric constant tensor:
#      x y z
#    x 1.978080 -0.021630 -0.056100 
#    y -0.021630 1.923350 0.031590 
#    z -0.056100 0.031590 1.943940 
# 
# From -- ./inp_files/433453.got.cif
#   From: 2010.05.17/outbox.cif.g08.bks.cpg/sg2_217_cif.got.tgz:433453.got - 2010.06.03 11:33:40.
