data_PCOD9103319
_publ_section_title
;
Structure prediction by ZEFSAII (Michael W. Deem and Ramdas Pophale) SiO2 
 PCOD9103319
Probable space group: P -1
;
_chemical_formula_sum "Si O2"
_cell_formula_units_Z 15
_cell_length_a 12.358740
_cell_length_b 10.389990
_cell_length_c 7.389153
_cell_angle_alpha 63.080553
_cell_angle_beta 130.379041
_cell_angle_gamma 103.461093
_cell_volume 641.906433
_symmetry_space_group_name_H-M "P -1"
_symmetry_group_IT_number 2
_symmetry_cell_setting 'triclinic'
loop_
_space_group_symop_operation_xyz
x,y,z
-x,-y,-z
loop_
_atom_site_type_symbol
_atom_site_label
_atom_site_fract_x
_atom_site_fract_y
_atom_site_fract_z
Si Si1 0.971162 0.392854 0.371427
Si Si2 0.119618 0.911243 0.802030
Si Si3 0.670094 0.464711 0.423369
Si Si4 0.833423 0.832526 0.074797
Si Si5 0.500000 0.500000 0.500000
Si Si6 0.025962 0.669988 0.086093
Si Si7 0.324008 0.738878 0.902155
Si Si8 0.448884 0.302901 0.135475
O O1 0.822603 0.324799 0.276658
O O2 0.000000 0.500000 0.500000
O O3 0.100804 0.268335 0.622183
O O4 0.966334 0.512583 0.131895
O O5 0.263277 0.878625 0.861777
O O6 0.150417 0.003884 0.953224
O O7 0.055764 0.761173 0.882333
O O8 0.000000 0.000000 0.500000
O O9 0.649820 0.551561 0.530631
O O10 0.813917 0.365788 0.640521
O O11 0.635440 0.561623 0.148552
O O12 0.529759 0.370494 0.351131
O O13 0.669867 0.802936 0.883876
O O14 0.927165 0.776878 0.040435
O O15 0.594965 0.374678 0.802472
O O16 0.426873 0.757112 0.830318
#
# Coordination Sequence:
#
# PCOD9103319 Si02
#       8
#     2   2   2   2   1   2   2   2
#     4  10  21  39  70 103 125 168 227 284 323 391
#     4  12  26  46  64  95 138 186 217 275 339 402
#     4  10  20  38  65  97 136 164 213 278 340 383
#     4  11  23  42  68 101 131 175 228 271 335 404
#     4  10  22  38  64  98 132 168 216 274 336 386
#     4  11  23  42  69  98 130 174 228 280 326 397
#     4  11  23  44  68  96 140 175 220 276 344 394
#     4  10  22  38  68  99 130 176 214 277 337 395
#
# _framework density 23.367895000000001
#
# number of rings (size 3 to 8) (size 9 to 14) (size 15 to 20)
#    0.000    1.333    4.000    2.000    9.333    1.067 
#    4.800    0.667    0.000    0.000    0.000    0.000 
#    0.000    0.000    0.000    0.000    0.000    0.000 
#
# Total GULP energy -83553.696382 kJ/mol
# GULP energy per Si atom -5570.246425 kJ/mol
# Density = 2.331471 g / cm^3
# Si number density = 23.367895 Si / 1000 Ang^3
#
#
#
# Elastic Constant Matrix: (Units=GPa)
#
#
# Indices 1 2 3 4 5 6 
#
# 1 112.9083 12.6037 21.1396 -3.6013 38.6829 -1.8615
# 2 12.6037 80.2930 -7.8694 -7.7152 23.8608 11.4134
# 3 21.1396 -7.8694 68.4224 1.1306 24.1667 8.6199
# 4 -3.6013 -7.7152 1.1306 28.4887 3.9016 12.3933
# 5 38.6829 23.8608 24.1667 3.9016 41.5977 -1.7302
# 6 -1.8615 11.4134 8.6199 12.3933 -1.7302 35.3128
#
#
#
# Elastic Compliance Matrix: (Units=1/GPa)
#
#
# Indices 1 2 3 4 5 6 
#
# 1 0.014593 0.005838 0.003959 0.008717 -0.020292 -0.006138
# 2 0.005838 0.028507 0.015935 0.022164 -0.034042 -0.022242
# 3 0.003959 0.015935 0.028600 0.016401 -0.031776 -0.019236
# 4 0.008717 0.022164 0.016401 0.061552 -0.037542 -0.034149
# 5 -0.020292 -0.034042 -0.031776 -0.037542 0.085877 0.035073
# 6 -0.006138 -0.022242 -0.019236 -0.034149 0.035073 0.053582
#
#
# Mechanical properties :
#
#
# Convention : Reuss Voigt Hill
#
# Bulk Modulus (GPa) = 8.11934 34.81906 21.46920
# Shear Modulus (GPa) = 19.06188 36.79650 27.92919
#
# Velocity S-wave (km/s) = 2.85920 3.97250 3.46091
# Velocity P-wave (km/s) = 3.79238 5.99781 5.01776
#
# Compressibility (1/GPa) = 0.12316269
#
# Stress axis : x y z
#
# Youngs Moduli (GPa) = 68.52723 35.07854 34.96490
#
# Poissons Ratio (x) = -0.20477 -0.13843
# Poissons Ratio (y) = -0.40003 -0.55715
# Poissons Ratio (z) = -0.27130 -0.55896
#
# Static dielectric constant tensor:
#      x y z
#    x 1.861580 0.086390 -0.008550 
#    y 0.086390 1.829550 -0.008620 
#    z -0.008550 -0.008620 1.867330 
# 
# From -- ./inp_files/257183.got.cif
#   From: 2010.05.17/outbox.cif.g08.bks.cpg/sg2_129_cif.got.tgz:257183.got - 2010.06.03 11:33:40.
