data_PCOD9103815
_publ_section_title
;
Structure prediction by ZEFSAII (Michael W. Deem and Ramdas Pophale) SiO2 
 PCOD9103815
Probable space group: P -1
;
_chemical_formula_sum "Si O2"
_cell_formula_units_Z 16
_cell_length_a 5.204963
_cell_length_b 19.591530
_cell_length_c 11.187773
_cell_angle_alpha 36.574768
_cell_angle_beta 92.797861
_cell_angle_gamma 95.806879
_cell_volume 675.299752
_symmetry_space_group_name_H-M "P -1"
_symmetry_group_IT_number 2
_symmetry_cell_setting 'triclinic'
loop_
_space_group_symop_operation_xyz
x,y,z
-x,-y,-z
loop_
_atom_site_type_symbol
_atom_site_label
_atom_site_fract_x
_atom_site_fract_y
_atom_site_fract_z
Si Si1 0.246601 0.505163 0.410910
Si Si2 0.037601 0.538358 0.746915
Si Si3 0.085691 0.335996 0.897097
Si Si4 0.672451 0.052662 0.262825
Si Si5 0.998086 0.194135 0.884552
Si Si6 0.326836 0.605260 0.873076
Si Si7 0.610873 0.818058 0.721375
Si Si8 0.535402 0.898706 0.052382
O O1 0.500000 0.500000 0.500000
O O2 0.163126 0.423713 0.409710
O O3 0.211863 0.632007 0.171505
O O4 0.000000 0.500000 0.500000
O O5 0.194840 0.627738 0.710853
O O6 0.211448 0.457257 0.786851
O O7 0.885655 0.448259 0.961701
O O8 0.916442 0.107150 0.115359
O O9 0.164697 0.241348 0.122636
O O10 0.151182 0.296273 0.820999
O O11 0.576780 0.132223 0.253918
O O12 0.711853 0.929619 0.490296
O O13 0.463688 0.049435 0.155202
O O14 0.713194 0.198875 0.815259
O O15 0.192182 0.149505 0.858261
O O16 0.472108 0.719036 0.772931
O O17 0.500000 0.500000 0.000000
O O18 0.500000 0.000000 0.000000
#
# Coordination Sequence:
#
# PCOD9103815 Si02
#       8
#     2   2   2   2   2   2   2   2
#     4  10  24  41  67  97 134 168 226 291 334 400
#     4   9  23  36  62 100 124 179 219 278 340 399
#     4  10  20  38  68  96 129 179 226 276 340 411
#     4   9  23  37  65 102 133 177 227 289 329 400
#     4  10  20  39  65  96 127 174 230 261 342 401
#     4  11  20  38  64  91 135 177 224 270 342 416
#     4  11  20  41  65 100 139 178 231 284 342 411
#     4  10  21  40  63  91 132 176 219 281 333 400
#
# _framework density 23.693182
#
# number of rings (size 3 to 8) (size 9 to 14) (size 15 to 20)
#    1.500    0.500    2.500    1.125    3.500    1.500 
#    2.250    1.250    2.750    0.000    0.000    0.000 
#    0.000    0.000    0.000    0.000    0.000    0.000 
#
# Total GULP energy -89120.549620 kJ/mol
# GULP energy per Si atom -5570.034351 kJ/mol
# Density = 2.363926 g / cm^3
# Si number density = 23.693182 Si / 1000 Ang^3
#
#
#
# Elastic Constant Matrix: (Units=GPa)
#
#
# Indices 1 2 3 4 5 6 
#
# 1 116.4567 44.2557 32.9583 3.8503 15.7582 9.0543
# 2 44.2557 164.9997 29.2986 4.1945 5.3826 13.4722
# 3 32.9583 29.2986 88.2302 0.0722 20.4587 13.5221
# 4 3.8503 4.1945 0.0722 37.5144 6.3499 11.1877
# 5 15.7582 5.3826 20.4587 6.3499 35.7192 8.1468
# 6 9.0543 13.4722 13.5221 11.1877 8.1468 43.3283
#
#
#
# Elastic Compliance Matrix: (Units=1/GPa)
#
#
# Indices 1 2 3 4 5 6 
#
# 1 0.010563 -0.002277 -0.002527 -0.000322 -0.002789 -0.000103
# 2 -0.002277 0.007028 -0.001554 -0.000347 0.001208 -0.001362
# 3 -0.002527 -0.001554 0.014850 0.002457 -0.006919 -0.002957
# 4 -0.000322 -0.000347 0.002457 0.029735 -0.004820 -0.007363
# 5 -0.002789 0.001208 -0.006919 -0.004820 0.034521 -0.002880
# 6 -0.000103 -0.001362 -0.002957 -0.007363 -0.002880 0.026890
#
#
# Mechanical properties :
#
#
# Convention : Reuss Voigt Hill
#
# Bulk Modulus (GPa) = 50.69929 64.74576 57.72253
# Shear Modulus (GPa) = 34.99471 40.85731 37.92601
#
# Velocity S-wave (km/s) = 3.84734 4.15713 4.00523
# Velocity P-wave (km/s) = 6.41722 7.10130 6.76791
#
# Compressibility (1/GPa) = 0.01972414
#
# Stress axis : x y z
#
# Youngs Moduli (GPa) = 94.66645 142.28896 67.34215
#
# Poissons Ratio (x) = 0.32399 0.17018
# Poissons Ratio (y) = 0.21555 0.10467
# Poissons Ratio (z) = 0.23923 0.22117
#
# Static dielectric constant tensor:
#      x y z
#    x 2.012580 0.029870 -0.032580 
#    y 0.029870 1.973200 -0.010710 
#    z -0.032580 -0.010710 2.052830 
# 
# From -- ./inp_files/70687.got.cif
#   From: 2010.05.17/outbox.cif.g08.bks.cpg/sg2_36_cif.got.tgz:70687.got - 2010.06.03 11:33:40.
