data_PCOD9103641
_publ_section_title
;
Structure prediction by ZEFSAII (Michael W. Deem and Ramdas Pophale) SiO2 
 PCOD9103641
Probable space group: P -1
;
_chemical_formula_sum "Si O2"
_cell_formula_units_Z 15
_cell_length_a 11.084812
_cell_length_b 8.484163
_cell_length_c 10.828141
_cell_angle_alpha 63.074014
_cell_angle_beta 141.415719
_cell_angle_gamma 109.010204
_cell_volume 565.520098
_symmetry_space_group_name_H-M "P -1"
_symmetry_group_IT_number 2
_symmetry_cell_setting 'triclinic'
loop_
_space_group_symop_operation_xyz
x,y,z
-x,-y,-z
loop_
_atom_site_type_symbol
_atom_site_label
_atom_site_fract_x
_atom_site_fract_y
_atom_site_fract_z
Si Si1 0.846461 0.761774 0.273969
Si Si2 0.466368 0.376004 0.334377
Si Si3 0.590280 0.931974 0.791804
Si Si4 0.327028 0.988448 0.765759
Si Si5 0.134251 0.570511 0.432669
Si Si6 0.183207 0.651389 0.870308
Si Si7 0.089103 0.300554 0.159200
Si Si8 0.000000 0.000000 0.000000
O O1 0.695369 0.824216 0.027153
O O2 0.807762 0.566828 0.363053
O O3 0.048529 0.751003 0.363025
O O4 0.832624 0.880746 0.343206
O O5 0.686534 0.417640 0.518315
O O6 0.318816 0.324695 0.340546
O O7 0.481510 0.208919 0.312799
O O8 0.356577 0.543154 0.117845
O O9 0.412647 0.032231 0.685896
O O10 0.765014 0.036242 0.837522
O O11 0.264845 0.787851 0.791209
O O12 0.500000 0.000000 0.000000
O O13 0.953066 0.488755 0.249937
O O14 0.041463 0.763996 0.810449
O O15 0.000000 0.500000 0.000000
O O16 0.057389 0.174687 0.062508
#
# Coordination Sequence:
#
# PCOD9103641 Si02
#       8
#     2   2   2   2   2   2   2   1
#     4  10  22  40  57  93 126 167 205 264 319 371
#     4  10  21  39  63  93 123 168 219 254 320 388
#     4  10  20  38  67  92 125 167 210 266 319 378
#     4  10  21  36  62  89 121 161 207 259 317 375
#     4  11  24  38  63  92 129 170 208 262 319 381
#     4  11  22  41  65  93 126 167 211 267 321 373
#     4   9  20  38  65  94 124 169 213 263 320 377
#     4  10  20  38  68  98 124 166 216 262 320 386
#
# _framework density 26.524256000000001
#
# number of rings (size 3 to 8) (size 9 to 14) (size 15 to 20)
#    0.000    1.867    1.333    3.200    3.733    3.200 
#    0.000    0.000    2.933    2.400    0.000    0.000 
#    0.000    0.000    0.000    0.000    0.000    0.000 
#
# Total GULP energy -83732.317828 kJ/mol
# GULP energy per Si atom -5582.154522 kJ/mol
# Density = 2.646389 g / cm^3
# Si number density = 26.524256 Si / 1000 Ang^3
#
#
#
# Elastic Constant Matrix: (Units=GPa)
#
#
# Indices 1 2 3 4 5 6 
#
# 1 137.3720 51.9772 54.1491 -2.7814 48.5342 -17.5080
# 2 51.9772 93.8437 42.4240 4.5834 19.7422 -14.2029
# 3 54.1491 42.4240 86.1228 -4.1642 28.2622 8.8082
# 4 -2.7814 4.5834 -4.1642 31.1240 11.1680 -0.0067
# 5 48.5342 19.7422 28.2622 11.1680 59.6716 -2.4017
# 6 -17.5080 -14.2029 8.8082 -0.0067 -2.4017 42.4190
#
#
#
# Elastic Compliance Matrix: (Units=1/GPa)
#
#
# Indices 1 2 3 4 5 6 
#
# 1 0.014318 -0.003304 -0.004796 0.004310 -0.008874 0.005297
# 2 -0.003304 0.016598 -0.007503 -0.004390 0.001807 0.005853
# 3 -0.004796 -0.007503 0.021156 0.005298 -0.004998 -0.009167
# 4 0.004310 -0.004390 0.005298 0.038086 -0.011749 -0.001450
# 5 -0.008874 0.001807 -0.004998 -0.011749 0.027927 -0.000441
# 6 0.005297 0.005853 -0.009167 -0.001450 -0.000441 0.029599
#
#
# Mechanical properties :
#
#
# Convention : Reuss Voigt Hill
#
# Bulk Modulus (GPa) = 47.92221 68.27102 58.09662
# Shear Modulus (GPa) = 26.90436 37.89546 32.39991
#
# Velocity S-wave (km/s) = 3.18831 3.78393 3.49882
# Velocity P-wave (km/s) = 5.62675 6.69969 6.18652
#
# Compressibility (1/GPa) = 0.02086715
#
# Stress axis : x y z
#
# Youngs Moduli (GPa) = 69.84324 60.24869 47.26742
#
# Poissons Ratio (x) = 0.19906 0.22669
# Poissons Ratio (y) = 0.23076 0.35462
# Poissons Ratio (z) = 0.33496 0.45202
#
# Static dielectric constant tensor:
#      x y z
#    x 2.186000 -0.005680 -0.007080 
#    y -0.005680 2.041490 -0.069290 
#    z -0.007080 -0.069290 2.125480 
# 
# From -- ./inp_files/515471.got.cif
#   From: 2010.05.17/outbox.cif.g08.bks.cpg/sg2_258_cif.got.tgz:515471.got - 2010.06.03 11:33:40.
