data_PCOD9103118
_publ_section_title
;
Structure prediction by ZEFSAII (Michael W. Deem and Ramdas Pophale) SiO2 
 PCOD9103118
Probable space group: P -1
;
_chemical_formula_sum "Si O2"
_cell_formula_units_Z 16
_cell_length_a 9.333182
_cell_length_b 15.521761
_cell_length_c 15.648399
_cell_angle_alpha 36.136829
_cell_angle_beta 132.742445
_cell_angle_gamma 104.541968
_cell_volume 714.493774
_symmetry_space_group_name_H-M "P -1"
_symmetry_group_IT_number 2
_symmetry_cell_setting 'triclinic'
loop_
_space_group_symop_operation_xyz
x,y,z
-x,-y,-z
loop_
_atom_site_type_symbol
_atom_site_label
_atom_site_fract_x
_atom_site_fract_y
_atom_site_fract_z
Si Si1 0.061011 0.075484 0.545736
Si Si2 0.682795 0.182489 0.624569
Si Si3 0.950776 0.440085 0.919129
Si Si4 0.006597 0.224206 0.837446
Si Si5 0.129871 0.635947 0.893303
Si Si6 0.505753 0.006466 0.100049
Si Si7 0.730394 0.349568 0.343105
Si Si8 0.907054 0.556245 0.624958
O O1 0.314089 0.960011 0.806073
O O2 0.074531 0.214237 0.382780
O O3 0.811197 0.220731 0.392961
O O4 0.000000 0.000000 0.500000
O O5 0.361519 0.355068 0.359014
O O6 0.777392 0.218869 0.547616
O O7 0.788695 0.226267 0.710580
O O8 0.819531 0.954692 0.878003
O O9 0.011064 0.419398 0.860895
O O10 0.154408 0.451019 0.034352
O O11 0.967514 0.290538 0.108074
O O12 0.872034 0.443298 0.636068
O O13 0.213981 0.160300 0.898223
O O14 0.419634 0.553308 0.060054
O O15 0.639746 0.782323 0.356922
O O16 0.500000 0.000000 0.000000
O O17 0.900230 0.412498 0.355997
#
# Coordination Sequence:
#
# PCOD9103118 Si02
#       8
#     2   2   2   2   2   2   2   2
#     4  11  23  38  62  98 133 167 219 277 332 392
#     4  10  22  43  61  93 133 171 225 278 327 393
#     4  10  20  40  63  90 127 172 212 275 331 389
#     4  11  23  40  70  91 131 179 223 273 331 397
#     4  10  20  38  65  87 127 173 213 264 335 396
#     4  11  24  45  65  96 139 174 217 278 333 392
#     4  10  22  39  64  94 131 169 217 276 333 396
#     4  11  23  41  68  98 130 171 227 271 334 397
#
# _framework density 22.393478000000002
#
# number of rings (size 3 to 8) (size 9 to 14) (size 15 to 20)
#    0.000    1.500    3.750    1.875    1.750    3.500 
#    2.250    0.000    0.000    6.000    0.000    0.000 
#    0.000    0.000    0.000    0.000    0.000    0.000 
#
# Total GULP energy -89079.721507 kJ/mol
# GULP energy per Si atom -5567.482594 kJ/mol
# Density = 2.234251 g / cm^3
# Si number density = 22.393478 Si / 1000 Ang^3
#
#
#
# Elastic Constant Matrix: (Units=GPa)
#
#
# Indices 1 2 3 4 5 6 
#
# 1 99.5221 15.0057 1.9065 14.1373 -19.0888 -13.7362
# 2 15.0057 118.3825 20.0944 -1.2309 -0.7424 1.0644
# 3 1.9065 20.0944 38.4066 21.4935 -11.8969 -3.4432
# 4 14.1373 -1.2309 21.4935 32.2440 -7.0370 -5.7037
# 5 -19.0888 -0.7424 -11.8969 -7.0370 28.4742 24.6307
# 6 -13.7362 1.0644 -3.4432 -5.7037 24.6307 15.3506
#
#
#
# Elastic Compliance Matrix: (Units=1/GPa)
#
#
# Indices 1 2 3 4 5 6 
#
# 1 0.012925 -0.002862 0.006067 -0.007960 -0.000936 0.011668
# 2 -0.002862 0.010482 -0.008876 0.006870 0.003346 -0.008094
# 3 0.006067 -0.008876 0.042516 -0.028738 -0.026437 0.047322
# 4 -0.007960 0.006870 -0.028738 0.053431 0.023156 -0.031347
# 5 -0.000936 0.003346 -0.026437 0.023156 -0.071833 0.116865
# 6 0.011668 -0.008094 0.047322 -0.031347 0.116865 -0.112401
#
#
# Mechanical properties :
#
#
# Convention : Reuss Voigt Hill
#
# Bulk Modulus (GPa) = 18.32127 36.70270 27.51199
# Shear Modulus (GPa) = -141.46301 29.83407 -55.81447
#
# Velocity S-wave (km/s) = -7.95667 3.65398 -4.99785
# Velocity P-wave (km/s) = 8.72996 5.85044 4.58174
#
# Compressibility (1/GPa) = 0.05458137
#
# Stress axis : x y z
#
# Youngs Moduli (GPa) = 77.36897 95.40429 23.52056
#
# Poissons Ratio (x) = 0.27301 -0.14269
# Poissons Ratio (y) = 0.22140 0.20876
# Poissons Ratio (z) = -0.46938 0.84679
#
# Static dielectric constant tensor:
#      x y z
#    x 1.934710 0.008980 -0.084560 
#    y 0.008980 1.897800 -0.004380 
#    z -0.084560 -0.004380 1.908800 
# 
# From -- ./inp_files/505311.got.cif
#   From: 2010.05.17/outbox.cif.g08.bks.cpg/sg2_253_cif.got.tgz:505311.got - 2010.06.03 11:33:40.
