data_PCOD9103780
_publ_section_title
;
Structure prediction by ZEFSAII (Michael W. Deem and Ramdas Pophale) SiO2 
 PCOD9103780
Probable space group: P -1
;
_chemical_formula_sum "Si O2"
_cell_formula_units_Z 16
_cell_length_a 8.857818
_cell_length_b 16.751247
_cell_length_c 11.042158
_cell_angle_alpha 29.492871
_cell_angle_beta 92.019394
_cell_angle_gamma 103.370425
_cell_volume 736.097060
_symmetry_space_group_name_H-M "P -1"
_symmetry_group_IT_number 2
_symmetry_cell_setting 'triclinic'
loop_
_space_group_symop_operation_xyz
x,y,z
-x,-y,-z
loop_
_atom_site_type_symbol
_atom_site_label
_atom_site_fract_x
_atom_site_fract_y
_atom_site_fract_z
Si Si1 0.722164 0.248464 0.231391
Si Si2 0.113585 0.858801 0.971106
Si Si3 0.548189 0.097107 0.191293
Si Si4 0.379156 0.061145 0.994791
Si Si5 0.304566 0.415957 0.111301
Si Si6 0.809343 0.792410 0.371858
Si Si7 0.089973 0.691493 0.433714
Si Si8 0.064721 0.321871 0.025640
O O1 0.628742 0.239197 0.112528
O O2 0.595355 0.077234 0.525085
O O3 0.750992 0.424368 0.073881
O O4 0.899550 0.251528 0.197368
O O5 0.296328 0.937609 0.811782
O O6 0.081349 0.001686 0.863525
O O7 0.115363 0.712702 0.261198
O O8 0.983267 0.791085 0.949306
O O9 0.465815 0.146479 0.009173
O O10 0.325647 0.192723 0.741792
O O11 0.500000 0.000000 0.000000
O O12 0.221935 0.873402 0.256496
O O13 0.256737 0.290898 0.390689
O O14 0.500000 0.500000 0.000000
O O15 0.213811 0.320898 0.112014
O O16 0.911066 0.689118 0.457384
O O17 0.101958 0.520916 0.718239
#
# Coordination Sequence:
#
# PCOD9103780 Si02
#       8
#     2   2   2   2   2   2   2   2
#     4  10  22  42  64  93 123 164 211 255 306 374
#     4  10  21  41  65  96 125 162 213 254 310 366
#     4  10  20  38  68  93 123 162 214 255 299 376
#     4  11  21  38  66  91 123 171 206 247 317 369
#     4  12  26  42  62  91 130 160 211 262 316 369
#     4  11  24  41  62  95 128 163 206 264 299 372
#     4  11  22  41  65  94 129 160 212 256 306 373
#     4  11  24  42  69  90 122 175 204 254 319 374
#
# _framework density 21.736265
#
# number of rings (size 3 to 8) (size 9 to 14) (size 15 to 20)
#    0.000    1.250    3.750    3.750    3.500    0.500 
#    4.500    0.625    0.000    0.000    0.000    0.000 
#    0.000    0.000    0.000    0.000    0.000    0.000 
#
# Total GULP energy -89421.852867 kJ/mol
# GULP energy per Si atom -5588.865804 kJ/mol
# Density = 2.168679 g / cm^3
# Si number density = 21.736265 Si / 1000 Ang^3
#
#
#
# Elastic Constant Matrix: (Units=GPa)
#
#
# Indices 1 2 3 4 5 6 
#
# 1 70.4031 25.3666 15.7327 22.5507 -8.4989 21.6870
# 2 25.3666 113.5765 2.1977 26.7837 -1.3452 35.3410
# 3 15.7327 2.1977 70.4676 21.8608 -15.9444 8.9850
# 4 22.5507 26.7837 21.8608 31.6560 -1.6380 5.4728
# 5 -8.4989 -1.3452 -15.9444 -1.6380 22.9182 3.6249
# 6 21.6870 35.3410 8.9850 5.4728 3.6249 41.2780
#
#
#
# Elastic Compliance Matrix: (Units=1/GPa)
#
#
# Indices 1 2 3 4 5 6 
#
# 1 0.026021 0.005872 0.007843 -0.024851 0.016612 -0.018570
# 2 0.005872 0.019200 0.010764 -0.023808 0.012220 -0.019783
# 3 0.007843 0.010764 0.029488 -0.030694 0.024685 -0.017853
# 4 -0.024851 -0.023808 -0.030694 0.083535 -0.031022 0.031770
# 5 0.016612 0.012220 0.024685 -0.031022 0.069670 -0.026569
# 6 -0.018570 -0.019783 -0.017853 0.031770 -0.026569 0.052927
#
#
# Mechanical properties :
#
#
# Convention : Reuss Voigt Hill
#
# Bulk Modulus (GPa) = 8.08626 37.89349 22.98988
# Shear Modulus (GPa) = 18.30794 33.24712 25.77753
#
# Velocity S-wave (km/s) = 2.90535 3.91521 3.44746
# Velocity P-wave (km/s) = 3.87079 6.15708 5.14260
#
# Compressibility (1/GPa) = 0.12366649
#
# Stress axis : x y z
#
# Youngs Moduli (GPa) = 38.43017 52.08381 33.91221
#
# Poissons Ratio (x) = -0.30584 -0.26598
# Poissons Ratio (y) = -0.22566 -0.36501
# Poissons Ratio (z) = -0.30142 -0.56061
#
# Static dielectric constant tensor:
#      x y z
#    x 1.815320 0.002870 0.007920 
#    y 0.002870 1.798950 0.018670 
#    z 0.007920 0.018670 1.885770 
# 
# From -- ./inp_files/402670.got.cif
#   From: 2010.05.17/outbox.cif.g08.bks.cpg/sg2_202_cif.got.tgz:402670.got - 2010.06.03 11:33:40.
