data_PCOD9103969
_publ_section_title
;
Structure prediction by ZEFSAII (Michael W. Deem and Ramdas Pophale) SiO2 
 PCOD9103969
Probable space group: P -1
;
_chemical_formula_sum "Si O2"
_cell_formula_units_Z 15
_cell_length_a 19.084875
_cell_length_b 9.374729
_cell_length_c 5.812412
_cell_angle_alpha 83.240936
_cell_angle_beta 98.984387
_cell_angle_gamma 142.870076
_cell_volume 619.985563
_symmetry_space_group_name_H-M "P -1"
_symmetry_group_IT_number 2
_symmetry_cell_setting 'triclinic'
loop_
_space_group_symop_operation_xyz
x,y,z
-x,-y,-z
loop_
_atom_site_type_symbol
_atom_site_label
_atom_site_fract_x
_atom_site_fract_y
_atom_site_fract_z
Si Si1 0.274754 0.640248 0.284813
Si Si2 0.689285 0.549826 0.023515
Si Si3 0.864748 0.809137 0.431955
Si Si4 0.135637 0.878263 0.541635
Si Si5 0.341061 0.193849 0.922574
Si Si6 0.500000 0.500000 0.500000
Si Si7 0.529066 0.824626 0.697397
Si Si8 0.085440 0.565886 0.216506
O O1 0.205962 0.443494 0.481629
O O2 0.178281 0.601841 0.159573
O O3 0.391359 0.910338 0.364052
O O4 0.308411 0.569315 0.139440
O O5 0.818324 0.766158 0.161202
O O6 0.661372 0.672618 0.929328
O O7 0.593259 0.348741 0.203087
O O8 0.835539 0.909242 0.535316
O O9 0.000000 0.000000 0.500000
O O10 0.150387 0.795273 0.351391
O O11 0.002671 0.652289 0.605481
O O12 0.218263 0.967403 0.779876
O O13 0.420625 0.373500 0.718182
O O14 0.393511 0.144379 0.088954
O O15 0.516028 0.702221 0.493810
O O16 0.000000 0.500000 0.000000
#
# Coordination Sequence:
#
# PCOD9103969 Si02
#       8
#     2   2   2   2   2   1   2   2
#     4  12  26  42  69  99 138 184 221 281 356 400
#     4  10  25  42  68 101 137 181 223 284 342 410
#     4  11  25  46  66  95 141 183 229 278 336 410
#     4  10  23  43  65  96 133 171 230 281 331 400
#     4  10  22  43  69  99 135 175 229 285 332 411
#     4  10  20  38  70  94 134 178 216 268 346 394
#     4  11  24  44  70 107 138 174 234 283 340 412
#     4  11  24  41  68  97 127 176 229 282 338 398
#
# _framework density 24.194113000000002
#
# number of rings (size 3 to 8) (size 9 to 14) (size 15 to 20)
#    0.000    1.333    1.333    3.600    1.867   12.800 
#    0.000    0.000    0.000    0.000    0.000    0.000 
#    0.000    0.000    0.000    0.000    0.000    0.000 
#
# Total GULP energy -83716.008722 kJ/mol
# GULP energy per Si atom -5581.067248 kJ/mol
# Density = 2.413905 g / cm^3
# Si number density = 24.194113 Si / 1000 Ang^3
#
#
#
# Elastic Constant Matrix: (Units=GPa)
#
#
# Indices 1 2 3 4 5 6 
#
# 1 130.8519 31.8943 38.1878 20.8238 4.7707 1.4686
# 2 31.8943 118.2425 19.2299 11.8593 12.3286 -5.4192
# 3 38.1878 19.2299 27.1161 8.4686 -3.9408 -6.7819
# 4 20.8238 11.8593 8.4686 44.8084 -4.1130 -3.7050
# 5 4.7707 12.3286 -3.9408 -4.1130 46.6737 9.4900
# 6 1.4686 -5.4192 -6.7819 -3.7050 9.4900 47.8863
#
#
#
# Elastic Compliance Matrix: (Units=1/GPa)
#
#
# Indices 1 2 3 4 5 6 
#
# 1 0.014159 -0.000081 -0.020010 -0.003280 -0.002799 -0.002976
# 2 -0.000081 0.010172 -0.006927 -0.001610 -0.003559 0.000753
# 3 -0.020010 -0.006927 0.073721 -0.001338 0.008246 0.008533
# 4 -0.003280 -0.001610 -0.001338 0.024854 0.002607 0.001135
# 5 -0.002799 -0.003559 0.008246 0.002607 0.024344 -0.003772
# 6 -0.002976 0.000753 0.008533 0.001135 -0.003772 0.023103
#
#
# Mechanical properties :
#
#
# Convention : Reuss Voigt Hill
#
# Bulk Modulus (GPa) = 22.71763 50.53719 36.62741
# Shear Modulus (GPa) = 20.91516 40.33357 30.62437
#
# Velocity S-wave (km/s) = 2.94338 4.08742 3.56164
# Velocity P-wave (km/s) = 4.57837 6.57340 5.66441
#
# Compressibility (1/GPa) = 0.04401868
#
# Stress axis : x y z
#
# Youngs Moduli (GPa) = 70.62629 98.30477 13.56461
#
# Poissons Ratio (x) = 0.00791 0.27143
# Poissons Ratio (y) = 0.00569 0.09396
# Poissons Ratio (z) = 1.41323 0.68091
#
# Static dielectric constant tensor:
#      x y z
#    x 1.935570 -0.002730 0.049510 
#    y -0.002730 1.960820 -0.065530 
#    z 0.049510 -0.065530 1.981030 
# 
# From -- ./inp_files/77390.got.cif
#   From: 2010.05.17/outbox.cif.g08.bks.cpg/sg2_39_cif.got.tgz:77390.got - 2010.06.03 11:33:40.
