data_PCOD9103848
_publ_section_title
;
Structure prediction by ZEFSAII (Michael W. Deem and Ramdas Pophale) SiO2 
 PCOD9103848
Probable space group: P -1
;
_chemical_formula_sum "Si O2"
_cell_formula_units_Z 12
_cell_length_a 12.999891
_cell_length_b 12.731968
_cell_length_c 9.108627
_cell_angle_alpha 42.696380
_cell_angle_beta 138.993891
_cell_angle_gamma 144.900343
_cell_volume 540.479381
_symmetry_space_group_name_H-M "P -1"
_symmetry_group_IT_number 2
_symmetry_cell_setting 'triclinic'
loop_
_space_group_symop_operation_xyz
x,y,z
-x,-y,-z
loop_
_atom_site_type_symbol
_atom_site_label
_atom_site_fract_x
_atom_site_fract_y
_atom_site_fract_z
Si Si1 0.957675 0.812895 0.851259
Si Si2 0.782719 0.189733 0.091196
Si Si3 0.990699 0.673821 0.343907
Si Si4 0.419177 0.541397 0.727612
Si Si5 0.227997 0.460222 0.326272
Si Si6 0.273723 0.026959 0.483476
O O1 0.793852 0.634041 0.758183
O O2 0.892822 0.952378 0.654774
O O3 0.157720 0.882935 0.909953
O O4 0.959490 0.745584 0.084428
O O5 0.722069 0.328727 0.846451
O O6 0.998070 0.330702 0.255037
O O7 0.657825 0.033256 0.241802
O O8 0.000000 0.500000 0.500000
O O9 0.802017 0.568729 0.349303
O O10 0.175555 0.857681 0.432894
O O11 0.373543 0.459073 0.595356
O O12 0.559767 0.770550 0.618513
O O13 0.500000 0.500000 0.000000
#
# Coordination Sequence:
#
# PCOD9103848 Si02
#       6
#     2   2   2   2   2   2
#     4  10  20  38  68  99 126 181 224 273 332 394
#     4   9  19  41  69  97 128 180 228 266 335 395
#     4  12  24  46  71  92 140 183 225 278 340 406
#     4  12  26  44  67 104 142 173 223 284 338 402
#     4   9  20  42  68  95 135 177 225 271 333 398
#     4  12  24  41  69 100 136 179 225 279 339 405
#
# _framework density 22.20251
#
# number of rings (size 3 to 8) (size 9 to 14) (size 15 to 20)
#    1.000    0.333    3.333    3.000    0.000    2.000 
#    0.000    0.000    0.000    0.000    0.000    0.000 
#    0.000    0.000    0.000    0.000    0.000    0.000 
#
# Total GULP energy -66852.880706 kJ/mol
# GULP energy per Si atom -5571.073392 kJ/mol
# Density = 2.215198 g / cm^3
# Si number density = 22.202510 Si / 1000 Ang^3
#
#
#
# Elastic Constant Matrix: (Units=GPa)
#
#
# Indices 1 2 3 4 5 6 
#
# 1 7.0378 13.2162 52.8052 14.0528 -45.0889 -11.8372
# 2 13.2162 125.2123 19.8440 -6.0213 -22.4204 0.3073
# 3 52.8052 19.8440 74.9406 -27.3065 -0.8286 -15.7764
# 4 14.0528 -6.0213 -27.3065 37.7634 10.0042 -7.9211
# 5 -45.0889 -22.4204 -0.8286 10.0042 20.1963 -9.3042
# 6 -11.8372 0.3073 -15.7764 -7.9211 -9.3042 35.2743
#
#
#
# Elastic Compliance Matrix: (Units=1/GPa)
#
#
# Indices 1 2 3 4 5 6 
#
# 1 -0.003076 -0.002676 0.005815 0.008578 -0.013919 -0.000153
# 2 -0.002676 0.008859 0.000383 0.001956 0.003118 0.000458
# 3 0.005815 0.000383 0.015209 0.007471 0.017230 0.014973
# 4 0.008578 0.001956 0.007471 0.028464 0.015176 0.016598
# 5 -0.013919 0.003118 0.017230 0.015176 0.020543 0.011835
# 6 -0.000153 0.000458 0.014973 0.016598 0.011835 0.041839
#
#
# Mechanical properties :
#
#
# Convention : Reuss Voigt Hill
#
# Bulk Modulus (GPa) = 35.66553 42.10238 38.88396
# Shear Modulus (GPa) = 43.80589 26.73516 35.27052
#
# Velocity S-wave (km/s) = 4.44668 3.47385 3.99003
# Velocity P-wave (km/s) = 6.51633 5.92404 6.22723
#
# Compressibility (1/GPa) = 0.02803828
#
# Stress axis : x y z
#
# Youngs Moduli (GPa) = -325.13353 112.87543 65.74852
#
# Poissons Ratio (x) = 0.30210 -0.38236
# Poissons Ratio (y) = -0.87018 -0.02521
# Poissons Ratio (z) = 1.89081 -0.04328
#
# Static dielectric constant tensor:
#      x y z
#    x 1.677610 0.073140 -0.182540 
#    y 0.073140 1.807710 0.085970 
#    z -0.182540 0.085970 1.657060 
# 
# From -- ./inp_files/314516.got.cif
#   From: 2010.05.17/outbox.cif.g08.bks.cpg/sg2_158_cif.got.tgz:314516.got - 2010.06.03 11:33:40.
