data_PCOD9103911
_publ_section_title
;
Structure prediction by ZEFSAII (Michael W. Deem and Ramdas Pophale) SiO2 
 PCOD9103911
Probable space group: P -1
;
_chemical_formula_sum "Si O2"
_cell_formula_units_Z 14
_cell_length_a 17.943181
_cell_length_b 9.631757
_cell_length_c 5.319029
_cell_angle_alpha 59.933556
_cell_angle_beta 87.628821
_cell_angle_gamma 54.173063
_cell_volume 602.045448
_symmetry_space_group_name_H-M "P -1"
_symmetry_group_IT_number 2
_symmetry_cell_setting 'triclinic'
loop_
_space_group_symop_operation_xyz
x,y,z
-x,-y,-z
loop_
_atom_site_type_symbol
_atom_site_label
_atom_site_fract_x
_atom_site_fract_y
_atom_site_fract_z
Si Si1 0.227088 0.955713 0.688280
Si Si2 0.231710 0.281323 0.241396
Si Si3 0.648764 0.553852 0.875842
Si Si4 0.100371 0.451308 0.605418
Si Si5 0.583395 0.511569 0.421710
Si Si6 0.198558 0.906474 0.247420
Si Si7 0.948780 0.134845 0.634969
O O1 0.284873 0.039122 0.546621
O O2 0.280319 0.706287 0.912475
O O3 0.156280 0.042055 0.381587
O O4 0.170980 0.040226 0.881702
O O5 0.153696 0.410470 0.365348
O O6 0.294946 0.357419 0.165487
O O7 0.184543 0.309422 0.946312
O O8 0.578164 0.611932 0.067763
O O9 0.595651 0.616838 0.556731
O O10 0.054963 0.673741 0.532733
O O11 0.000000 0.500000 0.500000
O O12 0.500000 0.500000 0.500000
O O13 0.683857 0.264698 0.613058
O O14 0.161404 0.778013 0.387574
O O15 0.000000 0.000000 0.500000
O O16 0.000000 0.000000 0.000000
#
# Coordination Sequence:
#
# PCOD9103911 Si02
#       7
#     2   2   2   2   2   2   2
#     4  10  21  37  67  88 122 165 215 257 320 372
#     4  12  24  43  67  89 130 177 212 270 333 382
#     4  10  21  40  65  96 127 162 221 253 319 410
#     4  12  27  43  58  95 130 165 226 279 321 388
#     4  10  20  38  69  98 128 166 209 271 331 382
#     4  10  21  39  62  92 124 165 219 258 315 399
#     4  12  26  42  67  89 127 175 217 266 328 378
#
# _framework density 23.254059000000002
#
# number of rings (size 3 to 8) (size 9 to 14) (size 15 to 20)
#    0.000    1.143    0.000    7.714    6.000    0.000 
#    0.000    0.000    0.000   20.571    0.000    0.000 
#    0.000    0.000    0.000    0.000    0.000    0.000 
#
# Total GULP energy -77982.189496 kJ/mol
# GULP energy per Si atom -5570.156393 kJ/mol
# Density = 2.320113 g / cm^3
# Si number density = 23.254059 Si / 1000 Ang^3
#
#
#
# Elastic Constant Matrix: (Units=GPa)
#
#
# Indices 1 2 3 4 5 6 
#
# 1 170.8684 53.2889 18.8614 13.4584 -28.6511 10.5166
# 2 53.2889 75.7216 39.9640 36.8062 -8.3403 26.2086
# 3 18.8614 39.9640 89.4892 52.9903 -14.2942 7.7805
# 4 13.4584 36.8062 52.9903 67.6263 4.7809 -4.6788
# 5 -28.6511 -8.3403 -14.2942 4.7809 34.9398 -2.3973
# 6 10.5166 26.2086 7.7805 -4.6788 -2.3973 45.1869
#
#
#
# Elastic Compliance Matrix: (Units=1/GPa)
#
#
# Indices 1 2 3 4 5 6 
#
# 1 0.008938 -0.007824 0.002077 0.000572 0.006405 0.002499
# 2 -0.007824 0.035797 -0.000942 -0.018816 0.002906 -0.020573
# 3 0.002077 -0.000942 0.028165 -0.023528 0.015783 -0.006386
# 4 0.000572 -0.018816 -0.023528 0.045956 -0.018660 0.018600
# 5 0.006405 0.002906 0.015783 -0.018660 0.043197 -0.005534
# 6 0.002499 -0.020573 -0.006386 0.018600 -0.005534 0.036213
#
#
# Mechanical properties :
#
#
# Convention : Reuss Voigt Hill
#
# Bulk Modulus (GPa) = 16.80041 62.25642 39.52841
# Shear Modulus (GPa) = 21.59961 44.48160 33.04060
#
# Velocity S-wave (km/s) = 3.05102 4.37836 3.77351
# Velocity P-wave (km/s) = 4.43306 7.23813 6.00177
#
# Compressibility (1/GPa) = 0.05952236
#
# Stress axis : x y z
#
# Youngs Moduli (GPa) = 111.87624 27.93552 35.50449
#
# Poissons Ratio (x) = 0.21858 -0.07376
# Poissons Ratio (y) = 0.87536 0.03345
# Poissons Ratio (z) = -0.23241 0.02632
#
# Static dielectric constant tensor:
#      x y z
#    x 1.913600 0.070740 0.011060 
#    y 0.070740 2.008800 0.023940 
#    z 0.011060 0.023940 2.036260 
# 
# From -- ./inp_files/89662.got.cif
#   From: 2010.05.17/outbox.cif.g08.bks.cpg/sg2_45_cif.got.tgz:89662.got - 2010.06.03 11:33:40.
