data_PCOD9103630
_publ_section_title
;
Structure prediction by ZEFSAII (Michael W. Deem and Ramdas Pophale) SiO2 
 PCOD9103630
Probable space group: P -1
;
_chemical_formula_sum "Si O2"
_cell_formula_units_Z 16
_cell_length_a 10.723599
_cell_length_b 17.591524
_cell_length_c 10.383134
_cell_angle_alpha 33.093063
_cell_angle_beta 68.263324
_cell_angle_gamma 47.025237
_cell_volume 676.493104
_symmetry_space_group_name_H-M "P -1"
_symmetry_group_IT_number 2
_symmetry_cell_setting 'triclinic'
loop_
_space_group_symop_operation_xyz
x,y,z
-x,-y,-z
loop_
_atom_site_type_symbol
_atom_site_label
_atom_site_fract_x
_atom_site_fract_y
_atom_site_fract_z
Si Si1 0.967067 0.151258 0.392750
Si Si2 0.834445 0.200536 0.018695
Si Si3 0.320262 0.241478 0.226321
Si Si4 0.587907 0.516229 0.142206
Si Si5 0.607599 0.802269 0.034775
Si Si6 0.169766 0.261446 0.515506
Si Si7 0.971937 0.687172 0.077951
Si Si8 0.227456 0.604180 0.477289
O O1 0.737691 0.328802 0.257655
O O2 0.038294 0.233045 0.173892
O O3 0.000000 0.000000 0.500000
O O4 0.077345 0.016761 0.670003
O O5 0.632647 0.365972 0.939668
O O6 0.961222 0.237722 0.961833
O O7 0.787383 0.253081 0.812811
O O8 0.289507 0.283959 0.025487
O O9 0.168963 0.300684 0.306761
O O10 0.500000 0.000000 0.500000
O O11 0.396531 0.333263 0.113295
O O12 0.674805 0.436220 0.366642
O O13 0.386008 0.030140 0.789911
O O14 0.638749 0.618905 0.325329
O O15 0.760943 0.790069 0.060386
O O16 0.119829 0.443183 0.353295
O O17 0.991484 0.292442 0.568823
#
# Coordination Sequence:
#
# PCOD9103630 Si02
#       8
#     2   2   2   2   2   2   2   2
#     4  10  24  40  62  94 127 169 214 256 314 385
#     4  11  26  43  60  90 136 174 214 257 308 389
#     4   9  19  35  63  96 120 158 208 265 325 365
#     4  11  23  41  68  91 129 172 211 268 320 374
#     4   9  21  36  64  95 124 161 210 269 320 377
#     4  10  20  38  67  91 127 163 208 272 323 365
#     4  10  22  39  62  93 126 163 213 263 318 378
#     4  10  24  42  62  95 126 169 219 257 314 386
#
# _framework density 23.651389000000002
#
# number of rings (size 3 to 8) (size 9 to 14) (size 15 to 20)
#    0.000    2.000    1.250    0.375    5.250   11.000 
#    0.000    1.250    0.000    0.000    0.000    0.000 
#    0.000    0.000    0.000    0.000    0.000    0.000 
#
# Total GULP energy -89411.424509 kJ/mol
# GULP energy per Si atom -5588.214032 kJ/mol
# Density = 2.359756 g / cm^3
# Si number density = 23.651389 Si / 1000 Ang^3
#
#
#
# Elastic Constant Matrix: (Units=GPa)
#
#
# Indices 1 2 3 4 5 6 
#
# 1 64.1546 10.9363 0.2334 -16.2028 4.5267 -8.3294
# 2 10.9363 56.2848 41.9854 -17.0072 2.0177 -9.3881
# 3 0.2334 41.9854 103.4003 -5.0148 9.3111 -8.1344
# 4 -16.2028 -17.0072 -5.0148 48.7228 -2.1797 2.5977
# 5 4.5267 2.0177 9.3111 -2.1797 18.1761 -6.9855
# 6 -8.3294 -9.3881 -8.1344 2.5977 -6.9855 26.9123
#
#
#
# Elastic Compliance Matrix: (Units=1/GPa)
#
#
# Indices 1 2 3 4 5 6 
#
# 1 0.017995 -0.002621 0.001845 0.004913 -0.003028 0.003953
# 2 -0.002621 0.030971 -0.012234 0.008616 0.007348 0.007371
# 3 0.001845 -0.012234 0.015125 -0.002389 -0.007455 -0.000829
# 4 0.004913 0.008616 -0.002389 0.024933 0.002856 0.002139
# 5 -0.003028 0.007348 -0.007455 0.002856 0.065283 0.016042
# 6 0.003953 0.007371 -0.000829 0.002139 0.016042 0.044659
#
#
# Mechanical properties :
#
#
# Convention : Reuss Voigt Hill
#
# Bulk Modulus (GPa) = 26.26538 36.68333 31.47436
# Shear Modulus (GPa) = 21.03713 30.14121 25.58917
#
# Velocity S-wave (km/s) = 2.98563 3.57374 3.29284
# Velocity P-wave (km/s) = 4.79736 5.70723 5.27196
#
# Compressibility (1/GPa) = 0.03807293
#
# Stress axis : x y z
#
# Youngs Moduli (GPa) = 55.57064 32.28819 66.11728
#
# Poissons Ratio (x) = 0.08461 -0.12201
# Poissons Ratio (y) = 0.14563 0.80886
# Poissons Ratio (z) = -0.10255 0.39501
#
# Static dielectric constant tensor:
#      x y z
#    x 1.913110 0.041050 0.041620 
#    y 0.041050 1.879780 0.067300 
#    z 0.041620 0.067300 1.972010 
# 
# From -- ./inp_files/438330.got.cif
#   From: 2010.05.17/outbox.cif.g08.bks.cpg/sg2_220_cif.got.tgz:438330.got - 2010.06.03 11:33:40.
