data_PCOD9103770
_publ_section_title
;
Structure prediction by ZEFSAII (Michael W. Deem and Ramdas Pophale) SiO2 
 PCOD9103770
Probable space group: P -1
;
_chemical_formula_sum "Si O2"
_cell_formula_units_Z 16
_cell_length_a 12.072422
_cell_length_b 17.737430
_cell_length_c 9.946496
_cell_angle_alpha 28.591083
_cell_angle_beta 46.022565
_cell_angle_gamma 47.866955
_cell_volume 721.819624
_symmetry_space_group_name_H-M "P -1"
_symmetry_group_IT_number 2
_symmetry_cell_setting 'triclinic'
loop_
_space_group_symop_operation_xyz
x,y,z
-x,-y,-z
loop_
_atom_site_type_symbol
_atom_site_label
_atom_site_fract_x
_atom_site_fract_y
_atom_site_fract_z
Si Si1 0.146828 0.111408 0.549089
Si Si2 0.069666 0.594109 0.447058
Si Si3 0.204615 0.833939 0.135195
Si Si4 0.869771 0.532076 0.943644
Si Si5 0.412767 0.632377 0.469302
Si Si6 0.201517 0.278634 0.693749
Si Si7 0.169778 0.031881 0.344175
Si Si8 0.481260 0.828419 0.344632
O O1 0.191405 0.278046 0.297344
O O2 0.177152 0.089520 0.400425
O O3 0.960826 0.120236 0.719496
O O4 0.227580 0.968074 0.799723
O O5 0.180995 0.676531 0.318191
O O6 0.165625 0.466272 0.467289
O O7 0.963378 0.499123 0.777708
O O8 0.943491 0.732193 0.265455
O O9 0.341721 0.787898 0.197849
O O10 0.734012 0.435038 0.239453
O O11 0.000000 0.500000 0.000000
O O12 0.500000 0.500000 0.500000
O O13 0.504375 0.694041 0.418873
O O14 0.380741 0.225275 0.579768
O O15 0.194941 0.168691 0.002257
O O16 0.300905 0.870699 0.474631
O O17 0.000000 0.000000 0.500000
O O18 0.500000 0.000000 0.000000
#
# Coordination Sequence:
#
# PCOD9103770 Si02
#       8
#     2   2   2   2   2   2   2   2
#     4  10  21  37  66  92 129 160 217 280 314 381
#     4  10  20  38  68  91 128 168 223 270 328 388
#     4  10  21  40  64 101 126 166 222 275 328 384
#     4  11  22  40  68  98 126 165 228 275 317 396
#     4  12  25  43  70  95 134 177 217 270 339 393
#     4  10  22  40  63  90 130 174 212 269 333 392
#     4  11  22  37  66  93 126 172 223 260 329 393
#     4  10  25  42  62  95 134 171 215 268 328 393
#
# _framework density 22.166202999999999
#
# number of rings (size 3 to 8) (size 9 to 14) (size 15 to 20)
#    0.000    1.500    2.500    3.000    5.250    5.000 
#    2.250    1.250    0.000    0.000    0.000    0.000 
#    0.000    0.000    0.000    0.000    0.000    0.000 
#
# Total GULP energy -89398.370366 kJ/mol
# GULP energy per Si atom -5587.398148 kJ/mol
# Density = 2.211575 g / cm^3
# Si number density = 22.166203 Si / 1000 Ang^3
#
#
#
# Elastic Constant Matrix: (Units=GPa)
#
#
# Indices 1 2 3 4 5 6 
#
# 1 65.0021 5.5286 8.2643 -3.8665 3.5271 -15.9983
# 2 5.5286 66.0001 -9.5374 -8.0987 -2.3108 -5.4776
# 3 8.2643 -9.5374 73.8811 -3.5614 8.8061 -5.6694
# 4 -3.8665 -8.0987 -3.5614 20.7542 3.5208 6.0263
# 5 3.5271 -2.3108 8.8061 3.5208 38.1466 -5.6221
# 6 -15.9983 -5.4776 -5.6694 6.0263 -5.6221 37.8004
#
#
#
# Elastic Compliance Matrix: (Units=1/GPa)
#
#
# Indices 1 2 3 4 5 6 
#
# 1 0.017402 -0.001036 -0.001478 0.000666 -0.000385 0.006829
# 2 -0.001036 0.016509 0.002642 0.006288 0.000106 0.001363
# 3 -0.001478 0.002642 0.014675 0.003570 -0.003288 0.000900
# 4 0.000666 0.006288 0.003570 0.054847 -0.006749 -0.008019
# 5 -0.000385 0.000106 -0.003288 -0.006749 0.028324 0.004648
# 6 0.006829 0.001363 0.000900 -0.008019 0.004648 0.031647
#
#
# Mechanical properties :
#
#
# Convention : Reuss Voigt Hill
#
# Bulk Modulus (GPa) = 20.47489 23.71047 22.09268
# Shear Modulus (GPa) = 27.86638 32.71543 30.29091
#
# Velocity S-wave (km/s) = 3.54949 3.84593 3.70068
# Velocity P-wave (km/s) = 5.10446 5.51738 5.31493
#
# Compressibility (1/GPa) = 0.04884031
#
# Stress axis : x y z
#
# Youngs Moduli (GPa) = 57.46597 60.57450 68.14434
#
# Poissons Ratio (x) = 0.06277 0.10073
# Poissons Ratio (y) = 0.05955 -0.18004
# Poissons Ratio (z) = 0.08494 -0.16004
#
# Static dielectric constant tensor:
#      x y z
#    x 1.871180 -0.000680 0.047220 
#    y -0.000680 1.913560 0.071980 
#    z 0.047220 0.071980 1.901870 
# 
# From -- ./inp_files/278642.got.cif
#   From: 2010.05.17/outbox.cif.g08.bks.cpg/sg2_140_cif.got.tgz:278642.got - 2010.06.03 11:33:40.
