data_PCOD9103243
_publ_section_title
;
Structure prediction by ZEFSAII (Michael W. Deem and Ramdas Pophale) SiO2 
 PCOD9103243
Probable space group: P -1
;
_chemical_formula_sum "Si O2"
_cell_formula_units_Z 16
_cell_length_a 13.739516
_cell_length_b 13.563103
_cell_length_c 8.818650
_cell_angle_alpha 101.661210
_cell_angle_beta 111.406245
_cell_angle_gamma 134.809988
_cell_volume 779.984210
_symmetry_space_group_name_H-M "P -1"
_symmetry_group_IT_number 2
_symmetry_cell_setting 'triclinic'
loop_
_space_group_symop_operation_xyz
x,y,z
-x,-y,-z
loop_
_atom_site_type_symbol
_atom_site_label
_atom_site_fract_x
_atom_site_fract_y
_atom_site_fract_z
Si Si1 0.573342 0.416969 0.127256
Si Si2 0.159200 0.415375 0.417618
Si Si3 0.804675 0.264671 0.126482
Si Si4 0.535093 0.893790 0.037103
Si Si5 0.552781 0.127727 0.691696
Si Si6 0.016227 0.893278 0.004662
Si Si7 0.532733 0.749403 0.520082
Si Si8 0.373494 0.449877 0.133489
O O1 0.784820 0.570896 0.377324
O O2 0.454487 0.403871 0.148311
O O3 0.449258 0.211904 0.989388
O O4 0.607702 0.483627 0.998449
O O5 0.372056 0.613911 0.521412
O O6 0.022264 0.401223 0.320572
O O7 0.053074 0.235255 0.213553
O O8 0.700486 0.268631 0.164005
O O9 0.763222 0.266799 0.932006
O O10 0.662404 0.054386 0.032547
O O11 0.578880 0.970820 0.257524
O O12 0.536958 0.220664 0.626400
O O13 0.500000 0.000000 0.500000
O O14 0.241422 0.051303 0.232213
O O15 0.852789 0.734506 0.992105
O O16 0.000000 0.000000 0.000000
O O17 0.510067 0.624678 0.381985
#
# Coordination Sequence:
#
# PCOD9103243 Si02
#       8
#     2   2   2   2   2   2   2   2
#     4  11  22  42  65  92 132 166 211 266 312 378
#     4  11  25  38  66  97 125 170 216 253 320 384
#     4   9  21  41  59  95 126 160 216 254 315 379
#     4   9  21  40  64  87 128 168 202 261 317 370
#     4  10  20  38  65  94 121 170 210 259 312 374
#     4  11  24  42  64  95 129 169 214 262 316 376
#     4  11  23  43  66  93 132 168 211 268 312 373
#     4  10  23  44  63  97 128 167 216 259 318 378
#
# _framework density 20.513238000000001
#
# number of rings (size 3 to 8) (size 9 to 14) (size 15 to 20)
#    0.750    1.000    1.250    2.250    5.250    4.000 
#    0.000    3.125    0.000    0.000    0.000    0.000 
#    0.000    0.000    0.000    0.000    0.000    0.000 
#
# Total GULP energy -89254.127762 kJ/mol
# GULP energy per Si atom -5578.382985 kJ/mol
# Density = 2.046655 g / cm^3
# Si number density = 20.513238 Si / 1000 Ang^3
#
#
#
# Elastic Constant Matrix: (Units=GPa)
#
#
# Indices 1 2 3 4 5 6 
#
# 1 81.6668 15.8346 22.0475 4.8429 -3.3736 -13.6683
# 2 15.8346 56.3279 19.7291 1.1505 -0.0641 -17.6966
# 3 22.0475 19.7291 98.2437 3.7536 12.9262 5.2718
# 4 4.8429 1.1505 3.7536 26.8243 -7.2945 5.1318
# 5 -3.3736 -0.0641 12.9262 -7.2945 31.5254 -0.7928
# 6 -13.6683 -17.6966 5.2718 5.1318 -0.7928 31.7378
#
#
#
# Elastic Compliance Matrix: (Units=1/GPa)
#
#
# Indices 1 2 3 4 5 6 
#
# 1 0.014888 -0.000462 -0.003894 -0.002781 0.002729 0.007319
# 2 -0.000462 0.024698 -0.005860 -0.002420 0.002221 0.014992
# 3 -0.003894 -0.005860 0.013512 -0.001327 -0.006455 -0.007136
# 4 -0.002781 -0.002420 -0.001327 0.042459 0.009841 -0.008946
# 5 0.002729 0.002221 -0.006455 0.009841 0.037012 0.002819
# 6 0.007319 0.014992 -0.007136 -0.008946 0.002819 0.045722
#
#
# Mechanical properties :
#
#
# Convention : Reuss Voigt Hill
#
# Bulk Modulus (GPa) = 30.61302 39.05119 34.83211
# Shear Modulus (GPa) = 23.85353 29.92598 26.88975
#
# Velocity S-wave (km/s) = 3.41374 3.82365 3.62449
# Velocity P-wave (km/s) = 5.52214 6.21065 5.87649
#
# Compressibility (1/GPa) = 0.03266584
#
# Stress axis : x y z
#
# Youngs Moduli (GPa) = 67.16664 40.48943 74.00582
#
# Poissons Ratio (x) = 0.01871 0.28818
# Poissons Ratio (y) = 0.03104 0.43369
# Poissons Ratio (z) = 0.26154 0.23728
#
# Static dielectric constant tensor:
#      x y z
#    x 1.754320 -0.005510 -0.008580 
#    y -0.005510 1.708770 -0.011070 
#    z -0.008580 -0.011070 1.741150 
# 
# From -- ./inp_files/315487.got.cif
#   From: 2010.05.17/outbox.cif.g08.bks.cpg/sg2_158_cif.got.tgz:315487.got - 2010.06.03 11:33:40.
