data_PCOD9103078
_publ_section_title
;
Structure prediction by ZEFSAII (Michael W. Deem and Ramdas Pophale) SiO2 
 PCOD9103078
Probable space group: P -1
;
_chemical_formula_sum "Si O2"
_cell_formula_units_Z 16
_cell_length_a 12.236219
_cell_length_b 5.441190
_cell_length_c 24.760282
_cell_angle_alpha 62.442434
_cell_angle_beta 155.378046
_cell_angle_gamma 112.883405
_cell_volume 606.653504
_symmetry_space_group_name_H-M "P -1"
_symmetry_group_IT_number 2
_symmetry_cell_setting 'triclinic'
loop_
_space_group_symop_operation_xyz
x,y,z
-x,-y,-z
loop_
_atom_site_type_symbol
_atom_site_label
_atom_site_fract_x
_atom_site_fract_y
_atom_site_fract_z
Si Si1 0.700294 0.265802 0.723491
Si Si2 0.783153 0.455679 0.066204
Si Si3 0.057119 0.025677 0.737552
Si Si4 0.101859 0.703053 0.599570
Si Si5 0.827825 0.621729 0.593510
Si Si6 0.464182 0.964493 0.838885
Si Si7 0.975069 0.264137 0.056381
Si Si8 0.383046 0.378880 0.673181
O O1 0.459215 0.330180 0.567681
O O2 0.614996 0.373298 0.734433
O O3 0.968158 0.395065 0.813817
O O4 0.767538 0.936702 0.793654
O O5 0.783034 0.168830 0.127311
O O6 0.855693 0.393271 0.043829
O O7 0.517727 0.657570 0.920862
O O8 0.867022 0.832076 0.638734
O O9 0.262995 0.117360 0.775692
O O10 0.900811 0.292437 0.667314
O O11 0.357887 0.572197 0.695664
O O12 0.042231 0.697567 0.636761
O O13 0.868835 0.525802 0.487053
O O14 0.000000 0.000000 0.500000
O O15 0.384816 0.068749 0.732232
O O16 0.758340 0.062811 0.960100
O O17 0.000000 0.500000 0.000000
#
# Coordination Sequence:
#
# PCOD9103078 Si02
#       8
#     2   2   2   2   2   2   2   2
#     4  10  25  45  70 107 144 190 249 302 371 440
#     4  11  27  46  73  98 147 195 249 303 362 439
#     4  12  28  49  75 109 148 194 250 302 372 433
#     4  10  21  36  65 101 143 184 230 292 367 432
#     4  11  27  46  76 109 149 192 244 308 368 437
#     4  11  24  44  70 106 144 189 247 301 367 437
#     4  11  25  46  74 107 143 195 246 305 370 438
#     4  10  20  38  64  99 142 177 233 294 367 426
#
# _framework density 26.374195
#
# number of rings (size 3 to 8) (size 9 to 14) (size 15 to 20)
#    0.000    1.250    1.250    2.625   10.500    7.500 
#    0.000    0.000    0.000    0.000    0.000    0.000 
#    0.000    0.000    0.000    0.000    0.000    0.000 
#
# Total GULP energy -89515.571896 kJ/mol
# GULP energy per Si atom -5594.723243 kJ/mol
# Density = 2.631417 g / cm^3
# Si number density = 26.374195 Si / 1000 Ang^3
#
#
#
# Elastic Constant Matrix: (Units=GPa)
#
#
# Indices 1 2 3 4 5 6 
#
# 1 72.0212 9.2858 13.8319 -5.4170 -11.9180 -9.5131
# 2 9.2858 84.2400 33.7301 -25.3991 -8.8865 -9.5157
# 3 13.8319 33.7301 151.8539 -19.7205 -9.0363 7.0396
# 4 -5.4170 -25.3991 -19.7205 41.6126 -2.7396 4.3469
# 5 -11.9180 -8.8865 -9.0363 -2.7396 45.4137 -8.5397
# 6 -9.5131 -9.5157 7.0396 4.3469 -8.5397 46.0028
#
#
#
# Elastic Compliance Matrix: (Units=1/GPa)
#
#
# Indices 1 2 3 4 5 6 
#
# 1 0.015534 0.000165 -0.001175 0.001443 0.004746 0.004171
# 2 0.000165 0.016281 -0.002440 0.008678 0.003961 0.003690
# 3 -0.001175 -0.002440 0.007647 0.002227 0.000487 -0.002038
# 4 0.001443 0.008678 0.002227 0.030893 0.004315 -0.000366
# 5 0.004746 0.003961 0.000487 0.004315 0.025537 0.006059
# 6 0.004171 0.003690 -0.002038 -0.000366 0.006059 0.024835
#
#
# Mechanical properties :
#
#
# Convention : Reuss Voigt Hill
#
# Bulk Modulus (GPa) = 30.71060 46.86785 38.78923
# Shear Modulus (GPa) = 36.10615 43.35698 39.73157
#
# Velocity S-wave (km/s) = 3.70401 4.05892 3.88552
# Velocity P-wave (km/s) = 5.47379 6.30677 5.90499
#
# Compressibility (1/GPa) = 0.03256204
#
# Stress axis : x y z
#
# Youngs Moduli (GPa) = 64.37441 61.42233 130.77267
#
# Poissons Ratio (x) = -0.01014 0.15368
# Poissons Ratio (y) = -0.01063 0.31906
# Poissons Ratio (z) = 0.07565 0.14986
#
# Static dielectric constant tensor:
#      x y z
#    x 2.051420 -0.056340 -0.020670 
#    y -0.056340 2.346200 0.120900 
#    z -0.020670 0.120900 2.102680 
# 
# From -- ./inp_files/67342.got.cif
#   From: 2010.05.17/outbox.cif.g08.bks.cpg/sg2_34_cif.got.tgz:67342.got - 2010.06.03 11:33:40.
