data_PCOD9103611
_publ_section_title
;
Structure prediction by ZEFSAII (Michael W. Deem and Ramdas Pophale) SiO2 
 PCOD9103611
Probable space group: P -1
;
_chemical_formula_sum "Si O2"
_cell_formula_units_Z 16
_cell_length_a 13.096142
_cell_length_b 5.315547
_cell_length_c 15.240372
_cell_angle_alpha 58.754341
_cell_angle_beta 54.690416
_cell_angle_gamma 49.764256
_cell_volume 642.672615
_symmetry_space_group_name_H-M "P -1"
_symmetry_group_IT_number 2
_symmetry_cell_setting 'triclinic'
loop_
_space_group_symop_operation_xyz
x,y,z
-x,-y,-z
loop_
_atom_site_type_symbol
_atom_site_label
_atom_site_fract_x
_atom_site_fract_y
_atom_site_fract_z
Si Si1 0.204509 0.912250 0.401570
Si Si2 0.404714 0.699069 0.741781
Si Si3 0.898221 0.843411 0.102348
Si Si4 0.500255 0.259098 0.618706
Si Si5 0.541854 0.281266 0.906099
Si Si6 0.071536 0.577722 0.227708
Si Si7 0.979765 0.197609 0.601709
Si Si8 0.263567 0.867578 0.022631
O O1 0.142659 0.248677 0.311823
O O2 0.105708 0.899849 0.533993
O O3 0.346733 0.869079 0.385322
O O4 0.178625 0.696066 0.378050
O O5 0.252693 0.871080 0.834676
O O6 0.386484 0.527810 0.695097
O O7 0.522417 0.382587 0.797234
O O8 0.460530 0.973636 0.659744
O O9 0.839848 0.801291 0.043036
O O10 0.970480 0.593749 0.194207
O O11 0.000000 0.000000 0.000000
O O12 0.500000 0.500000 0.500000
O O13 0.699762 0.110617 0.899192
O O14 0.422913 0.646392 0.941043
O O15 0.500000 0.000000 0.000000
O O16 0.189231 0.639361 0.109341
O O17 0.999992 0.847408 0.295388
O O18 0.000000 0.500000 0.500000
#
# Coordination Sequence:
#
# PCOD9103611 Si02
#       8
#     2   2   2   2   2   2   2   2
#     4  10  23  40  64  97 130 177 237 292 360 424
#     4  11  27  47  75 110 146 199 243 299 375 436
#     4   9  21  45  69  99 143 185 239 298 365 438
#     4  12  29  48  75 107 151 193 247 307 366 442
#     4  10  22  37  67  96 140 181 228 294 355 441
#     4  10  20  38  67  89 129 173 231 291 352 425
#     4   9  21  38  61  91 124 170 227 291 346 420
#     4   9  20  37  59  95 130 171 232 279 357 425
#
# _framework density 24.896034
#
# number of rings (size 3 to 8) (size 9 to 14) (size 15 to 20)
#    0.000    2.000    0.000    1.125   14.000    3.000 
#    0.000    0.625    0.000    0.000    0.000    0.000 
#    0.000    0.000    0.000    0.000    0.000    0.000 
#
# Total GULP energy -89089.579344 kJ/mol
# GULP energy per Si atom -5568.098709 kJ/mol
# Density = 2.483937 g / cm^3
# Si number density = 24.896034 Si / 1000 Ang^3
#
#
#
# Elastic Constant Matrix: (Units=GPa)
#
#
# Indices 1 2 3 4 5 6 
#
# 1 101.2553 26.6159 18.8763 -27.4356 19.9576 -29.4431
# 2 26.6159 48.4156 16.3680 -18.5917 9.0246 -1.4634
# 3 18.8763 16.3680 92.5169 -14.9759 33.7125 -17.5960
# 4 -27.4356 -18.5917 -14.9759 33.7365 -10.8185 -4.8435
# 5 19.9576 9.0246 33.7125 -10.8185 52.7346 -9.1936
# 6 -29.4431 -1.4634 -17.5960 -4.8435 -9.1936 38.4083
#
#
#
# Elastic Compliance Matrix: (Units=1/GPa)
#
#
# Indices 1 2 3 4 5 6 
#
# 1 0.022124 -0.005157 0.004431 0.019164 -0.002811 0.020537
# 2 -0.005157 0.028049 -0.003137 0.009646 0.000620 -0.002957
# 3 0.004431 -0.003137 0.016727 0.008012 -0.008459 0.009926
# 4 0.019164 0.009646 0.008012 0.058815 0.002712 0.026795
# 5 -0.002811 0.000620 -0.008459 0.002712 0.025982 0.000554
# 6 0.020537 -0.002957 0.009926 0.026795 0.000554 0.049726
#
#
# Mechanical properties :
#
#
# Convention : Reuss Voigt Hill
#
# Bulk Modulus (GPa) = 16.89939 40.65647 28.77793
# Shear Modulus (GPa) = 21.84622 36.99771 29.42196
#
# Velocity S-wave (km/s) = 2.96547 3.85916 3.44145
# Velocity P-wave (km/s) = 4.30443 6.01859 5.23219
#
# Compressibility (1/GPa) = 0.05917375
#
# Stress axis : x y z
#
# Youngs Moduli (GPa) = 45.19998 35.65205 59.78326
#
# Poissons Ratio (x) = 0.18384 -0.26489
# Poissons Ratio (y) = 0.23307 0.18756
# Poissons Ratio (z) = -0.20027 0.11185
#
# Static dielectric constant tensor:
#      x y z
#    x 2.131010 0.082270 0.063670 
#    y 0.082270 2.226050 0.108760 
#    z 0.063670 0.108760 2.055680 
# 
# From -- ./inp_files/482148.got.cif
#   From: 2010.05.17/outbox.cif.g08.bks.cpg/sg2_242_cif.got.tgz:482148.got - 2010.06.03 11:33:40.
