data_PCOD9103725
_publ_section_title
;
Structure prediction by ZEFSAII (Michael W. Deem and Ramdas Pophale) SiO2 
 PCOD9103725
Probable space group: P -1
;
_chemical_formula_sum "Si O2"
_cell_formula_units_Z 16
_cell_length_a 8.139639
_cell_length_b 10.566257
_cell_length_c 17.395096
_cell_angle_alpha 144.395677
_cell_angle_beta 126.843104
_cell_angle_gamma 64.095015
_cell_volume 692.905979
_symmetry_space_group_name_H-M "P -1"
_symmetry_group_IT_number 2
_symmetry_cell_setting 'triclinic'
loop_
_space_group_symop_operation_xyz
x,y,z
-x,-y,-z
loop_
_atom_site_type_symbol
_atom_site_label
_atom_site_fract_x
_atom_site_fract_y
_atom_site_fract_z
Si Si1 0.593641 0.332611 0.644604
Si Si2 0.638415 0.851892 0.360950
Si Si3 0.241638 0.860533 0.028888
Si Si4 0.167702 0.328573 0.463005
Si Si5 0.647525 0.802903 0.178494
Si Si6 0.946706 0.225044 0.500581
Si Si7 0.025798 0.531283 0.928972
Si Si8 0.106730 0.276250 0.251384
O O1 0.490266 0.263153 0.662787
O O2 0.405441 0.423233 0.589667
O O3 0.806111 0.471504 0.794497
O O4 0.635543 0.110253 0.502438
O O5 0.539104 0.755877 0.207173
O O6 0.877105 0.801382 0.400199
O O7 0.472202 0.797420 0.063224
O O8 0.244355 0.122814 0.166645
O O9 0.121184 0.746686 0.013532
O O10 0.117020 0.781234 0.878490
O O11 0.137375 0.208434 0.314650
O O12 0.000000 0.500000 0.500000
O O13 0.089091 0.194423 0.449571
O O14 0.819992 0.647199 0.135220
O O15 0.758172 0.044757 0.345010
O O16 0.863710 0.459990 0.606649
O O17 0.000000 0.500000 0.000000
#
# Coordination Sequence:
#
# PCOD9103725 Si02
#       8
#     2   2   2   2   2   2   2   2
#     4  10  21  39  66 102 131 172 221 275 342 385
#     4  10  20  38  68 100 134 164 217 292 331 390
#     4  11  26  45  65  94 142 181 219 263 344 407
#     4   9  20  40  65  93 126 171 222 282 319 378
#     4  12  24  41  68 103 130 179 222 282 338 396
#     4  10  21  38  70  98 130 163 231 279 328 388
#     4  12  27  43  67 100 140 176 219 278 347 414
#     4  10  23  46  65  91 133 183 222 275 320 399
#
# _framework density 23.091156000000002
#
# number of rings (size 3 to 8) (size 9 to 14) (size 15 to 20)
#    0.000    1.500    1.250    3.000    3.500    3.500 
#    9.000    0.625    0.000    0.000    0.000    0.000 
#    0.000    0.000    0.000    0.000    0.000    0.000 
#
# Total GULP energy -89283.143356 kJ/mol
# GULP energy per Si atom -5580.196460 kJ/mol
# Density = 2.303860 g / cm^3
# Si number density = 23.091156 Si / 1000 Ang^3
#
#
#
# Elastic Constant Matrix: (Units=GPa)
#
#
# Indices 1 2 3 4 5 6 
#
# 1 73.8721 31.5574 42.1718 -7.2374 8.1649 -15.0773
# 2 31.5574 87.6221 52.1915 -17.4544 12.1429 -32.0706
# 3 42.1718 52.1915 112.6525 -11.0705 -3.2878 -13.0799
# 4 -7.2374 -17.4544 -11.0705 56.8904 -1.9824 -2.9668
# 5 8.1649 12.1429 -3.2878 -1.9824 35.2239 -11.0085
# 6 -15.0773 -32.0706 -13.0799 -2.9668 -11.0085 35.9634
#
#
#
# Elastic Compliance Matrix: (Units=1/GPa)
#
#
# Indices 1 2 3 4 5 6 
#
# 1 0.018681 -0.001136 -0.006043 0.000929 -0.003298 0.003687
# 2 -0.001136 0.025767 -0.008721 0.006943 -0.003121 0.018947
# 3 -0.006043 -0.008721 0.014849 -0.000577 0.004657 -0.003533
# 4 0.000929 0.006943 -0.000577 0.020188 0.001089 0.008370
# 5 -0.003298 -0.003121 0.004657 0.001089 0.033153 0.007766
# 6 0.003687 0.018947 -0.003533 0.008370 0.007766 0.048031
#
#
# Mechanical properties :
#
#
# Convention : Reuss Voigt Hill
#
# Bulk Modulus (GPa) = 36.37109 58.44312 47.40711
# Shear Modulus (GPa) = 24.79714 35.49727 30.14721
#
# Velocity S-wave (km/s) = 3.28057 3.92505 3.61719
# Velocity P-wave (km/s) = 5.48952 6.77540 6.16607
#
# Compressibility (1/GPa) = 0.02749436
#
# Stress axis : x y z
#
# Youngs Moduli (GPa) = 53.53158 38.80912 67.34540
#
# Poissons Ratio (x) = 0.04410 0.40700
# Poissons Ratio (y) = 0.06083 0.58734
# Poissons Ratio (z) = 0.32351 0.33847
#
# Static dielectric constant tensor:
#      x y z
#    x 1.927330 0.105470 -0.004210 
#    y 0.105470 2.007380 -0.047060 
#    z -0.004210 -0.047060 1.871230 
# 
# From -- ./inp_files/522706.got.cif
#   From: 2010.05.17/outbox.cif.g08.bks.cpg/sg2_262_cif.got.tgz:522706.got - 2010.06.03 11:33:40.
