data_PCOD9103997
_publ_section_title
;
Structure prediction by ZEFSAII (Michael W. Deem and Ramdas Pophale) SiO2 
 PCOD9103997
Probable space group: P -1
;
_chemical_formula_sum "Si O2"
_cell_formula_units_Z 16
_cell_length_a 10.246626
_cell_length_b 18.833821
_cell_length_c 9.284728
_cell_angle_alpha 117.215224
_cell_angle_beta 86.100065
_cell_angle_gamma 148.113965
_cell_volume 615.686585
_symmetry_space_group_name_H-M "P -1"
_symmetry_group_IT_number 2
_symmetry_cell_setting 'triclinic'
loop_
_space_group_symop_operation_xyz
x,y,z
-x,-y,-z
loop_
_atom_site_type_symbol
_atom_site_label
_atom_site_fract_x
_atom_site_fract_y
_atom_site_fract_z
Si Si1 0.370603 0.238941 0.651590
Si Si2 0.830467 0.355954 0.749851
Si Si3 0.931144 0.881978 0.707173
Si Si4 0.414585 0.387729 0.021471
Si Si5 0.858141 0.028044 0.918860
Si Si6 0.493178 0.907421 0.226738
Si Si7 0.074329 0.363175 0.549111
Si Si8 0.245308 0.782039 0.833613
O O1 0.577917 0.277787 0.629239
O O2 0.325019 0.272068 0.549593
O O3 0.492273 0.350979 0.890928
O O4 0.000000 0.000000 0.500000
O O5 0.047643 0.436380 0.686726
O O6 0.648064 0.180835 0.685706
O O7 0.000000 0.500000 0.000000
O O8 0.286632 0.049013 0.774822
O O9 0.932116 0.840627 0.825213
O O10 0.908738 0.963562 0.818093
O O11 0.031322 0.173086 0.909607
O O12 0.500000 0.500000 0.000000
O O13 0.637222 0.515510 0.266693
O O14 0.476192 0.839980 0.806252
O O15 0.746751 0.123331 0.381540
O O16 0.207867 0.749069 0.976517
O O17 0.071661 0.376448 0.390330
O O18 0.500000 0.000000 0.000000
#
# Coordination Sequence:
#
# PCOD9103997 Si02
#       8
#     2   2   2   2   2   2   2   2
#     4  12  22  42  66  90 129 172 218 264 318 384
#     4  12  24  41  63  96 134 166 216 272 317 379
#     4  10  20  38  71  92 120 170 222 264 311 385
#     4  12  26  41  62  99 133 164 215 275 320 379
#     4  10  21  41  66  96 123 167 222 263 322 389
#     4  10  21  42  67  91 127 174 215 259 327 386
#     4  11  24  42  63  95 131 170 211 266 327 385
#     4   9  21  42  66  90 124 170 216 260 319 393
#
# _framework density 25.987248999999998
#
# number of rings (size 3 to 8) (size 9 to 14) (size 15 to 20)
#    0.000    1.250    3.750    1.875    0.000    2.000 
#    2.250    9.375    0.000    0.000    0.000    0.000 
#    0.000    0.000    0.000    0.000    0.000    0.000 
#
# Total GULP energy -89490.451246 kJ/mol
# GULP energy per Si atom -5593.153203 kJ/mol
# Density = 2.592810 g / cm^3
# Si number density = 25.987249 Si / 1000 Ang^3
#
#
#
# Elastic Constant Matrix: (Units=GPa)
#
#
# Indices 1 2 3 4 5 6 
#
# 1 95.7246 3.6615 22.6351 -5.9780 5.0241 -6.0234
# 2 3.6615 84.3869 10.4893 -18.3885 5.1112 -13.4129
# 3 22.6351 10.4893 132.2351 -25.6887 26.7297 -8.1895
# 4 -5.9780 -18.3885 -25.6887 31.9530 -10.6128 1.3315
# 5 5.0241 5.1112 26.7297 -10.6128 44.3795 -12.1880
# 6 -6.0234 -13.4129 -8.1895 1.3315 -12.1880 21.9958
#
#
#
# Elastic Compliance Matrix: (Units=1/GPa)
#
#
# Indices 1 2 3 4 5 6 
#
# 1 0.011046 0.000397 -0.001689 0.001080 0.000809 0.003021
# 2 0.000397 0.015515 0.000714 0.010179 0.003189 0.010987
# 3 -0.001689 0.000714 0.009979 0.006746 -0.003995 0.001066
# 4 0.001080 0.010179 0.006746 0.045128 0.008444 0.010962
# 5 0.000809 0.003189 -0.003995 0.008444 0.031310 0.017517
# 6 0.003021 0.010987 0.001066 0.010962 0.017517 0.062430
#
#
# Mechanical properties :
#
#
# Convention : Reuss Voigt Hill
#
# Bulk Modulus (GPa) = 28.25979 42.87981 35.56980
# Shear Modulus (GPa) = 26.54523 38.03639 32.29081
#
# Velocity S-wave (km/s) = 3.19951 3.82993 3.52883
# Velocity P-wave (km/s) = 4.95452 6.00782 5.50641
#
# Compressibility (1/GPa) = 0.03538596
#
# Stress axis : x y z
#
# Youngs Moduli (GPa) = 90.53145 64.45206 100.21123
#
# Poissons Ratio (x) = -0.02560 0.16924
# Poissons Ratio (y) = -0.03596 -0.07160
# Poissons Ratio (z) = 0.15289 -0.04605
#
# Static dielectric constant tensor:
#      x y z
#    x 2.044150 0.004720 0.017080 
#    y 0.004720 2.109940 0.022380 
#    z 0.017080 0.022380 2.082630 
# 
# From -- ./inp_files/282108.got.cif
#   From: 2010.05.17/outbox.cif.g08.bks.cpg/sg2_142_cif.got.tgz:282108.got - 2010.06.03 11:33:40.
