data_PCOD9103049
_publ_section_title
;
Structure prediction by ZEFSAII (Michael W. Deem and Ramdas Pophale) SiO2 
 PCOD9103049
Probable space group: P -1
;
_chemical_formula_sum "Si O2"
_cell_formula_units_Z 14
_cell_length_a 11.556871
_cell_length_b 13.871430
_cell_length_c 10.558401
_cell_angle_alpha 146.727612
_cell_angle_beta 58.267375
_cell_angle_gamma 134.995055
_cell_volume 647.344606
_symmetry_space_group_name_H-M "P -1"
_symmetry_group_IT_number 2
_symmetry_cell_setting 'triclinic'
loop_
_space_group_symop_operation_xyz
x,y,z
-x,-y,-z
loop_
_atom_site_type_symbol
_atom_site_label
_atom_site_fract_x
_atom_site_fract_y
_atom_site_fract_z
Si Si1 0.006372 0.053401 0.379421
Si Si2 0.728847 0.289590 0.957291
Si Si3 0.018661 0.313636 0.902212
Si Si4 0.625575 0.603159 0.425783
Si Si5 0.572991 0.479048 0.803011
Si Si6 0.416311 0.910938 0.589905
Si Si7 0.842881 0.972330 0.132028
O O1 0.204217 0.175483 0.389584
O O2 0.984399 0.164672 0.634400
O O3 0.930704 0.801086 0.156820
O O4 0.920978 0.080100 0.340423
O O5 0.845596 0.283759 0.986772
O O6 0.573063 0.061513 0.756334
O O7 0.669752 0.433356 0.194384
O O8 0.847169 0.438254 0.934771
O O9 0.500000 0.500000 0.500000
O O10 0.557522 0.621558 0.350120
O O11 0.636277 0.329541 0.628473
O O12 0.500000 0.500000 0.000000
O O13 0.710915 0.717951 0.941024
O O14 0.500000 0.000000 0.500000
O O15 0.270031 0.940824 0.741847
O O16 0.000000 0.000000 0.000000
#
# Coordination Sequence:
#
# PCOD9103049 Si02
#       7
#     2   2   2   2   2   2   2
#     4  10  22  37  65  90 135 170 222 275 347 413
#     4  10  20  38  64  97 132 169 227 285 341 413
#     4   9  20  37  63  98 125 165 223 288 344 397
#     4  11  23  44  67  97 141 183 229 292 358 416
#     4  12  26  46  77 106 137 191 248 297 354 428
#     4  12  24  42  74 102 140 187 247 293 352 427
#     4  12  27  46  67 103 150 186 231 296 367 423
#
# _framework density 21.626812999999999
#
# number of rings (size 3 to 8) (size 9 to 14) (size 15 to 20)
#    0.000    1.143    2.857    2.571    8.000    0.571 
#    2.571    1.429    0.000    0.000    0.000    0.000 
#    0.000    0.000    0.000    0.000    0.000    0.000 
#
# Total GULP energy -78136.685265 kJ/mol
# GULP energy per Si atom -5581.191805 kJ/mol
# Density = 2.157759 g / cm^3
# Si number density = 21.626813 Si / 1000 Ang^3
#
#
#
# Elastic Constant Matrix: (Units=GPa)
#
#
# Indices 1 2 3 4 5 6 
#
# 1 100.0068 28.1406 37.0783 -4.8754 -17.2276 13.8331
# 2 28.1406 54.1835 28.2169 5.6670 -22.9241 18.4155
# 3 37.0783 28.2169 87.6063 17.3247 -37.4567 3.5182
# 4 -4.8754 5.6670 17.3247 32.9565 4.9833 -2.4192
# 5 -17.2276 -22.9241 -37.4567 4.9833 48.3594 4.7841
# 6 13.8331 18.4155 3.5182 -2.4192 4.7841 26.7336
#
#
#
# Elastic Compliance Matrix: (Units=1/GPa)
#
#
# Indices 1 2 3 4 5 6 
#
# 1 0.014099 -0.005563 -0.007229 0.007341 -0.003856 -0.001157
# 2 -0.005563 0.044601 0.005194 -0.018128 0.028542 -0.035277
# 3 -0.007229 0.005194 0.027898 -0.021075 0.024639 -0.009825
# 4 0.007341 -0.018128 -0.021075 0.051700 -0.029753 0.021466
# 5 -0.003856 0.028542 0.024639 -0.029753 0.058353 -0.034043
# 6 -0.001157 -0.035277 -0.009825 0.021466 -0.034043 0.071633
#
#
# Mechanical properties :
#
#
# Convention : Reuss Voigt Hill
#
# Bulk Modulus (GPa) = 14.00534 47.62981 30.81757
# Shear Modulus (GPa) = 16.27173 31.50060 23.88617
#
# Velocity S-wave (km/s) = 2.74594 3.82062 3.32696
# Velocity P-wave (km/s) = 4.06738 6.44470 5.38877
#
# Compressibility (1/GPa) = 0.07140135
#
# Stress axis : x y z
#
# Youngs Moduli (GPa) = 70.92845 22.42079 35.84443
#
# Poissons Ratio (x) = 0.12474 0.25912
# Poissons Ratio (y) = 0.39461 -0.18617
# Poissons Ratio (z) = 0.51274 -0.11645
#
# Static dielectric constant tensor:
#      x y z
#    x 1.866710 -0.002810 0.041780 
#    y -0.002810 1.914610 -0.055960 
#    z 0.041780 -0.055960 1.836180 
# 
# From -- ./inp_files/433443.got.cif
#   From: 2010.05.17/outbox.cif.g08.bks.cpg/sg2_217_cif.got.tgz:433443.got - 2010.06.03 11:33:40.
