data_PCOD9103870
_publ_section_title
;
Structure prediction by ZEFSAII (Michael W. Deem and Ramdas Pophale) SiO2 
 PCOD9103870
Probable space group: P -1
;
_chemical_formula_sum "Si O2"
_cell_formula_units_Z 16
_cell_length_a 20.886037
_cell_length_b 12.811966
_cell_length_c 7.387336
_cell_angle_alpha 53.157785
_cell_angle_beta 49.905413
_cell_angle_gamma 23.734264
_cell_volume 608.332577
_symmetry_space_group_name_H-M "P -1"
_symmetry_group_IT_number 2
_symmetry_cell_setting 'triclinic'
loop_
_space_group_symop_operation_xyz
x,y,z
-x,-y,-z
loop_
_atom_site_type_symbol
_atom_site_label
_atom_site_fract_x
_atom_site_fract_y
_atom_site_fract_z
Si Si1 0.473469 0.181871 0.230625
Si Si2 0.691143 0.241156 0.849058
Si Si3 0.272579 0.341453 0.110328
Si Si4 0.790692 0.279607 0.927339
Si Si5 0.950650 0.881860 0.317043
Si Si6 0.610189 0.602375 0.444399
Si Si7 0.173730 0.225084 0.881629
Si Si8 0.246131 0.089711 0.473267
O O1 0.387590 0.194996 0.236393
O O2 0.397690 0.414215 0.030988
O O3 0.403237 0.308714 0.427650
O O4 0.668191 0.901489 0.207731
O O5 0.798539 0.149961 0.913729
O O6 0.706269 0.336061 0.575939
O O7 0.500000 0.500000 0.000000
O O8 0.762699 0.002937 0.933454
O O9 0.089002 0.636962 0.183132
O O10 0.266144 0.199263 0.218954
O O11 0.666889 0.636074 0.168148
O O12 0.915052 0.226421 0.685780
O O13 0.848616 0.139860 0.153661
O O14 0.833167 0.914440 0.503442
O O15 0.427805 0.802289 0.506377
O O16 0.160005 0.239525 0.670490
O O17 0.000000 0.500000 0.000000
#
# Coordination Sequence:
#
# PCOD9103870 Si02
#       8
#     2   2   2   2   2   2   2   2
#     4   9  21  44  73 102 145 197 254 311 378 455
#     4  11  17  41  78 107 145 199 259 316 384 453
#     4  11  24  44  66 111 153 201 254 310 390 457
#     4   9  17  36  73 105 136 192 252 311 374 442
#     4  10  20  38  69 106 150 191 248 320 375 437
#     4  10  22  42  78 106 140 202 261 320 376 456
#     4  11  23  42  72 114 151 196 251 319 390 456
#     4  11  22  44  69 104 152 206 245 314 384 457
#
# _framework density 26.301402
#
# number of rings (size 3 to 8) (size 9 to 14) (size 15 to 20)
#    0.000    1.750    5.000    0.750    0.000    2.000 
#    9.000    8.125    0.000    6.000    0.000    0.000 
#    0.000    0.000    0.000    2.000    0.000    0.000 
#
# Total GULP energy -89383.355863 kJ/mol
# GULP energy per Si atom -5586.459741 kJ/mol
# Density = 2.624154 g / cm^3
# Si number density = 26.301402 Si / 1000 Ang^3
#
#
#
# Elastic Constant Matrix: (Units=GPa)
#
#
# Indices 1 2 3 4 5 6 
#
# 1 120.9132 5.7321 61.0998 13.9417 -24.4743 -20.3555
# 2 5.7321 111.3346 35.3253 -24.8507 -2.5408 -12.5978
# 3 61.0998 35.3253 141.6477 -14.1759 -5.6005 5.4317
# 4 13.9417 -24.8507 -14.1759 29.2296 6.4507 -13.0903
# 5 -24.4743 -2.5408 -5.6005 6.4507 55.2930 -1.3575
# 6 -20.3555 -12.5978 5.4317 -13.0903 -1.3575 32.5312
#
#
#
# Elastic Compliance Matrix: (Units=1/GPa)
#
#
# Indices 1 2 3 4 5 6 
#
# 1 0.016465 0.001005 -0.008262 -0.008737 0.007735 0.008878
# 2 0.001005 0.015460 -0.003095 0.017730 -0.000878 0.014230
# 3 -0.008262 -0.003095 0.012009 0.004946 -0.003320 -0.006522
# 4 -0.008737 0.017730 0.004946 0.070937 -0.010123 0.028695
# 5 0.007735 -0.000878 -0.003320 -0.010123 0.022360 0.001914
# 6 0.008878 0.014230 -0.006522 0.028695 0.001914 0.054521
#
#
# Mechanical properties :
#
#
# Convention : Reuss Voigt Hill
#
# Bulk Modulus (GPa) = 43.04763 64.24555 53.64659
# Shear Modulus (GPa) = 22.70656 41.52664 32.11660
#
# Velocity S-wave (km/s) = 2.94142 3.97782 3.49821
# Velocity P-wave (km/s) = 5.28569 6.75108 6.06282
#
# Compressibility (1/GPa) = 0.02323008
#
# Stress axis : x y z
#
# Youngs Moduli (GPa) = 60.73374 64.68373 83.26994
#
# Poissons Ratio (x) = -0.06498 0.68797
# Poissons Ratio (y) = -0.06101 0.25770
# Poissons Ratio (z) = 0.50178 0.20018
#
# Static dielectric constant tensor:
#      x y z
#    x 2.087320 0.015010 0.010820 
#    y 0.015010 2.087140 0.058820 
#    z 0.010820 0.058820 2.188500 
# 
# From -- ./inp_files/474944.got.cif
#   From: 2010.05.17/outbox.cif.g08.bks.cpg/sg2_238_cif.got.tgz:474944.got - 2010.06.03 11:33:40.
