data_PCOD9103498
_publ_section_title
;
Structure prediction by ZEFSAII (Michael W. Deem and Ramdas Pophale) SiO2 
 PCOD9103498
Probable space group: P -1
;
_chemical_formula_sum "Si O2"
_cell_formula_units_Z 13
_cell_length_a 11.732344
_cell_length_b 7.598274
_cell_length_c 8.464495
_cell_angle_alpha 73.561802
_cell_angle_beta 97.214370
_cell_angle_gamma 52.332613
_cell_volume 526.745592
_symmetry_space_group_name_H-M "P -1"
_symmetry_group_IT_number 2
_symmetry_cell_setting 'triclinic'
loop_
_space_group_symop_operation_xyz
x,y,z
-x,-y,-z
loop_
_atom_site_type_symbol
_atom_site_label
_atom_site_fract_x
_atom_site_fract_y
_atom_site_fract_z
Si Si1 0.500000 0.500000 0.500000
Si Si2 0.341530 0.500033 0.940066
Si Si3 0.260287 0.361872 0.505218
Si Si4 0.596427 0.198147 0.286100
Si Si5 0.958084 0.244838 0.362480
Si Si6 0.557707 0.164996 0.777296
Si Si7 0.853194 0.673913 0.812455
O O1 0.608580 0.287814 0.430013
O O2 0.622810 0.292397 0.714835
O O3 0.340360 0.720668 0.849401
O O4 0.169512 0.628158 0.831608
O O5 0.460735 0.270239 0.893408
O O6 0.419275 0.369145 0.151106
O O7 0.129725 0.555950 0.559957
O O8 0.415005 0.325481 0.575024
O O9 0.187918 0.434509 0.299914
O O10 0.330202 0.083838 0.626363
O O11 0.097307 0.211799 0.323415
O O12 0.000000 0.000000 0.500000
O O13 0.696252 0.879381 0.835663
O O14 0.000000 0.500000 0.000000
#
# Coordination Sequence:
#
# PCOD9103498 Si02
#       7
#     1   2   2   2   2   2   2
#     4  10  20  38  66  94 130 164 226 282 324 388
#     4   9  22  41  69  97 130 184 226 282 326 419
#     4  11  24  44  72  92 132 191 230 271 335 427
#     4  10  20  39  70  99 127 171 246 270 332 387
#     4  11  26  47  68  96 143 183 226 273 359 407
#     4  10  23  41  68  95 132 176 230 279 332 402
#     4  12  27  43  65 107 141 171 225 295 344 392
#
# _framework density 24.679843999999999
#
# number of rings (size 3 to 8) (size 9 to 14) (size 15 to 20)
#    0.000    1.538    1.538    1.846    8.615    1.231 
#    5.538    0.769    0.000    0.000    0.000    0.000 
#    0.000    0.000    0.000    0.000    0.000    0.000 
#
# Total GULP energy -72412.163889 kJ/mol
# GULP energy per Si atom -5570.166453 kJ/mol
# Density = 2.462367 g / cm^3
# Si number density = 24.679844 Si / 1000 Ang^3
#
#
#
# Elastic Constant Matrix: (Units=GPa)
#
#
# Indices 1 2 3 4 5 6 
#
# 1 100.4758 24.3547 36.1873 2.7475 2.8567 -3.9432
# 2 24.3547 122.9836 51.7119 -12.1419 9.2495 18.3467
# 3 36.1873 51.7119 140.4591 -1.7051 36.1113 3.3685
# 4 2.7475 -12.1419 -1.7051 24.4911 8.2639 0.5415
# 5 2.8567 9.2495 36.1113 8.2639 51.4818 -3.4161
# 6 -3.9432 18.3467 3.3685 0.5415 -3.4161 32.2045
#
#
#
# Elastic Compliance Matrix: (Units=1/GPa)
#
#
# Indices 1 2 3 4 5 6 
#
# 1 0.011703 -0.002067 -0.003056 -0.003516 0.002647 0.003270
# 2 -0.002067 0.011606 -0.003195 0.006315 -0.001192 -0.006763
# 3 -0.003056 -0.003195 0.011005 0.002011 -0.007333 -0.000517
# 4 -0.003516 0.006315 0.002011 0.048173 -0.010491 -0.006161
# 5 0.002647 -0.001192 -0.007333 -0.010491 0.026636 0.004772
# 6 0.003270 -0.006763 -0.000517 -0.006161 0.004772 0.035969
#
#
# Mechanical properties :
#
#
# Convention : Reuss Voigt Hill
#
# Bulk Modulus (GPa) = 56.56406 65.38070 60.97238
# Shear Modulus (GPa) = 29.82930 38.41311 34.12121
#
# Velocity S-wave (km/s) = 3.48034 3.94948 3.72230
# Velocity P-wave (km/s) = 6.25454 6.88091 6.57518
#
# Compressibility (1/GPa) = 0.01767907
#
# Stress axis : x y z
#
# Youngs Moduli (GPa) = 85.44514 86.16250 90.86597
#
# Poissons Ratio (x) = 0.17807 0.27768
# Poissons Ratio (y) = 0.17659 0.29033
# Poissons Ratio (z) = 0.26111 0.27531
#
# Static dielectric constant tensor:
#      x y z
#    x 1.293870 -0.221260 0.175840 
#    y -0.221260 1.867360 0.071120 
#    z 0.175840 0.071120 1.968760 
# 
# From -- ./inp_files/292337.got.cif
#   From: 2010.05.17/outbox.cif.g08.bks.cpg/sg2_147_cif.got.tgz:292337.got - 2010.06.03 11:33:40.
