data_PCOD9103436
_publ_section_title
;
Structure prediction by ZEFSAII (Michael W. Deem and Ramdas Pophale) SiO2 
 PCOD9103436
Probable space group: P -1
;
_chemical_formula_sum "Si O2"
_cell_formula_units_Z 16
_cell_length_a 10.833317
_cell_length_b 8.451865
_cell_length_c 15.295674
_cell_angle_alpha 54.092826
_cell_angle_beta 53.423487
_cell_angle_gamma 43.684312
_cell_volume 745.632339
_symmetry_space_group_name_H-M "P -1"
_symmetry_group_IT_number 2
_symmetry_cell_setting 'triclinic'
loop_
_space_group_symop_operation_xyz
x,y,z
-x,-y,-z
loop_
_atom_site_type_symbol
_atom_site_label
_atom_site_fract_x
_atom_site_fract_y
_atom_site_fract_z
Si Si1 0.980106 0.808428 0.121937
Si Si2 0.384259 0.823669 0.786340
Si Si3 0.929235 0.883512 0.691387
Si Si4 0.484385 0.991623 0.164043
Si Si5 0.985057 0.282781 0.486512
Si Si6 0.331443 0.237196 0.445720
Si Si7 0.636744 0.533160 0.986127
Si Si8 0.873151 0.544028 0.122954
O O1 0.906945 0.705427 0.118003
O O2 0.189278 0.578097 0.119074
O O3 0.826231 0.938577 0.220517
O O4 0.000000 0.000000 0.000000
O O5 0.548011 0.708771 0.684682
O O6 0.333282 0.635524 0.891734
O O7 0.457654 0.917547 0.803530
O O8 0.012153 0.743517 0.610338
O O9 0.042409 0.704129 0.782046
O O10 0.711569 0.977684 0.753539
O O11 0.950779 0.099778 0.606565
O O12 0.648459 0.724658 0.152301
O O13 0.443992 0.197352 0.046274
O O14 0.187856 0.213087 0.455843
O O15 0.812464 0.547092 0.500149
O O16 0.500000 0.000000 0.500000
O O17 0.500000 0.500000 0.000000
O O18 0.000000 0.500000 0.000000
#
# Coordination Sequence:
#
# PCOD9103436 Si02
#       8
#     2   2   2   2   2   2   2   2
#     4   9  18  37  60  90 127 170 213 252 319 403
#     4   9  19  36  62  93 126 169 211 260 331 387
#     4  11  23  47  70  89 137 181 222 270 325 409
#     4  10  20  38  66  91 126 172 215 253 329 397
#     4  10  26  46  68  98 126 181 230 269 336 388
#     4  11  24  44  68 102 132 160 226 294 329 376
#     4   9  17  33  60  93 123 163 213 253 307 399
#     4  11  25  41  62  99 132 168 214 270 331 389
#
# _framework density 21.458296000000001
#
# number of rings (size 3 to 8) (size 9 to 14) (size 15 to 20)
#    0.000    2.000    2.500    0.750    3.500    2.500 
#   11.250    2.500    0.000    0.000    0.000    0.000 
#    0.000    0.000    0.000    0.000    0.000    0.000 
#
# Total GULP energy -89119.102451 kJ/mol
# GULP energy per Si atom -5569.943903 kJ/mol
# Density = 2.140946 g / cm^3
# Si number density = 21.458296 Si / 1000 Ang^3
#
#
#
# Elastic Constant Matrix: (Units=GPa)
#
#
# Indices 1 2 3 4 5 6 
#
# 1 35.0425 35.9905 15.4553 3.2338 -16.6373 -21.5953
# 2 35.9905 123.0900 50.2126 3.1872 -4.3512 -38.1272
# 3 15.4553 50.2126 102.8284 -7.2006 -15.4373 -19.1372
# 4 3.2338 3.1872 -7.2006 24.4687 -7.0092 -9.1585
# 5 -16.6373 -4.3512 -15.4373 -7.0092 33.7771 4.3364
# 6 -21.5953 -38.1272 -19.1372 -9.1585 4.3364 34.2770
#
#
#
# Elastic Compliance Matrix: (Units=1/GPa)
#
#
# Indices 1 2 3 4 5 6 
#
# 1 0.083962 -0.014567 0.010628 0.022533 0.043474 0.043150
# 2 -0.014567 0.016668 -0.006313 -0.002359 -0.009221 0.006375
# 3 0.010628 -0.006313 0.015765 0.011412 0.012722 0.009915
# 4 0.022533 -0.002359 0.011412 0.060152 0.024524 0.030913
# 5 0.043474 -0.009221 0.012722 0.024524 0.057720 0.023486
# 6 0.043150 0.006375 0.009915 0.030913 0.023486 0.074275
#
#
# Mechanical properties :
#
#
# Convention : Reuss Voigt Hill
#
# Bulk Modulus (GPa) = 10.42831 51.58640 31.00736
# Shear Modulus (GPa) = 13.85008 29.12474 21.48741
#
# Velocity S-wave (km/s) = 2.54331 3.68811 3.16786
# Velocity P-wave (km/s) = 3.67354 6.49836 5.27843
#
# Compressibility (1/GPa) = 0.09589280
#
# Stress axis : x y z
#
# Youngs Moduli (GPa) = 11.91012 59.99376 63.43292
#
# Poissons Ratio (x) = 0.87390 -0.67419
# Poissons Ratio (y) = 0.17349 0.40046
# Poissons Ratio (z) = -0.12659 0.37875
#
# Static dielectric constant tensor:
#      x y z
#    x 1.795800 -0.062390 0.066760 
#    y -0.062390 1.841940 -0.040050 
#    z 0.066760 -0.040050 1.863170 
# 
# From -- ./inp_files/515034.got.cif
#   From: 2010.05.17/outbox.cif.g08.bks.cpg/sg2_258_cif.got.tgz:515034.got - 2010.06.03 11:33:40.
