data_PCOD9103787
_publ_section_title
;
Structure prediction by ZEFSAII (Michael W. Deem and Ramdas Pophale) SiO2 
 PCOD9103787
Probable space group: P -1
;
_chemical_formula_sum "Si O2"
_cell_formula_units_Z 16
_cell_length_a 18.406998
_cell_length_b 17.425989
_cell_length_c 8.553747
_cell_angle_alpha 125.804244
_cell_angle_beta 113.772101
_cell_angle_gamma 21.306108
_cell_volume 708.565649
_symmetry_space_group_name_H-M "P -1"
_symmetry_group_IT_number 2
_symmetry_cell_setting 'triclinic'
loop_
_space_group_symop_operation_xyz
x,y,z
-x,-y,-z
loop_
_atom_site_type_symbol
_atom_site_label
_atom_site_fract_x
_atom_site_fract_y
_atom_site_fract_z
Si Si1 0.211135 0.694438 0.021261
Si Si2 0.895443 0.685186 0.471786
Si Si3 0.476406 0.779383 0.807846
Si Si4 0.074800 0.672533 0.753901
Si Si5 0.639163 0.245848 0.074494
Si Si6 0.412038 0.947590 0.646437
Si Si7 0.385625 0.075996 0.217744
Si Si8 0.770965 0.298598 0.327793
O O1 0.250464 0.657235 0.824106
O O2 0.124873 0.682809 0.960728
O O3 0.432361 0.465847 0.040234
O O4 0.016210 0.989228 0.231364
O O5 0.967646 0.688461 0.657634
O O6 0.710705 0.827531 0.573366
O O7 0.138382 0.365294 0.261767
O O8 0.766359 0.868167 0.427224
O O9 0.359587 0.837669 0.894559
O O10 0.344833 0.962802 0.758169
O O11 0.684230 0.484017 0.571633
O O12 0.514015 0.836472 0.996968
O O13 0.329551 0.372883 0.552818
O O14 0.877279 0.960232 0.849254
O O15 0.631227 0.356080 0.281179
O O16 0.453697 0.013857 0.781935
#
# Coordination Sequence:
#
# PCOD9103787 Si02
#       8
#     2   2   2   2   2   2   2   2
#     4  10  21  43  69  93 125 169 217 257 313 374
#     4  10  21  43  69  93 125 169 217 257 313 374
#     4  12  24  42  62  98 136 160 210 264 322 372
#     4  10  20  38  68  94 120 162 218 256 298 384
#     4  11  23  42  68  93 129 169 210 263 315 373
#     4  11  23  42  68  93 129 169 210 263 315 373
#     4  10  23  42  64  96 129 162 216 265 304 385
#     4  10  23  42  64  96 129 162 216 265 304 385
#
# _framework density 22.580826999999999
#
# number of rings (size 3 to 8) (size 9 to 14) (size 15 to 20)
#    0.000    1.500    2.500    2.250    0.000    1.000 
#    0.000    6.250    0.000    0.000    0.000    0.000 
#    0.000    0.000    0.000    0.000    0.000    0.000 
#
# Total GULP energy -89120.985153 kJ/mol
# GULP energy per Si atom -5570.061572 kJ/mol
# Density = 2.252943 g / cm^3
# Si number density = 22.580827 Si / 1000 Ang^3
#
#
#
# Elastic Constant Matrix: (Units=GPa)
#
#
# Indices 1 2 3 4 5 6 
#
# 1 85.1177 40.9782 28.3639 10.7043 21.0178 24.4233
# 2 40.9782 116.4750 28.9696 2.8517 -4.2374 -2.8398
# 3 28.3639 28.9696 134.8606 37.2215 27.6704 1.1918
# 4 10.7043 2.8517 37.2215 5.1187 12.9581 -6.2738
# 5 21.0178 -4.2374 27.6704 12.9581 35.4314 -2.1739
# 6 24.4233 -2.8398 1.1918 -6.2738 -2.1739 31.4880
#
#
#
# Elastic Compliance Matrix: (Units=1/GPa)
#
#
# Indices 1 2 3 4 5 6 
#
# 1 0.025392 -0.009444 -0.005102 0.023209 -0.021753 -0.017231
# 2 -0.009444 0.012723 0.000502 -0.013785 0.012175 0.006548
# 3 -0.005102 0.000502 0.001935 0.029483 -0.008642 0.009207
# 4 0.023209 -0.013785 0.029483 -0.112457 0.000063 -0.042763
# 5 -0.021753 0.012175 -0.008642 0.000063 0.050648 0.021807
# 6 -0.017231 0.006548 0.009207 -0.042763 0.021807 0.038351
#
#
# Mechanical properties :
#
#
# Convention : Reuss Voigt Hill
#
# Bulk Modulus (GPa) = 83.59817 59.23074 71.41446
# Shear Modulus (GPa) = 102.73604 30.28372 66.50988
#
# Velocity S-wave (km/s) = 6.75247 3.66611 5.43305
# Velocity P-wave (km/s) = 9.89427 6.64891 8.42925
#
# Compressibility (1/GPa) = 0.01196198
#
# Stress axis : x y z
#
# Youngs Moduli (GPa) = 39.38206 78.59486 516.83693
#
# Poissons Ratio (x) = 0.74227 2.63689
# Poissons Ratio (y) = 0.37194 -0.25943
# Poissons Ratio (z) = 0.20093 -0.03945
#
# Static dielectric constant tensor:
#      x y z
#    x 2.010600 0.002020 -0.032010 
#    y 0.002020 1.798060 0.017010 
#    z -0.032010 0.017010 1.898140 
# 
# From -- ./inp_files/312440.got.cif
#   From: 2010.05.17/outbox.cif.g08.bks.cpg/sg2_157_cif.got.tgz:312440.got - 2010.06.03 11:33:40.
