data_PCOD9103173
_publ_section_title
;
Structure prediction by ZEFSAII (Michael W. Deem and Ramdas Pophale) SiO2 
 PCOD9103173
Probable space group: P -1
;
_chemical_formula_sum "Si O2"
_cell_formula_units_Z 12
_cell_length_a 9.221280
_cell_length_b 12.472584
_cell_length_c 9.168735
_cell_angle_alpha 59.715902
_cell_angle_beta 124.755641
_cell_angle_gamma 72.971457
_cell_volume 430.379797
_symmetry_space_group_name_H-M "P -1"
_symmetry_group_IT_number 2
_symmetry_cell_setting 'triclinic'
loop_
_space_group_symop_operation_xyz
x,y,z
-x,-y,-z
loop_
_atom_site_type_symbol
_atom_site_label
_atom_site_fract_x
_atom_site_fract_y
_atom_site_fract_z
Si Si1 0.250726 0.376110 0.455191
Si Si2 0.764421 0.068669 0.466422
Si Si3 0.650450 0.438856 0.784421
Si Si4 0.973982 0.306565 0.671075
Si Si5 0.517326 0.097336 0.562476
Si Si6 0.781400 0.979317 0.232506
O O1 0.246419 0.482054 0.252448
O O2 0.047218 0.552048 0.347887
O O3 0.260633 0.252791 0.435005
O O4 0.571993 0.174535 0.863724
O O5 0.552705 0.189763 0.404492
O O6 0.625187 0.088652 0.225779
O O7 0.904482 0.124831 0.490598
O O8 0.055844 0.812927 0.841768
O O9 0.500000 0.500000 0.500000
O O10 0.365564 0.556333 0.639291
O O11 0.142093 0.194814 0.686702
O O12 0.168269 0.105717 0.028398
O O13 0.500000 0.000000 0.500000
#
# Coordination Sequence:
#
# PCOD9103173 Si02
#       6
#     2   2   2   2   2   2
#     4  10  19  38  57  82 111 151 187 231 280 331
#     4  11  20  37  55  94 116 142 187 232 284 332
#     4  10  16  32  60  84 111 145 183 236 280 327
#     4  10  19  37  56  83 113 147 189 223 286 336
#     4  11  23  38  60  81 111 154 195 232 266 332
#     4  10  21  34  60  87 122 141 173 242 294 331
#
# _framework density 27.882352999999998
#
# number of rings (size 3 to 8) (size 9 to 14) (size 15 to 20)
#    0.000    1.667    6.667    1.000    0.000    4.000 
#    3.000    3.333    0.000    2.000    0.000    0.000 
#    0.000    0.000    0.000    0.000    0.000    0.000 
#
# Total GULP energy -66903.316563 kJ/mol
# GULP energy per Si atom -5575.276380 kJ/mol
# Density = 2.781889 g / cm^3
# Si number density = 27.882353 Si / 1000 Ang^3
#
#
#
# Elastic Constant Matrix: (Units=GPa)
#
#
# Indices 1 2 3 4 5 6 
#
# 1 90.3546 52.3610 8.3099 4.6452 -0.1482 -40.8300
# 2 52.3610 253.5478 54.9531 17.1296 -3.6086 -56.1114
# 3 8.3099 54.9531 116.0746 25.5025 -5.5379 -24.7291
# 4 4.6452 17.1296 25.5025 32.2415 -6.2633 -1.2409
# 5 -0.1482 -3.6086 -5.5379 -6.2633 29.9362 6.1182
# 6 -40.8300 -56.1114 -24.7291 -1.2409 6.1182 56.8737
#
#
#
# Elastic Compliance Matrix: (Units=1/GPa)
#
#
# Indices 1 2 3 4 5 6 
#
# 1 0.017515 -0.001123 0.002821 -0.004255 -0.003059 0.012929
# 2 -0.001123 0.005461 -0.001303 -0.001704 -0.000775 0.004061
# 3 0.002821 -0.001303 0.012336 -0.009447 -0.001066 0.006013
# 4 -0.004255 -0.001704 -0.009447 0.041313 0.008479 -0.008854
# 5 -0.003059 -0.000775 -0.001066 0.008479 0.036333 -0.007148
# 6 0.012929 0.004061 0.006013 -0.008854 -0.007148 0.034061
#
#
# Mechanical properties :
#
#
# Convention : Reuss Voigt Hill
#
# Bulk Modulus (GPa) = 27.69896 76.80278 52.25087
# Shear Modulus (GPa) = 31.59291 46.76715 39.18003
#
# Velocity S-wave (km/s) = 3.36978 4.09993 3.75265
# Velocity P-wave (km/s) = 5.00962 7.07232 6.12838
#
# Compressibility (1/GPa) = 0.03610244
#
# Stress axis : x y z
#
# Youngs Moduli (GPa) = 57.09335 183.11043 81.06661
#
# Poissons Ratio (x) = 0.20572 -0.22871
# Poissons Ratio (y) = 0.06414 0.10559
# Poissons Ratio (z) = -0.16107 0.23850
#
# Static dielectric constant tensor:
#      x y z
#    x 2.723370 0.160740 -0.049890 
#    y 0.160740 2.278330 -0.048210 
#    z -0.049890 -0.048210 2.072790 
# 
# From -- ./inp_files/167298.got.cif
#   From: 2010.05.17/outbox.cif.g08.bks.cpg/sg2_84_cif.got.tgz:167298.got - 2010.06.03 11:33:40.
