data_PCOD9103231
_publ_section_title
;
Structure prediction by ZEFSAII (Michael W. Deem and Ramdas Pophale) SiO2 
 PCOD9103231
Probable space group: P -1
;
_chemical_formula_sum "Si O2"
_cell_formula_units_Z 12
_cell_length_a 9.129378
_cell_length_b 9.323539
_cell_length_c 10.725510
_cell_angle_alpha 52.741441
_cell_angle_beta 114.803847
_cell_angle_gamma 135.424434
_cell_volume 509.862124
_symmetry_space_group_name_H-M "P -1"
_symmetry_group_IT_number 2
_symmetry_cell_setting 'triclinic'
loop_
_space_group_symop_operation_xyz
x,y,z
-x,-y,-z
loop_
_atom_site_type_symbol
_atom_site_label
_atom_site_fract_x
_atom_site_fract_y
_atom_site_fract_z
Si Si1 0.838189 0.722519 0.569850
Si Si2 0.013388 0.471599 0.874772
Si Si3 0.237390 0.721214 0.500347
Si Si4 0.315978 0.011731 0.906142
Si Si5 0.397799 0.461283 0.677076
Si Si6 0.372714 0.924371 0.695791
O O1 0.910223 0.573355 0.718253
O O2 0.632880 0.627200 0.625055
O O3 0.759288 0.650479 0.438468
O O4 0.000000 0.000000 0.500000
O O5 0.257563 0.656705 0.833155
O O6 0.000000 0.500000 0.000000
O O7 0.878677 0.195648 0.971324
O O8 0.343342 0.609964 0.642213
O O9 0.269157 0.880966 0.543339
O O10 0.000000 0.500000 0.500000
O O11 0.382270 0.887219 0.348396
O O12 0.365086 0.247297 0.842081
O O13 0.312329 0.002953 0.754889
O O14 0.500000 0.000000 0.000000
#
# Coordination Sequence:
#
# PCOD9103231 Si02
#       6
#     2   2   2   2   2   2
#     4  11  20  35  63  95 129 157 219 280 313 377
#     4  10  20  38  65  93 130 167 205 268 335 380
#     4  11  24  42  67  91 135 173 215 270 319 386
#     4  11  22  41  69  94 132 168 210 274 330 383
#     4  11  23  38  62 100 121 168 225 262 319 385
#     4  10  23  42  63  97 126 170 219 256 331 387
#
# _framework density 23.535772999999999
#
# number of rings (size 3 to 8) (size 9 to 14) (size 15 to 20)
#    0.000    1.333    1.667    6.000    2.333    1.333 
#    0.000    1.667    0.000    0.000    0.000    0.000 
#    0.000    0.000    0.000    0.000    0.000    0.000 
#
# Total GULP energy -66884.406464 kJ/mol
# GULP energy per Si atom -5573.700539 kJ/mol
# Density = 2.348220 g / cm^3
# Si number density = 23.535773 Si / 1000 Ang^3
#
#
#
# Elastic Constant Matrix: (Units=GPa)
#
#
# Indices 1 2 3 4 5 6 
#
# 1 85.3209 36.0571 39.1948 -16.6641 -11.3338 4.4047
# 2 36.0571 117.3973 50.6384 -29.3716 -15.1484 21.8724
# 3 39.1948 50.6384 118.1104 -33.6184 -7.2558 8.9298
# 4 -16.6641 -29.3716 -33.6184 53.9816 9.9259 -10.2961
# 5 -11.3338 -15.1484 -7.2558 9.9259 51.2742 -11.7049
# 6 4.4047 21.8724 8.9298 -10.2961 -11.7049 47.8700
#
#
#
# Elastic Compliance Matrix: (Units=1/GPa)
#
#
# Indices 1 2 3 4 5 6 
#
# 1 0.014877 -0.002851 -0.003472 0.000732 0.002099 0.001252
# 2 -0.002851 0.012357 -0.003155 0.002931 0.001118 -0.003891
# 3 -0.003472 -0.003155 0.012352 0.005130 -0.000865 0.000349
# 4 0.000732 0.002931 0.005130 0.024428 -0.002452 0.002291
# 5 0.002099 0.001118 -0.000865 -0.002452 0.021612 0.004214
# 6 0.001252 -0.003891 0.000349 0.002291 0.004214 0.024011
#
#
# Mechanical properties :
#
#
# Convention : Reuss Voigt Hill
#
# Bulk Modulus (GPa) = 48.47100 63.62325 56.04712
# Shear Modulus (GPa) = 36.90854 43.62105 40.26479
#
# Velocity S-wave (km/s) = 3.96433 4.30978 4.14066
# Velocity P-wave (km/s) = 6.44933 7.20117 6.83559
#
# Compressibility (1/GPa) = 0.02063089
#
# Stress axis : x y z
#
# Youngs Moduli (GPa) = 67.21563 80.92501 80.95849
#
# Poissons Ratio (x) = 0.23072 0.28110
# Poissons Ratio (y) = 0.19164 0.25540
# Poissons Ratio (z) = 0.23338 0.25529
#
# Static dielectric constant tensor:
#      x y z
#    x 1.965510 0.067240 -0.027200 
#    y 0.067240 2.058480 -0.044240 
#    z -0.027200 -0.044240 2.000910 
# 
# From -- ./inp_files/377790.got.cif
#   From: 2010.05.17/outbox.cif.g08.bks.cpg/sg2_189_cif.got.tgz:377790.got - 2010.06.03 11:33:40.
