data_PCOD9103038
_publ_section_title
;
Structure prediction by ZEFSAII (Michael W. Deem and Ramdas Pophale) SiO2 
 PCOD9103038
Probable space group: P -1
;
_chemical_formula_sum "Si O2"
_cell_formula_units_Z 15
_cell_length_a 17.747571
_cell_length_b 9.424641
_cell_length_c 4.965251
_cell_angle_alpha 104.074381
_cell_angle_beta 82.578565
_cell_angle_gamma 48.548911
_cell_volume 553.629500
_symmetry_space_group_name_H-M "P -1"
_symmetry_group_IT_number 2
_symmetry_cell_setting 'triclinic'
loop_
_space_group_symop_operation_xyz
x,y,z
-x,-y,-z
loop_
_atom_site_type_symbol
_atom_site_label
_atom_site_fract_x
_atom_site_fract_y
_atom_site_fract_z
Si Si1 0.526913 0.793990 0.898833
Si Si2 0.827312 0.228904 0.759271
Si Si3 0.094922 0.173428 0.274632
Si Si4 0.664650 0.131769 0.237936
Si Si5 0.767986 0.491266 0.430220
Si Si6 0.000000 0.500000 0.000000
Si Si7 0.198026 0.240155 0.633079
Si Si8 0.591690 0.472830 0.086948
O O1 0.426764 0.846836 0.833725
O O2 0.642918 0.621990 0.614578
O O3 0.547762 0.695722 0.140919
O O4 0.500000 0.000000 0.000000
O O5 0.842935 0.305486 0.527505
O O6 0.909914 0.985060 0.687687
O O7 0.803127 0.371728 0.079202
O O8 0.710331 0.306924 0.812488
O O9 0.093169 0.286437 0.588735
O O10 0.018530 0.327582 0.139354
O O11 0.220141 0.023072 0.045664
O O12 0.616245 0.360927 0.310472
O O13 0.704677 0.001258 0.436403
O O14 0.768876 0.665790 0.503676
O O15 0.876123 0.605040 0.011300
O O16 0.500000 0.500000 0.000000
#
# Coordination Sequence:
#
# PCOD9103038 Si02
#       8
#     2   2   2   2   2   1   2   2
#     4  10  20  38  64  96 138 186 233 278 334 402
#     4  10  24  44  68  98 141 188 224 284 347 408
#     4  10  22  44  72  98 131 177 235 280 346 416
#     4   9  20  38  62  93 130 179 230 275 334 391
#     4  11  26  44  67 101 149 183 226 285 350 405
#     4  10  24  44  76 100 130 166 234 290 354 410
#     4  11  24  42  72  99 133 174 231 287 350 420
#     4   8  17  37  57  87 129 178 232 274 314 385
#
# _framework density 27.093934999999998
#
# number of rings (size 3 to 8) (size 9 to 14) (size 15 to 20)
#    0.000    2.133    0.000    1.200   13.067    0.533 
#    9.600    5.333    0.000    0.000    0.000    0.000 
#    0.000    0.000    0.000    0.000    0.000    0.000 
#
# Total GULP energy -83713.148907 kJ/mol
# GULP energy per Si atom -5580.876594 kJ/mol
# Density = 2.703227 g / cm^3
# Si number density = 27.093935 Si / 1000 Ang^3
#
#
#
# Elastic Constant Matrix: (Units=GPa)
#
#
# Indices 1 2 3 4 5 6 
#
# 1 93.1531 92.8434 38.0755 -11.5544 -5.9629 12.4494
# 2 92.8434 283.9485 42.3126 -53.9277 8.2872 33.7347
# 3 38.0755 42.3126 68.8060 -22.4935 7.7219 -1.5927
# 4 -11.5544 -53.9277 -22.4935 58.8751 -5.7183 -13.1239
# 5 -5.9629 8.2872 7.7219 -5.7183 34.2925 6.5711
# 6 12.4494 33.7347 -1.5927 -13.1239 6.5711 66.2186
#
#
#
# Elastic Compliance Matrix: (Units=1/GPa)
#
#
# Indices 1 2 3 4 5 6 
#
# 1 0.021746 -0.006449 -0.010832 -0.005713 0.007387 -0.002929
# 2 -0.006449 0.006512 0.001342 0.004811 -0.002019 -0.000919
# 3 -0.010832 0.001342 0.023277 0.008272 -0.006882 0.004235
# 4 -0.005713 0.004811 0.008272 0.024185 -0.000692 0.003684
# 5 0.007387 -0.002019 -0.006882 -0.000692 0.033124 -0.003950
# 6 -0.002929 -0.000919 0.004235 0.003684 -0.003950 0.017344
#
#
# Mechanical properties :
#
#
# Convention : Reuss Voigt Hill
#
# Bulk Modulus (GPa) = 50.87266 88.04117 69.45692
# Shear Modulus (GPa) = 30.37312 50.05566 40.21439
#
# Velocity S-wave (km/s) = 3.35181 4.30290 3.85679
# Velocity P-wave (km/s) = 5.81349 7.56650 6.74717
#
# Compressibility (1/GPa) = 0.01965692
#
# Stress axis : x y z
#
# Youngs Moduli (GPa) = 45.98648 153.55834 42.96038
#
# Poissons Ratio (x) = 0.99025 0.46536
# Poissons Ratio (y) = 0.29655 -0.05765
# Poissons Ratio (z) = 0.49814 -0.20607
#
# Static dielectric constant tensor:
#      x y z
#    x 2.164330 0.020130 0.042500 
#    y 0.020130 2.066710 0.051780 
#    z 0.042500 0.051780 2.430310 
# 
# From -- ./inp_files/106881.got.cif
#   From: 2010.05.17/outbox.cif.g08.bks.cpg/sg2_54_cif.got.tgz:106881.got - 2010.06.03 11:33:40.
