data_PCOD9103980
_publ_section_title
;
Structure prediction by ZEFSAII (Michael W. Deem and Ramdas Pophale) SiO2 
 PCOD9103980
Probable space group: P -1
;
_chemical_formula_sum "Si O2"
_cell_formula_units_Z 15
_cell_length_a 9.517399
_cell_length_b 13.584237
_cell_length_c 8.902126
_cell_angle_alpha 64.565463
_cell_angle_beta 58.780692
_cell_angle_gamma 104.427524
_cell_volume 703.752741
_symmetry_space_group_name_H-M "P -1"
_symmetry_group_IT_number 2
_symmetry_cell_setting 'triclinic'
loop_
_space_group_symop_operation_xyz
x,y,z
-x,-y,-z
loop_
_atom_site_type_symbol
_atom_site_label
_atom_site_fract_x
_atom_site_fract_y
_atom_site_fract_z
Si Si1 0.487501 0.745068 0.765324
Si Si2 0.059886 0.254415 0.107817
Si Si3 0.006342 0.339500 0.400284
Si Si4 0.994777 0.440584 0.879079
Si Si5 0.500000 0.500000 0.000000
Si Si6 0.323477 0.000873 0.675954
Si Si7 0.217972 0.109642 0.223465
Si Si8 0.280443 0.938248 0.088482
O O1 0.512684 0.625863 0.830566
O O2 0.600574 0.835849 0.792596
O O3 0.602965 0.846471 0.494494
O O4 0.246904 0.681305 0.938980
O O5 0.889516 0.111097 0.217118
O O6 0.968559 0.268458 0.303324
O O7 0.237027 0.243599 0.072379
O O8 0.112560 0.374792 0.887195
O O9 0.940552 0.439782 0.352996
O O10 0.878999 0.220499 0.670301
O O11 0.252721 0.427213 0.228033
O O12 0.000000 0.500000 0.000000
O O13 0.500000 0.000000 0.500000
O O14 0.301109 0.961448 0.885884
O O15 0.218249 0.027277 0.140249
O O16 0.000000 0.000000 0.500000
O O17 0.500000 0.000000 0.000000
#
# Coordination Sequence:
#
# PCOD9103980 Si02
#       8
#     2   2   2   2   1   2   2   2
#     4  11  20  38  67  97 129 181 225 271 347 404
#     4  11  20  39  67  98 133 174 226 283 345 400
#     4  10  20  42  67 103 134 182 231 275 344 415
#     4   9  21  35  67  96 131 178 233 274 334 418
#     4  10  20  38  70  98 136 180 226 274 336 420
#     4  12  24  41  70  98 135 181 233 289 345 409
#     4  12  22  41  68  99 139 175 222 287 348 403
#     4  12  27  43  68 104 141 179 231 291 346 415
#
# _framework density 21.314305999999998
#
# number of rings (size 3 to 8) (size 9 to 14) (size 15 to 20)
#    0.000    1.067    5.333    1.600    1.867    0.533 
#    0.000    0.667    0.000    2.400    0.000    0.000 
#    0.000    0.000    0.000    0.000    0.000    0.000 
#
# Total GULP energy -83568.734409 kJ/mol
# GULP energy per Si atom -5571.248961 kJ/mol
# Density = 2.126579 g / cm^3
# Si number density = 21.314306 Si / 1000 Ang^3
#
#
#
# Elastic Constant Matrix: (Units=GPa)
#
#
# Indices 1 2 3 4 5 6 
#
# 1 110.5056 30.1239 56.0028 -7.5695 24.8486 -4.2743
# 2 30.1239 45.4548 51.8971 -8.5703 17.9115 -15.1874
# 3 56.0028 51.8971 140.1084 -19.2768 40.7272 -8.5739
# 4 -7.5695 -8.5703 -19.2768 37.9929 -8.6516 12.1408
# 5 24.8486 17.9115 40.7272 -8.6516 41.1619 -16.9219
# 6 -4.2743 -15.1874 -8.5739 12.1408 -16.9219 53.1377
#
#
#
# Elastic Compliance Matrix: (Units=1/GPa)
#
#
# Indices 1 2 3 4 5 6 
#
# 1 0.012247 -0.004874 -0.002014 0.000037 -0.004115 -0.002052
# 2 -0.004874 0.044590 -0.014788 -0.001397 0.002423 0.011057
# 3 -0.002014 -0.014788 0.016664 0.004262 -0.010402 -0.005986
# 4 0.000037 -0.001397 0.004262 0.030296 0.000012 -0.006627
# 5 -0.004115 0.002423 -0.010402 0.000012 0.040821 0.011680
# 6 -0.002052 0.011057 -0.005986 -0.006627 0.011680 0.026082
#
#
# Mechanical properties :
#
#
# Convention : Reuss Voigt Hill
#
# Bulk Modulus (GPa) = 33.16888 63.56852 48.36870
# Shear Modulus (GPa) = 22.31125 36.99486 29.65305
#
# Velocity S-wave (km/s) = 3.23890 4.17067 3.73396
# Velocity P-wave (km/s) = 5.43901 7.28572 6.42902
#
# Compressibility (1/GPa) = 0.03014874
#
# Stress axis : x y z
#
# Youngs Moduli (GPa) = 81.65088 22.42635 60.00974
#
# Poissons Ratio (x) = 0.10930 0.12088
# Poissons Ratio (y) = 0.39794 0.88745
# Poissons Ratio (z) = 0.16447 0.33165
#
# Static dielectric constant tensor:
#      x y z
#    x 1.837000 -0.009330 0.046290 
#    y -0.009330 1.866200 -0.008290 
#    z 0.046290 -0.008290 1.773760 
# 
# From -- ./inp_files/205859.got.cif
#   From: 2010.05.17/outbox.cif.g08.bks.cpg/sg2_103_cif.got.tgz:205859.got - 2010.06.03 11:33:40.
