data_PCOD9103783
_publ_section_title
;
Structure prediction by ZEFSAII (Michael W. Deem and Ramdas Pophale) SiO2 
 PCOD9103783
Probable space group: P -1
;
_chemical_formula_sum "Si O2"
_cell_formula_units_Z 14
_cell_length_a 9.221996
_cell_length_b 9.489142
_cell_length_c 12.818871
_cell_angle_alpha 35.750010
_cell_angle_beta 77.090807
_cell_angle_gamma 77.815552
_cell_volume 637.953663
_symmetry_space_group_name_H-M "P -1"
_symmetry_group_IT_number 2
_symmetry_cell_setting 'triclinic'
loop_
_space_group_symop_operation_xyz
x,y,z
-x,-y,-z
loop_
_atom_site_type_symbol
_atom_site_label
_atom_site_fract_x
_atom_site_fract_y
_atom_site_fract_z
Si Si1 0.840773 0.220470 0.912629
Si Si2 0.652465 0.969938 0.931418
Si Si3 0.653077 0.653971 0.767678
Si Si4 0.799727 0.328945 0.547573
Si Si5 0.684749 0.470055 0.105331
Si Si6 0.079915 0.202764 0.718623
Si Si7 0.835035 0.121927 0.440350
O O1 0.727175 0.447781 0.805132
O O2 0.987211 0.287837 0.786811
O O3 0.775161 0.022815 0.965749
O O4 0.869962 0.074256 0.102427
O O5 0.677828 0.171143 0.718051
O O6 0.671573 0.709047 0.034562
O O7 0.500000 0.000000 0.000000
O O8 0.474848 0.652978 0.791583
O O9 0.721160 0.907925 0.581899
O O10 0.703721 0.564753 0.928468
O O11 0.791395 0.607598 0.419330
O O12 0.797019 0.280630 0.454428
O O13 0.961882 0.233445 0.625476
O O14 0.810614 0.289294 0.242467
O O15 0.000000 0.000000 0.500000
#
# Coordination Sequence:
#
# PCOD9103783 Si02
#       7
#     2   2   2   2   2   2   2
#     4  10  20  38  68  93 127 174 219 267 337 391
#     4  11  21  42  67  93 126 175 224 274 325 392
#     4  11  24  45  67  96 134 181 218 274 334 398
#     4  10  21  40  62  94 135 166 220 279 321 393
#     4  11  25  46  68  93 139 176 225 273 330 399
#     4   9  20  38  64  95 131 167 217 278 330 394
#     4  12  26  42  68 101 136 176 222 274 334 403
#
# _framework density 21.945167000000001
#
# number of rings (size 3 to 8) (size 9 to 14) (size 15 to 20)
#    0.000    1.429    2.857    2.143    2.000    2.857 
#    0.000    4.286    0.000    0.000    0.000    0.000 
#    0.000    0.000    0.000    0.000    0.000    0.000 
#
# Total GULP energy -78247.266323 kJ/mol
# GULP energy per Si atom -5589.090452 kJ/mol
# Density = 2.189522 g / cm^3
# Si number density = 21.945167 Si / 1000 Ang^3
#
#
#
# Elastic Constant Matrix: (Units=GPa)
#
#
# Indices 1 2 3 4 5 6 
#
# 1 35.4244 8.1031 26.4953 -2.2775 -3.8482 1.7321
# 2 8.1031 67.8687 11.8246 1.6241 1.4270 16.9537
# 3 26.4953 11.8246 97.7709 -5.0570 0.5896 11.4881
# 4 -2.2775 1.6241 -5.0570 28.0860 9.8664 -3.8567
# 5 -3.8482 1.4270 0.5896 9.8664 37.7317 -3.9682
# 6 1.7321 16.9537 11.4881 -3.8567 -3.9682 28.3938
#
#
#
# Elastic Compliance Matrix: (Units=1/GPa)
#
#
# Indices 1 2 3 4 5 6 
#
# 1 0.036987 -0.003986 -0.010118 0.000514 0.004463 0.004911
# 2 -0.003986 0.018062 0.000094 -0.002295 -0.001661 -0.011124
# 3 -0.010118 0.000094 0.013654 0.001724 -0.002230 -0.005041
# 4 0.000514 -0.002295 0.001724 0.040218 -0.009908 0.004720
# 5 0.004463 -0.001661 -0.002230 -0.009908 0.030118 0.004485
# 6 0.004911 -0.011124 -0.005041 0.004720 0.004485 0.044868
#
#
# Mechanical properties :
#
#
# Convention : Reuss Voigt Hill
#
# Bulk Modulus (GPa) = 24.58113 32.65668 28.61891
# Shear Modulus (GPa) = 22.17402 29.15168 25.66285
#
# Velocity S-wave (km/s) = 3.18217 3.64866 3.42337
# Velocity P-wave (km/s) = 4.97264 5.71521 5.35681
#
# Compressibility (1/GPa) = 0.04068161
#
# Stress axis : x y z
#
# Youngs Moduli (GPa) = 27.03679 55.36370 73.24111
#
# Poissons Ratio (x) = 0.22068 0.74109
# Poissons Ratio (y) = 0.10777 -0.00689
# Poissons Ratio (z) = 0.27357 -0.00521
#
# Static dielectric constant tensor:
#      x y z
#    x 1.837890 0.029630 -0.033840 
#    y 0.029630 1.801740 0.005960 
#    z -0.033840 0.005960 1.877610 
# 
# From -- ./inp_files/153804.got.cif
#   From: 2010.05.17/outbox.cif.g08.bks.cpg/sg2_77_cif.got.tgz:153804.got - 2010.06.03 11:33:40.
