data_PCOD9103864
_publ_section_title
;
Structure prediction by ZEFSAII (Michael W. Deem and Ramdas Pophale) SiO2 
 PCOD9103864
Probable space group: P -1
;
_chemical_formula_sum "Si O2"
_cell_formula_units_Z 12
_cell_length_a 11.304735
_cell_length_b 6.523223
_cell_length_c 17.029646
_cell_angle_alpha 43.521563
_cell_angle_beta 146.556836
_cell_angle_gamma 124.029389
_cell_volume 473.167233
_symmetry_space_group_name_H-M "P -1"
_symmetry_group_IT_number 2
_symmetry_cell_setting 'triclinic'
loop_
_space_group_symop_operation_xyz
x,y,z
-x,-y,-z
loop_
_atom_site_type_symbol
_atom_site_label
_atom_site_fract_x
_atom_site_fract_y
_atom_site_fract_z
Si Si1 0.784940 0.318731 0.919480
Si Si2 0.966027 0.248990 0.260711
Si Si3 0.038684 0.667435 0.556812
Si Si4 0.514106 0.356314 0.904433
Si Si5 0.293506 0.707722 0.299645
Si Si6 0.097641 0.862892 0.290393
O O1 0.589227 0.439774 0.834935
O O2 0.715473 0.257084 0.808822
O O3 0.000000 0.500000 0.000000
O O4 0.865481 0.995159 0.091008
O O5 0.086724 0.538221 0.247757
O O6 0.977973 0.017646 0.404355
O O7 0.094817 0.054808 0.315671
O O8 0.721348 0.372096 0.069683
O O9 0.292120 0.561862 0.744894
O O10 0.000000 0.500000 0.500000
O O11 0.891464 0.483091 0.581935
O O12 0.500000 0.000000 0.000000
O O13 0.500000 0.500000 0.500000
O O14 0.260788 0.939508 0.290453
#
# Coordination Sequence:
#
# PCOD9103864 Si02
#       6
#     2   2   2   2   2   2
#     4  11  22  44  70  94 137 181 222 279 337 410
#     4  10  23  44  67 100 137 176 228 281 335 406
#     4  10  20  38  69 102 130 175 226 280 335 401
#     4  11  19  39  73  97 126 186 224 266 345 401
#     4  12  27  42  65 102 137 179 227 282 343 403
#     4  10  22  43  67  95 134 177 226 273 339 405
#
# _framework density 25.361011999999999
#
# number of rings (size 3 to 8) (size 9 to 14) (size 15 to 20)
#    0.000    1.333    8.333    0.500    4.667    2.667 
#    3.000    0.833    0.000    0.000    0.000    0.000 
#    0.000    0.000    0.000    0.000    0.000    0.000 
#
# Total GULP energy -66889.949234 kJ/mol
# GULP energy per Si atom -5574.162436 kJ/mol
# Density = 2.530329 g / cm^3
# Si number density = 25.361012 Si / 1000 Ang^3
#
#
#
# Elastic Constant Matrix: (Units=GPa)
#
#
# Indices 1 2 3 4 5 6 
#
# 1 137.0340 -15.1148 19.2791 -6.6953 -24.4966 1.3762
# 2 -15.1148 65.3803 -2.5783 -10.7107 5.9227 14.8556
# 3 19.2791 -2.5783 87.9489 4.9558 1.7732 7.3485
# 4 -6.6953 -10.7107 4.9558 35.9269 7.7568 5.7601
# 5 -24.4966 5.9227 1.7732 7.7568 66.7173 -5.4276
# 6 1.3762 14.8556 7.3485 5.7601 -5.4276 25.9385
#
#
#
# Elastic Compliance Matrix: (Units=1/GPa)
#
#
# Indices 1 2 3 4 5 6 
#
# 1 0.008381 0.002229 -0.001849 0.002101 0.002593 -0.001121
# 2 0.002229 0.021312 0.000947 0.009885 -0.003511 -0.015522
# 3 -0.001849 0.000947 0.012210 -0.000821 -0.001317 -0.003997
# 4 0.002101 0.009885 -0.000821 0.034731 -0.005290 -0.014360
# 5 0.002593 -0.003511 -0.001317 -0.005290 0.017478 0.007078
# 6 -0.001121 -0.015522 -0.003997 -0.014360 0.007078 0.053304
#
#
# Mechanical properties :
#
#
# Convention : Reuss Voigt Hill
#
# Bulk Modulus (GPa) = 22.44335 32.61502 27.52918
# Shear Modulus (GPa) = 31.32550 44.96836 38.14693
#
# Velocity S-wave (km/s) = 3.51833 4.21542 3.88255
# Velocity P-wave (km/s) = 5.03722 6.04825 5.56574
#
# Compressibility (1/GPa) = 0.04455664
#
# Stress axis : x y z
#
# Youngs Moduli (GPa) = 119.31962 46.92191 81.89981
#
# Poissons Ratio (x) = -0.10458 0.15142
# Poissons Ratio (y) = -0.26593 -0.07755
# Poissons Ratio (z) = 0.22060 -0.04443
#
# Static dielectric constant tensor:
#      x y z
#    x 2.212390 -0.193610 -0.079450 
#    y -0.193610 2.138800 0.002250 
#    z -0.079450 0.002250 1.973470 
# 
# From -- ./inp_files/243898.got.cif
#   From: 2010.05.17/outbox.cif.g08.bks.cpg/sg2_122_cif.got.tgz:243898.got - 2010.06.03 11:33:40.
