data_PCOD9103303
_publ_section_title
;
Structure prediction by ZEFSAII (Michael W. Deem and Ramdas Pophale) SiO2 
 PCOD9103303
Probable space group: P -1
;
_chemical_formula_sum "Si O2"
_cell_formula_units_Z 16
_cell_length_a 19.095935
_cell_length_b 8.403110
_cell_length_c 8.479159
_cell_angle_alpha 115.571986
_cell_angle_beta 112.211615
_cell_angle_gamma 33.935712
_cell_volume 684.636442
_symmetry_space_group_name_H-M "P -1"
_symmetry_group_IT_number 2
_symmetry_cell_setting 'triclinic'
loop_
_space_group_symop_operation_xyz
x,y,z
-x,-y,-z
loop_
_atom_site_type_symbol
_atom_site_label
_atom_site_fract_x
_atom_site_fract_y
_atom_site_fract_z
Si Si1 0.067193 0.783710 0.710250
Si Si2 0.771081 0.810330 0.412884
Si Si3 0.407927 0.656962 0.844510
Si Si4 0.626006 0.445767 0.521342
Si Si5 0.821802 0.366788 0.615256
Si Si6 0.141244 0.018813 0.879610
Si Si7 0.105312 0.412365 0.238256
Si Si8 0.449388 0.923685 0.828718
O O1 0.114911 0.512431 0.709261
O O2 0.125787 0.700502 0.546520
O O3 0.116273 0.872334 0.867612
O O4 0.919874 0.073445 0.678197
O O5 0.831662 0.727990 0.599832
O O6 0.716611 0.104813 0.453148
O O7 0.657422 0.879026 0.316466
O O8 0.464653 0.444143 0.652079
O O9 0.386265 0.900635 0.882642
O O10 0.281073 0.791733 0.841033
O O11 0.500000 0.500000 0.000000
O O12 0.696318 0.492160 0.554598
O O13 0.562549 0.610657 0.703205
O O14 0.817018 0.571866 0.768967
O O15 0.038158 0.248311 0.751646
O O16 0.113938 0.217096 0.069202
O O17 0.500000 0.000000 0.000000
#
# Coordination Sequence:
#
# PCOD9103303 Si02
#       8
#     2   2   2   2   2   2   2   2
#     4   9  18  36  63  95 125 162 209 254 316 380
#     4  10  22  40  66  91 128 170 209 260 331 378
#     4  11  25  41  68  93 125 176 218 262 320 386
#     4  11  24  44  64  94 133 168 213 273 327 379
#     4   9  18  37  61  93 127 163 207 258 309 386
#     4  10  20  38  65  96 134 158 220 261 313 373
#     4   9  21  37  65  98 130 170 205 267 318 387
#     4  11  28  47  62  91 132 170 219 276 322 383
#
# _framework density 23.370068
#
# number of rings (size 3 to 8) (size 9 to 14) (size 15 to 20)
#    0.000    2.000    1.250    2.250    7.000    0.500 
#    2.250    3.125    0.000    3.000    0.000    0.000 
#    0.000    0.000    0.000    0.000    0.000    0.000 
#
# Total GULP energy -89156.888719 kJ/mol
# GULP energy per Si atom -5572.305545 kJ/mol
# Density = 2.331688 g / cm^3
# Si number density = 23.370068 Si / 1000 Ang^3
#
#
#
# Elastic Constant Matrix: (Units=GPa)
#
#
# Indices 1 2 3 4 5 6 
#
# 1 47.5442 -3.8216 37.4163 -5.8770 28.9900 -11.0583
# 2 -3.8216 53.5971 45.4064 -6.9003 6.7471 16.8159
# 3 37.4163 45.4064 138.1311 -2.8810 45.8422 2.2562
# 4 -5.8770 -6.9003 -2.8810 40.7749 -0.6011 11.0073
# 5 28.9900 6.7471 45.8422 -0.6011 35.2789 1.0835
# 6 -11.0583 16.8159 2.2562 11.0073 1.0835 21.9884
#
#
#
# Elastic Compliance Matrix: (Units=1/GPa)
#
#
# Indices 1 2 3 4 5 6 
#
# 1 0.058120 0.000572 -0.000442 -0.000805 -0.048279 0.031619
# 2 0.000572 0.056534 -0.025194 0.022458 0.023458 -0.052761
# 3 -0.000442 -0.025194 0.023991 -0.009090 -0.026838 0.022456
# 4 -0.000805 0.022458 -0.009090 0.037392 0.009916 -0.035854
# 5 -0.048279 0.023458 -0.026838 0.009916 0.100091 -0.049362
# 6 0.031619 -0.052761 0.022456 -0.035854 -0.049362 0.119806
#
#
# Mechanical properties :
#
#
# Convention : Reuss Voigt Hill
#
# Bulk Modulus (GPa) = 11.29711 44.14161 27.71936
# Shear Modulus (GPa) = 10.51377 30.29322 20.40349
#
# Velocity S-wave (km/s) = 2.12334 3.60424 2.95797
# Velocity P-wave (km/s) = 3.29484 6.02078 4.85313
#
# Compressibility (1/GPa) = 0.08851818
#
# Stress axis : x y z
#
# Youngs Moduli (GPa) = 17.20585 17.68850 41.68183
#
# Poissons Ratio (x) = -0.01012 0.01842
# Poissons Ratio (y) = -0.00984 1.05012
# Poissons Ratio (z) = 0.00760 0.44564
#
# Static dielectric constant tensor:
#      x y z
#    x 1.906920 0.000800 -0.002710 
#    y 0.000800 2.013680 0.005710 
#    z -0.002710 0.005710 1.950920 
# 
# From -- ./inp_files/343783.got.cif
#   From: 2010.05.17/outbox.cif.g08.bks.cpg/sg2_172_cif.got.tgz:343783.got - 2010.06.03 11:33:40.
