data_PCOD9103432
_publ_section_title
;
Structure prediction by ZEFSAII (Michael W. Deem and Ramdas Pophale) SiO2 
 PCOD9103432
Probable space group: P -1
;
_chemical_formula_sum "Si O2"
_cell_formula_units_Z 14
_cell_length_a 9.119672
_cell_length_b 21.083365
_cell_length_c 12.641531
_cell_angle_alpha 26.948276
_cell_angle_beta 34.032080
_cell_angle_gamma 37.136099
_cell_volume 599.874754
_symmetry_space_group_name_H-M "P -1"
_symmetry_group_IT_number 2
_symmetry_cell_setting 'triclinic'
loop_
_space_group_symop_operation_xyz
x,y,z
-x,-y,-z
loop_
_atom_site_type_symbol
_atom_site_label
_atom_site_fract_x
_atom_site_fract_y
_atom_site_fract_z
Si Si1 0.199339 0.056442 0.137723
Si Si2 0.399747 0.104687 0.503440
Si Si3 0.771132 0.290868 0.924747
Si Si4 0.990049 0.427659 0.000899
Si Si5 0.582587 0.571027 0.740138
Si Si6 0.796441 0.877065 0.726810
Si Si7 0.989977 0.686043 0.458676
O O1 0.184156 0.140400 0.133109
O O2 0.046553 0.931647 0.445062
O O3 0.016687 0.163642 0.005415
O O4 0.500000 0.000000 0.000000
O O5 0.099492 0.178133 0.611043
O O6 0.500000 0.000000 0.500000
O O7 0.545870 0.007547 0.656282
O O8 0.517384 0.242742 0.199558
O O9 0.767730 0.444458 0.749394
O O10 0.774861 0.302115 0.779730
O O11 0.036564 0.540113 0.715972
O O12 0.700116 0.387063 0.215166
O O13 0.000000 0.500000 0.000000
O O14 0.202720 0.276312 0.093548
O O15 0.746775 0.680806 0.527374
O O16 0.500000 0.500000 0.000000
#
# Coordination Sequence:
#
# PCOD9103432 Si02
#       7
#     2   2   2   2   2   2   2
#     4  10  21  38  62  94 125 154 203 264 315 361
#     4  11  23  42  65  89 127 170 207 255 314 381
#     4  11  22  39  67  95 122 164 215 260 311 373
#     4  11  23  42  65  92 129 170 207 259 323 372
#     4  10  20  38  66  91 123 163 210 259 309 369
#     4  10  23  37  62  90 125 160 203 253 317 370
#     4  11  23  41  69  94 123 165 218 260 310 379
#
# _framework density 23.338204999999999
#
# number of rings (size 3 to 8) (size 9 to 14) (size 15 to 20)
#    0.000    1.429    2.857    3.857    6.000    0.571 
#    0.000    2.143    0.000    0.000    0.000    0.000 
#    0.000    0.000    0.000    0.000    0.000    0.000 
#
# Total GULP energy -78211.985185 kJ/mol
# GULP energy per Si atom -5586.570370 kJ/mol
# Density = 2.328509 g / cm^3
# Si number density = 23.338205 Si / 1000 Ang^3
#
#
#
# Elastic Constant Matrix: (Units=GPa)
#
#
# Indices 1 2 3 4 5 6 
#
# 1 66.7561 6.7158 23.2168 1.9085 5.7990 8.6308
# 2 6.7158 133.5132 52.0599 -1.8823 8.6715 18.7868
# 3 23.2168 52.0599 78.8176 8.2010 22.3242 10.6024
# 4 1.9085 -1.8823 8.2010 31.1326 7.8679 -4.4846
# 5 5.7990 8.6715 22.3242 7.8679 18.9005 11.4756
# 6 8.6308 18.7868 10.6024 -4.4846 11.4756 35.3360
#
#
#
# Elastic Compliance Matrix: (Units=1/GPa)
#
#
# Indices 1 2 3 4 5 6 
#
# 1 0.017645 0.002515 -0.007858 -0.001368 0.006708 -0.005641
# 2 0.002515 0.011821 -0.010634 -0.000485 0.011031 -0.007352
# 3 -0.007858 -0.010634 0.030636 0.002443 -0.036269 0.010469
# 4 -0.001368 -0.000485 0.002443 0.040513 -0.027583 0.013958
# 5 0.006708 0.011031 -0.036269 -0.027583 0.124791 -0.040648
# 6 -0.005641 -0.007352 0.010469 0.013958 -0.040648 0.045417
#
#
# Mechanical properties :
#
#
# Convention : Reuss Voigt Hill
#
# Bulk Modulus (GPa) = 35.52349 49.23021 42.37685
# Shear Modulus (GPa) = 16.01745 30.21347 23.11546
#
# Velocity S-wave (km/s) = 2.62261 3.60195 3.15056
# Velocity P-wave (km/s) = 4.94217 6.19990 5.60641
#
# Compressibility (1/GPa) = 0.02815039
#
# Stress axis : x y z
#
# Youngs Moduli (GPa) = 56.67176 84.59576 32.64121
#
# Poissons Ratio (x) = -0.21278 0.25649
# Poissons Ratio (y) = -0.14254 0.34709
# Poissons Ratio (z) = 0.44531 0.89955
#
# Static dielectric constant tensor:
#      x y z
#    x 1.857870 0.400240 -0.078280 
#    y 0.400240 0.049430 0.175100 
#    z -0.078280 0.175100 1.866340 
# 
# From -- ./inp_files/257265.got.cif
#   From: 2010.05.17/outbox.cif.g08.bks.cpg/sg2_129_cif.got.tgz:257265.got - 2010.06.03 11:33:40.
