data_PCOD9103777
_publ_section_title
;
Structure prediction by ZEFSAII (Michael W. Deem and Ramdas Pophale) SiO2 
 PCOD9103777
Probable space group: P -1
;
_chemical_formula_sum "Si O2"
_cell_formula_units_Z 13
_cell_length_a 8.340098
_cell_length_b 10.122384
_cell_length_c 10.097843
_cell_angle_alpha 107.491775
_cell_angle_beta 120.781859
_cell_angle_gamma 111.574513
_cell_volume 538.758089
_symmetry_space_group_name_H-M "P -1"
_symmetry_group_IT_number 2
_symmetry_cell_setting 'triclinic'
loop_
_space_group_symop_operation_xyz
x,y,z
-x,-y,-z
loop_
_atom_site_type_symbol
_atom_site_label
_atom_site_fract_x
_atom_site_fract_y
_atom_site_fract_z
Si Si1 0.330622 0.927981 0.778765
Si Si2 0.277947 0.122133 0.610785
Si Si3 0.534942 0.525791 0.866743
Si Si4 0.023304 0.181254 0.198039
Si Si5 0.500000 0.000000 0.500000
Si Si6 0.953926 0.318827 0.955281
Si Si7 0.409426 0.209722 0.214871
O O1 0.059783 0.807939 0.688455
O O2 0.407023 0.831967 0.690013
O O3 0.386870 0.095536 0.777431
O O4 0.500000 0.000000 0.000000
O O5 0.406866 0.327347 0.699588
O O6 0.310549 0.033243 0.477249
O O7 0.000000 0.000000 0.500000
O O8 0.458962 0.625439 0.782339
O O9 0.500000 0.500000 0.000000
O O10 0.821067 0.655762 0.004054
O O11 0.286483 0.240640 0.291290
O O12 0.972493 0.283414 0.105942
O O13 0.823660 0.970946 0.008762
O O14 0.292641 0.837781 0.265787
O O15 0.000000 0.500000 0.000000
#
# Coordination Sequence:
#
# PCOD9103777 Si02
#       7
#     2   2   2   2   1   2   2
#     4  10  20  38  68  92 128 188 236 275 355 427
#     4  12  27  45  68 106 147 190 233 302 363 409
#     4  11  22  40  67 103 137 181 244 287 348 433
#     4   9  19  37  63  95 132 174 239 281 346 423
#     4  12  24  44  68 102 150 176 236 298 348 424
#     4  11  23  40  71 102 135 189 237 288 358 422
#     4   9  19  33  60  94 124 172 229 277 342 410
#
# _framework density 24.129567999999999
#
# number of rings (size 3 to 8) (size 9 to 14) (size 15 to 20)
#    0.000    1.538    1.538    4.615    2.154    4.923 
#    0.000    0.769    3.385    5.538    0.000    0.000 
#    0.000    0.000    0.000    0.000    0.000    0.000 
#
# Total GULP energy -72419.932493 kJ/mol
# GULP energy per Si atom -5570.764038 kJ/mol
# Density = 2.407465 g / cm^3
# Si number density = 24.129568 Si / 1000 Ang^3
#
#
#
# Elastic Constant Matrix: (Units=GPa)
#
#
# Indices 1 2 3 4 5 6 
#
# 1 156.7549 6.8623 20.8377 20.4510 1.9584 1.4116
# 2 6.8623 173.1805 16.3260 12.6380 -4.5125 -4.6574
# 3 20.8377 16.3260 52.3482 -1.9720 8.4747 0.4600
# 4 20.4510 12.6380 -1.9720 18.0968 -6.4189 3.2773
# 5 1.9584 -4.5125 8.4747 -6.4189 28.4297 1.8253
# 6 1.4116 -4.6574 0.4600 3.2773 1.8253 37.9313
#
#
#
# Elastic Compliance Matrix: (Units=1/GPa)
#
#
# Indices 1 2 3 4 5 6 
#
# 1 0.008311 0.000809 -0.003677 -0.011207 -0.001936 0.000896
# 2 0.000809 0.006458 -0.002624 -0.005815 0.000356 0.001280
# 3 -0.003677 -0.002624 0.022504 0.006699 -0.005309 -0.000782
# 4 -0.011207 -0.005815 0.006699 0.080007 0.016435 -0.008082
# 5 -0.001936 0.000356 -0.005309 0.016435 0.040863 -0.003206
# 6 0.000896 0.001280 -0.000782 -0.008082 -0.003206 0.027349
#
#
# Mechanical properties :
#
#
# Convention : Reuss Voigt Hill
#
# Bulk Modulus (GPa) = 38.04067 52.25951 45.15009
# Shear Modulus (GPa) = 24.36185 39.44206 31.90196
#
# Velocity S-wave (km/s) = 3.18091 4.04740 3.64003
# Velocity P-wave (km/s) = 5.41205 6.59900 6.03478
#
# Compressibility (1/GPa) = 0.02628765
#
# Stress axis : x y z
#
# Youngs Moduli (GPa) = 120.32305 154.85376 44.43745
#
# Poissons Ratio (x) = -0.12524 0.16340
# Poissons Ratio (y) = -0.09732 0.11660
# Poissons Ratio (z) = 0.44244 0.40633
#
# Static dielectric constant tensor:
#      x y z
#    x 2.099000 -0.026220 0.013190 
#    y -0.026220 2.033790 -0.058930 
#    z 0.013190 -0.058930 1.880110 
# 
# From -- ./inp_files/383039.got.cif
#   From: 2010.05.17/outbox.cif.g08.bks.cpg/sg2_192_cif.got.tgz:383039.got - 2010.06.03 11:33:40.
