data_PCOD9103032
_publ_section_title
;
Structure prediction by ZEFSAII (Michael W. Deem and Ramdas Pophale) SiO2 
 PCOD9103032
Probable space group: P -1
;
_chemical_formula_sum "Si O2"
_cell_formula_units_Z 16
_cell_length_a 7.978688
_cell_length_b 9.422211
_cell_length_c 8.992361
_cell_angle_alpha 102.906128
_cell_angle_beta 90.368174
_cell_angle_gamma 91.171366
_cell_volume 658.760028
_symmetry_space_group_name_H-M "P -1"
_symmetry_group_IT_number 2
_symmetry_cell_setting 'triclinic'
loop_
_space_group_symop_operation_xyz
x,y,z
-x,-y,-z
loop_
_atom_site_type_symbol
_atom_site_label
_atom_site_fract_x
_atom_site_fract_y
_atom_site_fract_z
Si Si1 0.355695 0.499944 0.782625
Si Si2 0.180397 0.866257 0.171154
Si Si3 0.791434 0.822966 0.610241
Si Si4 0.685420 0.368084 0.693118
Si Si5 0.664753 0.669096 0.834260
Si Si6 0.311885 0.029473 0.952891
Si Si7 0.895499 0.358433 0.409069
Si Si8 0.196412 0.202972 0.750695
O O1 0.497805 0.416966 0.667753
O O2 0.483655 0.617383 0.885519
O O3 0.220750 0.586960 0.710590
O O4 0.267797 0.364178 0.833283
O O5 0.306892 0.746817 0.202244
O O6 0.995339 0.812768 0.202334
O O7 0.222255 0.012364 0.298558
O O8 0.199418 0.909440 0.008722
O O9 0.654616 0.725322 0.676188
O O10 0.791682 0.804440 0.429469
O O11 0.970932 0.763567 0.652320
O O12 0.766866 0.520803 0.790080
O O13 0.779904 0.312308 0.537125
O O14 0.735549 0.811461 0.947416
O O15 0.289839 0.063441 0.787960
O O16 0.500000 0.000000 0.000000
O O17 0.000000 0.500000 0.500000
#
# Coordination Sequence:
#
# PCOD9103032 Si02
#       8
#     2   2   2   2   2   2   2   2
#     4  10  22  37  65 100 131 171 216 270 325 391
#     4  11  24  46  67  97 138 175 218 278 330 392
#     4  11  23  40  69 103 136 168 220 272 335 393
#     4  10  20  38  64  96 134 170 214 266 326 385
#     4   9  23  44  68  97 134 172 220 271 327 393
#     4  11  26  49  67  91 135 181 222 276 328 393
#     4  12  18  34  64  97 140 165 207 271 334 380
#     4  12  23  41  68  98 130 178 222 268 329 393
#
# _framework density 24.288056000000001
#
# number of rings (size 3 to 8) (size 9 to 14) (size 15 to 20)
#    0.750    0.500    3.750    1.875    1.750    1.500 
#    0.000    2.500    0.000    0.000    0.000    0.000 
#    0.000    0.000    0.000    0.000    0.000    0.000 
#
# Total GULP energy -89391.231973 kJ/mol
# GULP energy per Si atom -5586.951998 kJ/mol
# Density = 2.423278 g / cm^3
# Si number density = 24.288056 Si / 1000 Ang^3
#
#
#
# Elastic Constant Matrix: (Units=GPa)
#
#
# Indices 1 2 3 4 5 6 
#
# 1 58.9977 19.4293 26.5763 -10.1026 -3.8534 6.3144
# 2 19.4293 132.7476 46.2163 -25.4731 -6.4117 3.3768
# 3 26.5763 46.2163 74.5835 -33.0053 -3.1677 -3.5108
# 4 -10.1026 -25.4731 -33.0053 44.7927 -1.2667 -3.5007
# 5 -3.8534 -6.4117 -3.1677 -1.2667 33.1087 -11.2204
# 6 6.3144 3.3768 -3.5108 -3.5007 -11.2204 48.3138
#
#
#
# Elastic Compliance Matrix: (Units=1/GPa)
#
#
# Indices 1 2 3 4 5 6 
#
# 1 0.020804 -0.000483 -0.008025 -0.001744 0.000372 -0.003308
# 2 -0.000483 0.009782 -0.005131 0.001662 0.001210 -0.000592
# 3 -0.008025 -0.005131 0.026615 0.015368 0.002949 0.005140
# 4 -0.001744 0.001662 0.015368 0.034704 0.004543 0.004798
# 5 0.000372 0.001210 0.002949 0.004543 0.033731 0.008244
# 6 -0.003308 -0.000592 0.005140 0.004798 0.008244 0.023807
#
#
# Mechanical properties :
#
#
# Convention : Reuss Voigt Hill
#
# Bulk Modulus (GPa) = 33.41993 50.08584 41.75289
# Shear Modulus (GPa) = 26.78146 36.85017 31.81582
#
# Velocity S-wave (km/s) = 3.32423 3.89937 3.62323
# Velocity P-wave (km/s) = 5.34076 6.39842 5.89337
#
# Compressibility (1/GPa) = 0.02992227
#
# Stress axis : x y z
#
# Youngs Moduli (GPa) = 48.06816 102.22373 37.57320
#
# Poissons Ratio (x) = 0.04942 0.30153
# Poissons Ratio (y) = 0.02324 0.19278
# Poissons Ratio (z) = 0.38576 0.52448
#
# Static dielectric constant tensor:
#      x y z
#    x 1.958400 0.028210 0.017270 
#    y 0.028210 1.939780 -0.011220 
#    z 0.017270 -0.011220 2.004150 
# 
# From -- ./inp_files/158730.got.cif
#   From: 2010.05.17/outbox.cif.g08.bks.cpg/sg2_80_cif.got.tgz:158730.got - 2010.06.03 11:33:40.
