data_PCOD9103419
_publ_section_title
;
Structure prediction by ZEFSAII (Michael W. Deem and Ramdas Pophale) SiO2 
 PCOD9103419
Probable space group: P -1
;
_chemical_formula_sum "Si O2"
_cell_formula_units_Z 16
_cell_length_a 7.235300
_cell_length_b 17.752889
_cell_length_c 12.698091
_cell_angle_alpha 50.569534
_cell_angle_beta 127.497257
_cell_angle_gamma 147.671058
_cell_volume 663.394873
_symmetry_space_group_name_H-M "P -1"
_symmetry_group_IT_number 2
_symmetry_cell_setting 'triclinic'
loop_
_space_group_symop_operation_xyz
x,y,z
-x,-y,-z
loop_
_atom_site_type_symbol
_atom_site_label
_atom_site_fract_x
_atom_site_fract_y
_atom_site_fract_z
Si Si1 0.748025 0.263626 0.687562
Si Si2 0.824551 0.642445 0.060688
Si Si3 0.898361 0.084928 0.176924
Si Si4 0.662591 0.826943 0.559883
Si Si5 0.741427 0.926032 0.877188
Si Si6 0.641327 0.372375 0.934424
Si Si7 0.350799 0.373402 0.638576
Si Si8 0.286060 0.900038 0.415016
O O1 0.521513 0.264898 0.530710
O O2 0.945900 0.355402 0.782861
O O3 0.062896 0.325229 0.665048
O O4 0.463351 0.086702 0.769007
O O5 0.632712 0.654091 0.066356
O O6 0.500000 0.500000 0.000000
O O7 0.111319 0.807470 0.963888
O O8 0.176770 0.186397 0.280104
O O9 0.082991 0.071456 0.166123
O O10 0.389322 0.819304 0.517375
O O11 0.000000 0.000000 0.500000
O O12 0.621397 0.995596 0.738733
O O13 0.428245 0.762593 0.954794
O O14 0.000000 0.000000 0.000000
O O15 0.622567 0.405161 0.780609
O O16 0.000000 0.500000 0.000000
O O17 0.500000 0.500000 0.500000
O O18 0.133071 0.228493 0.621201
O O19 0.500000 0.000000 0.500000
#
# Coordination Sequence:
#
# PCOD9103419 Si02
#       8
#     2   2   2   2   2   2   2   2
#     4   9  20  40  64  88 118 165 211 255 321 366
#     4  10  22  41  60  92 126 169 215 256 318 383
#     4  10  20  38  66  90 132 162 208 273 310 373
#     4   9  19  37  59  92 125 159 206 255 320 363
#     4  11  22  39  64  99 130 162 220 266 307 387
#     4  10  23  41  59  91 131 168 206 263 326 370
#     4  10  22  40  62  90 127 164 209 260 322 379
#     4  11  21  38  64  96 124 166 213 261 315 375
#
# _framework density 24.118366999999999
#
# number of rings (size 3 to 8) (size 9 to 14) (size 15 to 20)
#    0.000    2.000    2.500    0.375    3.500    2.000 
#    6.750    0.625    0.000    0.000    0.000    0.000 
#    0.000    0.000    0.000    0.000    0.000    0.000 
#
# Total GULP energy -89118.389850 kJ/mol
# GULP energy per Si atom -5569.899366 kJ/mol
# Density = 2.406347 g / cm^3
# Si number density = 24.118367 Si / 1000 Ang^3
#
#
#
# Elastic Constant Matrix: (Units=GPa)
#
#
# Indices 1 2 3 4 5 6 
#
# 1 78.4157 -6.1932 16.0809 1.5352 -16.0309 -2.1458
# 2 -6.1932 144.9615 83.6900 21.7568 -6.1577 6.6680
# 3 16.0809 83.6900 183.0470 28.4301 -11.7729 6.3982
# 4 1.5352 21.7568 28.4301 62.1278 1.3773 -1.5347
# 5 -16.0309 -6.1577 -11.7729 1.3773 17.7831 3.4859
# 6 -2.1458 6.6680 6.3982 -1.5347 3.4859 24.5800
#
#
#
# Elastic Compliance Matrix: (Units=1/GPa)
#
#
# Indices 1 2 3 4 5 6 
#
# 1 0.016223 0.002280 -0.001334 -0.000942 0.014803 -0.001013
# 2 0.002280 0.009896 -0.004180 -0.001730 0.003234 -0.001964
# 3 -0.001334 -0.004180 0.008122 -0.002334 0.003242 -0.001702
# 4 -0.000942 -0.001730 -0.002334 0.017972 -0.004937 0.002817
# 5 0.014803 0.003234 0.003242 -0.004937 0.075468 -0.011440
# 6 -0.001013 -0.001964 -0.001702 0.002817 -0.011440 0.043369
#
#
# Mechanical properties :
#
#
# Convention : Reuss Voigt Hill
#
# Bulk Modulus (GPa) = 36.00510 65.95330 50.97920
# Shear Modulus (GPa) = 26.77024 41.75460 34.26242
#
# Velocity S-wave (km/s) = 3.33521 4.16533 3.77317
# Velocity P-wave (km/s) = 5.45824 7.10903 6.33761
#
# Compressibility (1/GPa) = 0.02777384
#
# Stress axis : x y z
#
# Youngs Moduli (GPa) = 61.64068 101.05050 123.12818
#
# Poissons Ratio (x) = -0.23039 0.16423
# Poissons Ratio (y) = -0.14054 0.51462
# Poissons Ratio (z) = 0.08222 0.42234
#
# Static dielectric constant tensor:
#      x y z
#    x 1.772250 -0.054430 -0.141580 
#    y -0.054430 1.911450 0.000190 
#    z -0.141580 0.000190 1.966840 
# 
# From -- ./inp_files/405487.got.cif
#   From: 2010.05.17/outbox.cif.g08.bks.cpg/sg2_203_cif.got.tgz:405487.got - 2010.06.03 11:33:40.
