data_PCOD9103484
_publ_section_title
;
Structure prediction by ZEFSAII (Michael W. Deem and Ramdas Pophale) SiO2 
 PCOD9103484
Probable space group: P -1
;
_chemical_formula_sum "Si O2"
_cell_formula_units_Z 15
_cell_length_a 23.654548
_cell_length_b 8.127537
_cell_length_c 22.597416
_cell_angle_alpha 123.938659
_cell_angle_beta 12.340159
_cell_angle_gamma 122.338177
_cell_volume 768.942180
_symmetry_space_group_name_H-M "P -1"
_symmetry_group_IT_number 2
_symmetry_cell_setting 'triclinic'
loop_
_space_group_symop_operation_xyz
x,y,z
-x,-y,-z
loop_
_atom_site_type_symbol
_atom_site_label
_atom_site_fract_x
_atom_site_fract_y
_atom_site_fract_z
Si Si1 0.838383 0.557781 0.736975
Si Si2 0.773547 0.831810 0.436193
Si Si3 0.293276 0.830093 0.836165
Si Si4 0.707677 0.178893 0.664661
Si Si5 0.891049 0.392165 0.224909
Si Si6 0.000000 0.500000 0.000000
Si Si7 0.412835 0.131617 0.672222
Si Si8 0.753550 0.114242 0.743812
O O1 0.758801 0.347793 0.802617
O O2 0.000000 0.500000 0.500000
O O3 0.052019 0.689755 0.577005
O O4 0.568885 0.689057 0.026344
O O5 0.528250 0.795496 0.636165
O O6 0.882268 0.615510 0.303833
O O7 0.689857 0.988502 0.603204
O O8 0.019392 0.908334 0.162746
O O9 0.388189 0.985486 0.722944
O O10 0.214308 0.631278 0.843780
O O11 0.767507 0.112544 0.657690
O O12 0.902515 0.409981 0.145449
O O13 0.632146 0.288020 0.488877
O O14 0.139310 0.253014 0.963323
O O15 0.500000 0.000000 0.500000
O O16 0.000000 0.000000 0.500000
O O17 0.500000 0.000000 0.000000
#
# Coordination Sequence:
#
# PCOD9103484 Si02
#       8
#     2   2   2   2   2   1   2   2
#     4  10  20  38  66  94 123 166 213 257 299 366
#     4  11  25  45  62  89 124 177 212 255 311 405
#     4  11  24  41  65  89 124 155 224 260 323 375
#     4  11  22  42  66  87 132 174 210 251 319 378
#     4  11  24  39  63  89 124 157 211 257 326 374
#     4  10  22  38  64  90 114 162 208 274 302 374
#     4  12  24  40  62  92 120 155 196 279 336 361
#     4  11  21  37  63 102 128 154 206 265 304 353
#
# _framework density 19.507318000000001
#
# number of rings (size 3 to 8) (size 9 to 14) (size 15 to 20)
#    0.000    1.067    1.333    7.600    3.733    2.667 
#    0.000    8.000    0.000    0.000    0.000    0.000 
#    0.000    0.000    0.000    0.000    0.000    0.000 
#
# Total GULP energy -83547.188839 kJ/mol
# GULP energy per Si atom -5569.812589 kJ/mol
# Density = 1.946292 g / cm^3
# Si number density = 19.507318 Si / 1000 Ang^3
#
#
#
# Elastic Constant Matrix: (Units=GPa)
#
#
# Indices 1 2 3 4 5 6 
#
# 1 65.5170 75.6510 66.1797 1.4673 -12.2191 -3.8904
# 2 75.6510 193.9609 114.9188 -5.6806 -9.6998 1.6093
# 3 66.1797 114.9188 203.4628 -5.3168 -25.2562 0.8693
# 4 1.4673 -5.6806 -5.3168 47.2547 -12.8571 10.4454
# 5 -12.2191 -9.6998 -25.2562 -12.8571 29.4613 -9.3535
# 6 -3.8904 1.6093 0.8693 10.4454 -9.3535 17.3331
#
#
#
# Elastic Compliance Matrix: (Units=1/GPa)
#
#
# Indices 1 2 3 4 5 6 
#
# 1 0.035431 -0.011148 -0.003949 -0.003613 0.011669 0.017660
# 2 -0.011148 0.011340 -0.003387 0.001435 -0.005451 -0.007191
# 3 -0.003949 -0.003387 0.008931 0.002179 0.006171 0.000997
# 4 -0.003613 0.001435 0.002179 0.026799 0.008538 -0.012596
# 5 0.011669 -0.005451 0.006171 0.008538 0.054622 0.027147
# 6 0.017660 -0.007191 0.000997 -0.012596 0.027147 0.084514
#
#
# Mechanical properties :
#
#
# Convention : Reuss Voigt Hill
#
# Bulk Modulus (GPa) = 53.38264 108.49331 80.93797
# Shear Modulus (GPa) = 18.87861 32.55590 25.71726
#
# Velocity S-wave (km/s) = 3.11428 4.08966 3.63483
# Velocity P-wave (km/s) = 6.35267 8.83390 7.69397
#
# Compressibility (1/GPa) = 0.01873268
#
# Stress axis : x y z
#
# Youngs Moduli (GPa) = 28.22421 88.18580 111.96651
#
# Poissons Ratio (x) = 0.98310 0.44218
# Poissons Ratio (y) = 0.31464 0.37925
# Poissons Ratio (z) = 0.11146 0.29870
#
# Static dielectric constant tensor:
#      x y z
#    x 1.688870 -0.010440 0.009400 
#    y -0.010440 1.728580 -0.008980 
#    z 0.009400 -0.008980 1.686380 
# 
# From -- ./inp_files/613997.got.cif
#   From: 2010.05.17/outbox.cif.g08.bks.cpg/sg2_307_cif.got.tgz:613997.got - 2010.06.03 11:33:40.
