data_PCOD9103571
_publ_section_title
;
Structure prediction by ZEFSAII (Michael W. Deem and Ramdas Pophale) SiO2 
 PCOD9103571
Probable space group: P -1
;
_chemical_formula_sum "Si O2"
_cell_formula_units_Z 16
_cell_length_a 20.533121
_cell_length_b 9.464121
_cell_length_c 14.999690
_cell_angle_alpha 125.377308
_cell_angle_beta 160.131461
_cell_angle_gamma 65.627349
_cell_volume 710.483201
_symmetry_space_group_name_H-M "P -1"
_symmetry_group_IT_number 2
_symmetry_cell_setting 'triclinic'
loop_
_space_group_symop_operation_xyz
x,y,z
-x,-y,-z
loop_
_atom_site_type_symbol
_atom_site_label
_atom_site_fract_x
_atom_site_fract_y
_atom_site_fract_z
Si Si1 0.618261 0.205820 0.171678
Si Si2 0.560366 0.524693 0.871160
Si Si3 0.595227 0.242298 0.947037
Si Si4 0.864292 0.084639 0.805358
Si Si5 0.738063 0.396741 0.750939
Si Si6 0.201131 0.260745 0.170177
Si Si7 0.731776 0.944070 0.984546
Si Si8 0.887554 0.704242 0.200544
O O1 0.556926 0.351281 0.200872
O O2 0.874319 0.269246 0.507650
O O3 0.549334 0.216297 0.984054
O O4 0.500000 0.000000 0.000000
O O5 0.631048 0.439603 0.016584
O O6 0.377824 0.353389 0.510462
O O7 0.772436 0.647613 0.127399
O O8 0.381151 0.078024 0.563124
O O9 0.766707 0.162864 0.118264
O O10 0.882855 0.295312 0.930308
O O11 0.960185 0.119418 0.843052
O O12 0.000000 0.000000 0.000000
O O13 0.814325 0.560390 0.833000
O O14 0.514249 0.215648 0.362269
O O15 0.720661 0.517357 0.856465
O O16 0.254699 0.129792 0.123350
O O17 0.882368 0.895445 0.224397
#
# Coordination Sequence:
#
# PCOD9103571 Si02
#       8
#     2   2   2   2   2   2   2   2
#     4  12  30  48  70  98 131 185 239 282 326 398
#     4  12  24  47  73  97 140 179 228 281 335 410
#     4  11  27  46  63 100 144 180 223 276 338 413
#     4  11  23  37  63 100 140 174 213 279 349 403
#     4  10  20  38  67 100 137 165 226 278 339 403
#     4  11  20  38  66 105 129 173 218 279 343 394
#     4  10  21  41  69 103 135 167 223 281 342 402
#     4  11  23  45  73  99 131 181 228 280 340 395
#
# _framework density 22.519883
#
# number of rings (size 3 to 8) (size 9 to 14) (size 15 to 20)
#    0.000    1.000    3.750    3.000    5.250    4.000 
#    0.000    0.000    0.000    0.000    0.000    0.000 
#    0.000    0.000    0.000    0.000    0.000    0.000 
#
# Total GULP energy -89279.451087 kJ/mol
# GULP energy per Si atom -5579.965693 kJ/mol
# Density = 2.246863 g / cm^3
# Si number density = 22.519883 Si / 1000 Ang^3
#
#
#
# Elastic Constant Matrix: (Units=GPa)
#
#
# Indices 1 2 3 4 5 6 
#
# 1 145.8302 35.3915 33.6484 5.3098 -2.4923 31.9924
# 2 35.3915 226.2435 10.5894 -37.0102 21.1093 -55.9464
# 3 33.6484 10.5894 71.5936 -6.7165 2.4185 13.9417
# 4 5.3098 -37.0102 -6.7165 25.9909 -0.0559 13.1442
# 5 -2.4923 21.1093 2.4185 -0.0559 38.7232 -13.5609
# 6 31.9924 -55.9464 13.9417 13.1442 -13.5609 79.7186
#
#
#
# Elastic Compliance Matrix: (Units=1/GPa)
#
#
# Indices 1 2 3 4 5 6 
#
# 1 0.009833 -0.003549 -0.003765 -0.005685 0.001169 -0.004642
# 2 -0.003549 0.008031 0.000561 0.009852 -0.002933 0.004839
# 3 -0.003765 0.000561 0.016951 0.007307 -0.002541 -0.002697
# 4 -0.005685 0.009852 0.007307 0.056883 -0.007042 -0.002659
# 5 0.001169 -0.002933 -0.002541 -0.007042 0.029055 0.004021
# 6 -0.004642 0.004839 -0.002697 -0.002659 0.004021 0.019397
#
#
# Mechanical properties :
#
#
# Convention : Reuss Voigt Hill
#
# Bulk Modulus (GPa) = 46.92999 66.99176 56.96088
# Shear Modulus (GPa) = 31.10273 53.15577 42.12925
#
# Velocity S-wave (km/s) = 3.72038 4.86366 4.32992
# Velocity P-wave (km/s) = 6.27212 7.83279 7.09550
#
# Compressibility (1/GPa) = 0.02130834
#
# Stress axis : x y z
#
# Youngs Moduli (GPa) = 101.70207 124.52206 58.99427
#
# Poissons Ratio (x) = 0.44191 0.22213
# Poissons Ratio (y) = 0.36092 -0.03311
# Poissons Ratio (z) = 0.38293 -0.06988
#
# Static dielectric constant tensor:
#      x y z
#    x 1.852340 -0.006570 -0.002150 
#    y -0.006570 1.898790 -0.055630 
#    z -0.002150 -0.055630 1.903510 
# 
# From -- ./inp_files/540546.got.cif
#   From: 2010.05.17/outbox.cif.g08.bks.cpg/sg2_271_cif.got.tgz:540546.got - 2010.06.03 11:33:40.
