data_PCOD9103062
_publ_section_title
;
Structure prediction by ZEFSAII (Michael W. Deem and Ramdas Pophale) SiO2 
 PCOD9103062
Probable space group: P -1
;
_chemical_formula_sum "Si O2"
_cell_formula_units_Z 16
_cell_length_a 15.093758
_cell_length_b 10.018096
_cell_length_c 8.054584
_cell_angle_alpha 42.226222
_cell_angle_beta 64.897043
_cell_angle_gamma 86.568296
_cell_volume 673.406823
_symmetry_space_group_name_H-M "P -1"
_symmetry_group_IT_number 2
_symmetry_cell_setting 'triclinic'
loop_
_space_group_symop_operation_xyz
x,y,z
-x,-y,-z
loop_
_atom_site_type_symbol
_atom_site_label
_atom_site_fract_x
_atom_site_fract_y
_atom_site_fract_z
Si Si1 0.198885 0.765703 0.215129
Si Si2 0.269077 0.679992 0.888439
Si Si3 0.241855 0.386765 0.897956
Si Si4 0.596480 0.206174 0.816418
Si Si5 0.040465 0.392987 0.916829
Si Si6 0.521844 0.247698 0.200205
Si Si7 0.896631 0.015285 0.142410
Si Si8 0.303136 0.172897 0.334433
O O1 0.310019 0.865259 0.133723
O O2 0.107588 0.590973 0.558356
O O3 0.219761 0.657026 0.130932
O O4 0.162294 0.940368 0.009264
O O5 0.206989 0.515866 0.947574
O O6 0.376487 0.635723 0.868067
O O7 0.292455 0.922425 0.581252
O O8 0.338315 0.575577 0.544898
O O9 0.127725 0.289286 0.982225
O O10 0.288660 0.237846 0.097721
O O11 0.553989 0.269762 0.960865
O O12 0.500000 0.000000 0.000000
O O13 0.000000 0.500000 0.000000
O O14 0.942703 0.213334 0.057017
O O15 0.412904 0.282562 0.255613
O O16 0.500000 0.000000 0.500000
O O17 0.800271 0.825192 0.489754
O O18 0.000000 0.000000 0.000000
#
# Coordination Sequence:
#
# PCOD9103062 Si02
#       8
#     2   2   2   2   2   2   2   2
#     4   9  21  41  67  91 124 177 222 265 330 405
#     4   9  19  41  67  89 128 171 217 270 328 400
#     4  11  24  39  63  98 129 171 215 272 336 401
#     4  10  20  38  64  98 128 165 215 267 335 403
#     4  11  24  42  66  93 129 176 227 277 338 391
#     4   9  18  37  64  87 125 168 209 268 323 396
#     4  11  25  43  64  97 130 176 227 286 327 383
#     4  10  22  39  62  95 128 165 226 267 330 391
#
# _framework density 23.759782000000001
#
# number of rings (size 3 to 8) (size 9 to 14) (size 15 to 20)
#    0.000    2.000    0.000    4.125    3.500    2.500 
#    6.750    0.000    0.000    0.000    0.000    0.000 
#    0.000    0.000    0.000    0.000    0.000    0.000 
#
# Total GULP energy -89290.109220 kJ/mol
# GULP energy per Si atom -5580.631826 kJ/mol
# Density = 2.370570 g / cm^3
# Si number density = 23.759782 Si / 1000 Ang^3
#
#
#
# Elastic Constant Matrix: (Units=GPa)
#
#
# Indices 1 2 3 4 5 6 
#
# 1 155.9935 17.5917 78.3159 6.6938 -6.2979 8.3213
# 2 17.5917 67.1180 21.3357 9.3731 3.3585 1.9654
# 3 78.3159 21.3357 115.6784 29.2616 6.4085 1.4397
# 4 6.6938 9.3731 29.2616 25.1456 4.3985 -0.6403
# 5 -6.2979 3.3585 6.4085 4.3985 46.4697 -5.5560
# 6 8.3213 1.9654 1.4397 -0.6403 -5.5560 36.5043
#
#
#
# Elastic Compliance Matrix: (Units=1/GPa)
#
#
# Indices 1 2 3 4 5 6 
#
# 1 0.011086 -0.001080 -0.009426 0.008042 0.001920 -0.001664
# 2 -0.001080 0.016204 -0.001103 -0.004341 -0.000849 -0.000788
# 3 -0.009426 -0.001103 0.020548 -0.020624 -0.001992 0.000733
# 4 0.008042 -0.004341 -0.020624 0.063555 -0.001761 0.000061
# 5 0.001920 -0.000849 -0.001992 -0.001761 0.022653 0.003103
# 6 -0.001664 -0.000788 0.000733 0.000061 0.003103 0.028260
#
#
# Mechanical properties :
#
#
# Convention : Reuss Voigt Hill
#
# Bulk Modulus (GPa) = 40.61596 63.69739 52.15668
# Shear Modulus (GPa) = 25.80900 36.39370 31.10135
#
# Velocity S-wave (km/s) = 3.29940 3.91799 3.62192
# Velocity P-wave (km/s) = 5.62550 6.88001 6.28414
#
# Compressibility (1/GPa) = 0.02462086
#
# Stress axis : x y z
#
# Youngs Moduli (GPa) = 90.20550 61.71129 48.66695
#
# Poissons Ratio (x) = 0.06663 0.45874
# Poissons Ratio (y) = 0.09739 0.05367
# Poissons Ratio (z) = 0.85029 0.06806
#
# Static dielectric constant tensor:
#      x y z
#    x 1.964700 -0.042970 -0.011070 
#    y -0.042970 1.938450 -0.039280 
#    z -0.011070 -0.039280 1.975840 
# 
# From -- ./inp_files/306225.got.cif
#   From: 2010.05.17/outbox.cif.g08.bks.cpg/sg2_154_cif.got.tgz:306225.got - 2010.06.03 11:33:40.
