data_PCOD9103931
_publ_section_title
;
Structure prediction by ZEFSAII (Michael W. Deem and Ramdas Pophale) SiO2 
 PCOD9103931
Probable space group: P -1
;
_chemical_formula_sum "Si O2"
_cell_formula_units_Z 13
_cell_length_a 12.758974
_cell_length_b 7.229092
_cell_length_c 8.150242
_cell_angle_alpha 122.304202
_cell_angle_beta 77.585148
_cell_angle_gamma 114.382049
_cell_volume 578.707042
_symmetry_space_group_name_H-M "P -1"
_symmetry_group_IT_number 2
_symmetry_cell_setting 'triclinic'
loop_
_space_group_symop_operation_xyz
x,y,z
-x,-y,-z
loop_
_atom_site_type_symbol
_atom_site_label
_atom_site_fract_x
_atom_site_fract_y
_atom_site_fract_z
Si Si1 0.370642 0.913225 0.072847
Si Si2 0.934985 0.942597 0.232101
Si Si3 0.292811 0.418347 0.750334
Si Si4 0.382563 0.023174 0.495890
Si Si5 0.000000 0.500000 0.500000
Si Si6 0.175525 0.076468 0.097176
Si Si7 0.760339 0.443175 0.497197
O O1 0.322126 0.630874 0.967547
O O2 0.371740 0.020776 0.302599
O O3 0.279384 0.981449 0.026330
O O4 0.500000 0.000000 0.000000
O O5 0.839793 0.757556 0.288147
O O6 0.059372 0.917382 0.158190
O O7 0.964730 0.212090 0.397704
O O8 0.871506 0.903495 0.057751
O O9 0.316268 0.541432 0.622689
O O10 0.366746 0.256256 0.676965
O O11 0.288852 0.792086 0.493299
O O12 0.500000 0.000000 0.500000
O O13 0.885261 0.453951 0.404503
O O14 0.219731 0.333211 0.286788
#
# Coordination Sequence:
#
# PCOD9103931 Si02
#       7
#     2   2   2   2   1   2   2
#     4  12  28  46  72 105 142 189 236 290 350 421
#     4  10  22  42  70 107 138 187 229 291 354 413
#     4  12  26  46  76 104 139 189 234 288 360 417
#     4  12  28  47  71 104 140 187 239 294 346 420
#     4  10  20  38  70 102 138 178 224 286 348 418
#     4  10  23  44  70 102 145 182 233 290 346 421
#     4  11  23  44  70 102 145 177 235 292 345 419
#
# _framework density 22.463871999999999
#
# number of rings (size 3 to 8) (size 9 to 14) (size 15 to 20)
#    0.000    0.923    3.077    2.769    4.308    6.154 
#    0.000    0.000    0.000    0.000    0.000    0.000 
#    0.000    0.000    0.000    0.000    0.000    0.000 
#
# Total GULP energy -72420.151419 kJ/mol
# GULP energy per Si atom -5570.780878 kJ/mol
# Density = 2.241274 g / cm^3
# Si number density = 22.463872 Si / 1000 Ang^3
#
#
#
# Elastic Constant Matrix: (Units=GPa)
#
#
# Indices 1 2 3 4 5 6 
#
# 1 141.2336 19.4216 -5.4797 7.7324 -14.1895 -15.8826
# 2 19.4216 56.8511 4.8688 10.0794 -17.3505 -5.1752
# 3 -5.4797 4.8688 30.7082 16.8488 4.2775 -1.6026
# 4 7.7324 10.0794 16.8488 38.8465 -5.8628 -0.3525
# 5 -14.1895 -17.3505 4.2775 -5.8628 29.6271 5.0039
# 6 -15.8826 -5.1752 -1.6026 -0.3525 5.0039 26.4866
#
#
#
# Elastic Compliance Matrix: (Units=1/GPa)
#
#
# Indices 1 2 3 4 5 6 
#
# 1 0.008207 -0.001902 0.003076 -0.002257 0.001168 0.004485
# 2 -0.001902 0.022886 -0.004898 -0.001497 0.012802 0.000596
# 3 0.003076 -0.004898 0.048416 -0.022375 -0.013850 0.006135
# 4 -0.002257 -0.001497 -0.022375 0.037672 0.009451 -0.004284
# 5 0.001168 0.012802 -0.013850 0.009451 0.046751 -0.006342
# 6 0.004485 0.000596 0.006135 -0.004284 -0.006342 0.042073
#
#
# Mechanical properties :
#
#
# Convention : Reuss Voigt Hill
#
# Bulk Modulus (GPa) = 13.87747 29.60158 21.73953
# Shear Modulus (GPa) = 21.05491 32.99087 27.02289
#
# Velocity S-wave (km/s) = 3.06482 3.83641 3.47212
# Velocity P-wave (km/s) = 4.32612 5.72976 5.07668
#
# Compressibility (1/GPa) = 0.07205923
#
# Stress axis : x y z
#
# Youngs Moduli (GPa) = 121.85248 43.69512 20.65419
#
# Poissons Ratio (x) = 0.08311 -0.06352
# Poissons Ratio (y) = 0.23176 0.10117
# Poissons Ratio (z) = -0.37477 0.21404
#
# Static dielectric constant tensor:
#      x y z
#    x 1.866900 0.046470 -0.043020 
#    y 0.046470 1.842620 -0.040750 
#    z -0.043020 -0.040750 1.841570 
# 
# From -- ./inp_files/26403.got.cif
#   From: 2010.05.17/outbox.cif.g08.bks.cpg/sg2_14_cif.got.tgz:26403.got - 2010.06.03 11:33:40.
