data_PCOD9103152
_publ_section_title
;
Structure prediction by ZEFSAII (Michael W. Deem and Ramdas Pophale) SiO2 
 PCOD9103152
Probable space group: P -1
;
_chemical_formula_sum "Si O2"
_cell_formula_units_Z 14
_cell_length_a 18.406008
_cell_length_b 7.699839
_cell_length_c 7.565349
_cell_angle_alpha 126.028796
_cell_angle_beta 132.345162
_cell_angle_gamma 79.822289
_cell_volume 596.096914
_symmetry_space_group_name_H-M "P -1"
_symmetry_group_IT_number 2
_symmetry_cell_setting 'triclinic'
loop_
_space_group_symop_operation_xyz
x,y,z
-x,-y,-z
loop_
_atom_site_type_symbol
_atom_site_label
_atom_site_fract_x
_atom_site_fract_y
_atom_site_fract_z
Si Si1 0.614470 0.297312 0.386836
Si Si2 0.995399 0.789382 0.741513
Si Si3 0.605523 0.123512 0.639150
Si Si4 0.764778 0.583248 0.284476
Si Si5 0.966327 0.332049 0.624881
Si Si6 0.161607 0.453086 0.243357
Si Si7 0.603036 0.817068 0.151385
O O1 0.586105 0.271044 0.531351
O O2 0.733957 0.460837 0.651712
O O3 0.611620 0.039706 0.179630
O O4 0.521259 0.340580 0.154973
O O5 0.873035 0.669951 0.405762
O O6 0.062146 0.822318 0.690634
O O7 0.013152 0.593938 0.776056
O O8 0.000000 0.000000 0.000000
O O9 0.500000 0.000000 0.500000
O O10 0.632020 0.927482 0.459887
O O11 0.701082 0.308550 0.010647
O O12 0.804568 0.650455 0.589863
O O13 0.684285 0.701264 0.166137
O O14 0.873624 0.342901 0.607787
O O15 0.057711 0.301900 0.875419
#
# Coordination Sequence:
#
# PCOD9103152 Si02
#       7
#     2   2   2   2   2   2   2
#     4   9  20  40  62  85 124 169 204 254 318 363
#     4  10  22  40  66  94 121 164 213 257 314 373
#     4  10  21  38  60  88 122 163 211 251 311 366
#     4  11  23  37  63  93 123 164 209 254 309 373
#     4   9  21  41  63  89 128 163 202 267 311 366
#     4  10  20  38  65  90 126 169 207 252 319 371
#     4   9  22  40  58  88 123 164 203 263 299 369
#
# _framework density 23.486115999999999
#
# number of rings (size 3 to 8) (size 9 to 14) (size 15 to 20)
#    0.857    1.429    0.000    1.714    2.000    5.143 
#    0.000    9.286    6.286    0.000    0.000    0.000 
#    0.000    0.000    0.000    0.000    0.000    0.000 
#
# Total GULP energy -78061.324115 kJ/mol
# GULP energy per Si atom -5575.808865 kJ/mol
# Density = 2.343266 g / cm^3
# Si number density = 23.486116 Si / 1000 Ang^3
#
#
#
# Elastic Constant Matrix: (Units=GPa)
#
#
# Indices 1 2 3 4 5 6 
#
# 1 78.4508 11.9142 10.8433 -0.1744 3.5430 0.9005
# 2 11.9142 64.4673 21.4903 -16.6041 0.6493 -20.0533
# 3 10.8433 21.4903 90.1915 -10.1207 -2.6745 -5.1202
# 4 -0.1744 -16.6041 -10.1207 35.0239 -7.6991 3.4350
# 5 3.5430 0.6493 -2.6745 -7.6991 47.3709 -4.8776
# 6 0.9005 -20.0533 -5.1202 3.4350 -4.8776 26.5329
#
#
#
# Elastic Compliance Matrix: (Units=1/GPa)
#
#
# Indices 1 2 3 4 5 6 
#
# 1 0.013600 -0.003734 -0.001235 -0.002092 -0.001743 -0.003572
# 2 -0.003734 0.025488 -0.003379 0.010029 0.003226 0.018033
# 3 -0.001235 -0.003379 0.012314 0.002229 0.001175 -0.000209
# 4 -0.002092 0.010029 0.002229 0.034861 0.006297 0.004725
# 5 -0.001743 0.003226 0.001175 0.006297 0.022916 0.006121
# 6 -0.003572 0.018033 -0.000209 0.004725 0.006121 0.051913
#
#
# Mechanical properties :
#
#
# Convention : Reuss Voigt Hill
#
# Bulk Modulus (GPa) = 28.81349 35.73388 32.27368
# Shear Modulus (GPa) = 26.40514 34.37635 30.39075
#
# Velocity S-wave (km/s) = 3.35668 3.82997 3.60111
# Velocity P-wave (km/s) = 5.22666 5.89967 5.57333
#
# Compressibility (1/GPa) = 0.03470597
#
# Stress axis : x y z
#
# Youngs Moduli (GPa) = 73.53125 39.23365 81.20656
#
# Poissons Ratio (x) = 0.14650 0.10025
# Poissons Ratio (y) = 0.27458 0.27444
# Poissons Ratio (z) = 0.09077 0.13259
#
# Static dielectric constant tensor:
#      x y z
#    x 1.930630 0.021590 -0.004090 
#    y 0.021590 1.932170 0.053090 
#    z -0.004090 0.053090 1.972110 
# 
# From -- ./inp_files/341404.got.cif
#   From: 2010.05.17/outbox.cif.g08.bks.cpg/sg2_171_cif.got.tgz:341404.got - 2010.06.03 11:33:40.
