data_PCOD9103685
_publ_section_title
;
Structure prediction by ZEFSAII (Michael W. Deem and Ramdas Pophale) SiO2 
 PCOD9103685
Probable space group: P -1
;
_chemical_formula_sum "Si O2"
_cell_formula_units_Z 14
_cell_length_a 8.965371
_cell_length_b 8.495218
_cell_length_c 13.848228
_cell_angle_alpha 92.341741
_cell_angle_beta 138.625894
_cell_angle_gamma 104.692585
_cell_volume 628.715847
_symmetry_space_group_name_H-M "P -1"
_symmetry_group_IT_number 2
_symmetry_cell_setting 'triclinic'
loop_
_space_group_symop_operation_xyz
x,y,z
-x,-y,-z
loop_
_atom_site_type_symbol
_atom_site_label
_atom_site_fract_x
_atom_site_fract_y
_atom_site_fract_z
Si Si1 0.726330 0.787470 0.533593
Si Si2 0.819798 0.399214 0.751520
Si Si3 0.727989 0.349523 0.933502
Si Si4 0.921492 0.086490 0.791238
Si Si5 0.521298 0.980894 0.285415
Si Si6 0.544185 0.610662 0.926327
Si Si7 0.883270 0.330736 0.373703
O O1 0.451210 0.630050 0.414453
O O2 0.909684 0.713433 0.578033
O O3 0.851124 0.920553 0.684937
O O4 0.655910 0.901614 0.423463
O O5 0.815656 0.358680 0.864534
O O6 0.864296 0.242879 0.719861
O O7 0.057587 0.584705 0.878700
O O8 0.596579 0.480478 0.875932
O O9 0.548764 0.145384 0.845893
O O10 0.727275 0.020832 0.785033
O O11 0.214730 0.201317 0.957141
O O12 0.712687 0.170599 0.353842
O O13 0.301657 0.637422 0.787949
O O14 0.500000 0.500000 0.000000
O O15 0.000000 0.500000 0.500000
#
# Coordination Sequence:
#
# PCOD9103685 Si02
#       7
#     2   2   2   2   2   2   2
#     4  10  20  38  67  96 131 164 205 263 325 377
#     4   8  14  32  63  94 119 159 213 251 302 376
#     4   8  16  35  63  89 116 167 213 250 304 371
#     4   9  20  39  67  94 126 168 213 257 319 372
#     4  10  21  40  70  95 123 168 218 261 311 382
#     4  11  25  42  64  92 134 171 209 262 320 376
#     4  12  27  42  63  96 131 168 213 264 320 378
#
# _framework density 22.267612
#
# number of rings (size 3 to 8) (size 9 to 14) (size 15 to 20)
#    0.000    2.571    0.000    4.714    4.000    1.143 
#    0.000    0.714    6.286    0.000    0.000    0.000 
#    0.000    0.000    0.000    0.000    0.000    0.000 
#
# Total GULP energy -78055.514966 kJ/mol
# GULP energy per Si atom -5575.393926 kJ/mol
# Density = 2.221693 g / cm^3
# Si number density = 22.267612 Si / 1000 Ang^3
#
#
#
# Elastic Constant Matrix: (Units=GPa)
#
#
# Indices 1 2 3 4 5 6 
#
# 1 58.0226 28.9374 42.6481 7.7508 11.0232 -40.9611
# 2 28.9374 98.1784 66.4082 32.4044 -0.0128 -19.9775
# 3 42.6481 66.4082 115.7811 22.2678 24.3256 -14.0285
# 4 7.7508 32.4044 22.2678 53.1872 1.0907 -14.6596
# 5 11.0232 -0.0128 24.3256 1.0907 20.2926 9.6286
# 6 -40.9611 -19.9775 -14.0285 -14.6596 9.6286 22.7238
#
#
#
# Elastic Compliance Matrix: (Units=1/GPa)
#
#
# Indices 1 2 3 4 5 6 
#
# 1 -0.008121 0.003510 -0.008437 -0.007767 0.031637 -0.035178
# 2 0.003510 0.022944 -0.014943 -0.006336 0.012647 0.007828
# 3 -0.008437 -0.014943 0.025125 -0.000500 -0.024124 -0.002936
# 4 -0.007767 -0.006336 -0.000500 0.021142 0.008310 -0.009762
# 5 0.031637 0.012647 -0.024124 0.008310 0.041006 0.041239
# 6 -0.035178 0.007828 -0.002936 -0.009762 0.041239 -0.038107
#
#
# Mechanical properties :
#
#
# Convention : Reuss Voigt Hill
#
# Bulk Modulus (GPa) = 4822.65121 60.88551 2441.76836
# Shear Modulus (GPa) = 48.17057 28.17327 38.17192
#
# Velocity S-wave (km/s) = 4.65613 3.56084 4.14482
# Velocity P-wave (km/s) = 46.89752 6.65643 33.49392
#
# Compressibility (1/GPa) = 0.00020735
#
# Stress axis : x y z
#
# Youngs Moduli (GPa) = -123.13318 43.58409 39.80136
#
# Poissons Ratio (x) = -0.15300 0.33582
# Poissons Ratio (y) = 0.43226 0.59476
# Poissons Ratio (z) = -1.03893 0.65129
#
# Static dielectric constant tensor:
#      x y z
#    x 1.915930 0.063400 0.044170 
#    y 0.063400 1.906450 0.062610 
#    z 0.044170 0.062610 1.881150 
# 
# From -- ./inp_files/495337.got.cif
#   From: 2010.05.17/outbox.cif.g08.bks.cpg/sg2_248_cif.got.tgz:495337.got - 2010.06.03 11:33:40.
