data_PCOD9103461
_publ_section_title
;
Structure prediction by ZEFSAII (Michael W. Deem and Ramdas Pophale) SiO2 
 PCOD9103461
Probable space group: P -1
;
_chemical_formula_sum "Si O2"
_cell_formula_units_Z 16
_cell_length_a 12.178034
_cell_length_b 7.660012
_cell_length_c 9.628560
_cell_angle_alpha 62.207437
_cell_angle_beta 62.986671
_cell_angle_gamma 63.898217
_cell_volume 677.568377
_symmetry_space_group_name_H-M "P -1"
_symmetry_group_IT_number 2
_symmetry_cell_setting 'triclinic'
loop_
_space_group_symop_operation_xyz
x,y,z
-x,-y,-z
loop_
_atom_site_type_symbol
_atom_site_label
_atom_site_fract_x
_atom_site_fract_y
_atom_site_fract_z
Si Si1 0.854180 0.244893 0.707372
Si Si2 0.247763 0.662853 0.824345
Si Si3 0.293174 0.408757 0.152824
Si Si4 0.862925 0.778698 0.499002
Si Si5 0.727456 0.219977 0.516497
Si Si6 0.959735 0.855703 0.959206
Si Si7 0.734915 0.885201 0.256164
Si Si8 0.484379 0.986332 0.180722
O O1 0.743469 0.376833 0.822907
O O2 0.800534 0.296438 0.566650
O O3 0.992159 0.290312 0.614834
O O4 0.887143 0.007363 0.822789
O O5 0.311471 0.633792 0.647494
O O6 0.093302 0.702300 0.891701
O O7 0.267722 0.875259 0.798381
O O8 0.298464 0.472131 0.967893
O O9 0.174718 0.327220 0.304249
O O10 0.417933 0.222265 0.182008
O O11 0.763745 0.778027 0.430294
O O12 0.831135 0.017814 0.469125
O O13 0.615016 0.142105 0.677294
O O14 0.856339 0.775882 0.129844
O O15 0.000000 0.000000 0.000000
O O16 0.609694 0.896683 0.235361
O O17 0.500000 0.000000 0.000000
#
# Coordination Sequence:
#
# PCOD9103461 Si02
#       8
#     2   2   2   2   2   2   2   2
#     4  12  19  39  68 102 129 166 214 265 321 384
#     4  10  20  40  65 102 126 166 212 264 325 385
#     4  11  24  40  65  96 133 163 220 269 318 371
#     4  10  21  38  67  98 130 168 208 267 323 386
#     4  10  23  40  67  94 132 173 211 253 323 388
#     4  10  16  32  64  96 122 165 207 256 314 388
#     4  10  19  40  68  88 125 177 221 245 317 392
#     4  11  26  47  64  91 129 177 219 266 312 383
#
# _framework density 23.613852999999999
#
# number of rings (size 3 to 8) (size 9 to 14) (size 15 to 20)
#    0.000    1.500    6.250    1.500    0.000    5.000 
#    2.250    1.250    0.000    0.000    0.000    0.000 
#    0.000    0.000    0.000    0.000    0.000    0.000 
#
# Total GULP energy -89387.862723 kJ/mol
# GULP energy per Si atom -5586.741420 kJ/mol
# Density = 2.356011 g / cm^3
# Si number density = 23.613853 Si / 1000 Ang^3
#
#
#
# Elastic Constant Matrix: (Units=GPa)
#
#
# Indices 1 2 3 4 5 6 
#
# 1 93.1929 31.9102 34.8048 7.8125 20.3164 -24.6409
# 2 31.9102 51.8002 12.9675 2.9156 2.1159 -7.0859
# 3 34.8048 12.9675 166.1334 0.6558 14.8171 2.4077
# 4 7.8125 2.9156 0.6558 29.3533 0.9081 -11.7883
# 5 20.3164 2.1159 14.8171 0.9081 23.0735 14.5612
# 6 -24.6409 -7.0859 2.4077 -11.7883 14.5612 -0.7918
#
#
#
# Elastic Compliance Matrix: (Units=1/GPa)
#
#
# Indices 1 2 3 4 5 6 
#
# 1 0.009115 -0.007222 -0.001463 -0.008478 0.004386 -0.016600
# 2 -0.007222 0.024454 -0.000587 0.001490 0.001256 0.005036
# 3 -0.001463 -0.000587 0.006657 0.000632 -0.003319 0.000573
# 4 -0.008478 0.001490 0.000632 0.031989 0.011654 -0.009493
# 5 0.004386 0.001256 -0.003319 0.011654 0.019843 0.033582
# 6 -0.016600 0.005036 0.000573 -0.009493 0.033582 -0.030774
#
#
# Mechanical properties :
#
#
# Convention : Reuss Voigt Hill
#
# Bulk Modulus (GPa) = 46.11856 52.27681 49.19768
# Shear Modulus (GPa) = 57.43533 25.75661 41.59597
#
# Velocity S-wave (km/s) = 4.93716 3.30622 4.20158
# Velocity P-wave (km/s) = 7.21619 6.06309 6.66462
#
# Compressibility (1/GPa) = 0.02168325
#
# Stress axis : x y z
#
# Youngs Moduli (GPa) = 109.70999 40.89289 150.22230
#
# Poissons Ratio (x) = 0.29531 0.21978
# Poissons Ratio (y) = 0.79227 0.08815
# Poissons Ratio (z) = 0.16051 0.02399
#
# Static dielectric constant tensor:
#      x y z
#    x 1.895590 0.038200 0.010480 
#    y 0.038200 1.947820 -0.026490 
#    z 0.010480 -0.026490 1.918480 
# 
# From -- ./inp_files/242505.got.cif
#   From: 2010.05.17/outbox.cif.g08.bks.cpg/sg2_122_cif.got.tgz:242505.got - 2010.06.03 11:33:40.
