data_PCOD9103337
_publ_section_title
;
Structure prediction by ZEFSAII (Michael W. Deem and Ramdas Pophale) SiO2 
 PCOD9103337
Probable space group: P -1
;
_chemical_formula_sum "Si O2"
_cell_formula_units_Z 16
_cell_length_a 15.030289
_cell_length_b 11.224612
_cell_length_c 9.763818
_cell_angle_alpha 113.905418
_cell_angle_beta 48.877392
_cell_angle_gamma 73.293527
_cell_volume 673.950422
_symmetry_space_group_name_H-M "P -1"
_symmetry_group_IT_number 2
_symmetry_cell_setting 'triclinic'
loop_
_space_group_symop_operation_xyz
x,y,z
-x,-y,-z
loop_
_atom_site_type_symbol
_atom_site_label
_atom_site_fract_x
_atom_site_fract_y
_atom_site_fract_z
Si Si1 0.126077 0.699078 0.242221
Si Si2 0.897397 0.687640 0.797538
Si Si3 0.231650 0.849757 0.029581
Si Si4 0.685498 0.579077 0.652560
Si Si5 0.127670 0.451740 0.969575
Si Si6 0.768221 0.210487 0.314683
Si Si7 0.502669 0.152272 0.267730
Si Si8 0.501484 0.348421 0.872942
O O1 0.226685 0.718371 0.052672
O O2 0.033725 0.667171 0.228880
O O3 0.304578 0.488204 0.053834
O O4 0.972029 0.903088 0.596630
O O5 0.000000 0.500000 0.500000
O O6 0.087052 0.609988 0.607916
O O7 0.841690 0.671694 0.991215
O O8 0.697313 0.912601 0.026239
O O9 0.264938 0.798763 0.812176
O O10 0.400582 0.802321 0.869457
O O11 0.697890 0.420087 0.508428
O O12 0.638137 0.743581 0.676323
O O13 0.518079 0.724960 0.009587
O O14 0.339665 0.305134 0.622977
O O15 0.000000 0.500000 0.000000
O O16 0.675123 0.195889 0.514900
O O17 0.000000 0.000000 0.000000
O O18 0.500000 0.500000 0.000000
#
# Coordination Sequence:
#
# PCOD9103337 Si02
#       8
#     2   2   2   2   2   2   2   2
#     4  11  24  44  71 107 153 194 248 321 386 457
#     4  12  27  50  76 107 149 201 257 317 380 457
#     4  11  23  41  71 110 145 190 246 314 395 454
#     4  11  24  44  69 106 149 195 253 313 375 463
#     4  12  26  50  76 109 152 208 262 316 370 461
#     4  11  22  38  65 104 151 197 245 308 378 465
#     4  12  25  47  78 109 147 198 256 314 391 447
#     4  10  20  38  65  99 149 192 243 303 386 452
#
# _framework density 23.74062
#
# number of rings (size 3 to 8) (size 9 to 14) (size 15 to 20)
#    0.000    0.750    1.250    7.875    0.000    3.000 
#    2.250    2.500    2.750    0.000    0.000    0.000 
#    0.000    0.000    0.000    0.000    0.000    0.000 
#
# Total GULP energy -89322.256835 kJ/mol
# GULP energy per Si atom -5582.641052 kJ/mol
# Density = 2.368659 g / cm^3
# Si number density = 23.740620 Si / 1000 Ang^3
#
#
#
# Elastic Constant Matrix: (Units=GPa)
#
#
# Indices 1 2 3 4 5 6 
#
# 1 74.7830 20.9109 17.9365 5.0835 15.9057 -9.7031
# 2 20.9109 145.0615 68.4217 -14.7698 6.0866 -31.8995
# 3 17.9365 68.4217 146.0389 -33.2285 4.7996 -17.4543
# 4 5.0835 -14.7698 -33.2285 52.4207 -6.1072 -1.6320
# 5 15.9057 6.0866 4.7996 -6.1072 34.5321 -7.0204
# 6 -9.7031 -31.8995 -17.4543 -1.6320 -7.0204 35.6315
#
#
#
# Elastic Compliance Matrix: (Units=1/GPa)
#
#
# Indices 1 2 3 4 5 6 
#
# 1 0.016178 -0.001394 -0.001945 -0.004057 -0.007545 0.000532
# 2 -0.001394 0.010541 -0.003639 0.001152 0.001024 0.007529
# 3 -0.001945 -0.003639 0.010311 0.005934 0.001527 0.001836
# 4 -0.004057 0.001152 0.005934 0.024442 0.006216 0.005178
# 5 -0.007545 0.001024 0.001527 0.006216 0.034501 0.006693
# 6 0.000532 0.007529 0.001836 0.005178 0.006693 0.037406
#
#
# Mechanical properties :
#
#
# Convention : Reuss Voigt Hill
#
# Bulk Modulus (GPa) = 43.34075 64.49130 53.91603
# Shear Modulus (GPa) = 32.25251 41.75781 37.00516
#
# Velocity S-wave (km/s) = 3.68983 4.19850 3.95236
# Velocity P-wave (km/s) = 6.03728 7.12229 6.60211
#
# Compressibility (1/GPa) = 0.02307297
#
# Stress axis : x y z
#
# Youngs Moduli (GPa) = 61.81219 94.86666 96.98513
#
# Poissons Ratio (x) = 0.13224 0.18868
# Poissons Ratio (y) = 0.08616 0.35294
# Poissons Ratio (z) = 0.12025 0.34523
#
# Static dielectric constant tensor:
#      x y z
#    x 2.011840 0.006850 -0.027150 
#    y 0.006850 1.977230 0.030660 
#    z -0.027150 0.030660 1.871050 
# 
# From -- ./inp_files/307911.got.cif
#   From: 2010.05.17/outbox.cif.g08.bks.cpg/sg2_154_cif.got.tgz:307911.got - 2010.06.03 11:33:40.
