data_PCOD9103775
_publ_section_title
;
Structure prediction by ZEFSAII (Michael W. Deem and Ramdas Pophale) SiO2 
 PCOD9103775
Probable space group: P -1
;
_chemical_formula_sum "Si O2"
_cell_formula_units_Z 14
_cell_length_a 23.499128
_cell_length_b 8.219870
_cell_length_c 11.162789
_cell_angle_alpha 125.038459
_cell_angle_beta 28.110851
_cell_angle_gamma 139.714708
_cell_volume 621.466911
_symmetry_space_group_name_H-M "P -1"
_symmetry_group_IT_number 2
_symmetry_cell_setting 'triclinic'
loop_
_space_group_symop_operation_xyz
x,y,z
-x,-y,-z
loop_
_atom_site_type_symbol
_atom_site_label
_atom_site_fract_x
_atom_site_fract_y
_atom_site_fract_z
Si Si1 0.430277 0.577632 0.761611
Si Si2 0.312393 0.198638 0.297420
Si Si3 0.335323 0.483773 0.160059
Si Si4 0.267446 0.809875 0.534475
Si Si5 0.038597 0.808522 0.822547
Si Si6 0.431998 0.746106 0.404667
Si Si7 0.711895 0.308700 0.110998
O O1 0.500000 0.500000 0.500000
O O2 0.298898 0.568670 0.933860
O O3 0.579325 0.883299 0.650014
O O4 0.353818 0.429753 0.967264
O O5 0.263671 0.237570 0.276466
O O6 0.365585 0.458691 0.376255
O O7 0.171733 0.946288 0.527728
O O8 0.483768 0.273399 0.019106
O O9 0.249723 0.601561 0.390551
O O10 0.114666 0.785898 0.788478
O O11 0.315340 0.770668 0.558405
O O12 0.884156 0.518829 0.940401
O O13 0.000000 0.000000 0.000000
O O14 0.410480 0.734942 0.581654
O O15 0.617131 0.000233 0.134745
#
# Coordination Sequence:
#
# PCOD9103775 Si02
#       7
#     2   2   2   2   2   2   2
#     4  11  20  36  63  94 122 165 215 262 308 382
#     4  10  20  38  68  92 124 164 220 263 308 369
#     4  10  21  40  67  92 121 172 224 253 304 391
#     4  10  22  38  68  89 127 167 222 255 311 380
#     4  12  22  38  63 100 129 162 210 273 319 366
#     4   9  19  40  60  91 121 172 207 253 313 378
#     4  10  21  35  59  89 132 159 204 261 323 366
#
# _framework density 22.527346000000001
#
# number of rings (size 3 to 8) (size 9 to 14) (size 15 to 20)
#    0.000    1.714    2.857    2.143    0.000    0.571 
#    0.000    1.429    0.000    0.000    0.000    0.000 
#    0.000    0.000    0.000    0.000    0.000    0.000 
#
# Total GULP energy -78092.820834 kJ/mol
# GULP energy per Si atom -5578.058631 kJ/mol
# Density = 2.247607 g / cm^3
# Si number density = 22.527346 Si / 1000 Ang^3
#
#
#
# Elastic Constant Matrix: (Units=GPa)
#
#
# Indices 1 2 3 4 5 6 
#
# 1 112.2319 27.4573 13.9155 -0.6379 -1.2667 0.0576
# 2 27.4573 78.9624 12.3134 5.4094 -7.8732 0.9259
# 3 13.9155 12.3134 43.7011 -9.5660 -9.9878 -6.4324
# 4 -0.6379 5.4094 -9.5660 46.3567 4.4959 -2.8301
# 5 -1.2667 -7.8732 -9.9878 4.4959 52.4528 3.6237
# 6 0.0576 0.9259 -6.4324 -2.8301 3.6237 28.0164
#
#
#
# Elastic Compliance Matrix: (Units=1/GPa)
#
#
# Indices 1 2 3 4 5 6 
#
# 1 0.009983 -0.003147 -0.002500 0.000030 -0.000682 -0.000399
# 2 -0.003147 0.014715 -0.003610 -0.002792 0.001811 -0.001825
# 3 -0.002500 -0.003610 0.027881 0.006187 0.003716 0.006670
# 4 0.000030 -0.002792 0.006187 0.023575 -0.001544 0.004094
# 5 -0.000682 0.001811 0.003716 -0.001544 0.020297 -0.001987
# 6 -0.000399 -0.001825 0.006670 0.004094 -0.001987 0.037956
#
#
# Mechanical properties :
#
#
# Convention : Reuss Voigt Hill
#
# Bulk Modulus (GPa) = 29.35585 38.02976 33.69281
# Shear Modulus (GPa) = 30.43664 37.44578 33.94121
#
# Velocity S-wave (km/s) = 3.67972 4.08148 3.88579
# Velocity P-wave (km/s) = 5.57792 6.25536 5.92633
#
# Compressibility (1/GPa) = 0.03406476
#
# Stress axis : x y z
#
# Youngs Moduli (GPa) = 100.17385 67.95944 35.86623
#
# Poissons Ratio (x) = 0.21386 0.08967
# Poissons Ratio (y) = 0.31523 0.12948
# Poissons Ratio (z) = 0.25045 0.24534
#
# Static dielectric constant tensor:
#      x y z
#    x 1.888770 0.028250 0.022920 
#    y 0.028250 1.893090 0.080490 
#    z 0.022920 0.080490 1.891220 
# 
# From -- ./inp_files/474271.got.cif
#   From: 2010.05.17/outbox.cif.g08.bks.cpg/sg2_238_cif.got.tgz:474271.got - 2010.06.03 11:33:40.
