data_PCOD9103043
_publ_section_title
;
Structure prediction by ZEFSAII (Michael W. Deem and Ramdas Pophale) SiO2 
 PCOD9103043
Probable space group: P -1
;
_chemical_formula_sum "Si O2"
_cell_formula_units_Z 14
_cell_length_a 24.130315
_cell_length_b 10.228800
_cell_length_c 7.196165
_cell_angle_alpha 42.602235
_cell_angle_beta 47.204003
_cell_angle_gamma 29.343177
_cell_volume 585.349956
_symmetry_space_group_name_H-M "P -1"
_symmetry_group_IT_number 2
_symmetry_cell_setting 'triclinic'
loop_
_space_group_symop_operation_xyz
x,y,z
-x,-y,-z
loop_
_atom_site_type_symbol
_atom_site_label
_atom_site_fract_x
_atom_site_fract_y
_atom_site_fract_z
Si Si1 0.188055 0.101667 0.410340
Si Si2 0.035328 0.711920 0.184699
Si Si3 0.346357 0.370570 0.442458
Si Si4 0.892331 0.310098 0.346225
Si Si5 0.136800 0.254930 0.945085
Si Si6 0.468024 0.750558 0.690964
Si Si7 0.324083 0.735434 0.813424
O O1 0.152590 0.370713 0.316308
O O2 0.200272 0.100500 0.161240
O O3 0.290916 0.807693 0.596898
O O4 0.072218 0.200166 0.590585
O O5 0.055113 0.673294 0.960505
O O6 0.000000 0.000000 0.000000
O O7 0.213857 0.616704 0.540568
O O8 0.416784 0.342875 0.472581
O O9 0.404848 0.764193 0.650109
O O10 0.388177 0.069478 0.632882
O O11 0.847125 0.550850 0.343705
O O12 0.000000 0.000000 0.500000
O O13 0.202264 0.001679 0.913799
O O14 0.000000 0.500000 0.000000
O O15 0.364793 0.461755 0.114145
O O16 0.500000 0.500000 0.000000
#
# Coordination Sequence:
#
# PCOD9103043 Si02
#       7
#     2   2   2   2   2   2   2
#     4  10  23  39  52  89 125 159 218 252 297 386
#     4  10  22  36  53  79 124 169 194 250 309 359
#     4  10  20  38  64  97 121 158 219 253 309 389
#     4  11  22  34  58  97 122 156 210 252 302 386
#     4  11  22  37  59  86 129 172 203 252 314 369
#     4   9  20  39  66  93 120 164 209 261 316 369
#     4  11  21  38  64  88 120 166 204 261 318 361
#
# _framework density 23.917314000000001
#
# number of rings (size 3 to 8) (size 9 to 14) (size 15 to 20)
#    0.000    1.714    1.429    4.286    6.000    1.143 
#    0.000    0.000    0.000   11.143    0.000    0.000 
#    0.000    0.000    0.000    0.000    0.000    0.000 
#
# Total GULP energy -77971.386981 kJ/mol
# GULP energy per Si atom -5569.384784 kJ/mol
# Density = 2.386288 g / cm^3
# Si number density = 23.917314 Si / 1000 Ang^3
#
#
#
# Elastic Constant Matrix: (Units=GPa)
#
#
# Indices 1 2 3 4 5 6 
#
# 1 84.3105 43.0873 25.0836 -1.1589 3.9295 -8.1508
# 2 43.0873 84.8838 20.4146 -16.8247 -5.5973 -21.7444
# 3 25.0836 20.4146 91.4969 -24.8523 2.6678 10.0032
# 4 -1.1589 -16.8247 -24.8523 34.2552 0.3015 -13.2960
# 5 3.9295 -5.5973 2.6678 0.3015 52.5799 -3.4846
# 6 -8.1508 -21.7444 10.0032 -13.2960 -3.4846 51.8161
#
#
#
# Elastic Compliance Matrix: (Units=1/GPa)
#
#
# Indices 1 2 3 4 5 6 
#
# 1 0.018751 -0.011402 -0.004796 -0.009820 -0.002554 -0.003601
# 2 -0.011402 0.024371 0.000813 0.017169 0.004166 0.012962
# 3 -0.004796 0.000813 0.015122 0.011004 -0.000421 -0.000537
# 4 -0.009820 0.017169 0.011004 0.051863 0.002835 0.017034
# 5 -0.002554 0.004166 -0.000421 0.002835 0.019890 0.003493
# 6 -0.003601 0.012962 -0.000537 0.017034 0.003493 0.028882
#
#
# Mechanical properties :
#
#
# Convention : Reuss Voigt Hill
#
# Bulk Modulus (GPa) = 36.39677 48.65135 42.52406
# Shear Modulus (GPa) = 25.15008 39.20395 32.17702
#
# Velocity S-wave (km/s) = 3.24627 4.05303 3.67187
# Velocity P-wave (km/s) = 5.41311 6.50295 5.98290
#
# Compressibility (1/GPa) = 0.02747496
#
# Stress axis : x y z
#
# Youngs Moduli (GPa) = 53.33165 41.03204 66.12664
#
# Poissons Ratio (x) = 0.46784 0.31712
# Poissons Ratio (y) = 0.60808 -0.05375
# Poissons Ratio (z) = 0.25576 -0.03335
#
# Static dielectric constant tensor:
#      x y z
#    x 0.584710 -0.534630 -0.115860 
#    y -0.534630 1.825570 -0.150580 
#    z -0.115860 -0.150580 2.073400 
# 
# From -- ./inp_files/353324.got.cif
#   From: 2010.05.17/outbox.cif.g08.bks.cpg/sg2_177_cif.got.tgz:353324.got - 2010.06.03 11:33:40.
