data_PCOD9103813
_publ_section_title
;
Structure prediction by ZEFSAII (Michael W. Deem and Ramdas Pophale) SiO2 
 PCOD9103813
Probable space group: P -1
;
_chemical_formula_sum "Si O2"
_cell_formula_units_Z 15
_cell_length_a 7.442673
_cell_length_b 11.309965
_cell_length_c 8.878712
_cell_angle_alpha 128.828073
_cell_angle_beta 105.739061
_cell_angle_gamma 88.547723
_cell_volume 549.862513
_symmetry_space_group_name_H-M "P -1"
_symmetry_group_IT_number 2
_symmetry_cell_setting 'triclinic'
loop_
_space_group_symop_operation_xyz
x,y,z
-x,-y,-z
loop_
_atom_site_type_symbol
_atom_site_label
_atom_site_fract_x
_atom_site_fract_y
_atom_site_fract_z
Si Si1 0.608481 0.418588 0.265986
Si Si2 0.535375 0.959934 0.795359
Si Si3 0.617541 0.654073 0.232311
Si Si4 0.000000 0.500000 0.000000
Si Si5 0.826371 0.915503 0.292218
Si Si6 0.136064 0.157124 0.105035
Si Si7 0.200825 0.484229 0.330930
Si Si8 0.305679 0.776985 0.150048
O O1 0.697558 0.581188 0.334978
O O2 0.394211 0.437400 0.269860
O O3 0.724535 0.399341 0.425571
O O4 0.617331 0.288824 0.041679
O O5 0.337979 0.981176 0.686557
O O6 0.684920 0.054170 0.778103
O O7 0.500000 0.000000 0.000000
O O8 0.657328 0.828816 0.757053
O O9 0.767297 0.748989 0.229819
O O10 0.500000 0.500000 0.000000
O O11 0.466369 0.764738 0.302201
O O12 0.100768 0.549722 0.224354
O O13 0.873347 0.342655 0.927733
O O14 0.860639 0.870699 0.094729
O O15 0.000000 0.000000 0.500000
O O16 0.080431 0.324375 0.243254
O O17 0.000000 0.000000 0.000000
#
# Coordination Sequence:
#
# PCOD9103813 Si02
#       8
#     2   2   2   1   2   2   2   2
#     4  10  21  40  67  91 121 172 221 262 325 401
#     4   9  19  41  67  89 128 177 224 261 336 405
#     4   9  17  36  67  89 122 172 214 262 335 398
#     4  12  24  38  60 100 138 158 216 280 348 394
#     4  10  22  38  66  98 126 170 228 278 331 399
#     4  11  23  41  63  91 133 179 215 268 336 402
#     4  11  24  41  63  94 128 170 220 270 330 394
#     4  10  20  38  68  96 127 171 212 274 338 393
#
# _framework density 27.279547999999998
#
# number of rings (size 3 to 8) (size 9 to 14) (size 15 to 20)
#    0.000    1.867    1.333    4.000    3.733    0.533 
#    0.000    6.000    0.000    0.000    0.000    0.000 
#    0.000    0.000    0.000    0.000    0.000    0.000 
#
# Total GULP energy -83510.171647 kJ/mol
# GULP energy per Si atom -5567.344776 kJ/mol
# Density = 2.721746 g / cm^3
# Si number density = 27.279548 Si / 1000 Ang^3
#
#
#
# Elastic Constant Matrix: (Units=GPa)
#
#
# Indices 1 2 3 4 5 6 
#
# 1 76.1336 15.7492 21.7106 -5.5869 13.5447 9.5502
# 2 15.7492 162.3367 44.5405 -23.8609 25.4537 32.1104
# 3 21.7106 44.5405 158.5234 -24.5809 26.3423 -7.7812
# 4 -5.5869 -23.8609 -24.5809 49.6259 -18.4407 21.5009
# 5 13.5447 25.4537 26.3423 -18.4407 35.7437 -0.9027
# 6 9.5502 32.1104 -7.7812 21.5009 -0.9027 54.2015
#
#
#
# Elastic Compliance Matrix: (Units=1/GPa)
#
#
# Indices 1 2 3 4 5 6 
#
# 1 0.014764 0.000553 -0.001443 0.001162 -0.004418 -0.003671
# 2 0.000553 0.009734 -0.001771 0.006730 -0.002587 -0.008831
# 3 -0.001443 -0.001771 0.007794 0.000598 -0.003574 0.002126
# 4 0.001162 0.006730 0.000598 0.036486 0.012686 -0.018368
# 5 -0.004418 -0.002587 -0.003574 0.012686 0.040608 -0.002558
# 6 -0.003671 -0.008831 0.002126 -0.018368 -0.002558 0.031877
#
#
# Mechanical properties :
#
#
# Convention : Reuss Voigt Hill
#
# Bulk Modulus (GPa) = 37.07732 62.33272 49.70502
# Shear Modulus (GPa) = 32.13881 48.91377 40.52629
#
# Velocity S-wave (km/s) = 3.43611 4.23904 3.85852
# Velocity P-wave (km/s) = 5.41882 6.84533 6.17342
#
# Compressibility (1/GPa) = 0.02697066
#
# Stress axis : x y z
#
# Youngs Moduli (GPa) = 67.73385 102.73360 128.29761
#
# Poissons Ratio (x) = -0.05684 0.18517
# Poissons Ratio (y) = -0.03748 0.22717
# Poissons Ratio (z) = 0.09776 0.18191
#
# Static dielectric constant tensor:
#      x y z
#    x 2.707030 -0.026970 0.194260 
#    y -0.026970 2.206250 0.097650 
#    z 0.194260 0.097650 2.112860 
# 
# From -- ./inp_files/181978.got.cif
#   From: 2010.05.17/outbox.cif.g08.bks.cpg/sg2_91_cif.got.tgz:181978.got - 2010.06.03 11:33:40.
