data_PCOD9103577
_publ_section_title
;
Structure prediction by ZEFSAII (Michael W. Deem and Ramdas Pophale) SiO2 
 PCOD9103577
Probable space group: P -1
;
_chemical_formula_sum "Si O2"
_cell_formula_units_Z 16
_cell_length_a 8.465704
_cell_length_b 10.740957
_cell_length_c 11.135350
_cell_angle_alpha 67.082425
_cell_angle_beta 124.151230
_cell_angle_gamma 81.943157
_cell_volume 680.958903
_symmetry_space_group_name_H-M "P -1"
_symmetry_group_IT_number 2
_symmetry_cell_setting 'triclinic'
loop_
_space_group_symop_operation_xyz
x,y,z
-x,-y,-z
loop_
_atom_site_type_symbol
_atom_site_label
_atom_site_fract_x
_atom_site_fract_y
_atom_site_fract_z
Si Si1 0.648406 0.844284 0.242281
Si Si2 0.182707 0.983859 0.888213
Si Si3 0.233547 0.721629 0.311715
Si Si4 0.413869 0.190872 0.516090
Si Si5 0.675138 0.821194 0.784723
Si Si6 0.054503 0.424698 0.681719
Si Si7 0.842631 0.303997 0.966807
Si Si8 0.328544 0.449697 0.997672
O O1 0.707443 0.760083 0.426891
O O2 0.734516 0.735164 0.204162
O O3 0.765812 0.948154 0.234520
O O4 0.390959 0.938007 0.079624
O O5 0.157909 0.834672 0.907457
O O6 0.969085 0.109619 0.815750
O O7 0.428427 0.733068 0.454932
O O8 0.143395 0.608100 0.358155
O O9 0.299190 0.679181 0.217320
O O10 0.293918 0.222066 0.327308
O O11 0.543134 0.005086 0.658904
O O12 0.917561 0.756562 0.960613
O O13 0.578923 0.726847 0.852726
O O14 0.142444 0.485891 0.804963
O O15 0.000000 0.500000 0.500000
O O16 0.230569 0.549270 0.038316
O O17 0.500000 0.500000 0.000000
#
# Coordination Sequence:
#
# PCOD9103577 Si02
#       8
#     2   2   2   2   2   2   2   2
#     4  10  22  38  69  97 129 168 218 279 327 381
#     4  10  20  38  67 102 127 166 224 272 326 390
#     4  11  22  42  71  99 125 172 228 278 319 391
#     4  11  24  43  71 101 134 168 220 289 327 382
#     4  11  26  45  66 100 139 172 219 274 338 390
#     4  11  27  46  66  97 135 175 224 274 327 396
#     4  12  22  42  69  94 128 181 221 264 332 393
#     4  12  29  45  65  96 139 183 218 267 333 406
#
# _framework density 23.496279999999999
#
# number of rings (size 3 to 8) (size 9 to 14) (size 15 to 20)
#    0.000    1.000    3.750    2.250    8.750    0.000 
#    0.000    1.875    0.000    0.000    0.000    0.000 
#    0.000    0.000    0.000    0.000    0.000    0.000 
#
# Total GULP energy -89450.677908 kJ/mol
# GULP energy per Si atom -5590.667369 kJ/mol
# Density = 2.344280 g / cm^3
# Si number density = 23.496280 Si / 1000 Ang^3
#
#
#
# Elastic Constant Matrix: (Units=GPa)
#
#
# Indices 1 2 3 4 5 6 
#
# 1 66.5051 25.4731 1.9335 -6.8140 -19.3413 14.7018
# 2 25.4731 105.9521 22.2105 3.7099 -5.3599 14.1828
# 3 1.9335 22.2105 70.3250 2.4850 -16.8218 11.2641
# 4 -6.8140 3.7099 2.4850 32.9279 0.5876 -9.4867
# 5 -19.3413 -5.3599 -16.8218 0.5876 28.6827 -8.0005
# 6 14.7018 14.1828 11.2641 -9.4867 -8.0005 48.8860
#
#
#
# Elastic Compliance Matrix: (Units=1/GPa)
#
#
# Indices 1 2 3 4 5 6 
#
# 1 0.022918 -0.005531 0.005470 0.003766 0.016691 -0.003086
# 2 -0.005531 0.011793 -0.004234 -0.002660 -0.004523 -0.002039
# 3 0.005470 -0.004234 0.019072 -0.000875 0.013320 -0.002801
# 4 0.003766 -0.002660 -0.000875 0.033417 0.002734 0.006773
# 5 0.016691 -0.004523 0.013320 0.002734 0.053741 0.002549
# 6 -0.003086 -0.002039 -0.002801 0.006773 0.002549 0.024352
#
#
# Mechanical properties :
#
#
# Convention : Reuss Voigt Hill
#
# Bulk Modulus (GPa) = 22.12687 38.00182 30.06434
# Shear Modulus (GPa) = 26.46246 34.97699 30.71972
#
# Velocity S-wave (km/s) = 3.35959 3.86245 3.61976
# Velocity P-wave (km/s) = 4.94841 6.00833 5.50394
#
# Compressibility (1/GPa) = 0.04519393
#
# Stress axis : x y z
#
# Youngs Moduli (GPa) = 43.63357 84.79730 52.43264
#
# Poissons Ratio (x) = 0.46903 -0.28683
# Poissons Ratio (y) = 0.24135 0.22199
# Poissons Ratio (z) = -0.23870 0.35901
#
# Static dielectric constant tensor:
#      x y z
#    x 1.903820 -0.016700 -0.012830 
#    y -0.016700 1.946360 -0.079250 
#    z -0.012830 -0.079250 1.870560 
# 
# From -- ./inp_files/386989.got.cif
#   From: 2010.05.17/outbox.cif.g08.bks.cpg/sg2_194_cif.got.tgz:386989.got - 2010.06.03 11:33:40.
