data_PCOD9103161
_publ_section_title
;
Structure prediction by ZEFSAII (Michael W. Deem and Ramdas Pophale) SiO2 
 PCOD9103161
Probable space group: P -1
;
_chemical_formula_sum "Si O2"
_cell_formula_units_Z 16
_cell_length_a 10.168884
_cell_length_b 9.101782
_cell_length_c 16.343587
_cell_angle_alpha 61.862438
_cell_angle_beta 148.191162
_cell_angle_gamma 108.919153
_cell_volume 693.489818
_symmetry_space_group_name_H-M "P -1"
_symmetry_group_IT_number 2
_symmetry_cell_setting 'triclinic'
loop_
_space_group_symop_operation_xyz
x,y,z
-x,-y,-z
loop_
_atom_site_type_symbol
_atom_site_label
_atom_site_fract_x
_atom_site_fract_y
_atom_site_fract_z
Si Si1 0.065614 0.921896 0.879469
Si Si2 0.240984 0.738216 0.338368
Si Si3 0.004387 0.984826 0.410690
Si Si4 0.380201 0.599632 0.120535
Si Si5 0.862739 0.573872 0.102409
Si Si6 0.844289 0.376636 0.497588
Si Si7 0.805182 0.753529 0.636189
Si Si8 0.535762 0.817693 0.991728
O O1 0.920825 0.829183 0.757817
O O2 0.847674 0.060160 0.765157
O O3 0.222731 0.754910 0.046993
O O4 0.274383 0.043871 0.934985
O O5 0.127162 0.663488 0.380326
O O6 0.539553 0.692891 0.517921
O O7 0.104518 0.667120 0.208993
O O8 0.077306 0.801109 0.459597
O O9 0.736059 0.079432 0.207430
O O10 0.000000 0.000000 0.500000
O O11 0.229854 0.084957 0.481273
O O12 0.563692 0.474044 0.306998
O O13 0.228227 0.477852 0.020144
O O14 0.507507 0.703515 0.088000
O O15 0.979923 0.390370 0.249171
O O16 0.649553 0.687090 0.014230
O O17 0.000000 0.500000 0.500000
#
# Coordination Sequence:
#
# PCOD9103161 Si02
#       8
#     2   2   2   2   2   2   2   2
#     4  10  20  38  65  91 116 172 212 255 316 383
#     4  11  23  43  70  91 130 169 222 262 308 388
#     4  12  26  40  66  95 132 165 215 269 323 372
#     4  11  21  37  63  92 131 162 209 261 326 380
#     4  10  22  38  65  93 119 178 213 256 315 384
#     4  12  25  40  65 104 131 161 212 275 322 366
#     4  11  23  42  66  93 125 175 218 255 321 386
#     4  11  20  38  65  89 127 166 212 261 317 383
#
# _framework density 23.071715000000001
#
# number of rings (size 3 to 8) (size 9 to 14) (size 15 to 20)
#    0.000    1.000    3.750    4.500    3.500    0.000 
#    0.000    2.500    5.500    2.250    0.000    0.000 
#    0.000    0.000    0.000    0.000    0.000    0.000 
#
# Total GULP energy -89231.214852 kJ/mol
# GULP energy per Si atom -5576.950928 kJ/mol
# Density = 2.301920 g / cm^3
# Si number density = 23.071715 Si / 1000 Ang^3
#
#
#
# Elastic Constant Matrix: (Units=GPa)
#
#
# Indices 1 2 3 4 5 6 
#
# 1 34.2210 23.1183 23.1882 -6.8945 7.4520 3.5771
# 2 23.1183 116.9885 39.8813 -14.9524 9.9581 -24.6148
# 3 23.1882 39.8813 128.3718 -18.4551 21.0215 -12.6555
# 4 -6.8945 -14.9524 -18.4551 42.6974 -8.8866 16.3840
# 5 7.4520 9.9581 21.0215 -8.8866 29.2302 -3.0314
# 6 3.5771 -24.6148 -12.6555 16.3840 -3.0314 31.2500
#
#
#
# Elastic Compliance Matrix: (Units=1/GPa)
#
#
# Indices 1 2 3 4 5 6 
#
# 1 0.043525 -0.009573 -0.004997 0.008078 -0.003771 -0.019147
# 2 -0.009573 0.013219 -0.001437 -0.002266 -0.000467 0.012069
# 3 -0.004997 -0.001437 0.010389 0.001139 -0.005097 0.002556
# 4 0.008078 -0.002266 0.001139 0.032926 0.005940 -0.018935
# 5 -0.003771 -0.000467 -0.005097 0.005940 0.040682 -0.001168
# 6 -0.019147 0.012069 0.002556 -0.018935 -0.001168 0.054547
#
#
# Mechanical properties :
#
#
# Convention : Reuss Voigt Hill
#
# Bulk Modulus (GPa) = 28.47403 50.21743 39.34573
# Shear Modulus (GPa) = 20.91990 33.52843 27.22416
#
# Velocity S-wave (km/s) = 3.01447 3.81626 3.43881
# Velocity P-wave (km/s) = 4.94817 6.42117 5.73218
#
# Compressibility (1/GPa) = 0.03511973
#
# Stress axis : x y z
#
# Youngs Moduli (GPa) = 22.97539 75.64963 96.25324
#
# Poissons Ratio (x) = 0.72417 0.48095
# Poissons Ratio (y) = 0.21994 0.13833
# Poissons Ratio (z) = 0.11480 0.10872
#
# Static dielectric constant tensor:
#      x y z
#    x 1.886990 0.034380 0.059220 
#    y 0.034380 1.885870 0.009830 
#    z 0.059220 0.009830 1.900400 
# 
# From -- ./inp_files/566575.got.cif
#   From: 2010.05.17/outbox.cif.g08.bks.cpg/sg2_284_cif.got.tgz:566575.got - 2010.06.03 11:33:40.
