data_PCOD9103822
_publ_section_title
;
Structure prediction by ZEFSAII (Michael W. Deem and Ramdas Pophale) SiO2 
 PCOD9103822
Probable space group: P -1
;
_chemical_formula_sum "Si O2"
_cell_formula_units_Z 14
_cell_length_a 15.510191
_cell_length_b 26.787073
_cell_length_c 5.105426
_cell_angle_alpha 53.038225
_cell_angle_beta 57.967337
_cell_angle_gamma 16.620337
_cell_volume 474.970547
_symmetry_space_group_name_H-M "P -1"
_symmetry_group_IT_number 2
_symmetry_cell_setting 'triclinic'
loop_
_space_group_symop_operation_xyz
x,y,z
-x,-y,-z
loop_
_atom_site_type_symbol
_atom_site_label
_atom_site_fract_x
_atom_site_fract_y
_atom_site_fract_z
Si Si1 0.795600 0.857906 0.205786
Si Si2 0.194298 0.646895 0.736471
Si Si3 0.383486 0.672381 0.247407
Si Si4 0.400678 0.162551 0.210048
Si Si5 0.351342 0.385096 0.617706
Si Si6 0.224959 0.954163 0.756482
Si Si7 0.000000 0.500000 0.000000
Si Si8 0.000000 0.000000 0.500000
O O1 0.676490 0.858598 0.465716
O O2 0.043622 0.731590 0.426234
O O3 0.540546 0.058861 0.034173
O O4 0.962561 0.759870 0.971721
O O5 0.303705 0.654054 0.582697
O O6 0.468204 0.438156 0.909264
O O7 0.604398 0.583132 0.359605
O O8 0.057577 0.901605 0.032946
O O9 0.675569 0.036661 0.329446
O O10 0.131485 0.368442 0.995848
O O11 0.620858 0.225676 0.476332
O O12 0.448546 0.270235 0.023559
O O13 0.025249 0.544825 0.590779
O O14 0.082165 0.013778 0.531750
#
# Coordination Sequence:
#
# PCOD9103822 Si02
#       8
#     2   2   2   2   2   2   1   1
#     4  11  25  50  75 107 151 201 251 302 381 447
#     4  11  25  46  73 107 144 196 252 312 364 446
#     4  10  21  41  67 104 144 185 254 304 373 433
#     4  10  23  45  76 105 153 193 255 300 381 443
#     4  10  22  43  66 100 145 186 243 295 381 440
#     4  10  21  45  64 107 138 195 234 309 368 461
#     4  10  22  46  70 106 144 194 240 316 364 444
#     4  10  20  38  68  96 136 184 236 286 368 442
#
# _framework density 29.475511999999998
#
# number of rings (size 3 to 8) (size 9 to 14) (size 15 to 20)
#    0.000    1.714    1.429    2.571    0.000    9.143 
#   28.286    1.429    0.000    0.000    0.000    0.000 
#    0.000    0.000    0.000    0.000    0.000    0.000 
#
# Total GULP energy -78059.330951 kJ/mol
# GULP energy per Si atom -5575.666496 kJ/mol
# Density = 2.940842 g / cm^3
# Si number density = 29.475512 Si / 1000 Ang^3
#
#
#
# Elastic Constant Matrix: (Units=GPa)
#
#
# Indices 1 2 3 4 5 6 
#
# 1 192.6408 48.7022 24.7213 13.2504 -27.6426 21.2888
# 2 48.7022 196.4765 41.0347 13.6346 -5.7370 38.7289
# 3 24.7213 41.0347 35.8184 7.2901 19.0825 -3.1602
# 4 13.2504 13.6346 7.2901 69.7427 6.0988 -9.1879
# 5 -27.6426 -5.7370 19.0825 6.0988 55.2708 3.1786
# 6 21.2888 38.7289 -3.1602 -9.1879 3.1786 59.3115
#
#
#
# Elastic Compliance Matrix: (Units=1/GPa)
#
#
# Indices 1 2 3 4 5 6 
#
# 1 0.008823 0.002707 -0.014864 -0.002446 0.010479 -0.006667
# 2 0.002707 0.011383 -0.020951 -0.002873 0.010692 -0.010539
# 3 -0.014864 -0.020951 0.085434 0.005091 -0.041194 0.026564
# 4 -0.002446 -0.002873 0.005091 0.016068 -0.005386 0.005803
# 5 0.010479 0.010692 -0.041194 -0.005386 0.040176 -0.015925
# 6 -0.006667 -0.010539 0.026564 0.005803 -0.015925 0.029303
#
#
# Mechanical properties :
#
#
# Convention : Reuss Voigt Hill
#
# Bulk Modulus (GPa) = 25.36483 72.65021 49.00752
# Shear Modulus (GPa) = 18.48132 57.56349 38.02240
#
# Velocity S-wave (km/s) = 2.50673 4.42399 3.59551
# Velocity P-wave (km/s) = 4.12338 7.12718 5.82233
#
# Compressibility (1/GPa) = 0.03942467
#
# Stress axis : x y z
#
# Youngs Moduli (GPa) = 113.34439 87.84785 11.70498
#
# Poissons Ratio (x) = -0.23783 0.17398
# Poissons Ratio (y) = -0.30686 0.24523
# Poissons Ratio (z) = 1.68472 1.84051
#
# Static dielectric constant tensor:
#      x y z
#    x 6.129180 -3.247840 -1.111710 
#    y -3.247840 5.051010 0.936970 
#    z -1.111710 0.936970 2.201850 
# 
# From -- ./inp_files/100859.got.cif
#   From: 2010.05.17/outbox.cif.g08.bks.cpg/sg2_51_cif.got.tgz:100859.got - 2010.06.03 11:33:40.
