data_PCOD9103492
_publ_section_title
;
Structure prediction by ZEFSAII (Michael W. Deem and Ramdas Pophale) SiO2 
 PCOD9103492
Probable space group: P -1
;
_chemical_formula_sum "Si O2"
_cell_formula_units_Z 14
_cell_length_a 5.246104
_cell_length_b 15.183633
_cell_length_c 9.369375
_cell_angle_alpha 67.844602
_cell_angle_beta 54.736491
_cell_angle_gamma 71.791789
_cell_volume 559.931321
_symmetry_space_group_name_H-M "P -1"
_symmetry_group_IT_number 2
_symmetry_cell_setting 'triclinic'
loop_
_space_group_symop_operation_xyz
x,y,z
-x,-y,-z
loop_
_atom_site_type_symbol
_atom_site_label
_atom_site_fract_x
_atom_site_fract_y
_atom_site_fract_z
Si Si1 0.050705 0.698968 0.666413
Si Si2 0.832587 0.413974 0.040964
Si Si3 0.102053 0.482322 0.313757
Si Si4 0.417420 0.133511 0.305829
Si Si5 0.497557 0.114619 0.956324
Si Si6 0.874987 0.903191 0.155506
Si Si7 0.757300 0.105743 0.487227
O O1 0.026858 0.676696 0.856399
O O2 0.284493 0.779197 0.532094
O O3 0.107042 0.597831 0.630325
O O4 0.727165 0.757850 0.678258
O O5 0.464107 0.436857 0.189840
O O6 0.908951 0.423253 0.842550
O O7 0.000000 0.500000 0.000000
O O8 0.000000 0.500000 0.500000
O O9 0.704665 0.100684 0.336799
O O10 0.108420 0.077099 0.453023
O O11 0.462233 0.135626 0.121179
O O12 0.224408 0.156507 0.911601
O O13 0.849413 0.141306 0.801106
O O14 0.500000 0.000000 0.000000
O O15 0.547264 0.929976 0.324775
O O16 0.000000 0.000000 0.000000
#
# Coordination Sequence:
#
# PCOD9103492 Si02
#       7
#     2   2   2   2   2   2   2
#     4   9  21  37  63  83 130 165 217 254 324 377
#     4   9  19  38  61  90 128 165 206 265 313 389
#     4  10  20  38  66  94 128 163 218 262 319 379
#     4  10  21  39  64  87 124 168 214 258 315 389
#     4  10  21  40  62  90 126 159 206 272 319 374
#     4  10  21  40  61  90 129 158 208 274 319 377
#     4  10  21  39  64  86 124 168 215 256 321 382
#
# _framework density 25.003063999999998
#
# number of rings (size 3 to 8) (size 9 to 14) (size 15 to 20)
#    0.857    1.429    0.000    2.571    0.000    2.286 
#    0.000   25.714    0.000    0.000    0.000    0.000 
#    0.000    0.000    0.000    0.000    0.000    0.000 
#
# Total GULP energy -78016.912380 kJ/mol
# GULP energy per Si atom -5572.636599 kJ/mol
# Density = 2.494616 g / cm^3
# Si number density = 25.003064 Si / 1000 Ang^3
#
#
#
# Elastic Constant Matrix: (Units=GPa)
#
#
# Indices 1 2 3 4 5 6 
#
# 1 170.3138 14.5862 38.6060 -4.0338 10.7285 21.4488
# 2 14.5862 47.5171 16.2173 3.3333 -0.7025 17.6476
# 3 38.6060 16.2173 153.6213 12.0167 12.5345 19.2057
# 4 -4.0338 3.3333 12.0167 23.8044 14.1655 9.6717
# 5 10.7285 -0.7025 12.5345 14.1655 44.2969 -5.8219
# 6 21.4488 17.6476 19.2057 9.6717 -5.8219 38.5279
#
#
#
# Elastic Compliance Matrix: (Units=1/GPa)
#
#
# Indices 1 2 3 4 5 6 
#
# 1 0.007338 -0.000237 -0.001285 0.006837 -0.004354 -0.005710
# 2 -0.000237 0.025785 -0.001245 0.002865 -0.001678 -0.012031
# 3 -0.001285 -0.001245 0.007515 -0.002103 -0.001445 -0.002151
# 4 0.006837 0.002865 -0.002103 0.070301 -0.026885 -0.025780
# 5 -0.004354 -0.001678 -0.001445 -0.026885 0.034700 0.015906
# 6 -0.005710 -0.012031 -0.002151 -0.025780 0.015906 0.044592
#
#
# Mechanical properties :
#
#
# Convention : Reuss Voigt Hill
#
# Bulk Modulus (GPa) = 28.48684 56.69680 42.59182
# Shear Modulus (GPa) = 24.10006 41.46202 32.78104
#
# Velocity S-wave (km/s) = 3.10802 4.07661 3.62481
# Velocity P-wave (km/s) = 4.92928 6.69952 5.88138
#
# Compressibility (1/GPa) = 0.03510392
#
# Stress axis : x y z
#
# Youngs Moduli (GPa) = 136.26917 38.78169 133.06349
#
# Poissons Ratio (x) = 0.00920 0.17095
# Poissons Ratio (y) = 0.03234 0.16573
# Poissons Ratio (z) = 0.17507 0.04830
#
# Static dielectric constant tensor:
#      x y z
#    x 2.176290 -0.098810 -0.002630 
#    y -0.098810 2.136360 0.033450 
#    z -0.002630 0.033450 2.098160 
# 
# From -- ./inp_files/139017.got.cif
#   From: 2010.05.17/outbox.cif.g08.bks.cpg/sg2_70_cif.got.tgz:139017.got - 2010.06.03 11:33:40.
