data_PCOD9103747
_publ_section_title
;
Structure prediction by ZEFSAII (Michael W. Deem and Ramdas Pophale) SiO2 
 PCOD9103747
Probable space group: P -1
;
_chemical_formula_sum "Si O2"
_cell_formula_units_Z 16
_cell_length_a 11.391729
_cell_length_b 8.654666
_cell_length_c 9.441510
_cell_angle_alpha 118.114455
_cell_angle_beta 95.766260
_cell_angle_gamma 62.482502
_cell_volume 719.911993
_symmetry_space_group_name_H-M "P -1"
_symmetry_group_IT_number 2
_symmetry_cell_setting 'triclinic'
loop_
_space_group_symop_operation_xyz
x,y,z
-x,-y,-z
loop_
_atom_site_type_symbol
_atom_site_label
_atom_site_fract_x
_atom_site_fract_y
_atom_site_fract_z
Si Si1 0.500277 0.236466 0.764085
Si Si2 0.172391 0.239936 0.508577
Si Si3 0.310397 0.492842 0.323765
Si Si4 0.004718 0.134649 0.931244
Si Si5 0.693480 0.383910 0.936652
Si Si6 0.080910 0.359114 0.254377
Si Si7 0.137737 0.944902 0.575524
Si Si8 0.542082 0.812301 0.569879
O O1 0.623810 0.241333 0.863389
O O2 0.525279 0.221499 0.591779
O O3 0.484356 0.040985 0.710444
O O4 0.373795 0.444416 0.880217
O O5 0.118327 0.218018 0.337443
O O6 0.310332 0.240938 0.495343
O O7 0.058540 0.448794 0.643059
O O8 0.190981 0.074943 0.552862
O O9 0.345791 0.507914 0.173235
O O10 0.197013 0.421063 0.280529
O O11 0.237895 0.712547 0.476013
O O12 0.433856 0.337004 0.364121
O O13 0.852621 0.266582 0.917168
O O14 0.097564 0.013078 0.760409
O O15 0.062635 0.266919 0.068983
O O16 0.000000 0.000000 0.000000
O O17 0.000000 0.000000 0.500000
#
# Coordination Sequence:
#
# PCOD9103747 Si02
#       8
#     2   2   2   2   2   2   2   2
#     4  10  24  44  68  87 122 173 219 264 314 366
#     4  10  20  38  68  87 137 162 209 259 318 377
#     4  11  24  40  67  94 132 164 211 265 317 384
#     4  12  27  38  66  98 134 167 210 256 321 388
#     4  11  24  44  64  92 130 167 211 269 314 369
#     4  10  22  38  61  98 126 172 203 254 317 389
#     4  12  22  40  60  99 132 172 202 255 330 386
#     4  10  23  42  67  94 117 171 219 260 316 371
#
# _framework density 22.224941000000001
#
# number of rings (size 3 to 8) (size 9 to 14) (size 15 to 20)
#    0.000    1.250    2.500    2.250    8.750    4.000 
#    0.000    0.000    0.000    0.000    0.000    0.000 
#    0.000    0.000    0.000    0.000    0.000    0.000 
#
# Total GULP energy -89545.015759 kJ/mol
# GULP energy per Si atom -5596.563485 kJ/mol
# Density = 2.217436 g / cm^3
# Si number density = 22.224941 Si / 1000 Ang^3
#
#
#
# Elastic Constant Matrix: (Units=GPa)
#
#
# Indices 1 2 3 4 5 6 
#
# 1 52.5732 2.4907 23.9423 6.1745 0.9916 2.3313
# 2 2.4907 123.3185 50.9105 -4.7289 5.7311 8.5048
# 3 23.9423 50.9105 150.9543 7.3739 13.1467 7.2638
# 4 6.1745 -4.7289 7.3739 34.6297 6.1252 -6.1327
# 5 0.9916 5.7311 13.1467 6.1252 20.0684 -4.5887
# 6 2.3313 8.5048 7.2638 -6.1327 -4.5887 27.1055
#
#
#
# Elastic Compliance Matrix: (Units=1/GPa)
#
#
# Indices 1 2 3 4 5 6 
#
# 1 0.021043 0.000945 -0.003556 -0.003458 0.001698 -0.001648
# 2 0.000945 0.009735 -0.003267 0.001780 -0.001722 -0.002149
# 3 -0.003556 -0.003267 0.008873 -0.001228 -0.004819 -0.002141
# 4 -0.003458 0.001780 -0.001228 0.032497 -0.008067 0.006055
# 5 0.001698 -0.001722 -0.004819 -0.008067 0.058072 0.009691
# 6 -0.001648 -0.002149 -0.002141 0.006055 0.009691 0.041293
#
#
# Mechanical properties :
#
#
# Convention : Reuss Voigt Hill
#
# Bulk Modulus (GPa) = 35.84766 53.50366 44.67566
# Shear Modulus (GPa) = 25.96495 32.99421 29.47958
#
# Velocity S-wave (km/s) = 3.42172 3.85718 3.64595
# Velocity P-wave (km/s) = 5.63696 6.63046 6.15380
#
# Compressibility (1/GPa) = 0.02789582
#
# Stress axis : x y z
#
# Youngs Moduli (GPa) = 47.52183 102.72060 112.70247
#
# Poissons Ratio (x) = -0.09709 0.40077
# Poissons Ratio (y) = -0.04492 0.36818
# Poissons Ratio (z) = 0.16899 0.33557
#
# Static dielectric constant tensor:
#      x y z
#    x 1.834560 0.014320 0.044570 
#    y 0.014320 1.842030 -0.003880 
#    z 0.044570 -0.003880 1.791610 
# 
# From -- ./inp_files/215982.got.cif
#   From: 2010.05.17/outbox.cif.g08.bks.cpg/sg2_108_cif.got.tgz:215982.got - 2010.06.03 11:33:40.
