data_PCOD9103226
_publ_section_title
;
Structure prediction by ZEFSAII (Michael W. Deem and Ramdas Pophale) SiO2 
 PCOD9103226
Probable space group: P -1
;
_chemical_formula_sum "Si O2"
_cell_formula_units_Z 14
_cell_length_a 9.414547
_cell_length_b 16.572305
_cell_length_c 11.024877
_cell_angle_alpha 33.363907
_cell_angle_beta 126.233186
_cell_angle_gamma 139.747327
_cell_volume 606.033933
_symmetry_space_group_name_H-M "P -1"
_symmetry_group_IT_number 2
_symmetry_cell_setting 'triclinic'
loop_
_space_group_symop_operation_xyz
x,y,z
-x,-y,-z
loop_
_atom_site_type_symbol
_atom_site_label
_atom_site_fract_x
_atom_site_fract_y
_atom_site_fract_z
Si Si1 0.320875 0.093118 0.532472
Si Si2 0.231143 0.961216 0.375056
Si Si3 0.499834 0.657385 0.240207
Si Si4 0.866711 0.716389 0.877211
Si Si5 0.126292 0.204244 0.942459
Si Si6 0.663147 0.040522 0.824104
Si Si7 0.010081 0.536231 0.819550
O O1 0.297065 0.257959 0.312505
O O2 0.529330 0.123223 0.665665
O O3 0.310699 0.050271 0.436139
O O4 0.106269 0.906145 0.720165
O O5 0.395391 0.034303 0.251357
O O6 0.131849 0.750388 0.593091
O O7 0.062313 0.001217 0.193372
O O8 0.500000 0.500000 0.500000
O O9 0.653890 0.698024 0.149737
O O10 0.243298 0.571233 0.209701
O O11 0.595064 0.859260 0.089789
O O12 0.831215 0.713053 0.006716
O O13 0.867932 0.544505 0.069618
O O14 0.925126 0.185324 0.798659
O O15 0.000000 0.500000 0.000000
#
# Coordination Sequence:
#
# PCOD9103226 Si02
#       7
#     2   2   2   2   2   2   2
#     4  10  20  39  65  91 125 162 205 254 304 365
#     4  10  20  38  65  93 124 159 208 254 301 369
#     4  11  22  41  63  94 124 162 206 258 306 365
#     4  10  22  41  61  92 129 159 204 257 311 358
#     4  10  23  41  65  90 128 163 206 252 309 370
#     4  11  20  39  65  95 117 169 209 250 302 375
#     4  12  22  40  65  94 123 163 207 255 307 364
#
# _framework density 23.101015
#
# number of rings (size 3 to 8) (size 9 to 14) (size 15 to 20)
#    0.000    1.429    2.857    3.857    0.000    2.857 
#    0.000    5.714    0.000    0.000    0.000    0.000 
#    0.000    0.000    0.000    0.000    0.000    0.000 
#
# Total GULP energy -78067.735338 kJ/mol
# GULP energy per Si atom -5576.266810 kJ/mol
# Density = 2.304844 g / cm^3
# Si number density = 23.101015 Si / 1000 Ang^3
#
#
#
# Elastic Constant Matrix: (Units=GPa)
#
#
# Indices 1 2 3 4 5 6 
#
# 1 93.5838 17.3765 66.7019 9.8086 38.0169 -2.0593
# 2 17.3765 18.4973 30.4672 5.1776 24.6664 11.2514
# 3 66.7019 30.4672 158.0541 4.9856 32.0989 5.2456
# 4 9.8086 5.1776 4.9856 28.7898 4.4220 14.5399
# 5 38.0169 24.6664 32.0989 4.4220 50.7989 15.8485
# 6 -2.0593 11.2514 5.2456 14.5399 15.8485 25.1357
#
#
#
# Elastic Compliance Matrix: (Units=1/GPa)
#
#
# Indices 1 2 3 4 5 6 
#
# 1 0.031684 0.025114 -0.011139 -0.022810 -0.036135 0.029657
# 2 0.025114 0.264729 -0.036945 -0.019366 -0.114381 -0.025410
# 3 -0.011139 -0.036945 0.014540 0.006190 0.017103 -0.001773
# 4 -0.022810 -0.019366 0.006190 0.067393 0.033787 -0.054779
# 5 -0.036135 -0.114381 0.017103 0.033787 0.100439 -0.038203
# 6 0.029657 -0.025410 -0.001773 -0.054779 -0.038203 0.109733
#
#
# Mechanical properties :
#
#
# Convention : Reuss Voigt Hill
#
# Bulk Modulus (GPa) = 3.77339 55.46960 29.62150
# Shear Modulus (GPa) = 6.91759 31.31749 19.11754
#
# Velocity S-wave (km/s) = 1.73234 3.68595 2.87986
# Velocity P-wave (km/s) = 2.37451 6.49452 4.88964
#
# Compressibility (1/GPa) = 0.26501369
#
# Stress axis : x y z
#
# Youngs Moduli (GPa) = 31.56157 3.77744 68.77723
#
# Poissons Ratio (x) = -0.09487 0.76608
# Poissons Ratio (y) = -0.79265 2.54101
# Poissons Ratio (z) = 0.35155 0.13956
#
# Static dielectric constant tensor:
#      x y z
#    x 1.902280 0.021440 -0.083580 
#    y 0.021440 1.872800 0.019260 
#    z -0.083580 0.019260 1.741800 
# 
# From -- ./inp_files/184541.got.cif
#   From: 2010.05.17/outbox.cif.g08.bks.cpg/sg2_93_cif.got.tgz:184541.got - 2010.06.03 11:33:40.
