data_PCOD9103930
_publ_section_title
;
Structure prediction by ZEFSAII (Michael W. Deem and Ramdas Pophale) SiO2 
 PCOD9103930
Probable space group: P -1
;
_chemical_formula_sum "Si O2"
_cell_formula_units_Z 16
_cell_length_a 10.234726
_cell_length_b 14.308296
_cell_length_c 19.043030
_cell_angle_alpha 21.179668
_cell_angle_beta 107.561669
_cell_angle_gamma 119.188332
_cell_volume 769.175868
_symmetry_space_group_name_H-M "P -1"
_symmetry_group_IT_number 2
_symmetry_cell_setting 'triclinic'
loop_
_space_group_symop_operation_xyz
x,y,z
-x,-y,-z
loop_
_atom_site_type_symbol
_atom_site_label
_atom_site_fract_x
_atom_site_fract_y
_atom_site_fract_z
Si Si1 0.457587 0.453435 0.313443
Si Si2 0.154512 0.228471 0.812365
Si Si3 0.541112 0.220154 0.048217
Si Si4 0.036271 0.930863 0.857783
Si Si5 0.783232 0.123003 0.676643
Si Si6 0.360944 0.255269 0.591343
Si Si7 0.722201 0.227690 0.317069
Si Si8 0.612432 0.817088 0.717455
O O1 0.658464 0.606520 0.240004
O O2 0.397997 0.425135 0.403261
O O3 0.353472 0.092216 0.517279
O O4 0.433465 0.665196 0.108317
O O5 0.147822 0.517569 0.583471
O O6 0.132906 0.028378 0.879757
O O7 0.000000 0.000000 0.000000
O O8 0.340421 0.993438 0.194800
O O9 0.614522 0.025327 0.215456
O O10 0.623649 0.540120 0.884457
O O11 0.174087 0.098249 0.701412
O O12 0.925528 0.067227 0.746594
O O13 0.901931 0.545006 0.099800
O O14 0.666851 0.908045 0.742147
O O15 0.500000 0.500000 0.500000
O O16 0.580013 0.293649 0.246431
O O17 0.727011 0.126830 0.468174
#
# Coordination Sequence:
#
# PCOD9103930 Si02
#       8
#     2   2   2   2   2   2   2   2
#     4  11  24  46  71  97 136 186 223 278 348 406
#     4  12  24  42  68 102 139 173 224 291 339 396
#     4  11  23  42  74  99 131 182 232 274 341 409
#     4  12  26  41  67 103 137 176 232 281 333 406
#     4  12  22  41  69 104 134 175 230 286 337 400
#     4  12  26  50  65  94 144 185 227 278 341 412
#     4  10  21  41  67 103 135 174 227 282 343 399
#     4  10  20  38  70 102 138 172 221 283 348 399
#
# _framework density 20.801486000000001
#
# number of rings (size 3 to 8) (size 9 to 14) (size 15 to 20)
#    0.000    0.750    5.000    2.250    3.500    2.000 
#    4.500    1.250    0.000    0.000    0.000    0.000 
#    0.000    0.000    0.000    0.000    0.000    0.000 
#
# Total GULP energy -89548.532562 kJ/mol
# GULP energy per Si atom -5596.783285 kJ/mol
# Density = 2.075414 g / cm^3
# Si number density = 20.801486 Si / 1000 Ang^3
#
#
#
# Elastic Constant Matrix: (Units=GPa)
#
#
# Indices 1 2 3 4 5 6 
#
# 1 50.3710 -0.8543 6.7528 6.1082 -21.0248 -8.2290
# 2 -0.8543 89.3679 29.9798 13.4551 -14.7246 -17.4684
# 3 6.7528 29.9798 97.4322 5.1964 -26.7914 -5.0382
# 4 6.1082 13.4551 5.1964 33.7226 -5.5669 -10.2264
# 5 -21.0248 -14.7246 -26.7914 -5.5669 39.5138 8.3250
# 6 -8.2290 -17.4684 -5.0382 -10.2264 8.3250 30.4457
#
#
#
# Elastic Compliance Matrix: (Units=1/GPa)
#
#
# Indices 1 2 3 4 5 6 
#
# 1 0.027287 0.003557 0.001699 -0.002667 0.015669 0.004517
# 2 0.003557 0.014727 -0.003370 -0.003402 0.003175 0.006843
# 3 0.001699 -0.003370 0.013641 -0.000074 0.009261 -0.001774
# 4 -0.002667 -0.003402 -0.000074 0.034194 0.000240 0.008735
# 5 0.015669 0.003175 0.009261 0.000240 0.041941 -0.003799
# 6 0.004517 0.006843 -0.001774 0.008735 -0.003799 0.041671
#
#
# Mechanical properties :
#
#
# Convention : Reuss Voigt Hill
#
# Bulk Modulus (GPa) = 16.82730 34.32532 25.57631
# Shear Modulus (GPa) = 26.38546 34.15593 30.27069
#
# Velocity S-wave (km/s) = 3.56538 4.05655 3.81887
# Velocity P-wave (km/s) = 5.00563 6.20306 5.63623
#
# Compressibility (1/GPa) = 0.05942724
#
# Stress axis : x y z
#
# Youngs Moduli (GPa) = 36.64775 67.90271 73.30651
#
# Poissons Ratio (x) = -0.24154 -0.12452
# Poissons Ratio (y) = -0.13036 0.24702
# Poissons Ratio (z) = -0.06225 0.22881
#
# Static dielectric constant tensor:
#      x y z
#    x 1.704940 -0.007390 -0.005110 
#    y -0.007390 1.766700 -0.018250 
#    z -0.005110 -0.018250 1.764120 
# 
# From -- ./inp_files/271572.got.cif
#   From: 2010.05.17/outbox.cif.g08.bks.cpg/sg2_136_cif.got.tgz:271572.got - 2010.06.03 11:33:40.
