data_PCOD9103793
_publ_section_title
;
Structure prediction by ZEFSAII (Michael W. Deem and Ramdas Pophale) SiO2 
 PCOD9103793
Probable space group: P -1
;
_chemical_formula_sum "Si O2"
_cell_formula_units_Z 14
_cell_length_a 8.424182
_cell_length_b 14.403112
_cell_length_c 6.967540
_cell_angle_alpha 120.809807
_cell_angle_beta 124.026513
_cell_angle_gamma 56.981883
_cell_volume 560.753952
_symmetry_space_group_name_H-M "P -1"
_symmetry_group_IT_number 2
_symmetry_cell_setting 'triclinic'
loop_
_space_group_symop_operation_xyz
x,y,z
-x,-y,-z
loop_
_atom_site_type_symbol
_atom_site_label
_atom_site_fract_x
_atom_site_fract_y
_atom_site_fract_z
Si Si1 0.310096 0.312317 0.103749
Si Si2 0.071006 0.524611 0.369084
Si Si3 0.769913 0.786810 0.393645
Si Si4 0.785662 0.002201 0.113688
Si Si5 0.495052 0.865042 0.639191
Si Si6 0.889072 0.164323 0.082316
Si Si7 0.411358 0.584917 0.849318
O O1 0.103171 0.414489 0.140613
O O2 0.432905 0.254196 0.316978
O O3 0.428950 0.372503 0.111724
O O4 0.279755 0.205389 0.855959
O O5 0.293940 0.532929 0.562290
O O6 0.000000 0.500000 0.500000
O O7 0.903807 0.649060 0.340915
O O8 0.563895 0.829437 0.429224
O O9 0.925201 0.839197 0.650999
O O10 0.724862 0.054949 0.339892
O O11 0.758117 0.109141 0.063446
O O12 0.637878 0.936193 0.874927
O O13 0.010472 0.912720 0.114903
O O14 0.765101 0.295243 0.076216
O O15 0.500000 0.500000 0.000000
#
# Coordination Sequence:
#
# PCOD9103793 Si02
#       7
#     2   2   2   2   2   2   2
#     4  12  23  41  64  96 133 171 210 265 325 380
#     4  11  22  42  64  90 133 173 210 262 324 383
#     4  10  22  39  63  96 129 173 212 261 318 389
#     4   9  18  39  68  91 124 176 210 268 319 370
#     4  10  20  38  68  94 126 167 219 262 322 374
#     4   9  19  40  68  92 133 167 213 267 322 369
#     4  11  24  40  66 100 129 169 215 262 320 392
#
# _framework density 24.966386
#
# number of rings (size 3 to 8) (size 9 to 14) (size 15 to 20)
#    0.000    1.714    2.857    1.714    0.000    0.000 
#    0.000    8.571    0.000    0.000    0.000    0.000 
#    0.000    0.000    0.000    0.000    0.000    0.000 
#
# Total GULP energy -78244.329993 kJ/mol
# GULP energy per Si atom -5588.880714 kJ/mol
# Density = 2.490956 g / cm^3
# Si number density = 24.966386 Si / 1000 Ang^3
#
#
#
# Elastic Constant Matrix: (Units=GPa)
#
#
# Indices 1 2 3 4 5 6 
#
# 1 103.9295 26.7912 43.3278 11.6681 -16.7400 0.1234
# 2 26.7912 115.8497 31.3754 20.2656 -18.8624 -3.3273
# 3 43.3278 31.3754 124.4070 23.2609 -19.7711 -12.7836
# 4 11.6681 20.2656 23.2609 31.1085 -15.1397 -14.6842
# 5 -16.7400 -18.8624 -19.7711 -15.1397 40.2146 18.3590
# 6 0.1234 -3.3273 -12.7836 -14.6842 18.3590 41.2312
#
#
#
# Elastic Compliance Matrix: (Units=1/GPa)
#
#
# Indices 1 2 3 4 5 6 
#
# 1 0.012105 -0.001167 -0.003478 -0.000783 0.003974 -0.003257
# 2 -0.001167 0.010575 -0.001020 -0.005465 0.003210 -0.002835
# 3 -0.003478 -0.001020 0.010717 -0.005101 0.000963 0.001005
# 4 -0.000783 -0.005465 -0.005101 0.049239 0.007602 0.012131
# 5 0.003974 0.003210 0.000963 0.007602 0.037499 -0.013444
# 6 -0.003257 -0.002835 0.001005 0.012131 -0.013444 0.034653
#
#
# Mechanical properties :
#
#
# Convention : Reuss Voigt Hill
#
# Bulk Modulus (GPa) = 45.31833 60.79721 53.05777
# Shear Modulus (GPa) = 28.82281 38.69032 33.75656
#
# Velocity S-wave (km/s) = 3.40143 3.94089 3.68105
# Velocity P-wave (km/s) = 5.79805 6.71654 6.27413
#
# Compressibility (1/GPa) = 0.02206613
#
# Stress axis : x y z
#
# Youngs Moduli (GPa) = 82.61358 94.56140 93.31053
#
# Poissons Ratio (x) = 0.11035 0.32456
# Poissons Ratio (y) = 0.09640 0.09518
# Poissons Ratio (z) = 0.28735 0.09646
#
# Static dielectric constant tensor:
#      x y z
#    x 2.052680 -0.086600 0.106060 
#    y -0.086600 2.039050 -0.075980 
#    z 0.106060 -0.075980 2.138950 
# 
# From -- ./inp_files/40036.got.cif
#   From: 2010.05.17/outbox.cif.g08.bks.cpg/sg2_21_cif.got.tgz:40036.got - 2010.06.03 11:33:40.
