data_PCOD9103493
_publ_section_title
;
Structure prediction by ZEFSAII (Michael W. Deem and Ramdas Pophale) SiO2 
 PCOD9103493
Probable space group: P -1
;
_chemical_formula_sum "Si O2"
_cell_formula_units_Z 15
_cell_length_a 11.291984
_cell_length_b 17.683567
_cell_length_c 9.678989
_cell_angle_alpha 44.552825
_cell_angle_beta 81.894929
_cell_angle_gamma 44.956894
_cell_volume 651.867918
_symmetry_space_group_name_H-M "P -1"
_symmetry_group_IT_number 2
_symmetry_cell_setting 'triclinic'
loop_
_space_group_symop_operation_xyz
x,y,z
-x,-y,-z
loop_
_atom_site_type_symbol
_atom_site_label
_atom_site_fract_x
_atom_site_fract_y
_atom_site_fract_z
Si Si1 0.419666 0.138315 0.667476
Si Si2 0.117141 0.002762 0.886738
Si Si3 0.040401 0.635930 0.590984
Si Si4 0.345637 0.342957 0.665396
Si Si5 0.047853 0.228232 0.011141
Si Si6 0.231911 0.483847 0.062862
Si Si7 0.500000 0.500000 0.000000
Si Si8 0.879574 0.137744 0.199176
O O1 0.243028 0.178043 0.613571
O O2 0.368854 0.221206 0.722115
O O3 0.709738 0.902518 0.906684
O O4 0.340170 0.295350 0.368485
O O5 0.386134 0.820507 0.136321
O O6 0.140341 0.939680 0.808826
O O7 0.956525 0.238559 0.603708
O O8 0.000000 0.000000 0.000000
O O9 0.198328 0.447997 0.695685
O O10 0.143746 0.530660 0.862205
O O11 0.180796 0.553175 0.327020
O O12 0.993848 0.297866 0.088645
O O13 0.055848 0.093102 0.170601
O O14 0.418270 0.437304 0.088385
O O15 0.627064 0.388997 0.966802
O O16 0.000000 0.000000 0.500000
#
# Coordination Sequence:
#
# PCOD9103493 Si02
#       8
#     2   2   2   2   2   2   1   2
#     4  11  24  45  68  94 132 177 223 273 332 394
#     4  12  27  44  67 100 136 173 219 274 332 396
#     4  12  26  43  67  99 134 173 222 278 331 392
#     4  11  25  44  67  94 130 177 224 271 327 394
#     4  10  23  43  66  93 130 176 220 269 330 395
#     4  10  23  41  68 101 130 169 218 276 338 395
#     4  10  20  38  66  94 128 164 206 260 322 386
#     4  11  22  40  67  97 129 168 214 268 331 393
#
# _framework density 23.010798000000001
#
# number of rings (size 3 to 8) (size 9 to 14) (size 15 to 20)
#    0.000    1.067    0.000    6.400    0.000   13.333 
#    0.000    0.000    0.000    0.000    0.000    0.000 
#    0.000    0.000    0.000    0.000    0.000    0.000 
#
# Total GULP energy -83761.017909 kJ/mol
# GULP energy per Si atom -5584.067861 kJ/mol
# Density = 2.295842 g / cm^3
# Si number density = 23.010798 Si / 1000 Ang^3
#
#
#
# Elastic Constant Matrix: (Units=GPa)
#
#
# Indices 1 2 3 4 5 6 
#
# 1 112.0914 34.0280 35.3120 16.5515 -6.3016 -14.2257
# 2 34.0280 127.7362 31.2519 22.5423 7.8285 8.2499
# 3 35.3120 31.2519 89.1399 21.4941 6.9800 -0.4837
# 4 16.5515 22.5423 21.4941 34.6420 -0.8099 9.7690
# 5 -6.3016 7.8285 6.9800 -0.8099 22.6308 7.3776
# 6 -14.2257 8.2499 -0.4837 9.7690 7.3776 39.0511
#
#
#
# Elastic Compliance Matrix: (Units=1/GPa)
#
#
# Indices 1 2 3 4 5 6 
#
# 1 0.012028 -0.002299 -0.003348 -0.003522 0.003400 0.005065
# 2 -0.002299 0.009777 -0.001238 -0.004232 -0.003395 -0.001218
# 3 -0.003348 -0.001238 0.015415 -0.007993 -0.006337 0.002429
# 4 -0.003522 -0.004232 -0.007993 0.042021 0.008566 -0.012618
# 5 0.003400 -0.003395 -0.006337 0.008566 0.051849 -0.010061
# 6 0.005065 -0.001218 0.002429 -0.012618 -0.010061 0.032797
#
#
# Mechanical properties :
#
#
# Convention : Reuss Voigt Hill
#
# Bulk Modulus (GPa) = 42.64183 58.90571 50.77377
# Shear Modulus (GPa) = 26.95784 34.48983 30.72384
#
# Velocity S-wave (km/s) = 3.42648 3.87570 3.65799
# Velocity P-wave (km/s) = 5.85028 6.75891 6.32094
#
# Compressibility (1/GPa) = 0.02345115
#
# Stress axis : x y z
#
# Youngs Moduli (GPa) = 83.13976 102.27678 64.87083
#
# Poissons Ratio (x) = 0.23512 0.21721
# Poissons Ratio (y) = 0.19113 0.08028
# Poissons Ratio (z) = 0.27838 0.12657
#
# Static dielectric constant tensor:
#      x y z
#    x 1.831240 0.004360 -0.022400 
#    y 0.004360 1.880400 -0.059870 
#    z -0.022400 -0.059870 1.913520 
# 
# From -- ./inp_files/279010.got.cif
#   From: 2010.05.17/outbox.cif.g08.bks.cpg/sg2_140_cif.got.tgz:279010.got - 2010.06.03 11:33:40.
