data_PCOD9103097
_publ_section_title
;
Structure prediction by ZEFSAII (Michael W. Deem and Ramdas Pophale) SiO2 
 PCOD9103097
Probable space group: P -1
;
_chemical_formula_sum "Si O2"
_cell_formula_units_Z 13
_cell_length_a 10.800180
_cell_length_b 8.745678
_cell_length_c 8.241105
_cell_angle_alpha 129.544892
_cell_angle_beta 72.946617
_cell_angle_gamma 79.093683
_cell_volume 493.651081
_symmetry_space_group_name_H-M "P -1"
_symmetry_group_IT_number 2
_symmetry_cell_setting 'triclinic'
loop_
_space_group_symop_operation_xyz
x,y,z
-x,-y,-z
loop_
_atom_site_type_symbol
_atom_site_label
_atom_site_fract_x
_atom_site_fract_y
_atom_site_fract_z
Si Si1 0.185122 0.512503 0.789135
Si Si2 0.337187 0.031342 0.904459
Si Si3 0.391299 0.022381 0.409149
Si Si4 0.855921 0.469828 0.562140
Si Si5 0.566563 0.384733 0.223220
Si Si6 0.500000 0.500000 0.000000
Si Si7 0.083270 0.004253 0.802501
O O1 0.202770 0.518446 0.591228
O O2 0.318340 0.538341 0.835471
O O3 0.229877 0.253135 0.636958
O O4 0.029247 0.738756 0.047101
O O5 0.510753 0.945190 0.746391
O O6 0.241278 0.981566 0.776117
O O7 0.339917 0.886578 0.961716
O O8 0.251288 0.303440 0.142225
O O9 0.500000 0.000000 0.500000
O O10 0.397601 0.783620 0.231977
O O11 0.000000 0.500000 0.500000
O O12 0.899550 0.219755 0.445458
O O13 0.500000 0.500000 0.500000
O O14 0.445822 0.481855 0.194647
O O15 0.000000 0.000000 0.000000
#
# Coordination Sequence:
#
# PCOD9103097 Si02
#       7
#     2   2   2   2   2   1   2
#     4  11  21  41  69  97 144 185 228 301 358 419
#     4  12  23  41  73 108 136 188 243 291 369 432
#     4  12  27  47  69 102 147 190 244 307 360 426
#     4  11  20  36  66 105 139 172 235 295 351 433
#     4  12  23  43  73 108 143 190 242 299 364 433
#     4  12  28  46  68 104 150 192 236 300 366 428
#     4  10  20  38  65 104 141 179 234 304 350 435
#
# _framework density 26.334389000000002
#
# number of rings (size 3 to 8) (size 9 to 14) (size 15 to 20)
#    0.000    0.615    9.231    0.923    2.154    2.462 
#    0.000    0.769    0.000    1.846    0.000    0.000 
#    0.000    0.000    0.000    0.000    0.000    0.000 
#
# Total GULP energy -72487.060620 kJ/mol
# GULP energy per Si atom -5575.927740 kJ/mol
# Density = 2.627445 g / cm^3
# Si number density = 26.334389 Si / 1000 Ang^3
#
#
#
# Elastic Constant Matrix: (Units=GPa)
#
#
# Indices 1 2 3 4 5 6 
#
# 1 104.8388 6.2987 41.9773 35.6795 -4.6884 24.3122
# 2 6.2987 126.7916 73.4072 59.3979 -0.0747 3.1296
# 3 41.9773 73.4072 169.2480 72.1287 10.9292 7.5432
# 4 35.6795 59.3979 72.1287 78.9926 5.2194 -0.5133
# 5 -4.6884 -0.0747 10.9292 5.2194 40.0079 9.4050
# 6 24.3122 3.1296 7.5432 -0.5133 9.4050 23.0817
#
#
#
# Elastic Compliance Matrix: (Units=1/GPa)
#
#
# Indices 1 2 3 4 5 6 
#
# 1 0.022319 0.007866 -0.001942 -0.015205 0.012001 -0.029169
# 2 0.007866 0.015692 -0.003052 -0.013068 0.006383 -0.012307
# 3 -0.001942 -0.003052 0.010566 -0.006329 -0.002242 -0.000220
# 4 -0.015205 -0.013068 -0.006329 0.035998 -0.010649 0.024995
# 5 0.012001 0.006383 -0.002242 -0.010649 0.034808 -0.027194
# 6 -0.029169 -0.012307 -0.000220 0.024995 -0.027194 0.087426
#
#
# Mechanical properties :
#
#
# Convention : Reuss Voigt Hill
#
# Bulk Modulus (GPa) = 18.40913 71.58277 44.99595
# Shear Modulus (GPa) = 22.81311 47.02944 34.92128
#
# Velocity S-wave (km/s) = 2.94647 4.23052 3.64548
# Velocity P-wave (km/s) = 4.31060 7.14873 5.90278
#
# Compressibility (1/GPa) = 0.05432088
#
# Stress axis : x y z
#
# Youngs Moduli (GPa) = 44.80435 63.72525 94.64718
#
# Poissons Ratio (x) = -0.50125 0.18384
# Poissons Ratio (y) = -0.35242 0.28882
# Poissons Ratio (z) = 0.08703 0.19446
#
# Static dielectric constant tensor:
#      x y z
#    x 2.263540 -0.014280 0.064130 
#    y -0.014280 2.110200 -0.115660 
#    z 0.064130 -0.115660 2.185330 
# 
# From -- ./inp_files/180944.got.cif
#   From: 2010.05.17/outbox.cif.g08.bks.cpg/sg2_91_cif.got.tgz:180944.got - 2010.06.03 11:33:40.
