data_PCOD9103290
_publ_section_title
;
Structure prediction by ZEFSAII (Michael W. Deem and Ramdas Pophale) SiO2 
 PCOD9103290
Probable space group: P -1
;
_chemical_formula_sum "Si O2"
_cell_formula_units_Z 16
_cell_length_a 14.835286
_cell_length_b 10.218438
_cell_length_c 5.566215
_cell_angle_alpha 97.473957
_cell_angle_beta 62.240755
_cell_angle_gamma 108.662931
_cell_volume 707.246787
_symmetry_space_group_name_H-M "P -1"
_symmetry_group_IT_number 2
_symmetry_cell_setting 'triclinic'
loop_
_space_group_symop_operation_xyz
x,y,z
-x,-y,-z
loop_
_atom_site_type_symbol
_atom_site_label
_atom_site_fract_x
_atom_site_fract_y
_atom_site_fract_z
Si Si1 0.918227 0.085494 0.060431
Si Si2 0.271989 0.665755 0.551016
Si Si3 0.996094 0.232654 0.494321
Si Si4 0.529194 0.126163 0.180055
Si Si5 0.325157 0.953990 0.631388
Si Si6 0.789498 0.582651 0.799622
Si Si7 0.909024 0.433931 0.914600
Si Si8 0.586338 0.434515 0.270175
O O1 0.789472 0.019415 0.203868
O O2 0.946948 0.183820 0.284088
O O3 0.950589 0.139400 0.761560
O O4 0.000000 0.000000 0.000000
O O5 0.313476 0.820978 0.435988
O O6 0.220443 0.543107 0.402746
O O7 0.357108 0.613841 0.583114
O O8 0.182655 0.678041 0.855460
O O9 0.126116 0.275792 0.356728
O O10 0.957812 0.365952 0.629345
O O11 0.626946 0.101800 0.206452
O O12 0.551062 0.289008 0.129930
O O13 0.420645 0.086524 0.466303
O O14 0.500000 0.000000 0.000000
O O15 0.853240 0.546677 0.935661
O O16 0.670021 0.553110 0.037733
O O17 0.000000 0.500000 0.000000
O O18 0.500000 0.500000 0.500000
#
# Coordination Sequence:
#
# PCOD9103290 Si02
#       8
#     2   2   2   2   2   2   2   2
#     4  12  28  47  68 101 145 194 244 294 359 434
#     4  10  20  38  65  95 136 170 229 286 356 417
#     4  12  25  43  69 101 144 190 230 288 359 438
#     4  10  22  43  72  98 131 182 250 302 358 420
#     4  10  22  41  69  98 131 183 241 303 347 421
#     4  11  23  37  66  99 136 179 226 282 356 441
#     4  11  20  35  61 100 136 172 220 280 343 423
#     4  10  24  43  64  99 139 178 228 303 366 424
#
# _framework density 22.622938000000001
#
# number of rings (size 3 to 8) (size 9 to 14) (size 15 to 20)
#    0.000    1.250    2.500    3.000    3.500    1.500 
#    0.000    0.000    0.000    0.000    0.000    0.000 
#    0.000    0.000    0.000    0.000    0.000    0.000 
#
# Total GULP energy -89189.775349 kJ/mol
# GULP energy per Si atom -5574.360959 kJ/mol
# Density = 2.257145 g / cm^3
# Si number density = 22.622938 Si / 1000 Ang^3
#
#
#
# Elastic Constant Matrix: (Units=GPa)
#
#
# Indices 1 2 3 4 5 6 
#
# 1 116.8508 50.2470 44.2544 1.5131 -27.8015 17.3512
# 2 50.2470 40.4228 29.6693 -2.4846 -10.8315 16.5743
# 3 44.2544 29.6693 100.7246 -0.8855 -26.7447 14.6559
# 4 1.5131 -2.4846 -0.8855 43.2026 5.8258 -1.8722
# 5 -27.8015 -10.8315 -26.7447 5.8258 48.1017 0.3741
# 6 17.3512 16.5743 14.6559 -1.8722 0.3741 39.7106
#
#
#
# Elastic Compliance Matrix: (Units=1/GPa)
#
#
# Indices 1 2 3 4 5 6 
#
# 1 0.020477 -0.024033 -0.000342 -0.002950 0.006582 0.001009
# 2 -0.024033 0.064980 -0.007607 0.004362 -0.003910 -0.013570
# 3 -0.000342 -0.007607 0.014239 -0.001051 0.006149 -0.002038
# 4 -0.002950 0.004362 -0.001051 0.024095 -0.004234 0.001032
# 5 0.006582 -0.003910 0.006149 -0.004234 0.027676 -0.003974
# 6 0.001009 -0.013570 -0.002038 0.001032 -0.003974 0.031244
#
#
# Mechanical properties :
#
#
# Convention : Reuss Voigt Hill
#
# Bulk Modulus (GPa) = 27.98654 56.25993 42.12324
# Shear Modulus (GPa) = 19.33597 35.12479 27.23038
#
# Velocity S-wave (km/s) = 2.92671 3.94460 3.47315
# Velocity P-wave (km/s) = 4.88043 6.75789 5.89439
#
# Compressibility (1/GPa) = 0.03573146
#
# Stress axis : x y z
#
# Youngs Moduli (GPa) = 48.83642 15.38931 70.22820
#
# Poissons Ratio (x) = 0.36985 0.02405
# Poissons Ratio (y) = 1.17369 0.53420
# Poissons Ratio (z) = 0.01672 0.11706
#
# Static dielectric constant tensor:
#      x y z
#    x 1.845210 0.035410 0.000020 
#    y 0.035410 1.852160 -0.163860 
#    z 0.000020 -0.163860 1.898880 
# 
# From -- ./inp_files/95115.got.cif
#   From: 2010.05.17/outbox.cif.g08.bks.cpg/sg2_48_cif.got.tgz:95115.got - 2010.06.03 11:33:40.
