data_PCOD9103656
_publ_section_title
;
Structure prediction by ZEFSAII (Michael W. Deem and Ramdas Pophale) SiO2 
 PCOD9103656
Probable space group: P -1
;
_chemical_formula_sum "Si O2"
_cell_formula_units_Z 12
_cell_length_a 17.132394
_cell_length_b 8.359114
_cell_length_c 9.561345
_cell_angle_alpha 30.551558
_cell_angle_beta 119.882462
_cell_angle_gamma 120.459888
_cell_volume 593.996983
_symmetry_space_group_name_H-M "P -1"
_symmetry_group_IT_number 2
_symmetry_cell_setting 'triclinic'
loop_
_space_group_symop_operation_xyz
x,y,z
-x,-y,-z
loop_
_atom_site_type_symbol
_atom_site_label
_atom_site_fract_x
_atom_site_fract_y
_atom_site_fract_z
Si Si1 0.644161 0.682897 0.632690
Si Si2 0.209972 0.034683 0.045592
Si Si3 0.737526 0.401430 0.152306
Si Si4 0.369530 0.725273 0.338096
Si Si5 0.892319 0.446556 0.461158
Si Si6 0.527434 0.573819 0.128580
O O1 0.625246 0.553281 0.557598
O O2 0.558020 0.554148 0.750757
O O3 0.673303 0.063706 0.374316
O O4 0.724748 0.521255 0.895077
O O5 0.269289 0.818243 0.180914
O O6 0.147595 0.835481 0.257475
O O7 0.282052 0.306591 0.986768
O O8 0.145111 0.238882 0.753796
O O9 0.838644 0.378548 0.316304
O O10 0.394971 0.609088 0.601179
O O11 0.438409 0.046456 0.114687
O O12 0.000000 0.500000 0.500000
O O13 0.500000 0.500000 0.000000
#
# Coordination Sequence:
#
# PCOD9103656 Si02
#       6
#     2   2   2   2   2   2
#     4  12  23  41  61  89 129 168 205 250 308 361
#     4  10  21  37  63  90 121 154 211 245 311 352
#     4  10  21  38  63  90 119 160 211 245 305 363
#     4  12  25  42  60  91 128 166 205 257 309 356
#     4  10  20  38  67  94 118 150 207 257 302 368
#     4  12  26  39  63  89 125 168 219 255 289 352
#
# _framework density 20.202124000000001
#
# number of rings (size 3 to 8) (size 9 to 14) (size 15 to 20)
#    1.000    0.000    1.667    6.000    2.333    0.000 
#    0.000    0.000    0.000    6.000    0.000    0.000 
#    0.000    0.000    0.000    0.000    0.000    0.000 
#
# Total GULP energy -67009.222053 kJ/mol
# GULP energy per Si atom -5584.101838 kJ/mol
# Density = 2.015614 g / cm^3
# Si number density = 20.202124 Si / 1000 Ang^3
#
#
#
# Elastic Constant Matrix: (Units=GPa)
#
#
# Indices 1 2 3 4 5 6 
#
# 1 90.0729 42.9157 17.3023 -8.5111 -3.7139 5.1041
# 2 42.9157 51.6974 22.4931 -10.3114 -8.4109 -2.7191
# 3 17.3023 22.4931 113.0949 -19.9441 -14.0874 3.7391
# 4 -8.5111 -10.3114 -19.9441 31.4647 5.3060 -1.6876
# 5 -3.7139 -8.4109 -14.0874 5.3060 24.6300 1.4089
# 6 5.1041 -2.7191 3.7391 -1.6876 1.4089 24.5603
#
#
#
# Elastic Compliance Matrix: (Units=1/GPa)
#
#
# Indices 1 2 3 4 5 6 
#
# 1 0.019296 -0.016835 0.000291 -0.000029 -0.002335 -0.005786
# 2 -0.016835 0.037286 -0.003423 0.004793 0.006741 0.008090
# 3 0.000291 -0.003423 0.010961 0.005096 0.004161 -0.001997
# 4 -0.000029 0.004793 0.005096 0.037324 -0.003639 0.002534
# 5 -0.002335 0.006741 0.004161 -0.003639 0.045845 -0.002282
# 6 -0.005786 0.008090 -0.001997 0.002534 -0.002282 0.043423
#
#
# Mechanical properties :
#
#
# Convention : Reuss Voigt Hill
#
# Bulk Modulus (GPa) = 36.21789 46.69860 41.45824
# Shear Modulus (GPa) = 20.55298 27.60794 24.08046
#
# Velocity S-wave (km/s) = 3.19308 3.70075 3.45625
# Velocity P-wave (km/s) = 5.61792 6.43635 6.04101
#
# Compressibility (1/GPa) = 0.02761067
#
# Stress axis : x y z
#
# Youngs Moduli (GPa) = 51.82341 26.81940 91.23005
#
# Poissons Ratio (x) = 0.45152 -0.02659
# Poissons Ratio (y) = 0.87247 0.31225
# Poissons Ratio (z) = -0.01510 0.09179
#
# Static dielectric constant tensor:
#      x y z
#    x 1.732030 0.005320 0.044630 
#    y 0.005320 1.721870 0.012630 
#    z 0.044630 0.012630 1.748680 
# 
# From -- ./inp_files/287925.got.cif
#   From: 2010.05.17/outbox.cif.g08.bks.cpg/sg2_144_cif.got.tgz:287925.got - 2010.06.03 11:33:40.
