data_PCOD9103706
_publ_section_title
;
Structure prediction by ZEFSAII (Michael W. Deem and Ramdas Pophale) SiO2 
 PCOD9103706
Probable space group: P -1
;
_chemical_formula_sum "Si O2"
_cell_formula_units_Z 14
_cell_length_a 9.332455
_cell_length_b 14.682135
_cell_length_c 8.664912
_cell_angle_alpha 83.483770
_cell_angle_beta 68.824777
_cell_angle_gamma 135.529645
_cell_volume 638.139846
_symmetry_space_group_name_H-M "P -1"
_symmetry_group_IT_number 2
_symmetry_cell_setting 'triclinic'
loop_
_space_group_symop_operation_xyz
x,y,z
-x,-y,-z
loop_
_atom_site_type_symbol
_atom_site_label
_atom_site_fract_x
_atom_site_fract_y
_atom_site_fract_z
Si Si1 0.297243 0.977663 0.025989
Si Si2 0.406902 0.182998 0.702517
Si Si3 0.988600 0.933418 0.366962
Si Si4 0.226939 0.394704 0.717134
Si Si5 0.053399 0.507544 0.658822
Si Si6 0.423780 0.609177 0.118965
Si Si7 0.354729 0.372489 0.256910
O O1 0.262001 0.032264 0.169591
O O2 0.005865 0.792707 0.146847
O O3 0.500000 0.000000 0.000000
O O4 0.384679 0.077633 0.823830
O O5 0.160205 0.088711 0.711026
O O6 0.659901 0.307787 0.466379
O O7 0.450691 0.282859 0.798294
O O8 0.828121 0.766864 0.522339
O O9 0.000000 0.000000 0.500000
O O10 0.500000 0.500000 0.500000
O O11 0.094773 0.421060 0.691872
O O12 0.346433 0.478483 0.821213
O O13 0.000000 0.500000 0.500000
O O14 0.801143 0.431647 0.849832
O O15 0.283162 0.444124 0.248640
O O16 0.633762 0.679715 0.895200
#
# Coordination Sequence:
#
# PCOD9103706 Si02
#       7
#     2   2   2   2   2   2   2
#     4  12  26  43  71 103 141 178 230 285 346 410
#     4  11  23  44  68  97 136 184 225 276 346 413
#     4  12  26  44  69  95 140 182 230 282 347 407
#     4  12  22  42  70  98 129 184 225 272 339 409
#     4  10  20  38  67  98 132 169 224 276 338 404
#     4  10  23  40  68 100 136 174 229 283 340 406
#     4  11  23  42  67  99 131 178 233 279 330 419
#
# _framework density 21.938766999999999
#
# number of rings (size 3 to 8) (size 9 to 14) (size 15 to 20)
#    0.000    0.857    2.857    5.571    2.000    2.857 
#    2.571    0.714    0.000    0.000    0.000    0.000 
#    0.000    0.000    0.000    0.000    0.000    0.000 
#
# Total GULP energy -78243.066488 kJ/mol
# GULP energy per Si atom -5588.790463 kJ/mol
# Density = 2.188883 g / cm^3
# Si number density = 21.938767 Si / 1000 Ang^3
#
#
#
# Elastic Constant Matrix: (Units=GPa)
#
#
# Indices 1 2 3 4 5 6 
#
# 1 156.5589 21.3988 25.0544 8.1422 -4.5673 -14.2382
# 2 21.3988 75.6232 21.9595 2.1386 -4.1818 -1.5052
# 3 25.0544 21.9595 65.3754 -3.6142 5.7349 -7.6624
# 4 8.1422 2.1386 -3.6142 39.2067 -6.9009 12.2637
# 5 -4.5673 -4.1818 5.7349 -6.9009 35.8938 -9.9966
# 6 -14.2382 -1.5052 -7.6624 12.2637 -9.9966 25.6168
#
#
#
# Elastic Compliance Matrix: (Units=1/GPa)
#
#
# Indices 1 2 3 4 5 6 
#
# 1 0.007677 -0.001197 -0.002217 -0.003197 0.002230 0.005934
# 2 -0.001197 0.015113 -0.004856 -0.000609 0.002251 -0.000060
# 3 -0.002217 -0.004856 0.018365 0.001196 -0.002922 0.002263
# 4 -0.003197 -0.000609 0.001196 0.031539 0.000880 -0.016210
# 5 0.002230 0.002251 -0.002922 0.000880 0.032607 0.012800
# 6 0.005934 -0.000060 0.002263 -0.016210 0.012800 0.055764
#
#
# Mechanical properties :
#
#
# Convention : Reuss Voigt Hill
#
# Bulk Modulus (GPa) = 40.62539 48.26477 44.44508
# Shear Modulus (GPa) = 26.90963 35.41978 31.16470
#
# Velocity S-wave (km/s) = 3.50605 4.02242 3.77308
# Velocity P-wave (km/s) = 5.91166 6.60460 6.26771
#
# Compressibility (1/GPa) = 0.02461515
#
# Stress axis : x y z
#
# Youngs Moduli (GPa) = 130.26456 66.17005 54.45273
#
# Poissons Ratio (x) = 0.07919 0.12071
# Poissons Ratio (y) = 0.15589 0.26441
# Poissons Ratio (z) = 0.28878 0.32131
#
# Static dielectric constant tensor:
#      x y z
#    x 1.853250 -0.013490 -0.030640 
#    y -0.013490 1.892320 -0.016530 
#    z -0.030640 -0.016530 1.857440 
# 
# From -- ./inp_files/201376.got.cif
#   From: 2010.05.17/outbox.cif.g08.bks.cpg/sg2_101_cif.got.tgz:201376.got - 2010.06.03 11:33:40.
