data_PCOD9103029
_publ_section_title
;
Structure prediction by ZEFSAII (Michael W. Deem and Ramdas Pophale) SiO2 
 PCOD9103029
Probable space group: P -1
;
_chemical_formula_sum "Si O2"
_cell_formula_units_Z 16
_cell_length_a 20.285803
_cell_length_b 8.749313
_cell_length_c 11.279584
_cell_angle_alpha 42.806145
_cell_angle_beta 153.611285
_cell_angle_gamma 131.395276
_cell_volume 604.580410
_symmetry_space_group_name_H-M "P -1"
_symmetry_group_IT_number 2
_symmetry_cell_setting 'triclinic'
loop_
_space_group_symop_operation_xyz
x,y,z
-x,-y,-z
loop_
_atom_site_type_symbol
_atom_site_label
_atom_site_fract_x
_atom_site_fract_y
_atom_site_fract_z
Si Si1 0.487841 0.998907 0.627095
Si Si2 0.209524 0.307555 0.064960
Si Si3 0.762405 0.468816 0.234462
Si Si4 0.422578 0.345290 0.693909
Si Si5 0.820321 0.966448 0.598442
Si Si6 0.946906 0.243307 0.069465
Si Si7 0.302501 0.578721 0.587159
Si Si8 0.750618 0.279936 0.950367
O O1 0.365271 0.177463 0.371589
O O2 0.638940 0.071417 0.894215
O O3 0.500000 0.000000 0.500000
O O4 0.438785 0.750594 0.729111
O O5 0.137874 0.172935 0.136106
O O6 0.209711 0.570645 0.957295
O O7 0.161790 0.341359 0.832542
O O8 0.752770 0.534097 0.318410
O O9 0.837284 0.228351 0.496245
O O10 0.595475 0.405832 0.953452
O O11 0.349847 0.114826 0.658028
O O12 0.343619 0.398572 0.659370
O O13 0.350314 0.536422 0.385945
O O14 0.922978 0.902011 0.690576
O O15 0.811658 0.244946 0.757129
O O16 0.884650 0.213048 0.118262
O O17 0.000000 0.500000 0.000000
#
# Coordination Sequence:
#
# PCOD9103029 Si02
#       8
#     2   2   2   2   2   2   2   2
#     4  12  20  38  63 104 132 160 227 272 336 385
#     4  11  23  41  65  98 138 173 217 279 329 395
#     4  12  24  39  63 103 140 165 224 276 341 393
#     4  10  20  38  64  96 132 170 218 277 332 383
#     4  11  24  42  71  95 128 184 226 270 326 402
#     4  11  20  44  74  89 130 184 230 265 328 403
#     4  11  23  39  68 100 131 180 216 277 341 392
#     4  10  21  38  71  97 128 183 221 272 331 395
#
# _framework density 26.464634
#
# number of rings (size 3 to 8) (size 9 to 14) (size 15 to 20)
#    0.000    1.000    8.750    1.125    1.750    1.500 
#    0.000    1.250    0.000    0.000    0.000    0.000 
#    0.000    0.000    0.000    0.000    0.000    0.000 
#
# Total GULP energy -89554.420330 kJ/mol
# GULP energy per Si atom -5597.151271 kJ/mol
# Density = 2.640440 g / cm^3
# Si number density = 26.464634 Si / 1000 Ang^3
#
#
#
# Elastic Constant Matrix: (Units=GPa)
#
#
# Indices 1 2 3 4 5 6 
#
# 1 139.4016 27.6540 9.4223 -5.8516 3.8264 -9.9421
# 2 27.6540 74.6736 4.5254 -9.6458 1.5870 16.1213
# 3 9.4223 4.5254 52.5810 3.3731 4.3348 0.2263
# 4 -5.8516 -9.6458 3.3731 27.6024 5.3708 5.7482
# 5 3.8264 1.5870 4.3348 5.3708 41.6702 -2.6172
# 6 -9.9421 16.1213 0.2263 5.7482 -2.6172 25.0619
#
#
#
# Elastic Compliance Matrix: (Units=1/GPa)
#
#
# Indices 1 2 3 4 5 6 
#
# 1 0.008615 -0.004719 -0.001102 -0.001101 0.000067 0.006723
# 2 -0.004719 0.020456 -0.001292 0.010516 -0.002679 -0.017711
# 3 -0.001102 -0.001292 0.019634 -0.002954 -0.001465 0.000742
# 4 -0.001101 0.010516 -0.002954 0.045190 -0.006964 -0.018266
# 5 0.000067 -0.002679 -0.001465 -0.006964 0.025522 0.006026
# 6 0.006723 -0.017711 0.000742 -0.018266 0.006026 0.058773
#
#
# Mechanical properties :
#
#
# Convention : Reuss Voigt Hill
#
# Bulk Modulus (GPa) = 29.00238 38.87329 33.93783
# Shear Modulus (GPa) = 24.52062 33.87053 29.19557
#
# Velocity S-wave (km/s) = 3.04722 3.58137 3.32504
# Velocity P-wave (km/s) = 4.83357 5.64112 5.25289
#
# Compressibility (1/GPa) = 0.03447993
#
# Stress axis : x y z
#
# Youngs Moduli (GPa) = 116.07004 48.88470 50.93212
#
# Poissons Ratio (x) = 0.23068 0.05611
# Poissons Ratio (y) = 0.54772 0.06583
# Poissons Ratio (z) = 0.12786 0.06318
#
# Static dielectric constant tensor:
#      x y z
#    x 2.072260 -0.014240 -0.043120 
#    y -0.014240 2.191520 0.194300 
#    z -0.043120 0.194300 2.293990 
# 
# From -- ./inp_files/469798.got.cif
#   From: 2010.05.17/outbox.cif.g08.bks.cpg/sg2_235_cif.got.tgz:469798.got - 2010.06.03 11:33:40.
