data_PCOD9103412
_publ_section_title
;
Structure prediction by ZEFSAII (Michael W. Deem and Ramdas Pophale) SiO2 
 PCOD9103412
Probable space group: P -1
;
_chemical_formula_sum "Si O2"
_cell_formula_units_Z 16
_cell_length_a 11.875307
_cell_length_b 9.247721
_cell_length_c 11.748293
_cell_angle_alpha 130.486121
_cell_angle_beta 126.643913
_cell_angle_gamma 78.216051
_cell_volume 750.983224
_symmetry_space_group_name_H-M "P -1"
_symmetry_group_IT_number 2
_symmetry_cell_setting 'triclinic'
loop_
_space_group_symop_operation_xyz
x,y,z
-x,-y,-z
loop_
_atom_site_type_symbol
_atom_site_label
_atom_site_fract_x
_atom_site_fract_y
_atom_site_fract_z
Si Si1 0.977007 0.420187 0.793771
Si Si2 0.188563 0.161560 0.860851
Si Si3 0.429079 0.937214 0.301469
Si Si4 0.224521 0.102017 0.117007
Si Si5 0.097605 0.177502 0.453453
Si Si6 0.835383 0.209942 0.791827
Si Si7 0.381460 0.283623 0.831284
Si Si8 0.038872 0.313761 0.262598
O O1 0.099516 0.314513 0.846026
O O2 0.829051 0.286126 0.698007
O O3 0.973680 0.482183 0.693817
O O4 0.019668 0.635092 0.990509
O O5 0.329578 0.210950 0.889831
O O6 0.235496 0.167358 0.024634
O O7 0.061182 0.948989 0.657078
O O8 0.283116 0.775629 0.179903
O O9 0.539747 0.859621 0.255649
O O10 0.500000 0.000000 0.500000
O O11 0.367797 0.082504 0.260219
O O12 0.157972 0.245241 0.225071
O O13 0.107977 0.877378 0.931729
O O14 0.228722 0.264402 0.663977
O O15 0.083763 0.332947 0.430551
O O16 0.145551 0.007021 0.321345
O O17 0.500000 0.500000 0.000000
#
# Coordination Sequence:
#
# PCOD9103412 Si02
#       8
#     2   2   2   2   2   2   2   2
#     4  10  18  31  62  97 129 146 199 268 322 356
#     4  10  23  40  63  92 126 170 211 255 312 376
#     4  12  22  39  65  90 124 166 211 249 311 380
#     4  10  19  34  61  94 124 159 212 259 304 374
#     4  10  20  40  65  91 121 161 219 261 303 368
#     4  10  17  33  57  93 119 155 199 252 311 361
#     4  12  26  42  63  89 133 174 205 253 319 383
#     4  10  16  32  63  98 122 153 206 274 312 347
#
# _framework density 21.305402999999998
#
# number of rings (size 3 to 8) (size 9 to 14) (size 15 to 20)
#    0.000    1.500    3.750    4.125    0.000    0.500 
#    0.000    1.875    5.500    3.750    0.000    0.000 
#    0.000    0.000    0.000    0.000    0.000    0.000 
#
# Total GULP energy -89219.286389 kJ/mol
# GULP energy per Si atom -5576.205399 kJ/mol
# Density = 2.125691 g / cm^3
# Si number density = 21.305403 Si / 1000 Ang^3
#
#
#
# Elastic Constant Matrix: (Units=GPa)
#
#
# Indices 1 2 3 4 5 6 
#
# 1 155.7558 61.2368 29.1635 -14.1799 -6.0864 28.4155
# 2 61.2368 157.0471 46.9299 -38.8989 -9.1537 25.7342
# 3 29.1635 46.9299 78.8852 -19.9176 -1.5098 3.9646
# 4 -14.1799 -38.8989 -19.9176 34.2007 3.1417 -2.3864
# 5 -6.0864 -9.1537 -1.5098 3.1417 21.5560 -2.7925
# 6 28.4155 25.7342 3.9646 -2.3864 -2.7925 38.8263
#
#
#
# Elastic Compliance Matrix: (Units=1/GPa)
#
#
# Indices 1 2 3 4 5 6 
#
# 1 0.008379 -0.002007 -0.001708 -0.000200 0.000830 -0.004580
# 2 -0.002007 0.011525 -0.003349 0.009786 0.002008 -0.005082
# 3 -0.001708 -0.003349 0.016530 0.005366 -0.001267 0.002021
# 4 -0.000200 0.009786 0.005366 0.043326 -0.002409 -0.004398
# 5 0.000830 0.002008 -0.001267 -0.002409 0.047933 0.001491
# 6 -0.004580 -0.005082 0.002021 -0.004398 0.001491 0.032106
#
#
# Mechanical properties :
#
#
# Convention : Reuss Voigt Hill
#
# Bulk Modulus (GPa) = 44.83436 74.03872 59.43654
# Shear Modulus (GPa) = 27.56889 35.87378 31.72134
#
# Velocity S-wave (km/s) = 3.60110 4.10785 3.86280
# Velocity P-wave (km/s) = 6.19515 7.57138 6.91758
#
# Compressibility (1/GPa) = 0.02230432
#
# Stress axis : x y z
#
# Youngs Moduli (GPa) = 119.34396 86.76940 60.49697
#
# Poissons Ratio (x) = 0.17419 0.10331
# Poissons Ratio (y) = 0.23958 0.20263
# Poissons Ratio (z) = 0.20381 0.29063
#
# Static dielectric constant tensor:
#      x y z
#    x 2.241330 0.203490 0.232940 
#    y 0.203490 1.908660 0.082180 
#    z 0.232940 0.082180 1.988170 
# 
# From -- ./inp_files/418295.got.cif
#   From: 2010.05.17/outbox.cif.g08.bks.cpg/sg2_210_cif.got.tgz:418295.got - 2010.06.03 11:33:40.
