data_PCOD9103653
_publ_section_title
;
Structure prediction by ZEFSAII (Michael W. Deem and Ramdas Pophale) SiO2 
 PCOD9103653
Probable space group: P -1
;
_chemical_formula_sum "Si O2"
_cell_formula_units_Z 16
_cell_length_a 12.677272
_cell_length_b 9.265926
_cell_length_c 16.040289
_cell_angle_alpha 141.499941
_cell_angle_beta 46.766975
_cell_angle_gamma 134.810802
_cell_volume 793.254680
_symmetry_space_group_name_H-M "P -1"
_symmetry_group_IT_number 2
_symmetry_cell_setting 'triclinic'
loop_
_space_group_symop_operation_xyz
x,y,z
-x,-y,-z
loop_
_atom_site_type_symbol
_atom_site_label
_atom_site_fract_x
_atom_site_fract_y
_atom_site_fract_z
Si Si1 0.511305 0.264356 0.647316
Si Si2 0.929856 0.154784 0.548699
Si Si3 0.787270 0.243663 0.153096
Si Si4 0.616927 0.730683 0.094839
Si Si5 0.753606 0.724864 0.317613
Si Si6 0.085848 0.367901 0.164793
Si Si7 0.039568 0.970447 0.158290
Si Si8 0.134677 0.408472 0.419269
O O1 0.443031 0.265567 0.777210
O O2 0.412872 0.343587 0.667053
O O3 0.694609 0.417270 0.617421
O O4 0.500000 0.000000 0.500000
O O5 0.850836 0.338709 0.712283
O O6 0.088095 0.361025 0.518258
O O7 0.819044 0.967710 0.453944
O O8 0.000000 0.000000 0.500000
O O9 0.751417 0.487380 0.263592
O O10 0.933082 0.312955 0.167940
O O11 0.651624 0.998450 0.152400
O O12 0.854448 0.167746 0.998165
O O13 0.500000 0.500000 0.000000
O O14 0.782427 0.694232 0.984964
O O15 0.874497 0.793243 0.204639
O O16 0.039948 0.174924 0.180497
O O17 0.117293 0.141902 0.271854
O O18 0.000000 0.500000 0.500000
#
# Coordination Sequence:
#
# PCOD9103653 Si02
#       8
#     2   2   2   2   2   2   2   2
#     4  12  26  43  68  98 135 178 223 278 335 397
#     4  11  23  42  67  99 133 176 225 275 334 394
#     4  11  22  41  66  98 133 171 222 275 328 402
#     4  11  26  45  69 100 135 179 222 276 340 397
#     4  11  24  40  64 102 137 169 220 284 339 386
#     4  11  21  40  71  95 131 177 229 268 323 404
#     4  10  20  38  67  93 129 175 222 269 328 399
#     4  11  23  42  68  91 125 172 229 274 326 408
#
# _framework density 20.170067
#
# number of rings (size 3 to 8) (size 9 to 14) (size 15 to 20)
#    0.000    1.000    2.500    6.375    3.500    0.000 
#    2.250    2.500    0.000    0.000    0.000    0.000 
#    0.000    0.000    0.000    0.000    0.000    0.000 
#
# Total GULP energy -89290.403077 kJ/mol
# GULP energy per Si atom -5580.650192 kJ/mol
# Density = 2.012416 g / cm^3
# Si number density = 20.170067 Si / 1000 Ang^3
#
#
#
# Elastic Constant Matrix: (Units=GPa)
#
#
# Indices 1 2 3 4 5 6 
#
# 1 79.6137 49.6799 20.8716 -4.7831 -9.1465 5.5433
# 2 49.6799 120.0193 42.8400 2.3546 -17.8783 3.0318
# 3 20.8716 42.8400 115.0098 6.1108 5.9054 0.4196
# 4 -4.7831 2.3546 6.1108 37.3125 -1.8013 0.3003
# 5 -9.1465 -17.8783 5.9054 -1.8013 24.9123 8.0591
# 6 5.5433 3.0318 0.4196 0.3003 8.0591 29.5448
#
#
#
# Elastic Compliance Matrix: (Units=1/GPa)
#
#
# Indices 1 2 3 4 5 6 
#
# 1 0.017672 -0.006313 -0.001193 0.003065 0.003653 -0.003679
# 2 -0.006313 0.014122 -0.004583 -0.000454 0.009798 -0.002868
# 3 -0.001193 -0.004583 0.011095 -0.002055 -0.007333 0.002558
# 4 0.003065 -0.000454 -0.002055 0.027761 0.003890 -0.001843
# 5 0.003653 0.009798 -0.007333 0.003890 0.056001 -0.016902
# 6 -0.003679 -0.002868 0.002558 -0.001843 -0.016902 0.039424
#
#
# Mechanical properties :
#
#
# Convention : Reuss Voigt Hill
#
# Bulk Modulus (GPa) = 53.44115 60.15842 56.79978
# Shear Modulus (GPa) = 25.44658 31.77067 28.60862
#
# Velocity S-wave (km/s) = 3.55576 3.97311 3.77021
# Velocity P-wave (km/s) = 6.58868 7.13707 6.86835
#
# Compressibility (1/GPa) = 0.01871217
#
# Stress axis : x y z
#
# Youngs Moduli (GPa) = 56.58556 70.81247 90.13102
#
# Poissons Ratio (x) = 0.44701 0.10750
# Poissons Ratio (y) = 0.35720 0.41309
# Poissons Ratio (z) = 0.06749 0.32455
#
# Static dielectric constant tensor:
#      x y z
#    x 1.731690 -0.047320 0.017010 
#    y -0.047320 1.700570 0.003910 
#    z 0.017010 0.003910 1.831590 
# 
# From -- ./inp_files/263331.got.cif
#   From: 2010.05.17/outbox.cif.g08.bks.cpg/sg2_132_cif.got.tgz:263331.got - 2010.06.03 11:33:40.
