data_PCOD9103171
_publ_section_title
;
Structure prediction by ZEFSAII (Michael W. Deem and Ramdas Pophale) SiO2 
 PCOD9103171
Probable space group: P -1
;
_chemical_formula_sum "Si O2"
_cell_formula_units_Z 14
_cell_length_a 7.961048
_cell_length_b 7.862613
_cell_length_c 15.145950
_cell_angle_alpha 130.033642
_cell_angle_beta 101.153303
_cell_angle_gamma 111.696093
_cell_volume 536.441503
_symmetry_space_group_name_H-M "P -1"
_symmetry_group_IT_number 2
_symmetry_cell_setting 'triclinic'
loop_
_space_group_symop_operation_xyz
x,y,z
-x,-y,-z
loop_
_atom_site_type_symbol
_atom_site_label
_atom_site_fract_x
_atom_site_fract_y
_atom_site_fract_z
Si Si1 0.331795 0.424048 0.655709
Si Si2 0.193564 0.749565 0.841855
Si Si3 0.670966 0.333132 0.662393
Si Si4 0.778661 0.767871 0.075528
Si Si5 0.916033 0.050849 0.369854
Si Si6 0.523311 0.125845 0.772800
Si Si7 0.850415 0.196631 0.940536
O O1 0.317633 0.643319 0.779479
O O2 0.563754 0.484723 0.684878
O O3 0.172282 0.300300 0.511491
O O4 0.207586 0.160994 0.628722
O O5 0.923952 0.513105 0.712116
O O6 0.293102 0.056512 0.911599
O O7 0.198925 0.768250 0.954233
O O8 0.660728 0.275778 0.746474
O O9 0.500000 0.000000 0.500000
O O10 0.991175 0.881504 0.072163
O O11 0.886426 0.876547 0.220783
O O12 0.591042 0.414944 0.926057
O O13 0.746289 0.110257 0.349670
O O14 0.621125 0.002308 0.794757
O O15 0.000000 0.500000 0.000000
#
# Coordination Sequence:
#
# PCOD9103171 Si02
#       7
#     2   2   2   2   2   2   2
#     4  10  23  42  69  93 122 173 220 264 307 383
#     4  12  23  43  64  97 137 164 206 273 328 374
#     4  11  23  40  70  94 124 167 225 260 310 383
#     4  11  23  38  65  94 137 163 203 275 328 376
#     4  10  21  42  64  92 126 163 225 260 306 381
#     4  10  21  39  65  96 121 170 220 259 315 383
#     4  10  20  38  65  91 123 169 213 256 315 381
#
# _framework density 26.097906999999999
#
# number of rings (size 3 to 8) (size 9 to 14) (size 15 to 20)
#    0.000    1.429    2.857    5.143    2.000    1.714 
#    2.571    4.286    0.000    0.000    0.000    0.000 
#    0.000    0.000    0.000    0.000    0.000    0.000 
#
# Total GULP energy -78406.801326 kJ/mol
# GULP energy per Si atom -5600.485809 kJ/mol
# Density = 2.603851 g / cm^3
# Si number density = 26.097907 Si / 1000 Ang^3
#
#
#
# Elastic Constant Matrix: (Units=GPa)
#
#
# Indices 1 2 3 4 5 6 
#
# 1 153.2989 34.9972 39.9969 10.9998 15.9361 -18.2838
# 2 34.9972 96.5386 41.4432 -2.0518 6.9533 -0.2226
# 3 39.9969 41.4432 137.9259 -29.2013 10.0286 3.4100
# 4 10.9998 -2.0518 -29.2013 37.8204 0.4582 4.4811
# 5 15.9361 6.9533 10.0286 0.4582 48.3554 3.1940
# 6 -18.2838 -0.2226 3.4100 4.4811 3.1940 52.6027
#
#
#
# Elastic Compliance Matrix: (Units=1/GPa)
#
#
# Indices 1 2 3 4 5 6 
#
# 1 0.008837 -0.001814 -0.003119 -0.005509 -0.002208 0.003870
# 2 -0.001814 0.012524 -0.003512 -0.001476 -0.000448 -0.000197
# 3 -0.003119 -0.003512 0.011416 0.009852 -0.000754 -0.002633
# 4 -0.005509 -0.001476 0.009852 0.036239 0.000014 -0.005648
# 5 -0.002208 -0.000448 -0.000754 0.000014 0.021764 -0.002043
# 6 0.003870 -0.000197 -0.002633 -0.005648 -0.002043 0.021130
#
#
# Mechanical properties :
#
#
# Convention : Reuss Voigt Hill
#
# Bulk Modulus (GPa) = 62.94455 68.95976 65.95215
# Shear Modulus (GPa) = 37.28655 45.84409 41.56532
#
# Velocity S-wave (km/s) = 3.78394 4.19575 3.99515
# Velocity P-wave (km/s) = 6.57738 7.06776 6.82698
#
# Compressibility (1/GPa) = 0.01588700
#
# Stress axis : x y z
#
# Youngs Moduli (GPa) = 113.15474 79.84440 87.59715
#
# Poissons Ratio (x) = 0.14483 0.27323
# Poissons Ratio (y) = 0.20524 0.30767
# Poissons Ratio (z) = 0.35295 0.28044
#
# Static dielectric constant tensor:
#      x y z
#    x 2.183000 0.032150 0.020520 
#    y 0.032150 2.035540 0.029080 
#    z 0.020520 0.029080 2.145410 
# 
# From -- ./inp_files/239583.got.cif
#   From: 2010.05.17/outbox.cif.g08.bks.cpg/sg2_120_cif.got.tgz:239583.got - 2010.06.03 11:33:40.
