data_PCOD9103312
_publ_section_title
;
Structure prediction by ZEFSAII (Michael W. Deem and Ramdas Pophale) SiO2 
 PCOD9103312
Probable space group: P -1
;
_chemical_formula_sum "Si O2"
_cell_formula_units_Z 16
_cell_length_a 7.871212
_cell_length_b 8.523795
_cell_length_c 17.736348
_cell_angle_alpha 77.433218
_cell_angle_beta 105.096448
_cell_angle_gamma 142.576576
_cell_volume 698.076299
_symmetry_space_group_name_H-M "P -1"
_symmetry_group_IT_number 2
_symmetry_cell_setting 'triclinic'
loop_
_space_group_symop_operation_xyz
x,y,z
-x,-y,-z
loop_
_atom_site_type_symbol
_atom_site_label
_atom_site_fract_x
_atom_site_fract_y
_atom_site_fract_z
Si Si1 0.237508 0.927979 0.957506
Si Si2 0.384025 0.223125 0.081066
Si Si3 0.061662 0.906953 0.353840
Si Si4 0.898252 0.716600 0.731889
Si Si5 0.541433 0.605445 0.147960
Si Si6 0.476381 0.435961 0.417491
Si Si7 0.057483 0.569888 0.859215
Si Si8 0.114876 0.829141 0.214287
O O1 0.332073 0.131844 0.887448
O O2 0.014742 0.650086 0.919879
O O3 0.187776 0.996598 0.019900
O O4 0.500000 0.000000 0.000000
O O5 0.403934 0.426913 0.075394
O O6 0.690601 0.364307 0.092246
O O7 0.283028 0.088574 0.164927
O O8 0.783990 0.651179 0.391854
O O9 0.171993 0.865494 0.306160
O O10 0.983492 0.018628 0.289224
O O11 0.308091 0.149006 0.412001
O O12 0.665863 0.538777 0.789958
O O13 0.721519 0.576161 0.648792
O O14 0.120191 0.740568 0.780491
O O15 0.790971 0.657672 0.190029
O O16 0.500000 0.500000 0.500000
O O17 0.843235 0.296793 0.820748
#
# Coordination Sequence:
#
# PCOD9103312 Si02
#       8
#     2   2   2   2   2   2   2   2
#     4  10  23  40  55  84 126 164 216 278 330 367
#     4  10  22  40  57  83 116 170 216 272 327 371
#     4  10  20  38  65  97 127 166 211 255 313 385
#     4  10  22  37  65  91 123 165 212 263 313 381
#     4  11  21  40  60  85 119 162 227 261 325 381
#     4  10  21  38  69 103 131 158 205 263 322 379
#     4  10  24  37  57  87 121 164 211 268 318 378
#     4  11  21  39  61  87 119 167 214 263 315 382
#
# _framework density 22.920127999999998
#
# number of rings (size 3 to 8) (size 9 to 14) (size 15 to 20)
#    0.750    1.000    2.500    1.500    5.250    1.000 
#    4.500    0.000    0.000    1.500    0.000    0.000 
#    0.000    0.000    0.000    0.000    0.000    0.000 
#
# Total GULP energy -89210.809522 kJ/mol
# GULP energy per Si atom -5575.675595 kJ/mol
# Density = 2.286796 g / cm^3
# Si number density = 22.920128 Si / 1000 Ang^3
#
#
#
# Elastic Constant Matrix: (Units=GPa)
#
#
# Indices 1 2 3 4 5 6 
#
# 1 74.6145 20.1778 26.9088 14.8824 -8.3564 -14.5391
# 2 20.1778 113.5627 39.0609 27.2004 -19.6793 -10.4869
# 3 26.9088 39.0609 142.8486 35.4022 -19.6115 -9.8120
# 4 14.8824 27.2004 35.4022 42.8613 -4.9199 -10.1659
# 5 -8.3564 -19.6793 -19.6115 -4.9199 27.8090 0.9024
# 6 -14.5391 -10.4869 -9.8120 -10.1659 0.9024 23.4077
#
#
#
# Elastic Compliance Matrix: (Units=1/GPa)
#
#
# Indices 1 2 3 4 5 6 
#
# 1 0.016432 -0.000740 -0.001522 -0.001667 0.002773 0.008406
# 2 -0.000740 0.011804 -0.000700 -0.005442 0.006612 0.001917
# 3 -0.001522 -0.000700 0.009750 -0.006584 0.004765 -0.000215
# 4 -0.001667 -0.005442 -0.006584 0.034547 -0.003172 0.008892
# 5 0.002773 0.006612 0.004765 -0.003172 0.044154 0.003602
# 6 0.008406 0.001917 -0.000215 0.008892 0.003602 0.052434
#
#
# Mechanical properties :
#
#
# Convention : Reuss Voigt Hill
#
# Bulk Modulus (GPa) = 31.18950 55.92453 43.55701
# Shear Modulus (GPa) = 26.92032 35.14083 31.03057
#
# Velocity S-wave (km/s) = 3.43086 3.91984 3.68347
# Velocity P-wave (km/s) = 5.41589 6.70370 6.09391
#
# Compressibility (1/GPa) = 0.03206207
#
# Stress axis : x y z
#
# Youngs Moduli (GPa) = 60.85607 84.71392 102.56672
#
# Poissons Ratio (x) = 0.06271 0.15608
# Poissons Ratio (y) = 0.04505 0.07182
# Poissons Ratio (z) = 0.09261 0.05932
#
# Static dielectric constant tensor:
#      x y z
#    x 1.944950 0.008000 0.013230 
#    y 0.008000 1.939530 0.067960 
#    z 0.013230 0.067960 1.872140 
# 
# From -- ./inp_files/339474.got.cif
#   From: 2010.05.17/outbox.cif.g08.bks.cpg/sg2_170_cif.got.tgz:339474.got - 2010.06.03 11:33:40.
