data_PCOD9103030
_publ_section_title
;
Structure prediction by ZEFSAII (Michael W. Deem and Ramdas Pophale) SiO2 
 PCOD9103030
Probable space group: P -1
;
_chemical_formula_sum "Si O2"
_cell_formula_units_Z 14
_cell_length_a 10.025879
_cell_length_b 12.387538
_cell_length_c 8.035102
_cell_angle_alpha 40.356714
_cell_angle_beta 118.343131
_cell_angle_gamma 113.619789
_cell_volume 567.409744
_symmetry_space_group_name_H-M "P -1"
_symmetry_group_IT_number 2
_symmetry_cell_setting 'triclinic'
loop_
_space_group_symop_operation_xyz
x,y,z
-x,-y,-z
loop_
_atom_site_type_symbol
_atom_site_label
_atom_site_fract_x
_atom_site_fract_y
_atom_site_fract_z
Si Si1 0.131800 0.305951 0.537788
Si Si2 0.669986 0.470709 0.062884
Si Si3 0.501878 0.817715 0.646332
Si Si4 0.197000 0.235010 0.017217
Si Si5 0.563314 0.820740 0.291135
Si Si6 0.110093 0.903443 0.560714
Si Si7 0.704456 0.362730 0.843292
O O1 0.275044 0.211340 0.658367
O O2 0.176648 0.504075 0.329450
O O3 0.988009 0.245277 0.414977
O O4 0.106232 0.252032 0.776267
O O5 0.664757 0.276941 0.342746
O O6 0.500000 0.500000 0.000000
O O7 0.800395 0.601958 0.052625
O O8 0.667608 0.460431 0.875952
O O9 0.622159 0.752335 0.928755
O O10 0.568278 0.809704 0.508398
O O11 0.500000 0.000000 0.500000
O O12 0.166152 0.055059 0.294206
O O13 0.437984 0.685439 0.300988
O O14 0.500000 0.000000 0.000000
O O15 0.229557 0.810089 0.853088
O O16 0.000000 0.000000 0.500000
#
# Coordination Sequence:
#
# PCOD9103030 Si02
#       7
#     2   2   2   2   2   2   2
#     4  12  25  44  68 100 136 177 227 282 340 405
#     4  10  20  38  64  96 132 171 214 273 335 395
#     4  11  21  37  62  98 137 173 218 277 337 396
#     4  11  23  42  65  94 132 177 222 274 334 404
#     4  12  23  40  68 102 134 176 227 281 339 405
#     4  12  26  47  69  95 135 183 229 280 340 408
#     4  12  25  44  70 101 135 177 227 283 341 403
#
# _framework density 24.673527
#
# number of rings (size 3 to 8) (size 9 to 14) (size 15 to 20)
#    0.000    0.571    0.000   11.571    0.000    0.000 
#    0.000    5.714    0.000    0.000    0.000    0.000 
#    0.000    0.000    0.000    0.000    0.000    0.000 
#
# Total GULP energy -78245.062794 kJ/mol
# GULP energy per Si atom -5588.933057 kJ/mol
# Density = 2.461737 g / cm^3
# Si number density = 24.673527 Si / 1000 Ang^3
#
#
#
# Elastic Constant Matrix: (Units=GPa)
#
#
# Indices 1 2 3 4 5 6 
#
# 1 60.1734 13.8533 15.8108 3.1177 0.0534 1.7773
# 2 13.8533 139.2847 12.6247 1.7217 2.9026 6.5618
# 3 15.8108 12.6247 99.2578 -5.2259 -17.8025 1.1839
# 4 3.1177 1.7217 -5.2259 55.1982 6.4505 -6.2764
# 5 0.0534 2.9026 -17.8025 6.4505 29.7300 -4.5819
# 6 1.7773 6.5618 1.1839 -6.2764 -4.5819 43.7552
#
#
#
# Elastic Compliance Matrix: (Units=1/GPa)
#
#
# Indices 1 2 3 4 5 6 
#
# 1 0.017813 -0.001419 -0.002986 -0.001150 -0.001549 -0.000757
# 2 -0.001419 0.007501 -0.000987 -0.000216 -0.001463 -0.001225
# 3 -0.002986 -0.000987 0.012004 0.000574 0.007287 0.000790
# 4 -0.001150 -0.000216 0.000574 0.018911 -0.003363 0.002424
# 5 -0.001549 -0.001463 0.007287 -0.003363 0.039450 0.003734
# 6 -0.000757 -0.001225 0.000790 0.002424 0.003734 0.023786
#
#
# Mechanical properties :
#
#
# Convention : Reuss Voigt Hill
#
# Bulk Modulus (GPa) = 37.68847 42.58816 40.13832
# Shear Modulus (GPa) = 35.94678 42.83181 39.38929
#
# Velocity S-wave (km/s) = 3.82107 4.17098 3.99986
# Velocity P-wave (km/s) = 5.89707 6.36351 6.13473
#
# Compressibility (1/GPa) = 0.02653331
#
# Stress axis : x y z
#
# Youngs Moduli (GPa) = 56.13793 133.31593 83.30719
#
# Poissons Ratio (x) = 0.18916 0.24878
# Poissons Ratio (y) = 0.07965 0.08224
# Poissons Ratio (z) = 0.16765 0.13160
#
# Static dielectric constant tensor:
#      x y z
#    x 2.059020 -0.058750 0.022500 
#    y -0.058750 2.204050 -0.300530 
#    z 0.022500 -0.300530 2.204130 
# 
# From -- ./inp_files/256158.got.cif
#   From: 2010.05.17/outbox.cif.g08.bks.cpg/sg2_129_cif.got.tgz:256158.got - 2010.06.03 11:33:40.
