data_PCOD9103359
_publ_section_title
;
Structure prediction by ZEFSAII (Michael W. Deem and Ramdas Pophale) SiO2 
 PCOD9103359
Probable space group: P -1
;
_chemical_formula_sum "Si O2"
_cell_formula_units_Z 13
_cell_length_a 12.622246
_cell_length_b 5.264190
_cell_length_c 14.879281
_cell_angle_alpha 82.685839
_cell_angle_beta 146.808904
_cell_angle_gamma 85.395785
_cell_volume 504.052975
_symmetry_space_group_name_H-M "P -1"
_symmetry_group_IT_number 2
_symmetry_cell_setting 'triclinic'
loop_
_space_group_symop_operation_xyz
x,y,z
-x,-y,-z
loop_
_atom_site_type_symbol
_atom_site_label
_atom_site_fract_x
_atom_site_fract_y
_atom_site_fract_z
Si Si1 0.500000 0.000000 0.000000
Si Si2 0.611719 0.293545 0.290921
Si Si3 0.241044 0.808897 0.974154
Si Si4 0.162188 0.133817 0.074267
Si Si5 0.144632 0.557988 0.676234
Si Si6 0.853040 0.705617 0.757413
Si Si7 0.246846 0.300776 0.502464
O O1 0.680444 0.055665 0.058178
O O2 0.337901 0.292079 0.842527
O O3 0.382740 0.486820 0.091717
O O4 0.751971 0.234128 0.302227
O O5 0.689618 0.481468 0.404164
O O6 0.649301 0.007630 0.376232
O O7 0.287311 0.938448 0.094145
O O8 0.996916 0.867727 0.811536
O O9 0.264899 0.178115 0.238817
O O10 0.023756 0.421896 0.921901
O O11 0.000000 0.000000 0.000000
O O12 0.000000 0.500000 0.500000
O O13 0.996676 0.639815 0.652214
O O14 0.722679 0.668174 0.582714
#
# Coordination Sequence:
#
# PCOD9103359 Si02
#       7
#     1   2   2   2   2   2   2
#     4  10  20  38  66 104 130 180 224 268 334 410
#     4  10  24  41  62  93 136 178 211 276 342 398
#     4  10  22  41  65  95 136 170 224 276 329 404
#     4   9  20  40  66  91 127 168 223 279 337 385
#     4   9  20  39  62  89 136 180 221 270 333 392
#     4  10  22  38  70  94 121 175 229 275 327 400
#     4  11  23  41  65  94 131 174 226 268 338 398
#
# _framework density 25.790942000000001
#
# number of rings (size 3 to 8) (size 9 to 14) (size 15 to 20)
#    0.000    2.154    0.000    1.385   10.769    0.000 
#    5.538    3.846    0.000    0.000    0.000    0.000 
#    0.000    0.000    0.000    0.000    0.000    0.000 
#
# Total GULP energy -72497.226077 kJ/mol
# GULP energy per Si atom -5576.709698 kJ/mol
# Density = 2.573224 g / cm^3
# Si number density = 25.790942 Si / 1000 Ang^3
#
#
#
# Elastic Constant Matrix: (Units=GPa)
#
#
# Indices 1 2 3 4 5 6 
#
# 1 88.9909 39.1489 25.7416 7.9825 -21.4728 -2.2193
# 2 39.1489 83.7247 10.7255 -3.9333 -10.9765 -0.2351
# 3 25.7416 10.7255 47.5419 -8.6984 -8.8263 -1.8178
# 4 7.9825 -3.9333 -8.6984 20.4972 -2.8882 -9.1350
# 5 -21.4728 -10.9765 -8.8263 -2.8882 47.2180 2.8976
# 6 -2.2193 -0.2351 -1.8178 -9.1350 2.8976 44.9315
#
#
#
# Elastic Compliance Matrix: (Units=1/GPa)
#
#
# Indices 1 2 3 4 5 6 
#
# 1 0.020483 -0.008252 -0.011223 -0.014936 0.004558 -0.002816
# 2 -0.008252 0.015970 0.002556 0.008093 0.000849 0.001370
# 3 -0.011223 0.002556 0.030851 0.020362 0.002214 0.004704
# 4 -0.014936 0.008093 0.020362 0.071611 0.002384 0.014534
# 5 0.004558 0.000849 0.002214 0.002384 0.024054 -0.000748
# 6 -0.002816 0.001370 0.004704 0.014534 -0.000748 0.025318
#
#
# Mechanical properties :
#
#
# Convention : Reuss Voigt Hill
#
# Bulk Modulus (GPa) = 29.88177 41.27661 35.57919
# Shear Modulus (GPa) = 21.43348 32.17212 26.80280
#
# Velocity S-wave (km/s) = 2.88592 3.53571 3.22721
# Velocity P-wave (km/s) = 4.76613 5.71904 5.26419
#
# Compressibility (1/GPa) = 0.03346522
#
# Stress axis : x y z
#
# Youngs Moduli (GPa) = 48.82091 62.61607 32.41434
#
# Poissons Ratio (x) = 0.51671 0.36379
# Poissons Ratio (y) = 0.40287 -0.08284
# Poissons Ratio (z) = 0.54792 -0.16003
#
# Static dielectric constant tensor:
#      x y z
#    x 2.939810 -0.548590 -0.422010 
#    y -0.548590 2.375910 0.374120 
#    z -0.422010 0.374120 2.243710 
# 
# From -- ./inp_files/31752.got.cif
#   From: 2010.05.17/outbox.cif.g08.bks.cpg/sg2_16_cif.got.tgz:31752.got - 2010.06.03 11:33:40.
