data_PCOD9103376
_publ_section_title
;
Structure prediction by ZEFSAII (Michael W. Deem and Ramdas Pophale) SiO2 
 PCOD9103376
Probable space group: P -1
;
_chemical_formula_sum "Si O2"
_cell_formula_units_Z 12
_cell_length_a 27.478664
_cell_length_b 12.747480
_cell_length_c 9.324230
_cell_angle_alpha 136.710498
_cell_angle_beta 147.676567
_cell_angle_gamma 20.399730
_cell_volume 571.545029
_symmetry_space_group_name_H-M "P -1"
_symmetry_group_IT_number 2
_symmetry_cell_setting 'triclinic'
loop_
_space_group_symop_operation_xyz
x,y,z
-x,-y,-z
loop_
_atom_site_type_symbol
_atom_site_label
_atom_site_fract_x
_atom_site_fract_y
_atom_site_fract_z
Si Si1 0.006151 0.960524 0.308961
Si Si2 0.609776 0.426574 0.823605
Si Si3 0.408124 0.800584 0.218232
Si Si4 0.280710 0.272524 0.245693
Si Si5 0.850526 0.105260 0.658346
Si Si6 0.699587 0.012749 0.187748
O O1 0.144502 0.614177 0.275666
O O2 0.083944 0.984463 0.433057
O O3 0.000000 0.000000 0.500000
O O4 0.789434 0.239202 0.011419
O O5 0.500000 0.500000 0.500000
O O6 0.668021 0.216543 0.881771
O O7 0.467362 0.750754 0.875691
O O8 0.632009 0.487628 0.503161
O O9 0.291974 0.131701 0.262622
O O10 0.391268 0.794762 0.999010
O O11 0.500000 0.000000 0.500000
O O12 0.221990 0.264391 0.948154
O O13 0.836540 0.948514 0.513415
O O14 0.000000 0.000000 0.000000
#
# Coordination Sequence:
#
# PCOD9103376 Si02
#       6
#     2   2   2   2   2   2
#     4  12  22  36  64  89 112 149 207 250 290 345
#     4  11  21  36  57  91 122 151 185 250 301 342
#     4   9  19  38  62  77 119 159 203 231 287 352
#     4  10  20  38  66  86 112 154 213 245 279 343
#     4  11  20  36  59  89 118 157 193 237 292 364
#     4   9  20  40  63  80 114 163 201 231 289 353
#
# _framework density 20.995722000000001
#
# number of rings (size 3 to 8) (size 9 to 14) (size 15 to 20)
#    1.000    0.667    1.667    7.000    0.000    0.667 
#    0.000    3.333    0.000    3.000    0.000    0.000 
#    0.000    0.000    0.000    0.000    0.000    0.000 
#
# Total GULP energy -66882.484625 kJ/mol
# GULP energy per Si atom -5573.540385 kJ/mol
# Density = 2.094793 g / cm^3
# Si number density = 20.995722 Si / 1000 Ang^3
#
#
#
# Elastic Constant Matrix: (Units=GPa)
#
#
# Indices 1 2 3 4 5 6 
#
# 1 50.9772 20.6249 -12.4806 -5.3540 8.4629 -19.7969
# 2 20.6249 104.0774 31.9693 13.5181 9.9091 -15.9075
# 3 -12.4806 31.9693 105.6998 -2.9639 7.4526 -4.3087
# 4 -5.3540 13.5181 -2.9639 32.7315 -7.1088 0.0028
# 5 8.4629 9.9091 7.4526 -7.1088 39.2345 -4.5792
# 6 -19.7969 -15.9075 -4.3087 0.0028 -4.5792 19.6202
#
#
#
# Elastic Compliance Matrix: (Units=1/GPa)
#
#
# Indices 1 2 3 4 5 6 
#
# 1 0.039516 -0.005725 0.008330 0.008975 -0.002784 0.036409
# 2 -0.005725 0.014055 -0.004815 -0.007682 -0.002323 0.004020
# 3 0.008330 -0.004815 0.012396 0.004175 -0.001373 0.006902
# 4 0.008975 -0.007682 0.004175 0.036987 0.006527 0.005262
# 5 -0.002784 -0.002323 -0.001373 0.006527 0.028307 0.001611
# 6 0.036409 0.004020 0.006902 0.005262 0.001611 0.092855
#
#
# Mechanical properties :
#
#
# Convention : Reuss Voigt Hill
#
# Bulk Modulus (GPa) = 16.24787 37.88685 27.06736
# Shear Modulus (GPa) = 20.07605 33.02663 26.55134
#
# Velocity S-wave (km/s) = 3.09560 3.97043 3.55999
# Velocity P-wave (km/s) = 4.53127 6.25326 5.46057
#
# Compressibility (1/GPa) = 0.06154653
#
# Stress axis : x y z
#
# Youngs Moduli (GPa) = 25.30593 71.14806 80.67249
#
# Poissons Ratio (x) = 0.40735 -0.67198
# Poissons Ratio (y) = 0.14488 0.38842
# Poissons Ratio (z) = -0.21079 0.34257
#
# Static dielectric constant tensor:
#      x y z
#    x 1.876840 0.056100 0.167030 
#    y 0.056100 1.770850 0.049390 
#    z 0.167030 0.049390 2.139190 
# 
# From -- ./inp_files/358736.got.cif
#   From: 2010.05.17/outbox.cif.g08.bks.cpg/sg2_180_cif.got.tgz:358736.got - 2010.06.03 11:33:40.
