data_PCOD9103084
_publ_section_title
;
Structure prediction by ZEFSAII (Michael W. Deem and Ramdas Pophale) SiO2 
 PCOD9103084
Probable space group: P -1
;
_chemical_formula_sum "Si O2"
_cell_formula_units_Z 16
_cell_length_a 8.854407
_cell_length_b 14.422039
_cell_length_c 9.659315
_cell_angle_alpha 122.596379
_cell_angle_beta 58.679524
_cell_angle_gamma 81.278699
_cell_volume 710.351520
_symmetry_space_group_name_H-M "P -1"
_symmetry_group_IT_number 2
_symmetry_cell_setting 'triclinic'
loop_
_space_group_symop_operation_xyz
x,y,z
-x,-y,-z
loop_
_atom_site_type_symbol
_atom_site_label
_atom_site_fract_x
_atom_site_fract_y
_atom_site_fract_z
Si Si1 0.028213 0.806496 0.461290
Si Si2 0.099746 0.383804 0.975080
Si Si3 0.464322 0.882916 0.519604
Si Si4 0.587773 0.042539 0.710483
Si Si5 0.876058 0.146462 0.249840
Si Si6 0.295666 0.502840 0.156575
Si Si7 0.741502 0.356940 0.254086
Si Si8 0.404279 0.728963 0.995195
O O1 0.025187 0.869518 0.659326
O O2 0.087257 0.659381 0.357666
O O3 0.222885 0.775342 0.240601
O O4 0.802896 0.913206 0.576180
O O5 0.242830 0.410399 0.026642
O O6 0.904960 0.388443 0.142397
O O7 0.274277 0.230719 0.711148
O O8 0.000000 0.500000 0.000000
O O9 0.371598 0.936284 0.451912
O O10 0.369388 0.807938 0.567915
O O11 0.417458 0.005841 0.737485
O O12 0.523432 0.172005 0.936960
O O13 0.848133 0.264295 0.265233
O O14 0.000000 0.000000 0.000000
O O15 0.500000 0.500000 0.000000
O O16 0.385785 0.428471 0.201434
O O17 0.500000 0.500000 0.500000
O O18 0.708778 0.268205 0.089429
#
# Coordination Sequence:
#
# PCOD9103084 Si02
#       8
#     2   2   2   2   2   2   2   2
#     4  11  22  41  67 101 133 187 238 278 350 431
#     4  12  23  44  75 104 138 190 242 295 354 429
#     4  11  24  43  69 104 140 183 247 294 353 427
#     4  11  22  38  72  99 130 178 255 293 326 416
#     4  12  27  45  67 103 153 186 227 299 378 414
#     4  10  20  38  65 101 130 171 232 301 338 400
#     4  12  28  47  72 108 147 186 235 304 374 424
#     4  11  21  42  70  97 135 188 243 286 345 429
#
# _framework density 22.524061
#
# number of rings (size 3 to 8) (size 9 to 14) (size 15 to 20)
#    0.000    0.750    2.500    6.375    5.250    0.000 
#    0.000    7.500    0.000    0.000    0.000    0.000 
#    0.000    0.000    0.000    0.000    0.000    0.000 
#
# Total GULP energy -89432.522899 kJ/mol
# GULP energy per Si atom -5589.532681 kJ/mol
# Density = 2.247280 g / cm^3
# Si number density = 22.524061 Si / 1000 Ang^3
#
#
#
# Elastic Constant Matrix: (Units=GPa)
#
#
# Indices 1 2 3 4 5 6 
#
# 1 114.4213 40.7124 33.9498 -6.2993 17.1972 5.3672
# 2 40.7124 117.2813 31.1437 7.3341 -14.4118 -10.3790
# 3 33.9498 31.1437 83.8226 9.9104 7.8229 -4.5318
# 4 -6.2993 7.3341 9.9104 36.0904 2.0896 -1.5646
# 5 17.1972 -14.4118 7.8229 2.0896 44.8156 5.4192
# 6 5.3672 -10.3790 -4.5318 -1.5646 5.4192 49.6321
#
#
#
# Elastic Compliance Matrix: (Units=1/GPa)
#
#
# Indices 1 2 3 4 5 6 
#
# 1 0.012578 -0.004575 -0.003479 0.004327 -0.005665 -0.001880
# 2 -0.004575 0.011909 -0.002694 -0.002736 0.005941 0.002004
# 3 -0.003479 -0.002694 0.015085 -0.004022 -0.002134 0.001296
# 4 0.004327 -0.002736 -0.004022 0.030307 -0.003239 -0.000098
# 5 -0.005665 0.005941 -0.002134 -0.003239 0.027091 -0.001400
# 6 -0.001880 0.002004 0.001296 -0.000098 -0.001400 0.021039
#
#
# Mechanical properties :
#
#
# Convention : Reuss Voigt Hill
#
# Bulk Modulus (GPa) = 55.32643 58.57079 56.94861
# Shear Modulus (GPa) = 34.35747 40.08892 37.22319
#
# Velocity S-wave (km/s) = 3.90983 4.22338 4.06962
# Velocity P-wave (km/s) = 6.70813 7.05993 6.88628
#
# Compressibility (1/GPa) = 0.01807454
#
# Stress axis : x y z
#
# Youngs Moduli (GPa) = 79.50650 83.97252 66.29261
#
# Poissons Ratio (x) = 0.38421 0.23061
# Poissons Ratio (y) = 0.36377 0.17860
# Poissons Ratio (z) = 0.27658 0.22623
#
# Static dielectric constant tensor:
#      x y z
#    x 1.879750 0.037050 0.011210 
#    y 0.037050 1.828450 0.012490 
#    z 0.011210 0.012490 1.880610 
# 
# From -- ./inp_files/208621.got.cif
#   From: 2010.05.17/outbox.cif.g08.bks.cpg/sg2_105_cif.got.tgz:208621.got - 2010.06.03 11:33:40.
