data_PCOD9103717
_publ_section_title
;
Structure prediction by ZEFSAII (Michael W. Deem and Ramdas Pophale) SiO2 
 PCOD9103717
Probable space group: P -1
;
_chemical_formula_sum "Si O2"
_cell_formula_units_Z 16
_cell_length_a 14.999343
_cell_length_b 7.910054
_cell_length_c 9.595231
_cell_angle_alpha 91.827036
_cell_angle_beta 130.805324
_cell_angle_gamma 61.360847
_cell_volume 685.128524
_symmetry_space_group_name_H-M "P -1"
_symmetry_group_IT_number 2
_symmetry_cell_setting 'triclinic'
loop_
_space_group_symop_operation_xyz
x,y,z
-x,-y,-z
loop_
_atom_site_type_symbol
_atom_site_label
_atom_site_fract_x
_atom_site_fract_y
_atom_site_fract_z
Si Si1 0.824397 0.651286 0.300159
Si Si2 0.460689 0.207861 0.548303
Si Si3 0.828845 0.340295 0.668953
Si Si4 0.094709 0.734538 0.750134
Si Si5 0.660880 0.141899 0.530028
Si Si6 0.919379 0.884912 0.297481
Si Si7 0.432456 0.047945 0.778543
Si Si8 0.964496 0.714096 0.902053
O O1 0.787101 0.499500 0.198679
O O2 0.811357 0.817898 0.182747
O O3 0.737966 0.763085 0.354890
O O4 0.000000 0.500000 0.500000
O O5 0.291537 0.418808 0.394032
O O6 0.554734 0.259575 0.557506
O O7 0.497483 0.130346 0.742857
O O8 0.500000 0.000000 0.500000
O O9 0.740277 0.242585 0.563342
O O10 0.925866 0.287806 0.628173
O O11 0.956996 0.223453 0.912013
O O12 0.037164 0.690072 0.826554
O O13 0.961483 0.870873 0.503946
O O14 0.143669 0.885465 0.821968
O O15 0.572871 0.123926 0.315105
O O16 0.792198 0.904257 0.711943
O O17 0.500000 0.000000 0.000000
O O18 0.000000 0.500000 0.000000
#
# Coordination Sequence:
#
# PCOD9103717 Si02
#       8
#     2   2   2   2   2   2   2   2
#     4  10  20  38  67  99 130 175 225 279 354 408
#     4  10  23  45  68  95 135 190 233 282 342 418
#     4  12  24  43  70 103 142 179 229 292 351 417
#     4  10  21  37  60 101 136 175 220 282 345 410
#     4  11  24  45  68  97 142 182 232 285 354 410
#     4  10  21  38  66  98 144 172 224 288 350 409
#     4  11  25  46  68  97 135 181 238 284 343 425
#     4  12  24  42  70 106 139 183 231 290 349 426
#
# _framework density 23.353285
#
# number of rings (size 3 to 8) (size 9 to 14) (size 15 to 20)
#    0.000    1.250    1.250    6.000    1.750    4.000 
#    0.000    0.625    0.000    0.000    0.000    0.000 
#    0.000    0.000    0.000    0.000    0.000    0.000 
#
# Total GULP energy -89295.855295 kJ/mol
# GULP energy per Si atom -5580.990956 kJ/mol
# Density = 2.330013 g / cm^3
# Si number density = 23.353285 Si / 1000 Ang^3
#
#
#
# Elastic Constant Matrix: (Units=GPa)
#
#
# Indices 1 2 3 4 5 6 
#
# 1 129.2005 49.0497 28.8793 3.6627 -37.8446 -11.4518
# 2 49.0497 116.7134 14.7752 -14.2169 -14.3191 14.0580
# 3 28.8793 14.7752 105.1508 15.2484 -14.8133 -1.5801
# 4 3.6627 -14.2169 15.2484 27.7618 -1.9152 -11.2644
# 5 -37.8446 -14.3191 -14.8133 -1.9152 36.3890 2.7859
# 6 -11.4518 14.0580 -1.5801 -11.2644 2.7859 45.6451
#
#
#
# Elastic Compliance Matrix: (Units=1/GPa)
#
#
# Indices 1 2 3 4 5 6 
#
# 1 0.013499 -0.004737 -0.001213 -0.001212 0.011326 0.003813
# 2 -0.004737 0.011839 -0.001319 0.006025 -0.000229 -0.003379
# 3 -0.001213 -0.001319 0.011416 -0.007189 0.002598 -0.001436
# 4 -0.001212 0.006025 -0.007189 0.046935 -0.000048 0.009177
# 5 0.011326 -0.000229 0.002598 -0.000048 0.040183 0.000538
# 6 0.003813 -0.003379 -0.001436 0.009177 0.000538 0.026088
#
#
# Mechanical properties :
#
#
# Convention : Reuss Voigt Hill
#
# Bulk Modulus (GPa) = 45.01636 59.60813 52.31224
# Shear Modulus (GPa) = 29.08610 39.18321 34.13466
#
# Velocity S-wave (km/s) = 3.53297 4.10060 3.82732
# Velocity P-wave (km/s) = 5.99671 6.92819 6.47921
#
# Compressibility (1/GPa) = 0.02221415
#
# Stress axis : x y z
#
# Youngs Moduli (GPa) = 74.07822 84.46923 87.59904
#
# Poissons Ratio (x) = 0.40013 0.10629
# Poissons Ratio (y) = 0.35091 0.11557
# Poissons Ratio (z) = 0.08988 0.11144
#
# Static dielectric constant tensor:
#      x y z
#    x 1.937610 0.053660 -0.017950 
#    y 0.053660 2.022860 -0.002410 
#    z -0.017950 -0.002410 1.995770 
# 
# From -- ./inp_files/298343.got.cif
#   From: 2010.05.17/outbox.cif.g08.bks.cpg/sg2_150_cif.got.tgz:298343.got - 2010.06.03 11:33:40.
