data_PCOD9103916
_publ_section_title
;
Structure prediction by ZEFSAII (Michael W. Deem and Ramdas Pophale) SiO2 
 PCOD9103916
Probable space group: P -1
;
_chemical_formula_sum "Si O2"
_cell_formula_units_Z 14
_cell_length_a 11.878922
_cell_length_b 13.969657
_cell_length_c 12.475440
_cell_angle_alpha 38.931915
_cell_angle_beta 129.992346
_cell_angle_gamma 150.738936
_cell_volume 631.508466
_symmetry_space_group_name_H-M "P -1"
_symmetry_group_IT_number 2
_symmetry_cell_setting 'triclinic'
loop_
_space_group_symop_operation_xyz
x,y,z
-x,-y,-z
loop_
_atom_site_type_symbol
_atom_site_label
_atom_site_fract_x
_atom_site_fract_y
_atom_site_fract_z
Si Si1 0.573259 0.231612 0.368015
Si Si2 0.623247 0.407667 0.474583
Si Si3 0.090377 0.943001 0.257877
Si Si4 0.368045 0.503814 0.185372
Si Si5 0.657462 0.273759 0.832579
Si Si6 0.169237 0.979380 0.047337
Si Si7 0.054815 0.400214 0.912701
O O1 0.653728 0.332530 0.450330
O O2 0.754702 0.419630 0.221037
O O3 0.500000 0.000000 0.500000
O O4 0.334012 0.134274 0.297671
O O5 0.423883 0.375321 0.363348
O O6 0.581168 0.274625 0.669190
O O7 0.865313 0.693516 0.393614
O O8 0.122820 0.876681 0.224739
O O9 0.029348 0.062312 0.075061
O O10 0.365843 0.611188 0.194054
O O11 0.593586 0.738487 0.051674
O O12 0.154815 0.373058 0.090985
O O13 0.932035 0.449642 0.843479
O O14 0.500000 0.000000 0.000000
O O15 0.158792 0.845569 0.067621
#
# Coordination Sequence:
#
# PCOD9103916 Si02
#       7
#     2   2   2   2   2   2   2
#     4  12  26  39  68 105 141 168 220 281 345 409
#     4  11  26  46  71  99 137 182 221 280 343 395
#     4  10  21  40  64 103 138 166 216 269 340 408
#     4  11  24  47  71  98 136 181 232 272 328 408
#     4  12  27  47  69  94 138 186 231 278 330 392
#     4  10  20  38  69  99 133 174 214 272 334 405
#     4  12  24  42  72 100 136 177 222 277 348 392
#
# _framework density 22.169141
#
# number of rings (size 3 to 8) (size 9 to 14) (size 15 to 20)
#    0.000    0.857    4.286    2.571    4.000    2.286 
#    2.571    0.714    0.000    0.000    0.000    0.000 
#    0.000    0.000    0.000    0.000    0.000    0.000 
#
# Total GULP energy -78196.461093 kJ/mol
# GULP energy per Si atom -5585.461507 kJ/mol
# Density = 2.211868 g / cm^3
# Si number density = 22.169141 Si / 1000 Ang^3
#
#
#
# Elastic Constant Matrix: (Units=GPa)
#
#
# Indices 1 2 3 4 5 6 
#
# 1 119.2832 14.4003 46.1044 10.7104 -6.8867 0.3304
# 2 14.4003 39.9428 23.9952 6.8449 -7.5183 -7.4909
# 3 46.1044 23.9952 141.2844 9.6330 -13.1049 -7.8455
# 4 10.7104 6.8449 9.6330 21.4497 -2.6620 2.8179
# 5 -6.8867 -7.5183 -13.1049 -2.6620 29.1134 7.5241
# 6 0.3304 -7.4909 -7.8455 2.8179 7.5241 23.3182
#
#
#
# Elastic Compliance Matrix: (Units=1/GPa)
#
#
# Indices 1 2 3 4 5 6 
#
# 1 0.009965 -0.001534 -0.002798 -0.002933 0.000817 -0.001484
# 2 -0.001534 0.031390 -0.003467 -0.008489 0.003089 0.008968
# 3 -0.002798 -0.003467 0.008943 -0.001465 0.001951 0.001482
# 4 -0.002933 -0.008489 -0.001465 0.053413 0.004176 -0.010981
# 5 0.000817 0.003089 0.001951 0.004176 0.039610 -0.011649
# 6 -0.001484 0.008968 0.001482 -0.010981 -0.011649 0.051371
#
#
# Mechanical properties :
#
#
# Convention : Reuss Voigt Hill
#
# Bulk Modulus (GPa) = 28.81875 52.16779 40.49327
# Shear Modulus (GPa) = 22.53713 29.17695 25.85704
#
# Velocity S-wave (km/s) = 3.19187 3.63175 3.41890
# Velocity P-wave (km/s) = 5.15866 6.41631 5.82154
#
# Compressibility (1/GPa) = 0.03469963
#
# Stress axis : x y z
#
# Youngs Moduli (GPa) = 100.35497 31.85763 111.81909
#
# Poissons Ratio (x) = 0.04886 0.31286
# Poissons Ratio (y) = 0.15390 0.38772
# Poissons Ratio (z) = 0.28078 0.11046
#
# Static dielectric constant tensor:
#      x y z
#    x 1.915980 0.001870 0.023590 
#    y 0.001870 1.835610 0.012160 
#    z 0.023590 0.012160 1.794620 
# 
# From -- ./inp_files/94819.got.cif
#   From: 2010.05.17/outbox.cif.g08.bks.cpg/sg2_48_cif.got.tgz:94819.got - 2010.06.03 11:33:40.
