data_PCOD9103844
_publ_section_title
;
Structure prediction by ZEFSAII (Michael W. Deem and Ramdas Pophale) SiO2 
 PCOD9103844
Probable space group: P -1
;
_chemical_formula_sum "Si O2"
_cell_formula_units_Z 11
_cell_length_a 10.681510
_cell_length_b 9.652618
_cell_length_c 8.956896
_cell_angle_alpha 133.484764
_cell_angle_beta 78.226001
_cell_angle_gamma 67.002313
_cell_volume 435.545529
_symmetry_space_group_name_H-M "P -1"
_symmetry_group_IT_number 2
_symmetry_cell_setting 'triclinic'
loop_
_space_group_symop_operation_xyz
x,y,z
-x,-y,-z
loop_
_atom_site_type_symbol
_atom_site_label
_atom_site_fract_x
_atom_site_fract_y
_atom_site_fract_z
Si Si1 0.727002 0.941543 0.298771
Si Si2 0.543055 0.784352 0.711948
Si Si3 0.688123 0.403731 0.651600
Si Si4 0.087422 0.031532 0.370191
Si Si5 0.849860 0.600417 0.285211
Si Si6 0.500000 0.500000 0.000000
O O1 0.722899 0.781658 0.303173
O O2 0.621804 0.042367 0.243028
O O3 0.655337 0.223538 0.598549
O O4 0.952816 0.719530 0.046865
O O5 0.578720 0.563117 0.644711
O O6 0.734677 0.618477 0.451000
O O7 0.500000 0.000000 0.000000
O O8 0.590765 0.601956 0.967615
O O9 0.911701 0.200844 0.421302
O O10 0.092397 0.251966 0.564931
O O11 0.000000 0.000000 0.500000
O O12 0.307730 0.721611 0.084115
#
# Coordination Sequence:
#
# PCOD9103844 Si02
#       6
#     2   2   2   2   2   1
#     4  11  25  46  69  99 140 183 228 275 341 407
#     4  12  27  44  69 104 139 180 228 283 342 400
#     4  11  24  43  70 102 137 177 229 279 337 409
#     4  10  20  40  66  98 128 174 226 270 334 401
#     4  11  24  46  69  99 138 181 224 288 333 405
#     4  10  20  38  68  98 130 174 218 274 328 406
#
# _framework density 25.255682
#
# number of rings (size 3 to 8) (size 9 to 14) (size 15 to 20)
#    0.000    1.091    3.636    3.273    0.000    8.000 
#    3.273    0.000    0.000    0.000    0.000    0.000 
#    0.000    0.000    0.000    0.000    0.000    0.000 
#
# Total GULP energy -61302.877085 kJ/mol
# GULP energy per Si atom -5572.988826 kJ/mol
# Density = 2.519820 g / cm^3
# Si number density = 25.255682 Si / 1000 Ang^3
#
#
#
# Elastic Constant Matrix: (Units=GPa)
#
#
# Indices 1 2 3 4 5 6 
#
# 1 69.7682 52.7933 34.2624 9.1474 -2.8582 -16.1113
# 2 52.7933 193.1416 40.1807 -12.0791 -8.0592 -9.7931
# 3 34.2624 40.1807 152.9282 5.3230 -32.4323 -1.1211
# 4 9.1474 -12.0791 5.3230 39.6594 -2.0006 -13.4488
# 5 -2.8582 -8.0592 -32.4323 -2.0006 41.6037 -5.0849
# 6 -16.1113 -9.7931 -1.1211 -13.4488 -5.0849 50.7668
#
#
#
# Elastic Compliance Matrix: (Units=1/GPa)
#
#
# Indices 1 2 3 4 5 6 
#
# 1 0.021734 -0.005337 -0.003725 -0.004788 -0.002149 0.004302
# 2 -0.005337 0.007070 -0.000620 0.003755 0.000790 0.000730
# 3 -0.003725 -0.000620 0.008923 -0.000389 0.006493 -0.000557
# 4 -0.004788 0.003755 -0.000389 0.030159 0.002454 0.007432
# 5 -0.002149 0.000790 0.006493 0.002454 0.029616 0.003230
# 6 0.004302 0.000730 -0.000557 0.007432 0.003230 0.023484
#
#
# Mechanical properties :
#
#
# Convention : Reuss Voigt Hill
#
# Bulk Modulus (GPa) = 54.45365 74.47896 64.46630
# Shear Modulus (GPa) = 34.13681 45.64609 39.89145
#
# Velocity S-wave (km/s) = 3.68047 4.25592 3.97861
# Velocity P-wave (km/s) = 6.29832 7.32833 6.83276
#
# Compressibility (1/GPa) = 0.01836424
#
# Stress axis : x y z
#
# Youngs Moduli (GPa) = 46.01127 141.44136 112.07253
#
# Poissons Ratio (x) = 0.75485 0.41742
# Poissons Ratio (y) = 0.24555 0.06947
# Poissons Ratio (z) = 0.17137 0.08767
#
# Static dielectric constant tensor:
#      x y z
#    x 2.126950 -0.052360 0.036010 
#    y -0.052360 2.004500 0.036090 
#    z 0.036010 0.036090 2.148050 
# 
# From -- ./inp_files/59323.got.cif
#   From: 2010.05.17/outbox.cif.g08.bks.cpg/sg2_30_cif.got.tgz:59323.got - 2010.06.03 11:33:40.
