data_PCOD9103246
_publ_section_title
;
Structure prediction by ZEFSAII (Michael W. Deem and Ramdas Pophale) SiO2 
 PCOD9103246
Probable space group: P -1
;
_chemical_formula_sum "Si O2"
_cell_formula_units_Z 16
_cell_length_a 9.903104
_cell_length_b 18.179780
_cell_length_c 7.941878
_cell_angle_alpha 37.005831
_cell_angle_beta 115.765191
_cell_angle_gamma 131.894158
_cell_volume 624.922868
_symmetry_space_group_name_H-M "P -1"
_symmetry_group_IT_number 2
_symmetry_cell_setting 'triclinic'
loop_
_space_group_symop_operation_xyz
x,y,z
-x,-y,-z
loop_
_atom_site_type_symbol
_atom_site_label
_atom_site_fract_x
_atom_site_fract_y
_atom_site_fract_z
Si Si1 0.795510 0.119257 0.556604
Si Si2 0.817834 0.951017 0.390565
Si Si3 0.769434 0.501514 0.480072
Si Si4 0.721429 0.348633 0.231648
Si Si5 0.472772 0.358267 0.341095
Si Si6 0.022843 0.637274 0.054375
Si Si7 0.933821 0.802855 0.175376
Si Si8 0.393461 0.174925 0.159941
O O1 0.755216 0.221675 0.454283
O O2 0.967369 0.132134 0.711833
O O3 0.621362 0.945645 0.754356
O O4 0.866610 0.200830 0.266205
O O5 0.727892 0.796918 0.514691
O O6 0.672715 0.905131 0.545510
O O7 0.000000 0.000000 0.500000
O O8 0.891941 0.090894 0.051280
O O9 0.553785 0.408249 0.481529
O O10 0.881390 0.604272 0.186174
O O11 0.847174 0.626827 0.435780
O O12 0.838217 0.397539 0.734305
O O13 0.606974 0.325686 0.380157
O O14 0.904858 0.515730 0.062944
O O15 0.594853 0.324820 0.044398
O O16 0.500000 0.500000 0.000000
O O17 0.763355 0.806866 0.020478
#
# Coordination Sequence:
#
# PCOD9103246 Si02
#       8
#     2   2   2   2   2   2   2   2
#     4  12  23  40  61  86 127 165 203 248 307 367
#     4   9  19  38  62  90 117 157 205 247 305 356
#     4  10  20  39  64  90 118 156 210 251 301 361
#     4  10  21  39  61  88 120 160 202 248 304 358
#     4  10  20  38  65  94 123 154 202 261 303 355
#     4  10  22  40  63  88 119 165 202 249 307 367
#     4  11  22  39  64  90 123 159 206 255 304 364
#     4  10  22  41  60  87 121 164 202 251 306 356
#
# _framework density 25.603156999999999
#
# number of rings (size 3 to 8) (size 9 to 14) (size 15 to 20)
#    0.000    1.750    1.250    4.125    0.000    3.000 
#    4.500    1.875    0.000    0.000    0.000    0.000 
#    0.000    0.000    0.000    0.000    0.000    0.000 
#
# Total GULP energy -89488.776421 kJ/mol
# GULP energy per Si atom -5593.048526 kJ/mol
# Density = 2.554488 g / cm^3
# Si number density = 25.603157 Si / 1000 Ang^3
#
#
#
# Elastic Constant Matrix: (Units=GPa)
#
#
# Indices 1 2 3 4 5 6 
#
# 1 63.2767 -12.1671 8.2271 -3.0479 -7.1250 -0.7887
# 2 -12.1671 190.8457 38.1075 -9.6131 14.0166 24.0276
# 3 8.2271 38.1075 93.3126 3.8218 -2.1137 11.9756
# 4 -3.0479 -9.6131 3.8218 45.0113 4.7301 9.1193
# 5 -7.1250 14.0166 -2.1137 4.7301 31.6932 3.4048
# 6 -0.7887 24.0276 11.9756 9.1193 3.4048 30.7637
#
#
#
# Elastic Compliance Matrix: (Units=1/GPa)
#
#
# Indices 1 2 3 4 5 6 
#
# 1 0.016710 0.001398 -0.001955 0.001425 0.002864 -0.000642
# 2 0.001398 0.006795 -0.002456 0.003041 -0.002781 -0.004909
# 3 -0.001955 -0.002456 0.012345 -0.001354 0.001968 -0.002754
# 4 0.001425 0.003041 -0.001354 0.025289 -0.003936 -0.008872
# 5 0.002864 -0.002781 0.001968 -0.003936 0.034268 -0.001146
# 6 -0.000642 -0.004909 -0.002754 -0.008872 -0.001146 0.040153
#
#
# Mechanical properties :
#
#
# Convention : Reuss Voigt Hill
#
# Bulk Modulus (GPa) = 33.53010 46.19666 39.86338
# Shear Modulus (GPa) = 32.99744 42.37813 37.68779
#
# Velocity S-wave (km/s) = 3.59389 4.07282 3.84082
# Velocity P-wave (km/s) = 5.50871 6.34032 5.93909
#
# Compressibility (1/GPa) = 0.02982395
#
# Stress axis : x y z
#
# Youngs Moduli (GPa) = 59.84517 147.17181 81.00152
#
# Poissons Ratio (x) = -0.20574 0.15838
# Poissons Ratio (y) = -0.08366 0.19892
# Poissons Ratio (z) = 0.11701 0.36141
#
# Static dielectric constant tensor:
#      x y z
#    x 2.073020 0.007210 -0.054720 
#    y 0.007210 2.040150 0.003830 
#    z -0.054720 0.003830 2.013380 
# 
# From -- ./inp_files/282659.got.cif
#   From: 2010.05.17/outbox.cif.g08.bks.cpg/sg2_142_cif.got.tgz:282659.got - 2010.06.03 11:33:40.
