data_PCOD9103599
_publ_section_title
;
Structure prediction by ZEFSAII (Michael W. Deem and Ramdas Pophale) SiO2 
 PCOD9103599
Probable space group: P -1
;
_chemical_formula_sum "Si O2"
_cell_formula_units_Z 16
_cell_length_a 24.090834
_cell_length_b 20.220556
_cell_length_c 14.022913
_cell_angle_alpha 18.223072
_cell_angle_beta 30.804539
_cell_angle_gamma 22.004948
_cell_volume 786.506130
_symmetry_space_group_name_H-M "P -1"
_symmetry_group_IT_number 2
_symmetry_cell_setting 'triclinic'
loop_
_space_group_symop_operation_xyz
x,y,z
-x,-y,-z
loop_
_atom_site_type_symbol
_atom_site_label
_atom_site_fract_x
_atom_site_fract_y
_atom_site_fract_z
Si Si1 0.609676 0.074200 0.670079
Si Si2 0.332124 0.432685 0.846574
Si Si3 0.159406 0.375864 0.908799
Si Si4 0.722915 0.360316 0.553648
Si Si5 0.165122 0.394663 0.294588
Si Si6 0.813331 0.786352 0.275444
Si Si7 0.425982 0.774131 0.671715
Si Si8 0.358886 0.113053 0.793115
O O1 0.440538 0.317020 0.624320
O O2 0.617743 0.240428 0.349726
O O3 0.653732 0.803314 0.915509
O O4 0.720795 0.926945 0.794697
O O5 0.273363 0.672429 0.522786
O O6 0.222970 0.521875 0.974493
O O7 0.501115 0.235605 0.909406
O O8 0.164640 0.609737 0.618657
O O9 0.222389 0.284616 0.834141
O O10 0.000000 0.500000 0.000000
O O11 0.748848 0.114412 0.913661
O O12 0.189854 0.339209 0.448308
O O13 0.991582 0.577899 0.276910
O O14 0.276613 0.064726 0.542424
O O15 0.713310 0.811123 0.307917
O O16 0.554721 0.781384 0.467410
O O17 0.500000 0.500000 0.000000
#
# Coordination Sequence:
#
# PCOD9103599 Si02
#       8
#     2   2   2   2   2   2   2   2
#     4   9  17  36  60  86 116 150 188 245 298 332
#     4   9  18  36  62  83 116 152 201 243 286 336
#     4  11  21  36  60  90 121 149 192 249 298 333
#     4  11  19  38  62  86 115 161 195 233 289 368
#     4   9  22  41  55  80 125 162 184 234 310 347
#     4  11  24  38  59  85 123 160 188 238 300 353
#     4  10  20  38  67  87 106 156 207 237 280 355
#     4  10  21  38  59  90 118 147 195 246 293 336
#
# _framework density 20.343135
#
# number of rings (size 3 to 8) (size 9 to 14) (size 15 to 20)
#    0.000    2.250    3.750    1.500    5.250    3.000 
#    0.000    4.375    0.000    0.000    0.000    0.000 
#    0.000    0.000    0.000    0.000    0.000    0.000 
#
# Total GULP energy -89077.373126 kJ/mol
# GULP energy per Si atom -5567.335820 kJ/mol
# Density = 2.029683 g / cm^3
# Si number density = 20.343135 Si / 1000 Ang^3
#
#
#
# Elastic Constant Matrix: (Units=GPa)
#
#
# Indices 1 2 3 4 5 6 
#
# 1 72.1668 19.5028 -0.2376 11.2380 20.6683 7.3795
# 2 19.5028 112.0897 -3.8127 7.5440 -5.9850 6.7380
# 3 -0.2376 -3.8127 37.8088 1.8540 6.6830 4.7751
# 4 11.2380 7.5440 1.8540 20.5149 -1.8452 10.3757
# 5 20.6683 -5.9850 6.6830 -1.8452 18.7488 8.6158
# 6 7.3795 6.7380 4.7751 10.3757 8.6158 23.9369
#
#
#
# Elastic Compliance Matrix: (Units=1/GPa)
#
#
# Indices 1 2 3 4 5 6 
#
# 1 0.038299 -0.009002 0.009163 -0.039458 -0.065902 0.029723
# 2 -0.009002 0.011614 -0.001432 0.008095 0.019945 -0.010896
# 3 0.009163 -0.001432 0.030730 -0.012686 -0.025589 0.006158
# 4 -0.039458 0.008095 -0.012686 0.112435 0.093889 -0.070114
# 5 -0.065902 0.019945 -0.025589 0.093889 0.192085 -0.090029
# 6 0.029723 -0.010896 0.006158 -0.070114 -0.090029 0.097248
#
#
# Mechanical properties :
#
#
# Convention : Reuss Voigt Hill
#
# Bulk Modulus (GPa) = 12.80400 28.10782 20.45591
# Shear Modulus (GPa) = 9.78498 26.41432 18.09965
#
# Velocity S-wave (km/s) = 2.19554 3.60729 2.98605
# Velocity P-wave (km/s) = 3.56860 5.58542 4.68678
#
# Compressibility (1/GPa) = 0.07810062
#
# Stress axis : x y z
#
# Youngs Moduli (GPa) = 26.11045 86.10150 32.54191
#
# Poissons Ratio (x) = 0.77508 -0.29817
# Poissons Ratio (y) = 0.23505 0.04659
# Poissons Ratio (z) = -0.23924 0.12327
#
# Static dielectric constant tensor:
#      x y z
#    x 1.768960 0.025570 0.018680 
#    y 0.025570 1.628410 -0.027060 
#    z 0.018680 -0.027060 1.796220 
# 
# From -- ./inp_files/543207.got.cif
#   From: 2010.05.17/outbox.cif.g08.bks.cpg/sg2_272_cif.got.tgz:543207.got - 2010.06.03 11:33:40.
