data_PCOD9103636
_publ_section_title
;
Structure prediction by ZEFSAII (Michael W. Deem and Ramdas Pophale) SiO2 
 PCOD9103636
Probable space group: P -1
;
_chemical_formula_sum "Si O2"
_cell_formula_units_Z 16
_cell_length_a 22.468569
_cell_length_b 26.457512
_cell_length_c 10.118851
_cell_angle_alpha 27.416420
_cell_angle_beta 142.762435
_cell_angle_gamma 162.107394
_cell_volume 799.135335
_symmetry_space_group_name_H-M "P -1"
_symmetry_group_IT_number 2
_symmetry_cell_setting 'triclinic'
loop_
_space_group_symop_operation_xyz
x,y,z
-x,-y,-z
loop_
_atom_site_type_symbol
_atom_site_label
_atom_site_fract_x
_atom_site_fract_y
_atom_site_fract_z
Si Si1 0.684430 0.479445 0.383909
Si Si2 0.795015 0.734607 0.222732
Si Si3 0.180592 0.360787 0.240138
Si Si4 0.771994 0.940253 0.332791
Si Si5 0.636562 0.577981 0.822365
Si Si6 0.723319 0.082376 0.712090
Si Si7 0.236790 0.621938 0.874441
Si Si8 0.018052 0.387931 0.295349
O O1 0.811041 0.677777 0.251794
O O2 0.448860 0.254501 0.537343
O O3 0.787462 0.462424 0.621673
O O4 0.700769 0.550727 0.106133
O O5 0.758449 0.624282 0.542752
O O6 0.602665 0.626029 0.113260
O O7 0.000000 0.000000 0.000000
O O8 0.320160 0.432085 0.218504
O O9 0.205817 0.516868 0.934566
O O10 0.949854 0.110134 0.362548
O O11 0.753435 0.806497 0.532573
O O12 0.804897 0.070954 0.983743
O O13 0.785736 0.268353 0.431385
O O14 0.818184 0.152143 0.571584
O O15 0.474200 0.835624 0.843251
O O16 0.076999 0.421149 0.170173
O O17 0.000000 0.500000 0.000000
#
# Coordination Sequence:
#
# PCOD9103636 Si02
#       8
#     2   2   2   2   2   2   2   2
#     4  11  21  42  63  88 130 168 212 258 317 387
#     4  11  22  38  61  90 124 166 209 264 318 368
#     4  12  23  39  60  92 133 159 215 270 309 373
#     4  11  22  40  63  90 129 177 208 256 323 380
#     4  11  24  40  62  92 131 170 213 252 321 392
#     4  10  21  39  70  88 124 172 211 258 323 381
#     4  10  21  42  61  96 126 163 216 268 313 373
#     4  10  20  38  67  92 119 161 216 256 308 378
#
# _framework density 20.021639
#
# number of rings (size 3 to 8) (size 9 to 14) (size 15 to 20)
#    0.000    1.250    2.500    5.250    0.000    2.500 
#    2.250    0.000    0.000    2.250    0.000    0.000 
#    0.000    0.000    0.000    0.000    0.000    0.000 
#
# Total GULP energy -89311.290593 kJ/mol
# GULP energy per Si atom -5581.955662 kJ/mol
# Density = 1.997607 g / cm^3
# Si number density = 20.021639 Si / 1000 Ang^3
#
#
#
# Elastic Constant Matrix: (Units=GPa)
#
#
# Indices 1 2 3 4 5 6 
#
# 1 80.8680 -1.1583 14.7076 6.8675 16.7622 4.6694
# 2 -1.1583 54.6593 2.2538 8.3564 19.2687 0.1789
# 3 14.7076 2.2538 68.2768 20.6861 8.8320 2.8805
# 4 6.8675 8.3564 20.6861 35.6250 -1.3972 3.8111
# 5 16.7622 19.2687 8.8320 -1.3972 27.7475 2.3929
# 6 4.6694 0.1789 2.8805 3.8111 2.3929 31.2647
#
#
#
# Elastic Compliance Matrix: (Units=1/GPa)
#
#
# Indices 1 2 3 4 5 6 
#
# 1 0.015794 0.005887 -0.000384 -0.004659 -0.013677 -0.000742
# 2 0.005887 0.029264 0.004687 -0.011958 -0.026143 0.001980
# 3 -0.000384 0.004687 0.019773 -0.012959 -0.010017 0.000555
# 4 -0.004659 -0.011958 -0.012959 0.040453 0.017653 -0.004324
# 5 -0.013677 -0.026143 -0.010017 0.017653 0.066892 -0.004157
# 6 -0.000742 0.001980 0.000555 -0.004324 -0.004157 0.032879
#
#
# Mechanical properties :
#
#
# Convention : Reuss Voigt Hill
#
# Bulk Modulus (GPa) = 11.73575 26.15672 18.94623
# Shear Modulus (GPa) = 23.46560 31.46086 27.46323
#
# Velocity S-wave (km/s) = 3.42718 3.96832 3.70763
# Velocity P-wave (km/s) = 4.64058 5.83860 5.27372
#
# Compressibility (1/GPa) = 0.08520970
#
# Stress axis : x y z
#
# Youngs Moduli (GPa) = 63.31702 34.17132 50.57451
#
# Poissons Ratio (x) = -0.20116 0.01944
# Poissons Ratio (y) = -0.37273 -0.23704
# Poissons Ratio (z) = 0.02433 -0.16016
#
# Static dielectric constant tensor:
#      x y z
#    x 1.731890 0.033530 0.002620 
#    y 0.033530 1.680740 0.003150 
#    z 0.002620 0.003150 1.764130 
# 
# From -- ./inp_files/208134.got.cif
#   From: 2010.05.17/outbox.cif.g08.bks.cpg/sg2_105_cif.got.tgz:208134.got - 2010.06.03 11:33:40.
