data_PCOD9103197
_publ_section_title
;
Structure prediction by ZEFSAII (Michael W. Deem and Ramdas Pophale) SiO2 
 PCOD9103197
Probable space group: P -1
;
_chemical_formula_sum "Si O2"
_cell_formula_units_Z 14
_cell_length_a 12.890217
_cell_length_b 9.850561
_cell_length_c 7.998884
_cell_angle_alpha 56.234605
_cell_angle_beta 113.573546
_cell_angle_gamma 136.790943
_cell_volume 578.066092
_symmetry_space_group_name_H-M "P -1"
_symmetry_group_IT_number 2
_symmetry_cell_setting 'triclinic'
loop_
_space_group_symop_operation_xyz
x,y,z
-x,-y,-z
loop_
_atom_site_type_symbol
_atom_site_label
_atom_site_fract_x
_atom_site_fract_y
_atom_site_fract_z
Si Si1 0.924228 0.888580 0.257444
Si Si2 0.200227 0.907130 0.952349
Si Si3 0.312352 0.078055 0.563133
Si Si4 0.049344 0.409769 0.732264
Si Si5 0.198549 0.311423 0.320316
Si Si6 0.634988 0.238172 0.759891
Si Si7 0.319503 0.813699 0.526369
O O1 0.953479 0.772147 0.227842
O O2 0.876878 0.772003 0.487123
O O3 0.073758 0.139807 0.222293
O O4 0.798136 0.902898 0.116614
O O5 0.346073 0.933587 0.063168
O O6 0.061623 0.691605 0.110746
O O7 0.190374 0.914751 0.739833
O O8 0.273739 0.955061 0.446645
O O9 0.318101 0.277206 0.416307
O O10 0.469995 0.153111 0.676388
O O11 0.225808 0.623169 0.733615
O O12 0.000000 0.500000 0.500000
O O13 0.277007 0.561264 0.193501
O O14 0.716314 0.313600 0.580111
O O15 0.500000 0.000000 0.500000
#
# Coordination Sequence:
#
# PCOD9103197 Si02
#       7
#     2   2   2   2   2   2   2
#     4  10  22  38  60  98 131 159 208 271 318 374
#     4  11  24  39  64  94 133 163 215 263 326 368
#     4  10  23  40  63  92 132 165 214 268 314 373
#     4  12  21  40  67  92 125 171 214 262 321 381
#     4  10  20  38  65  92 125 166 217 258 314 378
#     4  11  21  41  65  92 126 177 213 257 318 381
#     4  10  22  40  65  92 125 166 216 257 312 380
#
# _framework density 24.218684
#
# number of rings (size 3 to 8) (size 9 to 14) (size 15 to 20)
#    0.000    1.429    2.857    2.143    0.000    4.571 
#    0.000    0.000    0.000    2.571    0.000    0.000 
#    0.000    0.000    0.000    0.000    0.000    0.000 
#
# Total GULP energy -78084.652826 kJ/mol
# GULP energy per Si atom -5577.475202 kJ/mol
# Density = 2.416356 g / cm^3
# Si number density = 24.218684 Si / 1000 Ang^3
#
#
#
# Elastic Constant Matrix: (Units=GPa)
#
#
# Indices 1 2 3 4 5 6 
#
# 1 149.9771 46.6257 42.1966 -1.0864 18.6820 -20.2730
# 2 46.6257 113.7788 7.4714 -7.3570 14.2406 -21.0165
# 3 42.1966 7.4714 74.5321 -2.6666 11.7468 -4.9952
# 4 -1.0864 -7.3570 -2.6666 9.6212 1.8641 -0.9300
# 5 18.6820 14.2406 11.7468 1.8641 54.7364 2.7392
# 6 -20.2730 -21.0165 -4.9952 -0.9300 2.7392 45.5804
#
#
#
# Elastic Compliance Matrix: (Units=1/GPa)
#
#
# Indices 1 2 3 4 5 6 
#
# 1 0.009431 -0.003085 -0.004724 -0.002101 -0.001446 0.002299
# 2 -0.003085 0.011833 0.001706 0.010199 -0.002972 0.004658
# 3 -0.004724 0.001706 0.016602 0.005959 -0.002637 0.000785
# 4 -0.002101 0.010199 0.005959 0.115303 -0.007504 0.007225
# 5 -0.001446 -0.002972 -0.002637 -0.007504 0.020542 -0.003690
# 6 0.002299 0.004658 0.000785 0.007225 -0.003690 0.025564
#
#
# Mechanical properties :
#
#
# Convention : Reuss Voigt Hill
#
# Bulk Modulus (GPa) = 38.97006 58.98615 48.97811
# Shear Modulus (GPa) = 22.72371 38.12054 30.42212
#
# Velocity S-wave (km/s) = 3.06645 3.97169 3.54806
# Velocity P-wave (km/s) = 5.35381 6.74099 6.08704
#
# Compressibility (1/GPa) = 0.02566072
#
# Stress axis : x y z
#
# Youngs Moduli (GPa) = 106.02866 84.50994 60.23488
#
# Poissons Ratio (x) = 0.26071 0.28452
# Poissons Ratio (y) = 0.32709 -0.10275
# Poissons Ratio (z) = 0.50083 -0.14416
#
# Static dielectric constant tensor:
#      x y z
#    x 1.981770 0.059130 0.032760 
#    y 0.059130 1.986320 0.035250 
#    z 0.032760 0.035250 2.032770 
# 
# From -- ./inp_files/242666.got.cif
#   From: 2010.05.17/outbox.cif.g08.bks.cpg/sg2_122_cif.got.tgz:242666.got - 2010.06.03 11:33:40.
