data_PCOD9103879
_publ_section_title
;
Structure prediction by ZEFSAII (Michael W. Deem and Ramdas Pophale) SiO2 
 PCOD9103879
Probable space group: P -1
;
_chemical_formula_sum "Si O2"
_cell_formula_units_Z 12
_cell_length_a 16.982081
_cell_length_b 4.965880
_cell_length_c 14.546079
_cell_angle_alpha 98.657034
_cell_angle_beta 146.633811
_cell_angle_gamma 64.240365
_cell_volume 548.895246
_symmetry_space_group_name_H-M "P -1"
_symmetry_group_IT_number 2
_symmetry_cell_setting 'triclinic'
loop_
_space_group_symop_operation_xyz
x,y,z
-x,-y,-z
loop_
_atom_site_type_symbol
_atom_site_label
_atom_site_fract_x
_atom_site_fract_y
_atom_site_fract_z
Si Si1 0.249429 0.313668 0.952855
Si Si2 0.481787 0.247986 0.694052
Si Si3 0.420907 0.620453 0.028810
Si Si4 0.383621 0.478011 0.305620
Si Si5 0.987941 0.138652 0.120085
Si Si6 0.222869 0.359353 0.302010
O O1 0.353860 0.414301 0.997660
O O2 0.479600 0.522154 0.314046
O O3 0.352737 0.124067 0.138708
O O4 0.076280 0.644994 0.837250
O O5 0.441029 0.394999 0.765179
O O6 0.354395 0.198335 0.508410
O O7 0.739032 0.988671 0.102715
O O8 0.500000 0.500000 0.000000
O O9 0.500000 0.500000 0.500000
O O10 0.327322 0.276847 0.304944
O O11 0.185835 0.768293 0.096126
O O12 0.091024 0.254905 0.170821
O O13 0.113945 0.749690 0.236016
#
# Coordination Sequence:
#
# PCOD9103879 Si02
#       6
#     2   2   2   2   2   2
#     4  10  21  38  64  87 121 154 202 245 309 347
#     4   9  22  39  62  89 121 158 207 252 295 344
#     4  10  20  38  69  92 111 148 210 256 296 357
#     4  10  21  41  59  89 122 168 209 248 283 352
#     4  12  22  41  58  90 128 162 200 248 304 355
#     4  11  25  36  61  89 128 165 203 243 298 359
#
# _framework density 21.862096999999999
#
# number of rings (size 3 to 8) (size 9 to 14) (size 15 to 20)
#    1.000    0.667    1.667    3.500    2.333    1.333 
#    0.000    6.667    0.000    6.000    0.000    0.000 
#    0.000    0.000    0.000    0.000    0.000    0.000 
#
# Total GULP energy -66823.739405 kJ/mol
# GULP energy per Si atom -5568.644950 kJ/mol
# Density = 2.181234 g / cm^3
# Si number density = 21.862097 Si / 1000 Ang^3
#
#
#
# Elastic Constant Matrix: (Units=GPa)
#
#
# Indices 1 2 3 4 5 6 
#
# 1 143.1937 45.9320 38.9989 18.6762 -24.6538 -7.4336
# 2 45.9320 128.4947 -1.3586 -6.0863 -12.6507 0.2515
# 3 38.9989 -1.3586 53.9309 6.2380 -1.5728 -12.4545
# 4 18.6762 -6.0863 6.2380 24.8070 0.1028 3.1881
# 5 -24.6538 -12.6507 -1.5728 0.1028 39.9547 11.8993
# 6 -7.4336 0.2515 -12.4545 3.1881 11.8993 39.4240
#
#
#
# Elastic Compliance Matrix: (Units=1/GPa)
#
#
# Indices 1 2 3 4 5 6 
#
# 1 0.012965 -0.004461 -0.008683 -0.008491 0.006750 -0.001621
# 2 -0.004461 0.009710 0.002749 0.005128 0.000605 -0.000632
# 3 -0.008683 0.002749 0.026789 -0.000615 -0.006014 0.008673
# 4 -0.008491 0.005128 -0.000615 0.048781 -0.002248 -0.005094
# 5 0.006750 0.000605 -0.006014 -0.002248 0.032181 -0.010162
# 6 -0.001621 -0.000632 0.008673 -0.005094 -0.010162 0.031283
#
#
# Mechanical properties :
#
#
# Convention : Reuss Voigt Hill
#
# Bulk Modulus (GPa) = 34.87472 54.75154 44.81313
# Shear Modulus (GPa) = 26.03426 36.97361 31.50394
#
# Velocity S-wave (km/s) = 3.45460 4.11691 3.80021
# Velocity P-wave (km/s) = 5.64793 6.90630 6.30857
#
# Compressibility (1/GPa) = 0.02867406
#
# Stress axis : x y z
#
# Youngs Moduli (GPa) = 77.13283 102.98973 37.32897
#
# Poissons Ratio (x) = 0.45940 0.32412
# Poissons Ratio (y) = 0.34406 -0.10261
# Poissons Ratio (z) = 0.66972 -0.28310
#
# Static dielectric constant tensor:
#      x y z
#    x 1.867370 -0.358710 -0.134650 
#    y -0.358710 2.970350 0.373380 
#    z -0.134650 0.373380 1.956160 
# 
# From -- ./inp_files/442094.got.cif
#   From: 2010.05.17/outbox.cif.g08.bks.cpg/sg2_222_cif.got.tgz:442094.got - 2010.06.03 11:33:40.
