data_PCOD9103920
_publ_section_title
;
Structure prediction by ZEFSAII (Michael W. Deem and Ramdas Pophale) SiO2 
 PCOD9103920
Probable space group: P -1
;
_chemical_formula_sum "Si O2"
_cell_formula_units_Z 14
_cell_length_a 8.647370
_cell_length_b 14.767649
_cell_length_c 9.131847
_cell_angle_alpha 92.088262
_cell_angle_beta 134.254869
_cell_angle_gamma 117.925680
_cell_volume 604.295302
_symmetry_space_group_name_H-M "P -1"
_symmetry_group_IT_number 2
_symmetry_cell_setting 'triclinic'
loop_
_space_group_symop_operation_xyz
x,y,z
-x,-y,-z
loop_
_atom_site_type_symbol
_atom_site_label
_atom_site_fract_x
_atom_site_fract_y
_atom_site_fract_z
Si Si1 0.845460 0.333758 0.475986
Si Si2 0.135406 0.967632 0.389001
Si Si3 0.877242 0.563549 0.870483
Si Si4 0.767948 0.195688 0.688778
Si Si5 0.710902 0.666044 0.407513
Si Si6 0.171551 0.943627 0.757988
Si Si7 0.753765 0.385614 0.129371
O O1 0.093365 0.346383 0.557268
O O2 0.023875 0.466899 0.679270
O O3 0.695275 0.227876 0.491919
O O4 0.652216 0.318035 0.214592
O O5 0.466808 0.100052 0.577534
O O6 0.901683 0.981272 0.212644
O O7 0.108748 0.867742 0.273541
O O8 0.127697 0.941934 0.554268
O O9 0.525477 0.449011 0.647733
O O10 0.042894 0.624870 0.829487
O O11 0.000000 0.500000 0.000000
O O12 0.991125 0.674157 0.060121
O O13 0.924901 0.799466 0.635665
O O14 0.512932 0.661100 0.153557
O O15 0.500000 0.000000 0.000000
#
# Coordination Sequence:
#
# PCOD9103920 Si02
#       7
#     2   2   2   2   2   2   2
#     4  11  22  39  66 104 141 173 227 275 344 424
#     4  10  24  45  72  96 143 188 229 285 351 403
#     4  10  20  38  70 100 138 179 225 281 358 405
#     4  11  21  44  70 105 144 184 229 283 347 425
#     4  11  22  41  69  94 139 179 223 291 350 401
#     4  11  25  46  72 103 133 186 244 289 338 420
#     4  10  23  40  66 104 139 180 218 284 350 419
#
# _framework density 23.167480000000001
#
# number of rings (size 3 to 8) (size 9 to 14) (size 15 to 20)
#    0.000    1.429    4.286    2.143    0.000    4.000 
#    0.000    4.286    0.000    0.000    0.000    0.000 
#    0.000    0.000    0.000    0.000    0.000    0.000 
#
# Total GULP energy -78347.956213 kJ/mol
# GULP energy per Si atom -5596.282587 kJ/mol
# Density = 2.311475 g / cm^3
# Si number density = 23.167480 Si / 1000 Ang^3
#
#
#
# Elastic Constant Matrix: (Units=GPa)
#
#
# Indices 1 2 3 4 5 6 
#
# 1 74.3150 37.6306 11.6971 8.1441 -1.4666 -24.2507
# 2 37.6306 110.5256 42.2729 18.1018 -7.8959 4.3459
# 3 11.6971 42.2729 79.4164 12.6718 10.4007 -18.1582
# 4 8.1441 18.1018 12.6718 29.4102 -4.9301 -3.2208
# 5 -1.4666 -7.8959 10.4007 -4.9301 27.6595 -3.0230
# 6 -24.2507 4.3459 -18.1582 -3.2208 -3.0230 49.9855
#
#
#
# Elastic Compliance Matrix: (Units=1/GPa)
#
#
# Indices 1 2 3 4 5 6 
#
# 1 0.022320 -0.010384 0.005927 -0.001312 -0.002753 0.013634
# 2 -0.010384 0.018253 -0.010897 -0.003633 0.006974 -0.010396
# 3 0.005927 -0.010897 0.022266 -0.005158 -0.010895 0.010920
# 4 -0.001312 -0.003633 -0.005158 0.040281 0.008110 0.000892
# 5 -0.002753 0.006974 -0.010895 0.008110 0.043239 -0.002762
# 6 0.013634 -0.010396 0.010920 0.000892 -0.002762 0.031381
#
#
# Mechanical properties :
#
#
# Convention : Reuss Voigt Hill
#
# Bulk Modulus (GPa) = 31.12283 49.71758 40.42021
# Shear Modulus (GPa) = 22.81447 32.92145 27.86796
#
# Velocity S-wave (km/s) = 3.14150 3.77373 3.47203
# Velocity P-wave (km/s) = 5.15962 6.36355 5.79294
#
# Compressibility (1/GPa) = 0.03213075
#
# Stress axis : x y z
#
# Youngs Moduli (GPa) = 44.80323 54.78553 44.91132
#
# Poissons Ratio (x) = 0.56890 -0.26619
# Poissons Ratio (y) = 0.46524 0.48940
# Poissons Ratio (z) = -0.26555 0.59700
#
# Static dielectric constant tensor:
#      x y z
#    x 1.841880 0.004820 -0.003350 
#    y 0.004820 1.934480 -0.065670 
#    z -0.003350 -0.065670 1.909050 
# 
# From -- ./inp_files/202318.got.cif
#   From: 2010.05.17/outbox.cif.g08.bks.cpg/sg2_102_cif.got.tgz:202318.got - 2010.06.03 11:33:40.
