data_PCOD9103329
_publ_section_title
;
Structure prediction by ZEFSAII (Michael W. Deem and Ramdas Pophale) SiO2 
 PCOD9103329
Probable space group: P -1
;
_chemical_formula_sum "Si O2"
_cell_formula_units_Z 16
_cell_length_a 23.571538
_cell_length_b 17.093032
_cell_length_c 11.882610
_cell_angle_alpha 141.354278
_cell_angle_beta 27.839971
_cell_angle_gamma 159.457950
_cell_volume 751.569148
_symmetry_space_group_name_H-M "P -1"
_symmetry_group_IT_number 2
_symmetry_cell_setting 'triclinic'
loop_
_space_group_symop_operation_xyz
x,y,z
-x,-y,-z
loop_
_atom_site_type_symbol
_atom_site_label
_atom_site_fract_x
_atom_site_fract_y
_atom_site_fract_z
Si Si1 0.089117 0.464130 0.226685
Si Si2 0.297832 0.709052 0.673519
Si Si3 0.992880 0.600407 0.960820
Si Si4 0.024170 0.787738 0.416874
Si Si5 0.564997 0.913402 0.813586
Si Si6 0.693870 0.942878 0.375163
Si Si7 0.715531 0.753986 0.958174
Si Si8 0.910661 0.059379 0.757401
O O1 0.000000 0.500000 0.500000
O O2 0.030541 0.445891 0.179779
O O3 0.359580 0.683339 0.992448
O O4 0.945736 0.218195 0.238015
O O5 0.240167 0.776304 0.770822
O O6 0.546182 0.894780 0.489910
O O7 0.173842 0.482236 0.575430
O O8 0.168239 0.616087 0.915727
O O9 0.929728 0.690546 0.196075
O O10 0.907962 0.815500 0.692504
O O11 0.197261 0.888602 0.317930
O O12 0.162677 0.944534 0.236707
O O13 0.592060 0.870200 0.596389
O O14 0.500000 0.000000 0.000000
O O15 0.684581 0.794747 0.176879
O O16 0.763213 0.902585 0.948511
O O17 0.500000 0.500000 0.000000
O O18 0.000000 0.000000 0.500000
#
# Coordination Sequence:
#
# PCOD9103329 Si02
#       8
#     2   2   2   2   2   2   2   2
#     4  12  25  42  66 100 142 187 226 283 356 423
#     4  10  21  38  70 103 133 182 227 295 356 405
#     4  10  20  38  65  98 138 174 235 279 351 419
#     4  10  23  44  71 102 139 189 233 289 357 413
#     4  12  26  47  69  99 151 188 228 288 355 428
#     4  12  25  43  71 100 140 187 231 291 355 409
#     4  11  22  45  71 104 136 179 244 299 348 414
#     4   9  20  38  66  95 132 173 227 293 340 405
#
# _framework density 21.288792999999998
#
# number of rings (size 3 to 8) (size 9 to 14) (size 15 to 20)
#    0.000    1.250    5.000    0.750    3.500    1.000 
#    4.500    0.625    0.000    0.000    0.000    0.000 
#    0.000    0.000    0.000    0.000    0.000    0.000 
#
# Total GULP energy -89248.755247 kJ/mol
# GULP energy per Si atom -5578.047203 kJ/mol
# Density = 2.124034 g / cm^3
# Si number density = 21.288793 Si / 1000 Ang^3
#
#
#
# Elastic Constant Matrix: (Units=GPa)
#
#
# Indices 1 2 3 4 5 6 
#
# 1 79.9935 16.9292 32.6665 17.1018 3.0663 20.1857
# 2 16.9292 87.8739 41.0923 10.4561 3.7025 11.0687
# 3 32.6665 41.0923 122.0508 24.8541 22.9550 16.6809
# 4 17.1018 10.4561 24.8541 46.9679 11.9519 4.2431
# 5 3.0663 3.7025 22.9550 11.9519 38.3090 4.7141
# 6 20.1857 11.0687 16.6809 4.2431 4.7141 30.0412
#
#
#
# Elastic Compliance Matrix: (Units=1/GPa)
#
#
# Indices 1 2 3 4 5 6 
#
# 1 0.016964 -0.000369 -0.002734 -0.004523 0.002904 -0.009561
# 2 -0.000369 0.013856 -0.004393 -0.000879 0.001916 -0.002594
# 3 -0.002734 -0.004393 0.012340 -0.002948 -0.005572 -0.002105
# 4 -0.004523 -0.000879 -0.002948 0.026065 -0.006200 0.002291
# 5 0.002904 0.001916 -0.005572 -0.006200 0.031404 -0.003616
# 6 -0.009561 -0.002594 -0.002105 0.002291 -0.003616 0.042081
#
#
# Mechanical properties :
#
#
# Convention : Reuss Voigt Hill
#
# Bulk Modulus (GPa) = 35.50277 52.36603 43.93440
# Shear Modulus (GPa) = 29.92354 36.34564 33.13459
#
# Velocity S-wave (km/s) = 3.75320 4.13639 3.94945
# Velocity P-wave (km/s) = 5.95777 6.88943 6.44047
#
# Compressibility (1/GPa) = 0.02816682
#
# Stress axis : x y z
#
# Youngs Moduli (GPa) = 58.94777 72.17072 81.03486
#
# Poissons Ratio (x) = 0.02666 0.22158
# Poissons Ratio (y) = 0.02177 0.35599
# Poissons Ratio (z) = 0.16119 0.31705
#
# Static dielectric constant tensor:
#      x y z
#    x 1.778240 -0.020500 0.000200 
#    y -0.020500 1.764000 -0.033330 
#    z 0.000200 -0.033330 1.821220 
# 
# From -- ./inp_files/315818.got.cif
#   From: 2010.05.17/outbox.cif.g08.bks.cpg/sg2_158_cif.got.tgz:315818.got - 2010.06.03 11:33:40.
