data_PCOD9103442
_publ_section_title
;
Structure prediction by ZEFSAII (Michael W. Deem and Ramdas Pophale) SiO2 
 PCOD9103442
Probable space group: P -1
;
_chemical_formula_sum "Si O2"
_cell_formula_units_Z 14
_cell_length_a 13.596021
_cell_length_b 9.536004
_cell_length_c 7.987290
_cell_angle_alpha 69.270991
_cell_angle_beta 97.302491
_cell_angle_gamma 45.304380
_cell_volume 567.760703
_symmetry_space_group_name_H-M "P -1"
_symmetry_group_IT_number 2
_symmetry_cell_setting 'triclinic'
loop_
_space_group_symop_operation_xyz
x,y,z
-x,-y,-z
loop_
_atom_site_type_symbol
_atom_site_label
_atom_site_fract_x
_atom_site_fract_y
_atom_site_fract_z
Si Si1 0.413071 0.248927 0.214595
Si Si2 0.099000 0.020395 0.837928
Si Si3 0.749784 0.020917 0.455554
Si Si4 0.371476 0.310394 0.533148
Si Si5 0.991430 0.547222 0.281291
Si Si6 0.308004 0.281264 0.868794
Si Si7 0.764568 0.227350 0.682986
O O1 0.305676 0.387056 0.298477
O O2 0.570966 0.166038 0.304573
O O3 0.479755 0.994251 0.320060
O O4 0.311563 0.403069 0.959053
O O5 0.177467 0.978115 0.693176
O O6 0.021201 0.261306 0.810098
O O7 0.947820 0.085275 0.755603
O O8 0.232429 0.811734 0.100109
O O9 0.864561 0.734545 0.640350
O O10 0.748048 0.122400 0.580073
O O11 0.258507 0.394070 0.626457
O O12 0.385787 0.468280 0.507813
O O13 0.814645 0.699376 0.112820
O O14 0.000000 0.500000 0.500000
O O15 0.500000 0.000000 0.000000
#
# Coordination Sequence:
#
# PCOD9103442 Si02
#       7
#     2   2   2   2   2   2   2
#     4  10  23  40  65  90 118 160 205 248 297 358
#     4  10  22  40  60  89 124 157 202 249 299 362
#     4  11  23  41  63  91 121 159 204 250 301 354
#     4  10  21  40  61  86 122 158 201 246 298 360
#     4  10  20  39  68  90 117 160 206 251 296 352
#     4  10  20  38  66  92 117 155 201 253 299 346
#     4  11  24  38  60  90 125 162 195 250 310 356
#
# _framework density 24.658276000000001
#
# number of rings (size 3 to 8) (size 9 to 14) (size 15 to 20)
#    0.000    1.714    0.000    6.429    0.000    9.143 
#    0.000    1.429    0.000    0.000    0.000    0.000 
#    0.000    0.000    0.000    0.000    0.000    0.000 
#
# Total GULP energy -78065.982247 kJ/mol
# GULP energy per Si atom -5576.141589 kJ/mol
# Density = 2.460215 g / cm^3
# Si number density = 24.658276 Si / 1000 Ang^3
#
#
#
# Elastic Constant Matrix: (Units=GPa)
#
#
# Indices 1 2 3 4 5 6 
#
# 1 98.3133 39.3827 51.3083 5.4377 24.6526 -1.4097
# 2 39.3827 125.5228 37.4901 28.9416 2.1786 27.7783
# 3 51.3083 37.4901 75.4122 29.6825 11.1501 -4.5511
# 4 5.4377 28.9416 29.6825 44.3025 4.4570 -7.4753
# 5 24.6526 2.1786 11.1501 4.4570 46.8985 4.1109
# 6 -1.4097 27.7783 -4.5511 -7.4753 4.1109 43.9214
#
#
#
# Elastic Compliance Matrix: (Units=1/GPa)
#
#
# Indices 1 2 3 4 5 6 
#
# 1 0.023473 -0.007428 -0.016289 0.015143 -0.010199 0.007295
# 2 -0.007428 0.015716 0.000574 -0.012425 0.005335 -0.012732
# 3 -0.016289 0.000574 0.031363 -0.019922 0.003088 -0.001316
# 4 0.015143 -0.012425 -0.019922 0.045507 -0.008268 0.014799
# 5 -0.010199 0.005335 0.003088 -0.008268 0.027130 -0.007328
# 6 0.007295 -0.012732 -0.001316 0.014799 -0.007328 0.034123
#
#
# Mechanical properties :
#
#
# Convention : Reuss Voigt Hill
#
# Bulk Modulus (GPa) = 41.21132 61.73451 51.47292
# Shear Modulus (GPa) = 21.58094 38.42896 30.00495
#
# Velocity S-wave (km/s) = 2.96159 3.95202 3.49209
# Velocity P-wave (km/s) = 5.33329 6.77606 6.09750
#
# Compressibility (1/GPa) = 0.02426518
#
# Stress axis : x y z
#
# Youngs Moduli (GPa) = 42.60208 63.63109 31.88488
#
# Poissons Ratio (x) = 0.47267 0.51938
# Poissons Ratio (y) = 0.31646 -0.01832
# Poissons Ratio (z) = 0.69396 -0.03656
#
# Static dielectric constant tensor:
#      x y z
#    x 2.050710 0.035800 -0.022380 
#    y 0.035800 2.144840 -0.070150 
#    z -0.022380 -0.070150 2.102270 
# 
# From -- ./inp_files/295263.got.cif
#   From: 2010.05.17/outbox.cif.g08.bks.cpg/sg2_148_cif.got.tgz:295263.got - 2010.06.03 11:33:40.
