data_PCOD9103486
_publ_section_title
;
Structure prediction by ZEFSAII (Michael W. Deem and Ramdas Pophale) SiO2 
 PCOD9103486
Probable space group: P -1
;
_chemical_formula_sum "Si O2"
_cell_formula_units_Z 15
_cell_length_a 6.546748
_cell_length_b 4.873499
_cell_length_c 22.140048
_cell_angle_alpha 121.609493
_cell_angle_beta 73.186668
_cell_angle_gamma 107.607174
_cell_volume 565.925053
_symmetry_space_group_name_H-M "P -1"
_symmetry_group_IT_number 2
_symmetry_cell_setting 'triclinic'
loop_
_space_group_symop_operation_xyz
x,y,z
-x,-y,-z
loop_
_atom_site_type_symbol
_atom_site_label
_atom_site_fract_x
_atom_site_fract_y
_atom_site_fract_z
Si Si1 0.802335 0.696020 0.551498
Si Si2 0.317765 0.096255 0.906158
Si Si3 0.686712 0.194232 0.962716
Si Si4 0.438211 0.263826 0.676760
Si Si5 0.000000 0.000000 0.000000
Si Si6 0.769618 0.113046 0.240555
Si Si7 0.917098 0.665684 0.665813
Si Si8 0.313692 0.278655 0.562278
O O1 0.872612 0.849253 0.628721
O O2 0.559167 0.482178 0.556008
O O3 0.765144 0.884357 0.514197
O O4 0.000000 0.500000 0.500000
O O5 0.574079 0.124492 0.899362
O O6 0.266105 0.091220 0.840750
O O7 0.263191 0.407870 0.987283
O O8 0.177090 0.815135 0.927043
O O9 0.890938 0.051846 0.948702
O O10 0.500000 0.000000 0.000000
O O11 0.402673 0.030405 0.709859
O O12 0.687351 0.433576 0.670163
O O13 0.348427 0.099063 0.601549
O O14 0.289844 0.537576 0.731608
O O15 0.997792 0.136164 0.258307
O O16 0.119473 0.477715 0.614930
#
# Coordination Sequence:
#
# PCOD9103486 Si02
#       8
#     2   2   2   2   1   2   2   2
#     4   8  13  27  59  92 128 169 218 267 327 377
#     4  10  22  40  62  91 127 162 208 263 326 384
#     4   9  20  39  62  90 123 159 200 263 315 381
#     4  10  23  41  62  91 129 172 218 269 322 385
#     4  10  20  38  66  94 124 158 208 260 318 386
#     4  11  25  42  65  91 131 169 217 265 324 390
#     4   9  19  38  59  91 126 172 219 268 324 387
#     4   8  15  31  58  91 128 169 216 274 319 378
#
# _framework density 26.505278000000001
#
# number of rings (size 3 to 8) (size 9 to 14) (size 15 to 20)
#    0.000    2.667    0.000    0.400    3.733    3.200 
#    4.800    0.667    0.000   72.000    0.000    0.000 
#    0.000    0.000    0.000    0.000    0.000    0.000 
#
# Total GULP energy -83521.794756 kJ/mol
# GULP energy per Si atom -5568.119650 kJ/mol
# Density = 2.644495 g / cm^3
# Si number density = 26.505278 Si / 1000 Ang^3
#
#
#
# Elastic Constant Matrix: (Units=GPa)
#
#
# Indices 1 2 3 4 5 6 
#
# 1 207.2882 25.2698 79.3055 -12.3898 46.6485 5.1856
# 2 25.2698 54.9967 27.5791 -8.3308 8.6333 -0.7596
# 3 79.3055 27.5791 131.6124 -31.1741 58.8729 -17.3329
# 4 -12.3898 -8.3308 -31.1741 31.3244 -14.8219 -3.8316
# 5 46.6485 8.6333 58.8729 -14.8219 62.3962 -7.9840
# 6 5.1856 -0.7596 -17.3329 -3.8316 -7.9840 58.5805
#
#
#
# Elastic Compliance Matrix: (Units=1/GPa)
#
#
# Indices 1 2 3 4 5 6 
#
# 1 0.006835 -0.001348 -0.003735 -0.002751 -0.002337 -0.002226
# 2 -0.001348 0.020844 -0.004327 0.001884 0.002601 -0.000413
# 3 -0.003735 -0.004327 0.019344 0.011883 -0.011369 0.005226
# 4 -0.002751 0.001884 0.011883 0.045057 0.002187 0.007029
# 5 -0.002337 0.002601 -0.011369 0.002187 0.028781 0.000942
# 6 -0.002226 -0.000413 0.005226 0.007029 0.000942 0.019397
#
#
# Mechanical properties :
#
#
# Convention : Reuss Voigt Hill
#
# Bulk Modulus (GPa) = 35.45897 73.13400 54.29648
# Shear Modulus (GPa) = 29.67739 47.90975 38.79357
#
# Velocity S-wave (km/s) = 3.34979 4.25615 3.82987
# Velocity P-wave (km/s) = 5.32622 7.19758 6.33142
#
# Compressibility (1/GPa) = 0.02820161
#
# Stress axis : x y z
#
# Youngs Moduli (GPa) = 146.30985 47.97643 51.69577
#
# Poissons Ratio (x) = 0.06467 0.19309
# Poissons Ratio (y) = 0.19721 0.22370
# Poissons Ratio (z) = 0.54649 0.20761
#
# Static dielectric constant tensor:
#      x y z
#    x 2.045010 -0.038230 0.017010 
#    y -0.038230 1.948170 0.078900 
#    z 0.017010 0.078900 2.154320 
# 
# From -- ./inp_files/12200.got.cif
#   From: 2010.05.17/outbox.cif.g08.bks.cpg/sg2_7_cif.got.tgz:12200.got - 2010.06.03 11:33:40.
