data_PCOD9103068
_publ_section_title
;
Structure prediction by ZEFSAII (Michael W. Deem and Ramdas Pophale) SiO2 
 PCOD9103068
Probable space group: P -1
;
_chemical_formula_sum "Si O2"
_cell_formula_units_Z 11
_cell_length_a 5.147860
_cell_length_b 14.916276
_cell_length_c 9.462111
_cell_angle_alpha 35.105193
_cell_angle_beta 107.344738
_cell_angle_gamma 95.726803
_cell_volume 384.844936
_symmetry_space_group_name_H-M "P -1"
_symmetry_group_IT_number 2
_symmetry_cell_setting 'triclinic'
loop_
_space_group_symop_operation_xyz
x,y,z
-x,-y,-z
loop_
_atom_site_type_symbol
_atom_site_label
_atom_site_fract_x
_atom_site_fract_y
_atom_site_fract_z
Si Si1 0.205200 0.792605 0.327129
Si Si2 0.735943 0.562584 0.136761
Si Si3 0.868342 0.310762 0.249728
Si Si4 0.287357 0.033882 0.552205
Si Si5 0.000000 0.500000 0.500000
Si Si6 0.388722 0.185942 0.867033
O O1 0.229979 0.597645 0.545745
O O2 0.197075 0.797979 0.488589
O O3 0.459703 0.830294 0.238716
O O4 0.897108 0.871593 0.115947
O O5 0.865750 0.469825 0.135924
O O6 0.940955 0.632977 0.173367
O O7 0.410500 0.646684 0.947788
O O8 0.162544 0.218584 0.346485
O O9 0.500000 0.000000 0.500000
O O10 0.000000 0.000000 0.500000
O O11 0.415080 0.918003 0.850405
O O12 0.285288 0.375517 0.636500
#
# Coordination Sequence:
#
# PCOD9103068 Si02
#       6
#     2   2   2   2   1   2
#     4   9  21  40  64  96 124 171 217 269 326 385
#     4   8  18  40  66 100 128 179 211 280 323 396
#     4   9  20  43  66  96 137 172 225 269 335 395
#     4  12  27  44  66  96 133 180 220 274 336 396
#     4  10  20  38  64  98 134 166 224 264 330 390
#     4  11  23  40  64  96 130 172 218 270 329 387
#
# _framework density 28.582941000000002
#
# number of rings (size 3 to 8) (size 9 to 14) (size 15 to 20)
#    1.091    1.091    0.000    2.182    0.000    7.273 
#    0.000    8.182    0.000    0.000    0.000    0.000 
#    0.000    0.000    0.000    0.000    0.000    0.000 
#
# Total GULP energy -61470.935475 kJ/mol
# GULP energy per Si atom -5588.266861 kJ/mol
# Density = 2.851789 g / cm^3
# Si number density = 28.582941 Si / 1000 Ang^3
#
#
#
# Elastic Constant Matrix: (Units=GPa)
#
#
# Indices 1 2 3 4 5 6 
#
# 1 155.8728 71.1618 64.0501 13.5346 18.5522 -37.1955
# 2 71.1618 159.3725 63.6946 -4.0507 24.8691 -40.3962
# 3 64.0501 63.6946 192.2569 29.2841 62.0307 -13.3110
# 4 13.5346 -4.0507 29.2841 58.4050 3.5049 11.0283
# 5 18.5522 24.8691 62.0307 3.5049 65.3715 -3.6674
# 6 -37.1955 -40.3962 -13.3110 11.0283 -3.6674 64.1689
#
#
#
# Elastic Compliance Matrix: (Units=1/GPa)
#
#
# Indices 1 2 3 4 5 6 
#
# 1 0.009411 -0.002634 -0.001771 -0.002220 0.000345 0.003831
# 2 -0.002634 0.009308 -0.001924 0.001590 -0.000851 0.003612
# 3 -0.001771 -0.001924 0.009472 -0.004017 -0.007539 -0.000013
# 4 -0.002220 0.001590 -0.004017 0.020460 0.002488 -0.004494
# 5 0.000345 -0.000851 -0.007539 0.002488 0.022485 -0.001042
# 6 0.003831 0.003612 -0.000013 -0.004494 -0.001042 0.020789
#
#
# Mechanical properties :
#
#
# Convention : Reuss Voigt Hill
#
# Bulk Modulus (GPa) = 64.37233 100.59059 82.48146
# Shear Modulus (GPa) = 45.55366 58.16214 51.85790
#
# Velocity S-wave (km/s) = 3.99649 4.51583 4.26408
# Velocity P-wave (km/s) = 6.62315 7.90311 7.29127
#
# Compressibility (1/GPa) = 0.01553462
#
# Stress axis : x y z
#
# Youngs Moduli (GPa) = 106.25328 107.43105 105.57255
#
# Poissons Ratio (x) = 0.28295 0.18696
# Poissons Ratio (y) = 0.27985 0.20312
# Poissons Ratio (z) = 0.18816 0.20669
#
# Static dielectric constant tensor:
#      x y z
#    x -0.934980 -5.630700 -1.695470 
#    y -5.630700 -7.980840 -2.848800 
#    z -1.695470 -2.848800 1.854990 
# 
# From -- ./inp_files/136458.got.cif
#   From: 2010.05.17/outbox.cif.g08.bks.cpg/sg2_69_cif.got.tgz:136458.got - 2010.06.03 11:33:40.
