data_PCOD9103177
_publ_section_title
;
Structure prediction by ZEFSAII (Michael W. Deem and Ramdas Pophale) SiO2 
 PCOD9103177
Probable space group: P -1
;
_chemical_formula_sum "Si O2"
_cell_formula_units_Z 16
_cell_length_a 15.944357
_cell_length_b 25.274734
_cell_length_c 7.731218
_cell_angle_alpha 137.608642
_cell_angle_beta 43.284463
_cell_angle_gamma 160.663078
_cell_volume 688.758507
_symmetry_space_group_name_H-M "P -1"
_symmetry_group_IT_number 2
_symmetry_cell_setting 'triclinic'
loop_
_space_group_symop_operation_xyz
x,y,z
-x,-y,-z
loop_
_atom_site_type_symbol
_atom_site_label
_atom_site_fract_x
_atom_site_fract_y
_atom_site_fract_z
Si Si1 0.298187 0.017682 0.884572
Si Si2 0.098092 0.987001 0.449496
Si Si3 0.996612 0.569476 0.500326
Si Si4 0.681458 0.631221 0.283095
Si Si5 0.126948 0.344226 0.303290
Si Si6 0.558250 0.803623 0.222055
Si Si7 0.775133 0.526648 0.074635
Si Si8 0.152278 0.649302 0.016676
O O1 0.284107 0.070258 0.871027
O O2 0.599934 0.177771 0.845917
O O3 0.106427 0.837766 0.709074
O O4 0.228958 0.007084 0.156141
O O5 0.860341 0.807184 0.455225
O O6 0.285892 0.110634 0.625601
O O7 0.000000 0.000000 0.500000
O O8 0.959507 0.618545 0.537028
O O9 0.897143 0.554262 0.786853
O O10 0.814740 0.393104 0.297134
O O11 0.289548 0.702513 0.392187
O O12 0.386262 0.489030 0.374002
O O13 0.774011 0.644081 0.993368
O O14 0.725256 0.587997 0.252613
O O15 0.470329 0.665326 0.981211
O O16 0.980991 0.623621 0.145297
O O17 0.000000 0.500000 0.000000
#
# Coordination Sequence:
#
# PCOD9103177 Si02
#       8
#     2   2   2   2   2   2   2   2
#     4  11  23  42  64  96 131 163 214 267 316 376
#     4  11  26  43  68  93 128 171 214 266 314 388
#     4  10  20  38  65  91 125 168 213 262 319 382
#     4   9  21  42  61  92 124 168 218 258 322 376
#     4   9  21  39  65  89 126 172 208 265 322 373
#     4  11  23  41  63 100 125 164 218 259 323 375
#     4  10  20  38  67  89 129 168 211 266 309 389
#     4  11  20  38  59  96 126 162 206 260 321 369
#
# _framework density 23.230202999999999
#
# number of rings (size 3 to 8) (size 9 to 14) (size 15 to 20)
#    0.000    1.750    2.500    3.000    8.750    2.000 
#    2.250    4.375    0.000    0.000    0.000    0.000 
#    0.000    0.000    0.000    0.000    0.000    0.000 
#
# Total GULP energy -89379.209146 kJ/mol
# GULP energy per Si atom -5586.200572 kJ/mol
# Density = 2.317733 g / cm^3
# Si number density = 23.230203 Si / 1000 Ang^3
#
#
#
# Elastic Constant Matrix: (Units=GPa)
#
#
# Indices 1 2 3 4 5 6 
#
# 1 223.5429 109.4688 33.1490 22.3898 -7.6157 -5.4675
# 2 109.4688 178.8434 45.3675 21.9870 -18.9518 -2.1121
# 3 33.1490 45.3675 56.9428 0.9442 3.4566 4.0589
# 4 22.3898 21.9870 0.9442 35.9994 -5.8580 4.3299
# 5 -7.6157 -18.9518 3.4566 -5.8580 45.7546 3.3104
# 6 -5.4675 -2.1121 4.0589 4.3299 3.3104 48.1178
#
#
#
# Elastic Compliance Matrix: (Units=1/GPa)
#
#
# Indices 1 2 3 4 5 6 
#
# 1 0.006582 -0.003584 -0.000966 -0.002094 -0.000650 0.000905
# 2 -0.003584 0.010157 -0.006214 -0.003297 0.003614 0.000611
# 3 -0.000966 -0.006214 0.023425 0.003437 -0.003891 -0.002400
# 4 -0.002094 -0.003297 0.003437 0.031834 0.002370 -0.003700
# 5 -0.000650 0.003614 -0.003891 0.002370 0.023947 -0.001448
# 6 0.000905 0.000611 -0.002400 -0.003700 -0.001448 0.021547
#
#
# Mechanical properties :
#
#
# Convention : Reuss Voigt Hill
#
# Bulk Modulus (GPa) = 53.66298 92.81107 73.23703
# Shear Modulus (GPa) = 34.42757 44.06395 39.24576
#
# Velocity S-wave (km/s) = 3.85387 4.36000 4.11472
# Velocity P-wave (km/s) = 6.55392 8.08614 7.36001
#
# Compressibility (1/GPa) = 0.01863482
#
# Stress axis : x y z
#
# Youngs Moduli (GPa) = 151.93961 98.45267 42.68919
#
# Poissons Ratio (x) = 0.35287 0.04125
# Poissons Ratio (y) = 0.54458 0.26528
# Poissons Ratio (z) = 0.14680 0.61180
#
# Static dielectric constant tensor:
#      x y z
#    x 1.888180 -0.019970 0.107690 
#    y -0.019970 1.882090 -0.102620 
#    z 0.107690 -0.102620 2.147780 
# 
# From -- ./inp_files/256615.got.cif
#   From: 2010.05.17/outbox.cif.g08.bks.cpg/sg2_129_cif.got.tgz:256615.got - 2010.06.03 11:33:40.
