data_PCOD9104171
_publ_section_title
;
Structure prediction by ZEFSAII (Michael W. Deem and Ramdas Pophale) SiO2 
 PCOD9104171
Probable space group: P -1
;
_chemical_formula_sum "Si O2"
_cell_formula_units_Z 14
_cell_length_a 9.760975
_cell_length_b 11.706914
_cell_length_c 24.159677
_cell_angle_alpha 154.976899
_cell_angle_beta 46.798987
_cell_angle_gamma 117.857221
_cell_volume 738.992138
_symmetry_space_group_name_H-M "P -1"
_symmetry_group_IT_number 2
_symmetry_cell_setting 'triclinic'
loop_
_space_group_symop_operation_xyz
x,y,z
-x,-y,-z
loop_
_atom_site_type_symbol
_atom_site_label
_atom_site_fract_x
_atom_site_fract_y
_atom_site_fract_z
Si Si1 0.958504 0.434780 0.855010
Si Si2 0.613831 0.625925 0.254003
Si Si3 0.476785 0.829540 0.984822
Si Si4 0.827230 0.273246 0.704510
Si Si5 0.685039 0.160545 0.464277
Si Si6 0.744192 0.696239 0.645450
Si Si7 0.479478 0.806574 0.169996
O O1 0.921939 0.354083 0.767797
O O2 0.155853 0.504940 0.835848
O O3 0.732258 0.704551 0.060195
O O4 0.420071 0.047805 0.617946
O O5 0.346651 0.824708 0.269086
O O6 0.424916 0.711305 0.388751
O O7 0.626184 0.378518 0.098420
O O8 0.352791 0.067291 0.172496
O O9 0.707366 0.581277 0.836510
O O10 0.500000 0.000000 0.000000
O O11 0.000000 0.000000 0.500000
O O12 0.661267 0.446084 0.561373
O O13 0.937487 0.896139 0.286389
O O14 0.000000 0.500000 0.500000
O O15 0.658262 0.900498 0.703222
O O16 0.500000 0.500000 0.000000
#
# Coordination Sequence:
#
# PCOD9104171 Si02
#       7
#     2   2   2   2   2   2   2
#     4   9  18  39  64  86 121 172 201 246 317 376
#     4   9  20  38  66  90 131 165 210 251 320 378
#     4  12  24  39  63 102 121 156 222 262 301 375
#     4  11  23  38  64  91 125 165 210 262 307 376
#     4   9  19  37  64  90 124 172 205 249 317 375
#     4  12  23  38  66  93 128 167 211 266 306 374
#     4  10  20  39  58  91 122 166 210 247 322 367
#
# _framework density 18.944721000000001
#
# number of rings (size 3 to 8) (size 9 to 14) (size 15 to 20)
#    0.857    0.857    4.286    2.571    2.000    0.000 
#    0.000    5.714    0.000    1.714    0.000    0.000 
#    0.000    0.000    0.000    0.000    0.000    0.000 
#
# Total GULP energy -77994.375566 kJ/mol
# GULP energy per Si atom -5571.026826 kJ/mol
# Density = 1.890160 g / cm^3
# Si number density = 18.944721 Si / 1000 Ang^3
#
#
#
# Elastic Constant Matrix: (Units=GPa)
#
#
# Indices 1 2 3 4 5 6 
#
# 1 52.5219 7.4355 12.8507 8.5775 3.3286 2.1004
# 2 7.4355 107.0150 42.7173 23.2714 -1.8319 -8.7809
# 3 12.8507 42.7173 129.5174 -4.0715 -12.9378 -9.3646
# 4 8.5775 23.2714 -4.0715 42.2969 0.2491 -1.7468
# 5 3.3286 -1.8319 -12.9378 0.2491 30.7001 4.8321
# 6 2.1004 -8.7809 -9.3646 -1.7468 4.8321 24.8335
#
#
#
# Elastic Compliance Matrix: (Units=1/GPa)
#
#
# Indices 1 2 3 4 5 6 
#
# 1 0.020742 0.000499 -0.002849 -0.004837 -0.003001 -0.002408
# 2 0.000499 0.012941 -0.004520 -0.007540 -0.001534 0.002597
# 3 -0.002849 -0.004520 0.010164 0.004102 0.003976 0.001990
# 4 -0.004837 -0.007540 0.004102 0.029202 0.001397 0.001072
# 5 -0.003001 -0.001534 0.003976 0.001397 0.035348 -0.005569
# 6 -0.002408 0.002597 0.001990 0.001072 -0.005569 0.043300
#
#
# Mechanical properties :
#
#
# Convention : Reuss Voigt Hill
#
# Bulk Modulus (GPa) = 33.21416 46.11792 39.66604
# Shear Modulus (GPa) = 28.49437 34.63615 31.56526
#
# Velocity S-wave (km/s) = 3.88245 4.28047 4.08631
# Velocity P-wave (km/s) = 6.13744 6.98757 6.57626
#
# Compressibility (1/GPa) = 0.03010764
#
# Stress axis : x y z
#
# Youngs Moduli (GPa) = 48.21026 77.27667 98.38228
#
# Poissons Ratio (x) = -0.03853 0.28024
# Poissons Ratio (y) = -0.02404 0.44469
# Poissons Ratio (z) = 0.13733 0.34929
#
# Static dielectric constant tensor:
#      x y z
#    x 1.681180 0.030590 -0.030180 
#    y 0.030590 1.684810 -0.013420 
#    z -0.030180 -0.013420 1.682880 
# 
# From -- ./inp_files/607351.got.cif
#   From: 2010.05.17/outbox.cif.g08.bks.cpg/sg2_304_cif.got.tgz:607351.got - 2010.06.03 11:33:40.
