data_PCOD9104583
_publ_section_title
;
Structure prediction by ZEFSAII (Michael W. Deem and Ramdas Pophale) SiO2 
 PCOD9104583
Probable space group: P -1
;
_chemical_formula_sum "Si O2"
_cell_formula_units_Z 16
_cell_length_a 11.353691
_cell_length_b 17.152993
_cell_length_c 9.168898
_cell_angle_alpha 70.602230
_cell_angle_beta 116.042014
_cell_angle_gamma 150.531288
_cell_volume 784.168911
_symmetry_space_group_name_H-M "P -1"
_symmetry_group_IT_number 2
_symmetry_cell_setting 'triclinic'
loop_
_space_group_symop_operation_xyz
x,y,z
-x,-y,-z
loop_
_atom_site_type_symbol
_atom_site_label
_atom_site_fract_x
_atom_site_fract_y
_atom_site_fract_z
Si Si1 0.613397 0.590667 0.157035
Si Si2 0.852008 0.480161 0.752622
Si Si3 0.721407 0.197606 0.358758
Si Si4 0.483479 0.273182 0.928858
Si Si5 0.767770 0.396151 0.289884
Si Si6 0.530547 0.384347 0.390094
Si Si7 0.043057 0.017111 0.338379
Si Si8 0.825834 0.090397 0.662204
O O1 0.515022 0.627284 0.120833
O O2 0.544320 0.488734 0.309379
O O3 0.914667 0.759560 0.203562
O O4 0.500000 0.500000 0.000000
O O5 0.721856 0.380724 0.890286
O O6 0.629641 0.404583 0.585711
O O7 0.091868 0.673537 0.752093
O O8 0.969109 0.465224 0.739587
O O9 0.757667 0.299519 0.416981
O O10 0.807510 0.157496 0.497778
O O11 0.417905 0.031432 0.290157
O O12 0.544398 0.274801 0.122780
O O13 0.216201 0.105319 0.815173
O O14 0.721324 0.445966 0.339312
O O15 0.260053 0.201412 0.314793
O O16 0.146241 0.982523 0.362711
O O17 0.000000 0.000000 0.500000
#
# Coordination Sequence:
#
# PCOD9104583 Si02
#       8
#     2   2   2   2   2   2   2   2
#     4  11  23  38  60  89 123 153 198 246 293 353
#     4  10  21  37  62  87 116 155 200 244 294 347
#     4   9  20  36  62  84 118 151 198 247 287 349
#     4  11  23  39  63  87 123 160 192 248 301 353
#     4  10  21  37  62  87 116 155 200 244 294 347
#     4  12  21  40  60  92 115 160 204 242 292 355
#     4  11  23  38  60  89 123 153 198 246 293 353
#     4  10  20  39  61  90 114 158 200 242 296 346
#
# _framework density 20.403767999999999
#
# number of rings (size 3 to 8) (size 9 to 14) (size 15 to 20)
#    0.750    0.750    5.000    0.750    0.000    3.000 
#    0.000    0.000    0.000    1.500    0.000    0.000 
#    0.000    0.000    0.000    0.000    0.000    0.000 
#
# Total GULP energy -89144.206892 kJ/mol
# GULP energy per Si atom -5571.512931 kJ/mol
# Density = 2.035733 g / cm^3
# Si number density = 20.403768 Si / 1000 Ang^3
#
#
#
# Elastic Constant Matrix: (Units=GPa)
#
#
# Indices 1 2 3 4 5 6 
#
# 1 49.4741 35.2557 2.0235 11.2144 13.1883 9.6707
# 2 35.2557 94.2412 14.8050 12.0922 3.7368 11.9224
# 3 2.0235 14.8050 72.0557 16.3694 2.6592 2.6849
# 4 11.2144 12.0922 16.3694 31.1433 -1.4300 4.8228
# 5 13.1883 3.7368 2.6592 -1.4300 24.4626 -4.2597
# 6 9.6707 11.9224 2.6849 4.8228 -4.2597 30.4000
#
#
#
# Elastic Compliance Matrix: (Units=1/GPa)
#
#
# Indices 1 2 3 4 5 6 
#
# 1 0.038671 -0.011724 0.005121 -0.011618 -0.021928 -0.009386
# 2 -0.011724 0.015476 -0.002989 0.000208 0.004025 -0.001545
# 3 0.005121 -0.002989 0.016735 -0.009532 -0.004873 -0.001106
# 4 -0.011618 0.000208 -0.009532 0.041791 0.009566 -0.000833
# 5 -0.021928 0.004025 -0.004873 0.009566 0.055274 0.012055
# 6 -0.009386 -0.001545 -0.001106 -0.000833 0.012055 0.038405
#
#
# Mechanical properties :
#
#
# Convention : Reuss Voigt Hill
#
# Bulk Modulus (GPa) = 19.34266 35.54883 27.44575
# Shear Modulus (GPa) = 20.59586 28.11363 24.35474
#
# Velocity S-wave (km/s) = 3.18057 3.71599 3.45866
# Velocity P-wave (km/s) = 4.79464 5.98932 5.42497
#
# Compressibility (1/GPa) = 0.05169920
#
# Stress axis : x y z
#
# Youngs Moduli (GPa) = 25.85918 64.61763 59.75506
#
# Poissons Ratio (x) = 0.75756 -0.30602
# Poissons Ratio (y) = 0.30317 0.17859
# Poissons Ratio (z) = -0.13243 0.19312
#
# Static dielectric constant tensor:
#      x y z
#    x 1.729290 0.030960 0.014310 
#    y 0.030960 1.772800 -0.006250 
#    z 0.014310 -0.006250 1.765310 
# 
# From -- ./inp_files/279405.got.cif
#   From: 2010.05.17/outbox.cif.g08.bks.cpg/sg2_140_cif.got.tgz:279405.got - 2010.06.03 11:33:40.
