data_PCOD9104790
_publ_section_title
;
Structure prediction by ZEFSAII (Michael W. Deem and Ramdas Pophale) SiO2 
 PCOD9104790
Probable space group: P -1
;
_chemical_formula_sum "Si O2"
_cell_formula_units_Z 16
_cell_length_a 15.791334
_cell_length_b 14.671240
_cell_length_c 9.744297
_cell_angle_alpha 41.143647
_cell_angle_beta 36.714073
_cell_angle_gamma 36.392488
_cell_volume 762.882393
_symmetry_space_group_name_H-M "P -1"
_symmetry_group_IT_number 2
_symmetry_cell_setting 'triclinic'
loop_
_space_group_symop_operation_xyz
x,y,z
-x,-y,-z
loop_
_atom_site_type_symbol
_atom_site_label
_atom_site_fract_x
_atom_site_fract_y
_atom_site_fract_z
Si Si1 0.174246 0.881582 0.734069
Si Si2 0.473062 0.208310 0.042919
Si Si3 0.502789 0.658708 0.870747
Si Si4 0.255918 0.283297 0.968441
Si Si5 0.896009 0.374098 0.370014
Si Si6 0.496933 0.886809 0.399009
Si Si7 0.814837 0.152479 0.553381
Si Si8 0.855045 0.219988 0.832178
O O1 0.328117 0.901190 0.550706
O O2 0.203277 0.809695 0.627340
O O3 0.150982 0.776809 0.999693
O O4 0.012276 0.057337 0.758801
O O5 0.347777 0.270552 0.006144
O O6 0.657647 0.143097 0.818471
O O7 0.429875 0.343484 0.062636
O O8 0.467926 0.058567 0.289257
O O9 0.564151 0.742391 0.586663
O O10 0.500000 0.500000 0.000000
O O11 0.306306 0.784560 0.996390
O O12 0.181259 0.453230 0.794170
O O13 0.385845 0.157388 0.835394
O O14 0.093930 0.272121 0.215487
O O15 0.816269 0.288531 0.488075
O O16 0.854687 0.367262 0.590460
O O17 0.000000 0.000000 0.500000
#
# Coordination Sequence:
#
# PCOD9104790 Si02
#       8
#     2   2   2   2   2   2   2   2
#     4  10  21  37  64  97 126 173 213 277 322 397
#     4  12  24  41  68 100 131 173 226 277 323 405
#     4  11  24  43  66  96 135 176 217 275 335 394
#     4  11  25  41  65  95 135 178 218 273 344 387
#     4  11  23  42  62  92 136 179 218 277 326 399
#     4  11  23  40  67  98 134 171 220 273 336 392
#     4  12  22  38  67  98 133 169 227 272 329 392
#     4  10  20  39  62  89 128 168 217 264 330 380
#
# _framework density 20.973088000000001
#
# number of rings (size 3 to 8) (size 9 to 14) (size 15 to 20)
#    0.000    1.000    3.750    3.000    0.000    2.500 
#    0.000    3.750    0.000    6.000    0.000    0.000 
#    0.000    0.000    0.000    0.000    0.000    0.000 
#
# Total GULP energy -89316.236001 kJ/mol
# GULP energy per Si atom -5582.264750 kJ/mol
# Density = 2.092535 g / cm^3
# Si number density = 20.973088 Si / 1000 Ang^3
#
#
#
# Elastic Constant Matrix: (Units=GPa)
#
#
# Indices 1 2 3 4 5 6 
#
# 1 115.4703 32.0396 59.0105 0.9163 12.3491 8.5569
# 2 32.0396 55.2436 25.5043 -0.8040 -1.8502 2.9389
# 3 59.0105 25.5043 148.4979 -7.7681 13.9172 5.2061
# 4 0.9163 -0.8040 -7.7681 29.5765 -6.3451 -4.7240
# 5 12.3491 -1.8502 13.9172 -6.3451 38.8905 9.5045
# 6 8.5569 2.9389 5.2061 -4.7240 9.5045 32.2625
#
#
#
# Elastic Compliance Matrix: (Units=1/GPa)
#
#
# Indices 1 2 3 4 5 6 
#
# 1 0.012639 -0.005587 -0.003861 -0.002451 -0.002874 -0.001732
# 2 -0.005587 0.022442 -0.001914 0.000931 0.003995 -0.001294
# 3 -0.003861 -0.001914 0.008858 0.002097 -0.001844 0.000619
# 4 -0.002451 0.000931 0.002097 0.036180 0.004983 0.004056
# 5 -0.002874 0.003995 -0.001844 0.004983 0.030108 -0.007444
# 6 -0.001732 -0.001294 0.000619 0.004056 -0.007444 0.034260
#
#
# Mechanical properties :
#
#
# Convention : Reuss Voigt Hill
#
# Bulk Modulus (GPa) = 47.13989 61.36895 54.25442
# Shear Modulus (GPa) = 28.68883 33.65640 31.17262
#
# Velocity S-wave (km/s) = 3.70251 4.01027 3.85946
# Velocity P-wave (km/s) = 6.38774 7.12512 6.76648
#
# Compressibility (1/GPa) = 0.02121346
#
# Stress axis : x y z
#
# Youngs Moduli (GPa) = 79.12094 44.55888 112.89208
#
# Poissons Ratio (x) = 0.24897 0.43587
# Poissons Ratio (y) = 0.44208 0.21612
# Poissons Ratio (z) = 0.30548 0.08530
#
# Static dielectric constant tensor:
#      x y z
#    x 1.741890 -0.018990 0.042670 
#    y -0.018990 1.803570 -0.008940 
#    z 0.042670 -0.008940 1.791450 
# 
# From -- ./inp_files/314463.got.cif
#   From: 2010.05.17/outbox.cif.g08.bks.cpg/sg2_158_cif.got.tgz:314463.got - 2010.06.03 11:33:40.
