data_PCOD9104456
_publ_section_title
;
Structure prediction by ZEFSAII (Michael W. Deem and Ramdas Pophale) SiO2 
 PCOD9104456
Probable space group: P -1
;
_chemical_formula_sum "Si O2"
_cell_formula_units_Z 14
_cell_length_a 7.364884
_cell_length_b 12.790798
_cell_length_c 9.672513
_cell_angle_alpha 37.676070
_cell_angle_beta 109.251514
_cell_angle_gamma 106.688146
_cell_volume 525.223994
_symmetry_space_group_name_H-M "P -1"
_symmetry_group_IT_number 2
_symmetry_cell_setting 'triclinic'
loop_
_space_group_symop_operation_xyz
x,y,z
-x,-y,-z
loop_
_atom_site_type_symbol
_atom_site_label
_atom_site_fract_x
_atom_site_fract_y
_atom_site_fract_z
Si Si1 0.377921 0.243832 0.230251
Si Si2 0.050345 0.360053 0.354407
Si Si3 0.426278 0.819926 0.099251
Si Si4 0.826947 0.239666 0.666919
Si Si5 0.183421 0.024885 0.623661
Si Si6 0.787624 0.849409 0.988693
Si Si7 0.266927 0.589000 0.994661
O O1 0.356469 0.098017 0.492329
O O2 0.220382 0.205268 0.114072
O O3 0.572337 0.273137 0.161886
O O4 0.335126 0.415650 0.120627
O O5 0.141659 0.174619 0.567971
O O6 0.901020 0.371154 0.430654
O O7 0.923628 0.355010 0.188649
O O8 0.206914 0.514711 0.208329
O O9 0.611116 0.761632 0.123578
O O10 0.261823 0.870548 0.894541
O O11 0.338171 0.712624 0.318019
O O12 0.500000 0.000000 0.000000
O O13 0.770464 0.055298 0.776658
O O14 0.014979 0.201164 0.842270
O O15 0.000000 0.000000 0.500000
#
# Coordination Sequence:
#
# PCOD9104456 Si02
#       7
#     2   2   2   2   2   2   2
#     4  10  21  39  59  85 120 150 203 251 286 350
#     4  10  20  39  61  79 118 158 196 246 302 342
#     4  10  22  36  56  93 122 155 193 230 311 375
#     4  10  20  39  61  88 123 156 189 247 310 362
#     4  11  22  35  60  96 120 147 196 253 308 368
#     4  10  21  38  62  90 123 154 190 248 309 362
#     4   9  22  39  58  84 111 161 204 245 286 345
#
# _framework density 26.655294000000001
#
# number of rings (size 3 to 8) (size 9 to 14) (size 15 to 20)
#    0.000    2.000    0.000    4.286    6.000    0.571 
#    5.143    1.429    0.000    0.000    0.000    0.000 
#    0.000    0.000    0.000    0.000    0.000    0.000 
#
# Total GULP energy -78375.850331 kJ/mol
# GULP energy per Si atom -5598.275024 kJ/mol
# Density = 2.659463 g / cm^3
# Si number density = 26.655294 Si / 1000 Ang^3
#
#
#
# Elastic Constant Matrix: (Units=GPa)
#
#
# Indices 1 2 3 4 5 6 
#
# 1 131.2005 11.5398 47.8938 -7.9371 -58.4151 11.0304
# 2 11.5398 58.8083 33.9927 -5.7404 -12.8575 1.8426
# 3 47.8938 33.9927 88.6350 -6.0216 -47.6337 -1.6893
# 4 -7.9371 -5.7404 -6.0216 39.9681 -6.2187 6.0451
# 5 -58.4151 -12.8575 -47.6337 -6.2187 68.4678 15.4029
# 6 11.0304 1.8426 -1.6893 6.0451 15.4029 33.3423
#
#
#
# Elastic Compliance Matrix: (Units=1/GPa)
#
#
# Indices 1 2 3 4 5 6 
#
# 1 0.019772 0.002028 0.001779 0.011179 0.023922 -0.019641
# 2 0.002028 0.022480 -0.009408 0.002727 0.000338 -0.003041
# 3 0.001779 -0.009408 0.024891 0.007237 0.019811 -0.009271
# 4 0.011179 0.002727 0.007237 0.035383 0.022905 -0.020478
# 5 0.023922 0.000338 0.019811 0.022905 0.059631 -0.038629
# 6 -0.019641 -0.003041 -0.009271 -0.020478 -0.038629 0.057746
#
#
# Mechanical properties :
#
#
# Convention : Reuss Voigt Hill
#
# Bulk Modulus (GPa) = 17.87585 51.72185 34.79885
# Shear Modulus (GPa) = 20.01986 40.70347 30.36167
#
# Velocity S-wave (km/s) = 2.74353 3.91196 3.37864
# Velocity P-wave (km/s) = 4.09351 6.31274 5.32013
#
# Compressibility (1/GPa) = 0.05594139
#
# Stress axis : x y z
#
# Youngs Moduli (GPa) = 50.57562 44.48395 40.17570
#
# Poissons Ratio (x) = -0.09023 -0.07148
# Poissons Ratio (y) = -0.10259 0.37799
# Poissons Ratio (z) = -0.08998 0.41852
#
# Static dielectric constant tensor:
#      x y z
#    x 2.107270 0.034020 -0.053350 
#    y 0.034020 2.227800 0.000620 
#    z -0.053350 0.000620 2.052870 
# 
# From -- ./inp_files/199076.got.cif
#   From: 2010.05.17/outbox.cif.g08.bks.cpg/sg2_100_cif.got.tgz:199076.got - 2010.06.03 11:33:40.
