data_PCOD9104612
_publ_section_title
;
Structure prediction by ZEFSAII (Michael W. Deem and Ramdas Pophale) SiO2 
 PCOD9104612
Probable space group: P -1
;
_chemical_formula_sum "Si O2"
_cell_formula_units_Z 16
_cell_length_a 15.178097
_cell_length_b 13.710628
_cell_length_c 7.352107
_cell_angle_alpha 118.090389
_cell_angle_beta 84.960678
_cell_angle_gamma 42.217029
_cell_volume 613.544641
_symmetry_space_group_name_H-M "P -1"
_symmetry_group_IT_number 2
_symmetry_cell_setting 'triclinic'
loop_
_space_group_symop_operation_xyz
x,y,z
-x,-y,-z
loop_
_atom_site_type_symbol
_atom_site_label
_atom_site_fract_x
_atom_site_fract_y
_atom_site_fract_z
Si Si1 0.071623 0.544628 0.042656
Si Si2 0.668567 0.465961 0.352904
Si Si3 0.580214 0.790553 0.572799
Si Si4 0.309171 0.288471 0.107073
Si Si5 0.098131 0.088470 0.865061
Si Si6 0.185707 0.938574 0.099410
Si Si7 0.839271 0.203865 0.559404
Si Si8 0.495700 0.299808 0.008020
O O1 0.280448 0.324533 0.713226
O O2 0.117494 0.520601 0.225116
O O3 0.935417 0.777135 0.153535
O O4 0.000000 0.500000 0.000000
O O5 0.541941 0.702400 0.485764
O O6 0.690581 0.312470 0.168509
O O7 0.595756 0.557648 0.655315
O O8 0.883897 0.273632 0.101351
O O9 0.694220 0.686139 0.653328
O O10 0.389143 0.077008 0.872730
O O11 0.468699 0.199346 0.927340
O O12 0.217094 0.850889 0.561401
O O13 0.178512 0.020273 0.991299
O O14 0.290519 0.890929 0.195025
O O15 0.968858 0.138292 0.350309
O O16 0.653791 0.475372 0.903083
O O17 0.000000 0.000000 0.500000
#
# Coordination Sequence:
#
# PCOD9104612 Si02
#       8
#     2   2   2   2   2   2   2   2
#     4  11  24  42  65  96 130 171 224 273 327 393
#     4   9  17  36  64  91 123 164 209 268 316 384
#     4   9  21  41  69  89 129 178 211 274 337 375
#     4  10  22  43  62  95 132 170 221 268 332 392
#     4  10  20  39  61  91 122 169 213 265 329 377
#     4  11  21  38  66  96 125 167 224 255 322 404
#     4  11  22  39  59  89 137 168 203 270 326 378
#     4  11  21  37  64  95 128 169 212 265 321 387
#
# _framework density 26.077971000000002
#
# number of rings (size 3 to 8) (size 9 to 14) (size 15 to 20)
#    0.000    1.750    2.500    2.250    0.000    4.000 
#    4.500    0.000    0.000    0.000    0.000    0.000 
#    0.000    0.000    0.000    0.000    0.000    0.000 
#
# Total GULP energy -89521.368327 kJ/mol
# GULP energy per Si atom -5595.085520 kJ/mol
# Density = 2.601862 g / cm^3
# Si number density = 26.077971 Si / 1000 Ang^3
#
#
#
# Elastic Constant Matrix: (Units=GPa)
#
#
# Indices 1 2 3 4 5 6 
#
# 1 123.7301 50.9625 26.5731 10.8984 2.4847 14.4048
# 2 50.9625 160.7396 28.1751 8.0875 8.2782 13.7420
# 3 26.5731 28.1751 77.1417 -1.5388 11.3222 8.0131
# 4 10.8984 8.0875 -1.5388 40.4169 4.7877 2.5739
# 5 2.4847 8.2782 11.3222 4.7877 35.9220 2.7334
# 6 14.4048 13.7420 8.0131 2.5739 2.7334 32.0874
#
#
#
# Elastic Compliance Matrix: (Units=1/GPa)
#
#
# Indices 1 2 3 4 5 6 
#
# 1 0.010148 -0.002484 -0.002519 -0.002299 0.001182 -0.002779
# 2 -0.002484 0.007504 -0.001613 -0.000694 -0.000837 -0.001569
# 3 -0.002519 -0.001613 0.015303 0.002225 -0.004437 -0.001800
# 4 -0.002299 -0.000694 0.002225 0.026097 -0.003785 -0.000998
# 5 0.001182 -0.000837 -0.004437 -0.003785 0.029952 -0.001312
# 6 -0.002779 -0.001569 -0.001800 -0.000998 -0.001312 0.033726
#
#
# Mechanical properties :
#
#
# Convention : Reuss Voigt Hill
#
# Bulk Modulus (GPa) = 50.70329 63.67031 57.18680
# Shear Modulus (GPa) = 35.07878 38.74530 36.91204
#
# Velocity S-wave (km/s) = 3.67161 3.85872 3.76633
# Velocity P-wave (km/s) = 6.12041 6.65743 6.39456
#
# Compressibility (1/GPa) = 0.01972259
#
# Stress axis : x y z
#
# Youngs Moduli (GPa) = 98.53739 133.27012 65.34772
#
# Poissons Ratio (x) = 0.33099 0.16464
# Poissons Ratio (y) = 0.24472 0.10541
# Poissons Ratio (z) = 0.24826 0.21498
#
# Static dielectric constant tensor:
#      x y z
#    x 1.976380 0.009500 0.011780 
#    y 0.009500 2.178740 0.001690 
#    z 0.011780 0.001690 2.079910 
# 
# From -- ./inp_files/313912.got.cif
#   From: 2010.05.17/outbox.cif.g08.bks.cpg/sg2_157_cif.got.tgz:313912.got - 2010.06.03 11:33:40.
