data_PCOD9104957
_publ_section_title
;
Structure prediction by ZEFSAII (Michael W. Deem and Ramdas Pophale) SiO2 
 PCOD9104957
Probable space group: P -1
;
_chemical_formula_sum "Si O2"
_cell_formula_units_Z 14
_cell_length_a 22.303253
_cell_length_b 5.330688
_cell_length_c 5.168535
_cell_angle_alpha 93.016654
_cell_angle_beta 61.424091
_cell_angle_gamma 97.509230
_cell_volume 534.977979
_symmetry_space_group_name_H-M "P -1"
_symmetry_group_IT_number 2
_symmetry_cell_setting 'triclinic'
loop_
_space_group_symop_operation_xyz
x,y,z
-x,-y,-z
loop_
_atom_site_type_symbol
_atom_site_label
_atom_site_fract_x
_atom_site_fract_y
_atom_site_fract_z
Si Si1 0.709188 0.518630 0.583038
Si Si2 0.857878 0.237986 0.459770
Si Si3 0.841045 0.721160 0.209647
Si Si4 0.428775 0.342827 0.088379
Si Si5 0.991668 0.753613 0.676756
Si Si6 0.577367 0.938594 0.420115
Si Si7 0.724344 0.051372 0.890028
O O1 0.767313 0.594820 0.250442
O O2 0.631453 0.515843 0.661108
O O3 0.716806 0.257278 0.691640
O O4 0.719357 0.766112 0.768367
O O5 0.848316 0.526257 0.425739
O O6 0.939749 0.219387 0.290145
O O7 0.805520 0.139520 0.797842
O O8 0.835122 0.012194 0.294526
O O9 0.913823 0.716098 0.928776
O O10 0.425794 0.099739 0.267451
O O11 0.500000 0.500000 0.000000
O O12 0.420667 0.296610 0.797629
O O13 0.000000 0.500000 0.500000
O O14 0.000000 0.000000 0.500000
O O15 0.500000 0.000000 0.500000
O O16 0.655988 0.071493 0.205218
#
# Coordination Sequence:
#
# PCOD9104957 Si02
#       7
#     2   2   2   2   2   2   2
#     4   9  20  39  63  91 122 160 213 268 323 385
#     4  10  20  39  63  84 115 162 209 255 314 385
#     4  10  20  39  63  84 115 162 209 255 314 385
#     4  11  23  41  65  97 133 174 220 272 328 391
#     4  12  24  36  54  88 126 158 204 262 318 380
#     4  11  23  41  65  97 133 174 220 272 328 391
#     4   9  20  39  63  91 122 160 213 268 323 385
#
# _framework density 26.169301000000001
#
# number of rings (size 3 to 8) (size 9 to 14) (size 15 to 20)
#    0.000    1.714    0.000    4.286    0.000    3.429 
#    0.000    7.143    0.000    0.000    0.000    0.000 
#    0.000    0.000    0.000    0.000    0.000    0.000 
#
# Total GULP energy -78010.284587 kJ/mol
# GULP energy per Si atom -5572.163185 kJ/mol
# Density = 2.610974 g / cm^3
# Si number density = 26.169301 Si / 1000 Ang^3
#
#
#
# Elastic Constant Matrix: (Units=GPa)
#
#
# Indices 1 2 3 4 5 6 
#
# 1 87.9399 16.7025 59.5453 -7.8247 -48.3232 -9.2980
# 2 16.7025 134.2232 52.5212 -0.3426 -1.8346 -17.1927
# 3 59.5453 52.5212 159.8925 -17.2845 -67.4050 16.1805
# 4 -7.8247 -0.3426 -17.2845 44.9601 4.9839 -15.8985
# 5 -48.3232 -1.8346 -67.4050 4.9839 75.3650 -6.2731
# 6 -9.2980 -17.1927 16.1805 -15.8985 -6.2731 40.2433
#
#
#
# Elastic Compliance Matrix: (Units=1/GPa)
#
#
# Indices 1 2 3 4 5 6 
#
# 1 0.021434 0.000477 -0.004261 0.004579 0.010499 0.010315
# 2 0.000477 0.010572 -0.006100 0.000658 -0.004382 0.006656
# 3 -0.004261 -0.006100 0.014807 0.001152 0.009655 -0.007584
# 4 0.004579 0.000658 0.001152 0.027454 0.003184 0.012218
# 5 0.010499 -0.004382 0.009655 0.003184 0.028516 0.002375
# 6 0.010315 0.006656 -0.007584 0.012218 0.002375 0.038322
#
#
# Mechanical properties :
#
#
# Convention : Reuss Voigt Hill
#
# Bulk Modulus (GPa) = 36.97782 71.06593 54.02187
# Shear Modulus (GPa) = 29.43075 48.99945 39.21510
#
# Velocity S-wave (km/s) = 3.35719 4.33182 3.87527
# Velocity P-wave (km/s) = 5.40264 7.22736 6.38057
#
# Compressibility (1/GPa) = 0.02704324
#
# Stress axis : x y z
#
# Youngs Moduli (GPa) = 46.65571 94.58612 67.53456
#
# Poissons Ratio (x) = -0.04510 0.28780
# Poissons Ratio (y) = -0.02224 0.41198
# Poissons Ratio (z) = 0.19882 0.57700
#
# Static dielectric constant tensor:
#      x y z
#    x 2.283020 0.041450 -0.045970 
#    y 0.041450 2.050830 0.020580 
#    z -0.045970 0.020580 2.088850 
# 
# From -- ./inp_files/107863.got.cif
#   From: 2010.05.17/outbox.cif.g08.bks.cpg/sg2_54_cif.got.tgz:107863.got - 2010.06.03 11:33:40.
