data_PCOD9104758
_publ_section_title
;
Structure prediction by ZEFSAII (Michael W. Deem and Ramdas Pophale) SiO2 
 PCOD9104758
Probable space group: P -1
;
_chemical_formula_sum "Si O2"
_cell_formula_units_Z 15
_cell_length_a 19.711262
_cell_length_b 11.843006
_cell_length_c 7.921540
_cell_angle_alpha 128.758118
_cell_angle_beta 143.420712
_cell_angle_gamma 32.158250
_cell_volume 578.055742
_symmetry_space_group_name_H-M "P -1"
_symmetry_group_IT_number 2
_symmetry_cell_setting 'triclinic'
loop_
_space_group_symop_operation_xyz
x,y,z
-x,-y,-z
loop_
_atom_site_type_symbol
_atom_site_label
_atom_site_fract_x
_atom_site_fract_y
_atom_site_fract_z
Si Si1 0.584738 0.960230 0.813240
Si Si2 0.063643 0.532938 0.998617
Si Si3 0.045014 0.767268 0.696305
Si Si4 0.703919 0.418464 0.481928
Si Si5 0.754057 0.067126 0.133132
Si Si6 0.241587 0.807619 0.278535
Si Si7 0.395768 0.885956 0.439295
Si Si8 0.000000 0.500000 0.500000
O O1 0.771841 0.714603 0.977712
O O2 0.459074 0.987027 0.704976
O O3 0.500000 0.000000 0.500000
O O4 0.624537 0.092806 0.014267
O O5 0.143397 0.613699 0.273287
O O6 0.951668 0.636812 0.704611
O O7 0.000000 0.500000 0.000000
O O8 0.080240 0.571810 0.637971
O O9 0.933212 0.885122 0.415205
O O10 0.921419 0.948005 0.762314
O O11 0.200689 0.731063 0.978238
O O12 0.705109 0.281484 0.230543
O O13 0.715647 0.327120 0.599718
O O14 0.541837 0.672836 0.416410
O O15 0.756743 0.986597 0.881177
O O16 0.371089 0.805370 0.471885
#
# Coordination Sequence:
#
# PCOD9104758 Si02
#       8
#     2   2   2   2   2   2   2   1
#     4   9  20  41  62  88 131 164 212 270 316 388
#     4  11  24  42  68  94 129 174 216 266 330 382
#     4  10  22  39  60  85 128 160 206 267 315 375
#     4  10  21  41  61  91 128 160 208 266 313 385
#     4  10  20  39  62  88 124 162 206 262 318 372
#     4  10  21  40  60  90 123 166 204 260 322 373
#     4  10  21  37  66  87 124 168 209 256 323 383
#     4  12  22  42  64  94 132 164 214 276 320 380
#
# _framework density 25.949057
#
# number of rings (size 3 to 8) (size 9 to 14) (size 15 to 20)
#    0.000    1.867    2.667    0.800    0.000    3.733 
#    0.000    4.000   14.667    0.000    0.000    0.000 
#    0.000    0.000    0.000    0.000    0.000    0.000 
#
# Total GULP energy -83593.503999 kJ/mol
# GULP energy per Si atom -5572.900267 kJ/mol
# Density = 2.589000 g / cm^3
# Si number density = 25.949057 Si / 1000 Ang^3
#
#
#
# Elastic Constant Matrix: (Units=GPa)
#
#
# Indices 1 2 3 4 5 6 
#
# 1 140.2334 19.7500 47.6677 16.9039 16.5899 21.0557
# 2 19.7500 61.6309 3.7676 29.2078 12.6142 22.7553
# 3 47.6677 3.7676 83.7574 38.6297 7.7180 -0.4789
# 4 16.9039 29.2078 38.6297 41.5523 8.1582 4.7347
# 5 16.5899 12.6142 7.7180 8.1582 42.5946 9.1226
# 6 21.0557 22.7553 -0.4789 4.7347 9.1226 38.7789
#
#
#
# Elastic Compliance Matrix: (Units=1/GPa)
#
#
# Indices 1 2 3 4 5 6 
#
# 1 0.011166 -0.006528 -0.010978 0.010984 -0.001828 -0.003279
# 2 -0.006528 0.049885 0.026908 -0.054830 -0.002737 -0.018057
# 3 -0.010978 0.026908 0.041099 -0.052231 -0.000533 -0.002819
# 4 0.010984 -0.054830 -0.052231 0.105519 -0.001582 0.013054
# 5 -0.001828 -0.002737 -0.000533 -0.001582 0.026119 -0.003359
# 6 -0.003279 -0.018057 -0.002819 0.013054 -0.003359 0.037325
#
#
# Mechanical properties :
#
#
# Convention : Reuss Voigt Hill
#
# Bulk Modulus (GPa) = 8.26749 47.55468 27.91109
# Shear Modulus (GPa) = 17.08671 38.88091 27.98381
#
# Velocity S-wave (km/s) = 2.56885 3.87506 3.28748
# Velocity P-wave (km/s) = 3.46289 6.19576 5.01892
#
# Compressibility (1/GPa) = 0.12095570
#
# Stress axis : x y z
#
# Youngs Moduli (GPa) = 89.55455 20.04624 24.33170
#
# Poissons Ratio (x) = 0.13086 0.26710
# Poissons Ratio (y) = 0.58460 -0.65473
# Poissons Ratio (z) = 0.98309 -0.53941
#
# Static dielectric constant tensor:
#      x y z
#    x 2.050360 -0.052160 0.023570 
#    y -0.052160 2.117240 -0.058990 
#    z 0.023570 -0.058990 2.133320 
# 
# From -- ./inp_files/345916.got.cif
#   From: 2010.05.17/outbox.cif.g08.bks.cpg/sg2_173_cif.got.tgz:345916.got - 2010.06.03 11:33:40.
