data_PCOD9104247
_publ_section_title
;
Structure prediction by ZEFSAII (Michael W. Deem and Ramdas Pophale) SiO2 
 PCOD9104247
Probable space group: P -1
;
_chemical_formula_sum "Si O2"
_cell_formula_units_Z 16
_cell_length_a 7.186916
_cell_length_b 10.101520
_cell_length_c 20.309735
_cell_angle_alpha 33.262986
_cell_angle_beta 55.531215
_cell_angle_gamma 55.391462
_cell_volume 651.938148
_symmetry_space_group_name_H-M "P -1"
_symmetry_group_IT_number 2
_symmetry_cell_setting 'triclinic'
loop_
_space_group_symop_operation_xyz
x,y,z
-x,-y,-z
loop_
_atom_site_type_symbol
_atom_site_label
_atom_site_fract_x
_atom_site_fract_y
_atom_site_fract_z
Si Si1 0.483480 0.601683 0.187333
Si Si2 0.106874 0.224408 0.533128
Si Si3 0.002765 0.239295 0.854755
Si Si4 0.792923 0.074348 0.162400
Si Si5 0.988564 0.518900 0.073095
Si Si6 0.025681 0.211109 0.315795
Si Si7 0.491277 0.081203 0.344023
Si Si8 0.185357 0.740047 0.299553
O O1 0.254674 0.714292 0.144973
O O2 0.725305 0.644081 0.093481
O O3 0.502502 0.308565 0.295418
O O4 0.431844 0.698706 0.231805
O O5 0.100688 0.493248 0.394459
O O6 0.879657 0.249734 0.614798
O O7 0.334401 0.154008 0.563231
O O8 0.124324 0.998518 0.573477
O O9 0.036124 0.505546 0.763620
O O10 0.199381 0.141228 0.801629
O O11 0.000000 0.000000 0.000000
O O12 0.021946 0.974975 0.201729
O O13 0.595622 0.136726 0.229264
O O14 0.830242 0.312552 0.017036
O O15 0.057434 0.274715 0.205226
O O16 0.000000 0.500000 0.000000
O O17 0.235580 0.077672 0.374697
#
# Coordination Sequence:
#
# PCOD9104247 Si02
#       8
#     2   2   2   2   2   2   2   2
#     4  10  21  38  63  93 125 164 211 254 312 373
#     4  10  20  45  68  89 125 164 211 259 314 369
#     4  10  21  38  56  87 133 165 202 258 314 364
#     4  10  20  39  59  88 131 167 201 262 314 367
#     4  12  21  37  64  93 125 164 210 251 305 382
#     4  11  23  40  64  95 123 165 216 252 308 375
#     4  10  21  40  63  93 127 161 211 256 313 369
#     4   9  21  40  67  90 125 167 202 265 318 358
#
# _framework density 24.542204999999999
#
# number of rings (size 3 to 8) (size 9 to 14) (size 15 to 20)
#    0.000    1.750    3.750    0.750    0.000    4.000 
#    2.250   11.250    0.000    0.000    0.000    0.000 
#    0.000    0.000    0.000    0.000    0.000    0.000 
#
# Total GULP energy -89235.729995 kJ/mol
# GULP energy per Si atom -5577.233125 kJ/mol
# Density = 2.448635 g / cm^3
# Si number density = 24.542205 Si / 1000 Ang^3
#
#
#
# Elastic Constant Matrix: (Units=GPa)
#
#
# Indices 1 2 3 4 5 6 
#
# 1 84.1782 26.9998 15.8834 -6.9920 5.6679 -1.9632
# 2 26.9998 119.4994 22.6883 13.6179 1.8655 8.8721
# 3 15.8834 22.6883 92.3154 -15.0718 6.2748 -1.8971
# 4 -6.9920 13.6179 -15.0718 53.0019 7.7834 -5.6713
# 5 5.6679 1.8655 6.2748 7.7834 24.0080 -9.5395
# 6 -1.9632 8.8721 -1.8971 -5.6713 -9.5395 34.9484
#
#
#
# Elastic Compliance Matrix: (Units=1/GPa)
#
#
# Indices 1 2 3 4 5 6 
#
# 1 0.013584 -0.003298 -0.000788 0.003018 -0.003264 0.001157
# 2 -0.003298 0.010398 -0.002828 -0.004394 0.000749 -0.003487
# 3 -0.000788 -0.002828 0.012778 0.004975 -0.004131 0.001047
# 4 0.003018 -0.004394 0.004975 0.023318 -0.007975 0.003162
# 5 -0.003264 0.000749 -0.004131 -0.007975 0.050787 0.011971
# 6 0.001157 -0.003487 0.001047 0.003162 0.011971 0.033401
#
#
# Mechanical properties :
#
#
# Convention : Reuss Voigt Hill
#
# Bulk Modulus (GPa) = 43.61009 47.45957 45.53483
# Shear Modulus (GPa) = 30.16797 37.75309 33.96053
#
# Velocity S-wave (km/s) = 3.50984 3.92636 3.72393
# Velocity P-wave (km/s) = 5.85092 6.31942 6.08968
#
# Compressibility (1/GPa) = 0.02293047
#
# Stress axis : x y z
#
# Youngs Moduli (GPa) = 73.61808 96.16903 78.26227
#
# Poissons Ratio (x) = 0.31720 0.06168
# Poissons Ratio (y) = 0.24282 0.22133
# Poissons Ratio (z) = 0.05802 0.27197
#
# Static dielectric constant tensor:
#      x y z
#    x 1.972540 0.037450 -0.015320 
#    y 0.037450 2.022450 0.055250 
#    z -0.015320 0.055250 1.900880 
# 
# From -- ./inp_files/606984.got.cif
#   From: 2010.05.17/outbox.cif.g08.bks.cpg/sg2_304_cif.got.tgz:606984.got - 2010.06.03 11:33:40.
