data_PCOD9104396
_publ_section_title
;
Structure prediction by ZEFSAII (Michael W. Deem and Ramdas Pophale) SiO2 
 PCOD9104396
Probable space group: P -1
;
_chemical_formula_sum "Si O2"
_cell_formula_units_Z 11
_cell_length_a 18.199118
_cell_length_b 5.692475
_cell_length_c 5.005385
_cell_angle_alpha 87.025373
_cell_angle_beta 111.960605
_cell_angle_gamma 102.561635
_cell_volume 469.162426
_symmetry_space_group_name_H-M "P -1"
_symmetry_group_IT_number 2
_symmetry_cell_setting 'triclinic'
loop_
_space_group_symop_operation_xyz
x,y,z
-x,-y,-z
loop_
_atom_site_type_symbol
_atom_site_label
_atom_site_fract_x
_atom_site_fract_y
_atom_site_fract_z
Si Si1 0.367080 0.019964 0.835097
Si Si2 0.749569 0.434978 0.228140
Si Si3 0.483172 0.774953 0.691589
Si Si4 0.000000 0.000000 0.000000
Si Si5 0.331084 0.390802 0.378456
Si Si6 0.934321 0.666271 0.423233
O O1 0.336535 0.135329 0.525311
O O2 0.292175 0.842042 0.880729
O O3 0.426848 0.845122 0.845319
O O4 0.429046 0.228519 0.066295
O O5 0.720482 0.492168 0.480409
O O6 0.845455 0.496939 0.332999
O O7 0.712953 0.599206 0.960780
O O8 0.423241 0.548006 0.494451
O O9 0.500000 0.000000 0.500000
O O10 0.952647 0.827971 0.703045
O O11 0.944195 0.830437 0.163639
O O12 0.000000 0.500000 0.500000
#
# Coordination Sequence:
#
# PCOD9104396 Si02
#       6
#     2   2   2   1   2   2
#     4  10  23  39  61  91 130 178 216 275 332 385
#     4  11  25  42  62  99 131 166 228 276 329 416
#     4  10  20  39  60  91 131 170 231 269 315 405
#     4  10  24  44  70 106 130 170 232 272 340 436
#     4  11  24  40  64  93 133 178 218 274 337 388
#     4  11  24  46  74 101 139 180 223 287 352 410
#
# _framework density 23.44604
#
# number of rings (size 3 to 8) (size 9 to 14) (size 15 to 20)
#    0.000    1.455    1.818    2.182    2.545    5.091 
#    0.000    1.818    0.000    0.000    0.000    0.000 
#    0.000    0.000    0.000    0.000    0.000    0.000 
#
# Total GULP energy -61283.956851 kJ/mol
# GULP energy per Si atom -5571.268805 kJ/mol
# Density = 2.339268 g / cm^3
# Si number density = 23.446040 Si / 1000 Ang^3
#
#
#
# Elastic Constant Matrix: (Units=GPa)
#
#
# Indices 1 2 3 4 5 6 
#
# 1 145.0921 53.9991 57.8921 20.3195 23.7993 41.2903
# 2 53.9991 94.1708 32.0176 4.8142 11.2971 38.0284
# 3 57.8921 32.0176 104.7943 -1.9023 -23.9092 20.0437
# 4 20.3195 4.8142 -1.9023 35.1522 -0.4687 2.7818
# 5 23.7993 11.2971 -23.9092 -0.4687 49.8060 10.7768
# 6 41.2903 38.0284 20.0437 2.7818 10.7768 43.3180
#
#
#
# Elastic Compliance Matrix: (Units=1/GPa)
#
#
# Indices 1 2 3 4 5 6 
#
# 1 0.016444 -0.001705 -0.010085 -0.009479 -0.011071 -0.006148
# 2 -0.001705 0.017625 -0.002522 -0.000622 -0.001759 -0.012203
# 3 -0.010085 -0.002522 0.019840 0.007585 0.015346 -0.001658
# 4 -0.009479 -0.000622 0.007585 0.034389 0.008243 0.001813
# 5 -0.011071 -0.001759 0.015346 0.008243 0.034079 -0.004011
# 6 -0.006148 -0.012203 -0.001658 0.001813 -0.004011 0.041307
#
#
# Mechanical properties :
#
#
# Convention : Reuss Voigt Hill
#
# Bulk Modulus (GPa) = 39.54859 70.20832 54.87845
# Shear Modulus (GPa) = 24.90838 38.99848 31.95343
#
# Velocity S-wave (km/s) = 3.26294 4.08282 3.69568
# Velocity P-wave (km/s) = 5.57676 7.22741 6.45507
#
# Compressibility (1/GPa) = 0.02528535
#
# Stress axis : x y z
#
# Youngs Moduli (GPa) = 60.81371 56.73871 50.40213
#
# Poissons Ratio (x) = 0.09673 0.50832
# Poissons Ratio (y) = 0.10368 0.12709
# Poissons Ratio (z) = 0.61333 0.14307
#
# Static dielectric constant tensor:
#      x y z
#    x 1.894850 -0.051220 -0.045950 
#    y -0.051220 1.942740 0.046780 
#    z -0.045950 0.046780 1.898490 
# 
# From -- ./inp_files/3123.got.cif
#   From: 2010.05.17/outbox.cif.g08.bks.cpg/sg2_2_cif.got.tgz:3123.got - 2010.06.03 11:33:40.
