data_PCOD9104409
_publ_section_title
;
Structure prediction by ZEFSAII (Michael W. Deem and Ramdas Pophale) SiO2 
 PCOD9104409
Probable space group: P -1
;
_chemical_formula_sum "Si O2"
_cell_formula_units_Z 16
_cell_length_a 23.745215
_cell_length_b 18.958924
_cell_length_c 8.993607
_cell_angle_alpha 131.967619
_cell_angle_beta 125.091077
_cell_angle_gamma 16.256545
_cell_volume 797.728946
_symmetry_space_group_name_H-M "P -1"
_symmetry_group_IT_number 2
_symmetry_cell_setting 'triclinic'
loop_
_space_group_symop_operation_xyz
x,y,z
-x,-y,-z
loop_
_atom_site_type_symbol
_atom_site_label
_atom_site_fract_x
_atom_site_fract_y
_atom_site_fract_z
Si Si1 0.952168 0.130152 0.470186
Si Si2 0.207089 0.180574 0.433465
Si Si3 0.601916 0.483132 0.854573
Si Si4 0.033737 0.501855 0.894720
Si Si5 0.798918 0.511641 0.942338
Si Si6 0.796668 0.224712 0.092078
Si Si7 0.560149 0.105830 0.892659
Si Si8 0.170534 0.012378 0.037788
O O1 0.846808 0.364666 0.693670
O O2 0.799462 0.276235 0.325483
O O3 0.184245 0.842953 0.341224
O O4 0.000000 0.000000 0.500000
O O5 0.000000 0.500000 0.500000
O O6 0.186989 0.235899 0.651398
O O7 0.399858 0.969021 0.326825
O O8 0.188386 0.093227 0.250756
O O9 0.619660 0.468379 0.040933
O O10 0.577551 0.617934 0.932369
O O11 0.373254 0.732486 0.841480
O O12 0.795424 0.819458 0.910294
O O13 0.000000 0.500000 0.000000
O O14 0.140437 0.466216 0.002806
O O15 0.564983 0.805879 0.072864
O O16 0.958781 0.286764 0.006216
O O17 0.825533 0.077014 0.964876
O O18 0.000000 0.000000 0.000000
#
# Coordination Sequence:
#
# PCOD9104409 Si02
#       8
#     2   2   2   2   2   2   2   2
#     4  11  21  37  60  94 131 170 206 250 315 377
#     4   9  19  42  66  91 118 159 219 264 315 372
#     4  10  20  39  60  92 130 167 211 258 306 380
#     4  11  25  46  65  93 132 160 214 281 315 377
#     4  12  22  40  68  94 131 172 211 259 320 383
#     4  10  21  37  58  90 133 162 210 260 298 382
#     4  10  21  42  67  94 123 167 218 255 321 388
#     4  11  20  38  66  92 121 173 216 254 312 376
#
# _framework density 20.056937000000001
#
# number of rings (size 3 to 8) (size 9 to 14) (size 15 to 20)
#    0.000    1.500    6.250    1.125    0.000    3.500 
#    6.750    0.000    0.000    0.000    0.000    0.000 
#    0.000    0.000    0.000    0.000    0.000    0.000 
#
# Total GULP energy -89209.778958 kJ/mol
# GULP energy per Si atom -5575.611185 kJ/mol
# Density = 2.001129 g / cm^3
# Si number density = 20.056937 Si / 1000 Ang^3
#
#
#
# Elastic Constant Matrix: (Units=GPa)
#
#
# Indices 1 2 3 4 5 6 
#
# 1 154.8044 30.6606 53.3890 -3.2146 -5.0713 -15.8945
# 2 30.6606 23.1904 28.8697 5.8388 5.8109 -9.4696
# 3 53.3890 28.8697 132.9261 -1.0858 -7.4927 -11.1278
# 4 -3.2146 5.8388 -1.0858 29.6165 -1.6203 -12.1175
# 5 -5.0713 5.8109 -7.4927 -1.6203 29.4358 2.2986
# 6 -15.8945 -9.4696 -11.1278 -12.1175 2.2986 34.5660
#
#
#
# Elastic Compliance Matrix: (Units=1/GPa)
#
#
# Indices 1 2 3 4 5 6 
#
# 1 0.009830 -0.013956 -0.000464 0.004842 0.004445 0.001949
# 2 -0.013956 0.098130 -0.016557 -0.018727 -0.027835 0.010422
# 3 -0.000464 -0.016557 0.011697 0.003988 0.006386 -0.000010
# 4 0.004842 -0.018727 0.003988 0.043962 0.006925 0.013331
# 5 0.004445 -0.027835 0.006386 0.006925 0.042546 -0.003928
# 6 0.001949 0.010422 -0.000010 0.013331 -0.003928 0.037613
#
#
# Mechanical properties :
#
#
# Convention : Reuss Voigt Hill
#
# Bulk Modulus (GPa) = 17.32984 59.63994 38.48489
# Shear Modulus (GPa) = 15.38619 31.92378 23.65498
#
# Velocity S-wave (km/s) = 2.77271 3.99389 3.43795
# Velocity P-wave (km/s) = 4.34852 7.14619 5.91514
#
# Compressibility (1/GPa) = 0.05770393
#
# Stress axis : x y z
#
# Youngs Moduli (GPa) = 101.72677 10.19052 85.49329
#
# Poissons Ratio (x) = 0.14222 0.03966
# Poissons Ratio (y) = 1.41974 1.41548
# Poissons Ratio (z) = 0.04718 0.16872
#
# Static dielectric constant tensor:
#      x y z
#    x 1.421060 1.271400 -0.000380 
#    y 1.271400 -4.067950 -0.153350 
#    z -0.000380 -0.153350 1.745470 
# 
# From -- ./inp_files/348609.got.cif
#   From: 2010.05.17/outbox.cif.g08.bks.cpg/sg2_175_cif.got.tgz:348609.got - 2010.06.03 11:33:40.
