data_PCOD9104549
_publ_section_title
;
Structure prediction by ZEFSAII (Michael W. Deem and Ramdas Pophale) SiO2 
 PCOD9104549
Probable space group: P -1
;
_chemical_formula_sum "Si O2"
_cell_formula_units_Z 15
_cell_length_a 13.239600
_cell_length_b 14.352127
_cell_length_c 7.084016
_cell_angle_alpha 104.362028
_cell_angle_beta 122.788023
_cell_angle_gamma 123.812049
_cell_volume 580.624837
_symmetry_space_group_name_H-M "P -1"
_symmetry_group_IT_number 2
_symmetry_cell_setting 'triclinic'
loop_
_space_group_symop_operation_xyz
x,y,z
-x,-y,-z
loop_
_atom_site_type_symbol
_atom_site_label
_atom_site_fract_x
_atom_site_fract_y
_atom_site_fract_z
Si Si1 0.783473 0.815595 0.074612
Si Si2 0.779203 0.406236 0.662880
Si Si3 0.000000 0.000000 0.000000
Si Si4 0.355275 0.984465 0.115418
Si Si5 0.412705 0.047016 0.651978
Si Si6 0.405625 0.632749 0.877049
Si Si7 0.128628 0.274394 0.432922
Si Si8 0.097561 0.309282 0.970802
O O1 0.791124 0.704984 0.027569
O O2 0.569384 0.711394 0.912671
O O3 0.000000 0.000000 0.500000
O O4 0.810906 0.863948 0.909014
O O5 0.557031 0.189282 0.347747
O O6 0.797564 0.451386 0.485281
O O7 0.785400 0.508753 0.842157
O O8 0.000000 0.500000 0.000000
O O9 0.850121 0.825009 0.619496
O O10 0.376204 0.002116 0.372539
O O11 0.406043 0.908621 0.071803
O O12 0.105862 0.857107 0.767070
O O13 0.476155 0.202012 0.807002
O O14 0.173595 0.869269 0.426410
O O15 0.315722 0.474622 0.799164
O O16 0.106156 0.287132 0.192454
#
# Coordination Sequence:
#
# PCOD9104549 Si02
#       8
#     2   2   1   2   2   2   2   2
#     4  11  22  42  70  98 133 175 220 279 337 395
#     4  11  22  40  62  94 126 171 222 267 333 401
#     4  10  22  42  68  92 136 174 222 266 342 398
#     4  10  21  39  63  85 127 177 211 264 334 392
#     4  10  20  39  61  88 126 171 213 268 325 391
#     4  11  24  40  64  99 131 168 226 274 330 396
#     4   9  21  39  62  92 128 175 221 266 333 398
#     4   9  19  39  64  87 130 169 213 266 341 393
#
# _framework density 25.834237000000002
#
# number of rings (size 3 to 8) (size 9 to 14) (size 15 to 20)
#    0.000    1.867    2.667    0.800    1.867    6.933 
#    2.400    0.667    0.000    0.000    0.000    0.000 
#    0.000    0.000    0.000    0.000    0.000    0.000 
#
# Total GULP energy -83668.998857 kJ/mol
# GULP energy per Si atom -5577.933257 kJ/mol
# Density = 2.577544 g / cm^3
# Si number density = 25.834237 Si / 1000 Ang^3
#
#
#
# Elastic Constant Matrix: (Units=GPa)
#
#
# Indices 1 2 3 4 5 6 
#
# 1 148.6305 42.7050 41.2930 17.7465 -24.2187 -25.0876
# 2 42.7050 76.2734 18.9298 18.3001 -8.2495 -0.2640
# 3 41.2930 18.9298 90.5877 36.6410 -0.5378 -11.4439
# 4 17.7465 18.3001 36.6410 52.9966 -11.8577 -18.1632
# 5 -24.2187 -8.2495 -0.5378 -11.8577 27.9045 7.7762
# 6 -25.0876 -0.2640 -11.4439 -18.1632 7.7762 47.3117
#
#
#
# Elastic Compliance Matrix: (Units=1/GPa)
#
#
# Indices 1 2 3 4 5 6 
#
# 1 0.011685 -0.005496 -0.005870 0.006045 0.009435 0.005515
# 2 -0.005496 0.017447 0.000980 -0.006828 -0.001096 -0.005021
# 3 -0.005870 0.000980 0.019053 -0.014623 -0.009962 -0.002475
# 4 0.006045 -0.006828 -0.014623 0.036573 0.015382 0.011143
# 5 0.009435 -0.001096 -0.009962 0.015382 0.049968 0.000280
# 6 0.005515 -0.005021 -0.002475 0.011143 0.000280 0.027666
#
#
# Mechanical properties :
#
#
# Convention : Reuss Voigt Hill
#
# Bulk Modulus (GPa) = 36.47902 57.92746 47.20324
# Shear Modulus (GPa) = 26.00098 39.81347 32.90722
#
# Velocity S-wave (km/s) = 3.17591 3.92996 3.57288
# Velocity P-wave (km/s) = 5.25353 6.56233 5.94406
#
# Compressibility (1/GPa) = 0.02741302
#
# Stress axis : x y z
#
# Youngs Moduli (GPa) = 85.58225 57.31652 52.48592
#
# Poissons Ratio (x) = 0.31502 0.30809
# Poissons Ratio (y) = 0.47037 -0.05146
# Poissons Ratio (z) = 0.50237 -0.05619
#
# Static dielectric constant tensor:
#      x y z
#    x 2.035070 -0.060480 -0.012560 
#    y -0.060480 2.137560 -0.063580 
#    z -0.012560 -0.063580 2.093370 
# 
# From -- ./inp_files/170909.got.cif
#   From: 2010.05.17/outbox.cif.g08.bks.cpg/sg2_86_cif.got.tgz:170909.got - 2010.06.03 11:33:40.
