data_PCOD9104024
_publ_section_title
;
Structure prediction by ZEFSAII (Michael W. Deem and Ramdas Pophale) SiO2 
 PCOD9104024
Probable space group: P -1
;
_chemical_formula_sum "Si O2"
_cell_formula_units_Z 15
_cell_length_a 18.515776
_cell_length_b 6.379069
_cell_length_c 9.366158
_cell_angle_alpha 50.781015
_cell_angle_beta 125.618677
_cell_angle_gamma 116.606019
_cell_volume 691.127962
_symmetry_space_group_name_H-M "P -1"
_symmetry_group_IT_number 2
_symmetry_cell_setting 'triclinic'
loop_
_space_group_symop_operation_xyz
x,y,z
-x,-y,-z
loop_
_atom_site_type_symbol
_atom_site_label
_atom_site_fract_x
_atom_site_fract_y
_atom_site_fract_z
Si Si1 0.000000 0.500000 0.500000
Si Si2 0.552708 0.913292 0.458253
Si Si3 0.605496 0.338809 0.825202
Si Si4 0.260158 0.057921 0.935530
Si Si5 0.857307 0.101548 0.855996
Si Si6 0.870576 0.669995 0.520251
Si Si7 0.048942 0.107713 0.186782
Si Si8 0.404258 0.592903 0.887365
O O1 0.945558 0.657603 0.491616
O O2 0.974848 0.215141 0.679541
O O3 0.607172 0.662827 0.664370
O O4 0.478509 0.803584 0.301601
O O5 0.500000 0.000000 0.500000
O O6 0.610539 0.175148 0.343755
O O7 0.593199 0.288548 0.001070
O O8 0.690766 0.204077 0.928822
O O9 0.195162 0.126653 0.704051
O O10 0.332582 0.325584 0.915660
O O11 0.205988 0.012643 0.039739
O O12 0.823893 0.361086 0.628482
O O13 0.878538 0.870862 0.866963
O O14 0.955835 0.206330 0.990430
O O15 0.910585 0.773260 0.672166
O O16 0.500000 0.500000 0.000000
#
# Coordination Sequence:
#
# PCOD9104024 Si02
#       8
#     1   2   2   2   2   2   2   2
#     4  10  20  38  72  98 128 184 234 266 338 412
#     4  11  23  45  75 101 130 182 238 284 344 429
#     4  11  25  43  73 102 134 183 229 289 354 418
#     4  12  27  44  67 107 147 175 236 300 342 408
#     4  10  24  44  66 104 138 178 234 285 340 416
#     4  11  24  43  70 101 141 184 232 285 344 412
#     4  10  21  45  73  95 137 190 229 278 346 419
#     4  12  25  47  72  98 141 185 231 288 350 420
#
# _framework density 21.703652999999999
#
# number of rings (size 3 to 8) (size 9 to 14) (size 15 to 20)
#    0.000    1.067    4.000    1.200    0.000    6.400 
#    0.000    0.000    0.000    0.000    0.000    0.000 
#    0.000    0.000    0.000    0.000    0.000    0.000 
#
# Total GULP energy -83646.921142 kJ/mol
# GULP energy per Si atom -5576.461409 kJ/mol
# Density = 2.165425 g / cm^3
# Si number density = 21.703653 Si / 1000 Ang^3
#
#
#
# Elastic Constant Matrix: (Units=GPa)
#
#
# Indices 1 2 3 4 5 6 
#
# 1 163.6277 60.8959 78.1559 -3.0301 -15.2745 -25.1444
# 2 60.8959 68.9854 52.7817 -0.8488 0.6143 -19.0584
# 3 78.1559 52.7817 118.4822 -21.3183 -3.4689 -16.1726
# 4 -3.0301 -0.8488 -21.3183 48.3518 -2.5668 -7.3715
# 5 -15.2745 0.6143 -3.4689 -2.5668 39.1576 -7.8218
# 6 -25.1444 -19.0584 -16.1726 -7.3715 -7.8218 21.0137
#
#
#
# Elastic Compliance Matrix: (Units=1/GPa)
#
#
# Indices 1 2 3 4 5 6 
#
# 1 0.011895 -0.004837 -0.004163 0.000550 0.006211 0.009148
# 2 -0.004837 0.028510 -0.007935 -0.001292 -0.000457 0.013339
# 3 -0.004163 -0.007935 0.016625 0.007561 0.001212 0.003721
# 4 0.000550 -0.001292 0.007561 0.026944 0.006070 0.017016
# 5 0.006211 -0.000457 0.001212 0.006070 0.032935 0.022338
# 6 0.009148 0.013339 0.003721 0.017016 0.022338 0.087779
#
#
# Mechanical properties :
#
#
# Convention : Reuss Voigt Hill
#
# Bulk Modulus (GPa) = 43.17611 81.64025 62.40818
# Shear Modulus (GPa) = 20.30221 32.32210 26.31215
#
# Velocity S-wave (km/s) = 3.06180 3.86326 3.48564
# Velocity P-wave (km/s) = 5.69527 7.58929 6.70945
#
# Compressibility (1/GPa) = 0.02316095
#
# Stress axis : x y z
#
# Youngs Moduli (GPa) = 84.06567 35.07501 60.15110
#
# Poissons Ratio (x) = 0.16966 0.25038
# Poissons Ratio (y) = 0.40663 0.47731
# Poissons Ratio (z) = 0.34993 0.27833
#
# Static dielectric constant tensor:
#      x y z
#    x 1.783110 0.003480 0.029630 
#    y 0.003480 1.797780 -0.004560 
#    z 0.029630 -0.004560 1.803300 
# 
# From -- ./inp_files/323233.got.cif
#   From: 2010.05.17/outbox.cif.g08.bks.cpg/sg2_162_cif.got.tgz:323233.got - 2010.06.03 11:33:40.
