data_PCOD9104662
_publ_section_title
;
Structure prediction by ZEFSAII (Michael W. Deem and Ramdas Pophale) SiO2 
 PCOD9104662
Probable space group: P -1
;
_chemical_formula_sum "Si O2"
_cell_formula_units_Z 16
_cell_length_a 13.487813
_cell_length_b 25.245639
_cell_length_c 11.887328
_cell_angle_alpha 30.045257
_cell_angle_beta 32.523937
_cell_angle_gamma 21.480997
_cell_volume 726.311335
_symmetry_space_group_name_H-M "P -1"
_symmetry_group_IT_number 2
_symmetry_cell_setting 'triclinic'
loop_
_space_group_symop_operation_xyz
x,y,z
-x,-y,-z
loop_
_atom_site_type_symbol
_atom_site_label
_atom_site_fract_x
_atom_site_fract_y
_atom_site_fract_z
Si Si1 0.319138 0.972213 0.737184
Si Si2 0.486446 0.088660 0.749058
Si Si3 0.996974 0.013646 0.164463
Si Si4 0.617737 0.623038 0.619420
Si Si5 0.486765 0.623921 0.988033
Si Si6 0.086610 0.879831 0.541596
Si Si7 0.020595 0.650408 0.392800
Si Si8 0.801026 0.610526 0.884629
O O1 0.100774 0.041950 0.718125
O O2 0.531325 0.783609 0.873861
O O3 0.500000 0.000000 0.500000
O O4 0.149493 0.031879 0.904665
O O5 0.423634 0.233347 0.590965
O O6 0.241396 0.178752 0.727885
O O7 0.796507 0.950219 0.657162
O O8 0.500000 0.000000 0.000000
O O9 0.720006 0.185549 0.163726
O O10 0.181902 0.898064 0.304228
O O11 0.332023 0.707957 0.676017
O O12 0.869525 0.483582 0.555451
O O13 0.625378 0.567001 0.837737
O O14 0.279642 0.616900 0.219672
O O15 0.701131 0.552376 0.014570
O O16 0.000000 0.000000 0.500000
O O17 0.931989 0.633326 0.624499
O O18 0.000000 0.500000 0.000000
#
# Coordination Sequence:
#
# PCOD9104662 Si02
#       8
#     2   2   2   2   2   2   2   2
#     4  10  22  43  67  94 119 168 230 283 331 383
#     4  11  22  39  67 101 138 180 226 268 332 410
#     4  10  20  39  67  91 128 169 214 280 331 383
#     4  11  23  43  66 102 147 176 216 279 345 414
#     4  11  22  44  71  95 137 178 217 279 347 401
#     4  10  20  39  61  96 136 172 214 268 330 404
#     4  12  25  43  71 100 140 185 218 277 347 404
#     4  11  26  47  66  94 137 178 230 282 329 403
#
# _framework density 22.029119999999999
#
# number of rings (size 3 to 8) (size 9 to 14) (size 15 to 20)
#    0.000    1.250    3.750    3.000    3.500    0.500 
#    2.250    0.000    0.000    0.000    0.000    0.000 
#    0.000    0.000    0.000    0.000    0.000    0.000 
#
# Total GULP energy -89432.973967 kJ/mol
# GULP energy per Si atom -5589.560873 kJ/mol
# Density = 2.197898 g / cm^3
# Si number density = 22.029120 Si / 1000 Ang^3
#
#
#
# Elastic Constant Matrix: (Units=GPa)
#
#
# Indices 1 2 3 4 5 6 
#
# 1 116.7835 30.2533 60.1048 -8.2002 19.0956 -31.8014
# 2 30.2533 83.4453 14.1522 2.0974 20.8182 -18.4579
# 3 60.1048 14.1522 117.9722 11.5718 11.0528 -20.6300
# 4 -8.2002 2.0974 11.5718 25.2628 -0.3918 3.6839
# 5 19.0956 20.8182 11.0528 -0.3918 48.0296 3.2610
# 6 -31.8014 -18.4579 -20.6300 3.6839 3.2610 42.6958
#
#
#
# Elastic Compliance Matrix: (Units=1/GPa)
#
#
# Indices 1 2 3 4 5 6 
#
# 1 0.015819 -0.002095 -0.006862 0.007329 -0.004235 0.007252
# 2 -0.002095 0.015805 0.001358 -0.003707 -0.006820 0.006769
# 3 -0.006862 0.001358 0.013265 -0.008833 -0.001171 0.002737
# 4 0.007329 -0.003707 -0.008833 0.047006 0.001420 -0.004576
# 5 -0.004235 -0.006820 -0.001171 0.001420 0.026339 -0.008802
# 6 0.007252 0.006769 0.002737 -0.004576 -0.008802 0.034139
#
#
# Mechanical properties :
#
#
# Convention : Reuss Voigt Hill
#
# Bulk Modulus (GPa) = 33.68151 58.58017 46.13084
# Shear Modulus (GPa) = 28.17398 37.44368 32.80883
#
# Velocity S-wave (km/s) = 3.58011 4.12726 3.86338
# Velocity P-wave (km/s) = 5.69318 7.02583 6.39432
#
# Compressibility (1/GPa) = 0.02968988
#
# Stress axis : x y z
#
# Youngs Moduli (GPa) = 63.21395 63.27057 75.38905
#
# Poissons Ratio (x) = 0.13255 0.51733
# Poissons Ratio (y) = 0.13243 -0.10235
# Poissons Ratio (z) = 0.43379 -0.08590
#
# Static dielectric constant tensor:
#      x y z
#    x 1.881280 -0.015280 -0.043670 
#    y -0.015280 1.804960 0.023090 
#    z -0.043670 0.023090 1.837870 
# 
# From -- ./inp_files/458363.got.cif
#   From: 2010.05.17/outbox.cif.g08.bks.cpg/sg2_230_cif.got.tgz:458363.got - 2010.06.03 11:33:40.
