data_PCOD9104227
_publ_section_title
;
Structure prediction by ZEFSAII (Michael W. Deem and Ramdas Pophale) SiO2 
 PCOD9104227
Probable space group: P -1
;
_chemical_formula_sum "Si O2"
_cell_formula_units_Z 16
_cell_length_a 13.946342
_cell_length_b 22.464627
_cell_length_c 14.652843
_cell_angle_alpha 20.524543
_cell_angle_beta 149.695525
_cell_angle_gamma 152.316442
_cell_volume 731.265556
_symmetry_space_group_name_H-M "P -1"
_symmetry_group_IT_number 2
_symmetry_cell_setting 'triclinic'
loop_
_space_group_symop_operation_xyz
x,y,z
-x,-y,-z
loop_
_atom_site_type_symbol
_atom_site_label
_atom_site_fract_x
_atom_site_fract_y
_atom_site_fract_z
Si Si1 0.406369 0.966412 0.716191
Si Si2 0.737531 0.312626 0.755722
Si Si3 0.067444 0.649479 0.641421
Si Si4 0.210773 0.316707 0.770900
Si Si5 0.683370 0.978315 0.085484
Si Si6 0.484974 0.167552 0.305302
Si Si7 0.040237 0.223980 0.435962
Si Si8 0.438592 0.585369 0.237707
O O1 0.155057 0.886795 0.631718
O O2 0.478860 0.115329 0.480367
O O3 0.547643 0.039104 0.816798
O O4 0.433892 0.780747 0.976409
O O5 0.886006 0.437841 0.780194
O O6 0.763076 0.478909 0.467167
O O7 0.496930 0.196343 0.757708
O O8 0.800673 0.156034 0.992168
O O9 0.011191 0.765170 0.348116
O O10 0.045184 0.734751 0.597236
O O11 0.295325 0.661320 0.789963
O O12 0.384058 0.370464 0.755484
O O13 0.281044 0.199504 0.065824
O O14 0.833575 0.902889 0.267910
O O15 0.500000 0.000000 0.500000
O O16 0.208966 0.427489 0.247335
O O17 0.500000 0.500000 0.500000
#
# Coordination Sequence:
#
# PCOD9104227 Si02
#       8
#     2   2   2   2   2   2   2   2
#     4  12  25  38  60  97 126 159 210 256 306 366
#     4   9  22  45  66  90 123 171 198 252 317 375
#     4  10  21  40  64  91 122 164 207 252 310 363
#     4  10  20  39  59  86 124 162 201 245 309 358
#     4  11  22  44  65  92 130 155 210 255 309 371
#     4  12  24  39  59  95 126 166 207 258 301 363
#     4  12  21  36  67  97 121 160 199 263 318 364
#     4  12  18  36  60  91 127 153 190 261 321 353
#
# _framework density 21.879875999999999
#
# number of rings (size 3 to 8) (size 9 to 14) (size 15 to 20)
#    0.750    0.250    6.250    1.125    0.000    2.500 
#    2.250    2.500    0.000    0.000    0.000    0.000 
#    0.000    0.000    0.000    0.000    0.000    0.000 
#
# Total GULP energy -89337.039472 kJ/mol
# GULP energy per Si atom -5583.564967 kJ/mol
# Density = 2.183008 g / cm^3
# Si number density = 21.879876 Si / 1000 Ang^3
#
#
#
# Elastic Constant Matrix: (Units=GPa)
#
#
# Indices 1 2 3 4 5 6 
#
# 1 38.3371 13.0532 8.2212 -0.4082 -1.6498 -2.2700
# 2 13.0532 58.8103 11.7060 4.3414 12.5316 -0.4285
# 3 8.2212 11.7060 86.5938 10.8574 -9.3730 -13.6457
# 4 -0.4082 4.3414 10.8574 31.9132 -2.3971 2.7004
# 5 -1.6498 12.5316 -9.3730 -2.3971 27.4407 -0.4386
# 6 -2.2700 -0.4285 -13.6457 2.7004 -0.4386 23.2952
#
#
#
# Elastic Compliance Matrix: (Units=1/GPa)
#
#
# Indices 1 2 3 4 5 6 
#
# 1 0.029217 -0.007438 -0.001188 0.002003 0.004953 0.001875
# 2 -0.007438 0.022121 -0.003642 -0.002569 -0.012056 -0.002380
# 3 -0.001188 -0.003642 0.014917 -0.004896 0.006407 0.009244
# 4 0.002003 -0.002569 -0.004896 0.034124 0.002497 -0.006629
# 5 0.004953 -0.012056 0.006407 0.002497 0.044725 0.004567
# 6 0.001875 -0.002380 0.009244 -0.006629 0.004567 0.049335
#
#
# Mechanical properties :
#
#
# Convention : Reuss Voigt Hill
#
# Bulk Modulus (GPa) = 23.96962 27.74466 25.85714
# Shear Modulus (GPa) = 21.47006 26.58053 24.02530
#
# Velocity S-wave (km/s) = 3.13592 3.48924 3.31729
# Velocity P-wave (km/s) = 4.90825 5.37968 5.14936
#
# Compressibility (1/GPa) = 0.04171948
#
# Stress axis : x y z
#
# Youngs Moduli (GPa) = 34.22644 45.20615 67.03632
#
# Poissons Ratio (x) = 0.33624 0.07963
# Poissons Ratio (y) = 0.25457 0.24415
# Poissons Ratio (z) = 0.04066 0.16465
#
# Static dielectric constant tensor:
#      x y z
#    x 1.784640 0.015740 -0.023160 
#    y 0.015740 1.857720 0.033220 
#    z -0.023160 0.033220 1.892730 
# 
# From -- ./inp_files/535380.got.cif
#   From: 2010.05.17/outbox.cif.g08.bks.cpg/sg2_268_cif.got.tgz:535380.got - 2010.06.03 11:33:40.
