data_PCOD9104233
_publ_section_title
;
Structure prediction by ZEFSAII (Michael W. Deem and Ramdas Pophale) SiO2 
 PCOD9104233
Probable space group: P -1
;
_chemical_formula_sum "Si O2"
_cell_formula_units_Z 12
_cell_length_a 7.314178
_cell_length_b 14.787404
_cell_length_c 6.617582
_cell_angle_alpha 44.617113
_cell_angle_beta 113.222833
_cell_angle_gamma 91.296905
_cell_volume 423.458067
_symmetry_space_group_name_H-M "P -1"
_symmetry_group_IT_number 2
_symmetry_cell_setting 'triclinic'
loop_
_space_group_symop_operation_xyz
x,y,z
-x,-y,-z
loop_
_atom_site_type_symbol
_atom_site_label
_atom_site_fract_x
_atom_site_fract_y
_atom_site_fract_z
Si Si1 0.533050 0.653372 0.445727
Si Si2 0.689980 0.206762 0.516701
Si Si3 0.280799 0.174373 0.247845
Si Si4 0.766909 0.073694 0.183060
Si Si5 0.903057 0.746838 0.405841
Si Si6 0.039969 0.537239 0.230174
O O1 0.429876 0.652554 0.619800
O O2 0.671869 0.752719 0.374889
O O3 0.704140 0.520387 0.617458
O O4 0.330719 0.761830 0.063286
O O5 0.501818 0.199136 0.307515
O O6 0.912176 0.202032 0.529897
O O7 0.755408 0.086680 0.912944
O O8 0.341837 0.024910 0.616103
O O9 0.167515 0.192953 0.949732
O O10 0.102001 0.298914 0.103803
O O11 0.000000 0.000000 0.500000
O O12 0.030303 0.575140 0.737775
O O13 0.000000 0.500000 0.500000
#
# Coordination Sequence:
#
# PCOD9104233 Si02
#       6
#     2   2   2   2   2   2
#     4   8  20  38  59  84 120 152 193 238 288 345
#     4  10  21  37  61  88 113 156 196 237 286 346
#     4  11  19  36  65  81 121 154 188 248 285 334
#     4  10  20  39  59  87 117 156 192 239 292 343
#     4   9  19  41  57  84 120 152 191 237 290 343
#     4   8  18  37  60  84 116 154 190 240 288 341
#
# _framework density 28.338108999999999
#
# number of rings (size 3 to 8) (size 9 to 14) (size 15 to 20)
#    2.000    0.667    1.667    0.500    0.000    2.000 
#    0.000   11.667    0.000    0.000    0.000    0.000 
#    0.000    0.000    0.000    0.000    0.000    0.000 
#
# Total GULP energy -66973.323112 kJ/mol
# GULP energy per Si atom -5581.110259 kJ/mol
# Density = 2.827361 g / cm^3
# Si number density = 28.338109 Si / 1000 Ang^3
#
#
#
# Elastic Constant Matrix: (Units=GPa)
#
#
# Indices 1 2 3 4 5 6 
#
# 1 91.3900 33.0580 25.7383 2.8101 12.9988 23.8630
# 2 33.0580 83.1598 59.9754 4.1153 23.5822 11.1160
# 3 25.7383 59.9754 167.3892 -0.3383 11.3519 -0.4933
# 4 2.8101 4.1153 -0.3383 60.6310 2.8470 17.1231
# 5 12.9988 23.5822 11.3519 2.8470 60.2751 1.6643
# 6 23.8630 11.1160 -0.4933 17.1231 1.6643 46.1979
#
#
#
# Elastic Compliance Matrix: (Units=1/GPa)
#
#
# Indices 1 2 3 4 5 6 
#
# 1 0.014612 -0.004035 -0.000729 0.001676 -0.001317 -0.007158
# 2 -0.004035 0.020066 -0.006188 -0.000229 -0.005735 -0.002519
# 3 -0.000729 -0.006188 0.008243 -0.000098 0.000977 0.001955
# 4 0.001676 -0.000229 -0.000098 0.018645 -0.000922 -0.007689
# 5 -0.001317 -0.005735 0.000977 -0.000922 0.018930 0.001730
# 6 -0.007158 -0.002519 0.001955 -0.007689 0.001730 0.028758
#
#
# Mechanical properties :
#
#
# Convention : Reuss Voigt Hill
#
# Bulk Modulus (GPa) = 47.58433 64.38696 55.98564
# Shear Modulus (GPa) = 36.18836 48.29861 42.24348
#
# Velocity S-wave (km/s) = 3.57742 4.13288 3.86514
# Velocity P-wave (km/s) = 5.82168 6.74867 6.30224
#
# Compressibility (1/GPa) = 0.02101532
#
# Stress axis : x y z
#
# Youngs Moduli (GPa) = 68.43666 49.83445 121.31765
#
# Poissons Ratio (x) = 0.20110 0.08848
# Poissons Ratio (y) = 0.27617 0.75075
# Poissons Ratio (z) = 0.04991 0.30839
#
# Static dielectric constant tensor:
#      x y z
#    x 2.302560 -0.080260 -0.029550 
#    y -0.080260 2.325090 -0.014910 
#    z -0.029550 -0.014910 2.233870 
# 
# From -- ./inp_files/406578.got.cif
#   From: 2010.05.17/outbox.cif.g08.bks.cpg/sg2_204_cif.got.tgz:406578.got - 2010.06.03 11:33:40.
