data_PCOD9104116
_publ_section_title
;
Structure prediction by ZEFSAII (Michael W. Deem and Ramdas Pophale) SiO2 
 PCOD9104116
Probable space group: P -1
;
_chemical_formula_sum "Si O2"
_cell_formula_units_Z 14
_cell_length_a 8.120835
_cell_length_b 17.321373
_cell_length_c 7.182690
_cell_angle_alpha 76.026638
_cell_angle_beta 118.105657
_cell_angle_gamma 131.140942
_cell_volume 667.586784
_symmetry_space_group_name_H-M "P -1"
_symmetry_group_IT_number 2
_symmetry_cell_setting 'triclinic'
loop_
_space_group_symop_operation_xyz
x,y,z
-x,-y,-z
loop_
_atom_site_type_symbol
_atom_site_label
_atom_site_fract_x
_atom_site_fract_y
_atom_site_fract_z
Si Si1 0.968353 0.375613 0.198915
Si Si2 0.191250 0.982504 0.137100
Si Si3 0.722053 0.150997 0.252406
Si Si4 0.820907 0.596131 0.297719
Si Si5 0.349473 0.559791 0.018003
Si Si6 0.227887 0.814245 0.290289
Si Si7 0.762649 0.986305 0.418430
O O1 0.085319 0.405542 0.450398
O O2 0.874556 0.261456 0.174708
O O3 0.739838 0.373732 0.071715
O O4 0.170765 0.464564 0.117816
O O5 0.435448 0.074543 0.109750
O O6 0.247129 0.997837 0.376941
O O7 0.132209 0.873933 0.131589
O O8 0.000000 0.000000 0.000000
O O9 0.754361 0.174076 0.479890
O O10 0.794860 0.080788 0.285951
O O11 0.696105 0.490891 0.179930
O O12 0.045284 0.691941 0.243780
O O13 0.621719 0.612764 0.193360
O O14 0.496034 0.876963 0.310542
O O15 0.000000 0.000000 0.500000
#
# Coordination Sequence:
#
# PCOD9104116 Si02
#       7
#     2   2   2   2   2   2   2
#     4  10  20  39  58  81 114 149 183 235 285 323
#     4   9  17  31  52  78 102 137 173 213 264 333
#     4   8  17  34  54  72 107 144 175 212 273 337
#     4  10  20  39  58  81 114 149 183 235 285 323
#     4  10  22  36  58  86 110 144 198 232 272 344
#     4   8  17  34  54  72 107 144 175 212 273 337
#     4   9  17  35  52  78 108 137 177 219 270 330
#
# _framework density 20.971056999999998
#
# number of rings (size 3 to 8) (size 9 to 14) (size 15 to 20)
#    0.000    2.857    0.000    2.571    2.000    0.000 
#    5.143    8.571    0.000    0.000    0.000    0.000 
#    0.000    0.000    0.000    0.000    0.000    0.000 
#
# Total GULP energy -78104.349056 kJ/mol
# GULP energy per Si atom -5578.882075 kJ/mol
# Density = 2.092333 g / cm^3
# Si number density = 20.971057 Si / 1000 Ang^3
#
#
#
# Elastic Constant Matrix: (Units=GPa)
#
#
# Indices 1 2 3 4 5 6 
#
# 1 77.6563 16.2504 25.0880 -5.9389 30.0552 12.2065
# 2 16.2504 76.8458 22.4211 -9.6150 17.8785 2.4727
# 3 25.0880 22.4211 82.6710 -19.3401 9.2897 4.8388
# 4 -5.9389 -9.6150 -19.3401 9.5456 -0.2744 -2.4085
# 5 30.0552 17.8785 9.2897 -0.2744 51.7747 -1.7002
# 6 12.2065 2.4727 4.8388 -2.4085 -1.7002 15.1962
#
#
#
# Elastic Compliance Matrix: (Units=1/GPa)
#
#
# Indices 1 2 3 4 5 6 
#
# 1 0.021841 0.000146 -0.004058 0.000720 -0.012574 -0.017568
# 2 0.000146 0.016355 -0.000011 0.016165 -0.005673 -0.000848
# 3 -0.004058 -0.000011 0.024559 0.047889 -0.001700 0.002841
# 4 0.000720 0.016165 0.047889 0.222002 -0.012914 0.015283
# 5 -0.012574 -0.005673 -0.001700 -0.012914 0.029229 0.012788
# 6 -0.017568 -0.000848 0.002841 0.015283 0.012788 0.083004
#
#
# Mechanical properties :
#
#
# Convention : Reuss Voigt Hill
#
# Bulk Modulus (GPa) = 18.21231 40.52136 29.36683
# Shear Modulus (GPa) = 11.81648 26.86422 19.34035
#
# Velocity S-wave (km/s) = 2.37632 3.58301 3.04014
# Velocity P-wave (km/s) = 4.02896 6.04001 5.13392
#
# Compressibility (1/GPa) = 0.05490791
#
# Stress axis : x y z
#
# Youngs Moduli (GPa) = 45.78633 61.14302 40.71893
#
# Poissons Ratio (x) = -0.00893 0.16524
# Poissons Ratio (y) = -0.00669 0.00046
# Poissons Ratio (z) = 0.18580 0.00069
#
# Static dielectric constant tensor:
#      x y z
#    x 1.790510 -0.011970 -0.000960 
#    y -0.011970 1.742450 0.016550 
#    z -0.000960 0.016550 1.835040 
# 
# From -- ./inp_files/195951.got.cif
#   From: 2010.05.17/outbox.cif.g08.bks.cpg/sg2_98_cif.got.tgz:195951.got - 2010.06.03 11:33:40.
