data_PCOD9104018
_publ_section_title
;
Structure prediction by ZEFSAII (Michael W. Deem and Ramdas Pophale) SiO2 
 PCOD9104018
Probable space group: P -1
;
_chemical_formula_sum "Si O2"
_cell_formula_units_Z 16
_cell_length_a 9.505414
_cell_length_b 12.027427
_cell_length_c 12.787721
_cell_angle_alpha 47.479985
_cell_angle_beta 130.596807
_cell_angle_gamma 116.621546
_cell_volume 818.085517
_symmetry_space_group_name_H-M "P -1"
_symmetry_group_IT_number 2
_symmetry_cell_setting 'triclinic'
loop_
_space_group_symop_operation_xyz
x,y,z
-x,-y,-z
loop_
_atom_site_type_symbol
_atom_site_label
_atom_site_fract_x
_atom_site_fract_y
_atom_site_fract_z
Si Si1 0.507751 0.407837 0.670843
Si Si2 0.912766 0.354218 0.998366
Si Si3 0.414366 0.065713 0.812672
Si Si4 0.980258 0.241197 0.883116
Si Si5 0.301623 0.919905 0.427396
Si Si6 0.016111 0.958470 0.656119
Si Si7 0.273034 0.032122 0.107103
Si Si8 0.812328 0.409041 0.502195
O O1 0.500000 0.500000 0.500000
O O2 0.704230 0.391812 0.835507
O O3 0.459001 0.240252 0.717188
O O4 0.356696 0.478337 0.631003
O O5 0.016013 0.314585 0.965184
O O6 0.939856 0.213929 0.179890
O O7 0.000000 0.500000 0.000000
O O8 0.197330 0.047006 0.724949
O O9 0.518418 0.978336 0.825434
O O10 0.500000 0.000000 0.000000
O O11 0.866661 0.342533 0.684407
O O12 0.851624 0.092030 0.935981
O O13 0.167025 0.188528 0.949776
O O14 0.262071 0.737283 0.509288
O O15 0.500000 0.000000 0.500000
O O16 0.258729 0.983501 0.251186
O O17 0.160200 0.983554 0.403392
O O18 0.000000 0.000000 0.500000
O O19 0.000000 0.500000 0.500000
#
# Coordination Sequence:
#
# PCOD9104018 Si02
#       8
#     2   2   2   2   2   2   2   2
#     4  12  24  43  69  99 137 180 227 273 342 419
#     4  12  26  44  67 101 140 184 227 280 346 417
#     4  12  24  42  70 104 137 172 229 294 341 397
#     4  10  20  41  65  97 127 183 227 273 331 415
#     4  11  24  44  68  95 132 182 235 273 341 422
#     4  12  27  45  69 101 138 177 230 294 348 399
#     4  10  20  38  72  90 129 173 234 275 327 407
#     4  11  25  39  67 104 137 172 222 292 344 402
#
# _framework density 19.557859000000001
#
# number of rings (size 3 to 8) (size 9 to 14) (size 15 to 20)
#    0.000    0.750    5.000    2.250    8.750    1.000 
#    0.000    0.000    0.000    3.000    0.000    0.000 
#    0.000    0.000    0.000    0.000    0.000    0.000 
#
# Total GULP energy -89279.061624 kJ/mol
# GULP energy per Si atom -5579.941351 kJ/mol
# Density = 1.951334 g / cm^3
# Si number density = 19.557859 Si / 1000 Ang^3
#
#
#
# Elastic Constant Matrix: (Units=GPa)
#
#
# Indices 1 2 3 4 5 6 
#
# 1 147.8147 49.1020 52.7206 -2.6383 23.4337 -5.7259
# 2 49.1020 123.3777 49.6522 4.8253 7.1284 5.4969
# 3 52.7206 49.6522 113.4666 -9.4073 0.1245 -1.3060
# 4 -2.6383 4.8253 -9.4073 31.7953 -3.3332 4.6603
# 5 23.4337 7.1284 0.1245 -3.3332 44.8092 2.5301
# 6 -5.7259 5.4969 -1.3060 4.6603 2.5301 34.5624
#
#
#
# Elastic Compliance Matrix: (Units=1/GPa)
#
#
# Indices 1 2 3 4 5 6 
#
# 1 0.009593 -0.002188 -0.003531 -0.000756 -0.004843 0.002260
# 2 -0.002188 0.010798 -0.003961 -0.002798 -0.000669 -0.001803
# 3 -0.003531 -0.003961 0.012541 0.004350 0.002781 -0.000271
# 4 -0.000756 -0.002798 0.004350 0.034121 0.003614 -0.004381
# 5 -0.004843 -0.000669 0.002781 0.003614 0.025383 -0.002936
# 6 0.002260 -0.001803 -0.000271 -0.004381 -0.002936 0.030390
#
#
# Mechanical properties :
#
#
# Convention : Reuss Voigt Hill
#
# Bulk Modulus (GPa) = 73.67419 76.40095 75.03757
# Shear Modulus (GPa) = 34.08049 37.77900 35.92975
#
# Velocity S-wave (km/s) = 4.17891 4.39983 4.29079
# Velocity P-wave (km/s) = 7.81256 8.05979 7.93713
#
# Compressibility (1/GPa) = 0.01357327
#
# Stress axis : x y z
#
# Youngs Moduli (GPa) = 104.23788 92.60655 79.73544
#
# Poissons Ratio (x) = 0.20265 0.28156
# Poissons Ratio (y) = 0.22810 0.31580
# Poissons Ratio (z) = 0.36809 0.36677
#
# Static dielectric constant tensor:
#      x y z
#    x 1.714260 -0.013070 0.043240 
#    y -0.013070 1.661360 0.027010 
#    z 0.043240 0.027010 1.653000 
# 
# From -- ./inp_files/392224.got.cif
#   From: 2010.05.17/outbox.cif.g08.bks.cpg/sg2_197_cif.got.tgz:392224.got - 2010.06.03 11:33:40.
