data_PCOD9104854
_publ_section_title
;
Structure prediction by ZEFSAII (Michael W. Deem and Ramdas Pophale) SiO2 
 PCOD9104854
Probable space group: P -1
;
_chemical_formula_sum "Si O2"
_cell_formula_units_Z 14
_cell_length_a 8.833374
_cell_length_b 11.776002
_cell_length_c 7.550467
_cell_angle_alpha 74.680035
_cell_angle_beta 114.494352
_cell_angle_gamma 70.643220
_cell_volume 595.995428
_symmetry_space_group_name_H-M "P -1"
_symmetry_group_IT_number 2
_symmetry_cell_setting 'triclinic'
loop_
_space_group_symop_operation_xyz
x,y,z
-x,-y,-z
loop_
_atom_site_type_symbol
_atom_site_label
_atom_site_fract_x
_atom_site_fract_y
_atom_site_fract_z
Si Si1 0.495929 0.773034 0.560497
Si Si2 0.141066 0.034139 0.442793
Si Si3 0.134602 0.251163 0.618324
Si Si4 0.280750 0.616966 0.485055
Si Si5 0.438965 0.300200 0.782021
Si Si6 0.183560 0.736854 0.994021
Si Si7 0.071347 0.369841 0.202896
O O1 0.432888 0.659575 0.612105
O O2 0.491859 0.779590 0.340463
O O3 0.714784 0.731315 0.727569
O O4 0.335541 0.908402 0.518693
O O5 0.188064 0.127495 0.558470
O O6 0.000000 0.000000 0.500000
O O7 0.009830 0.116024 0.173417
O O8 0.301735 0.248501 0.819608
O O9 0.100813 0.376805 0.421973
O O10 0.935377 0.286851 0.591798
O O11 0.349553 0.461902 0.634362
O O12 0.251538 0.655999 0.245670
O O13 0.636246 0.256864 0.998516
O O14 0.105047 0.657951 0.873658
O O15 0.000000 0.500000 0.000000
#
# Coordination Sequence:
#
# PCOD9104854 Si02
#       7
#     2   2   2   2   2   2   2
#     4  10  21  39  67  81 125 165 197 249 300 351
#     4  11  23  45  60  86 122 164 214 246 291 357
#     4  10  22  39  63  88 128 159 194 258 302 352
#     4  11  20  40  63  94 124 156 196 259 309 357
#     4  10  21  38  63  94 122 156 201 245 317 361
#     4  10  22  38  63  86 121 160 205 247 296 365
#     4  10  20  39  62  92 120 159 206 242 304 368
#
# _framework density 23.490112
#
# number of rings (size 3 to 8) (size 9 to 14) (size 15 to 20)
#    0.000    1.714    1.429    4.714    0.000    7.429 
#    5.143    2.857    0.000    0.000    0.000    0.000 
#    0.000    0.000    0.000    0.000    0.000    0.000 
#
# Total GULP energy -78011.546274 kJ/mol
# GULP energy per Si atom -5572.253305 kJ/mol
# Density = 2.343665 g / cm^3
# Si number density = 23.490112 Si / 1000 Ang^3
#
#
#
# Elastic Constant Matrix: (Units=GPa)
#
#
# Indices 1 2 3 4 5 6 
#
# 1 124.7522 35.8914 9.3630 11.9474 49.1717 9.6695
# 2 35.8914 82.0603 19.6514 0.3011 25.5209 -3.8911
# 3 9.3630 19.6514 46.7703 -2.1650 31.5108 5.8357
# 4 11.9474 0.3011 -2.1650 21.4987 3.5854 10.7624
# 5 49.1717 25.5209 31.5108 3.5854 46.1114 4.8922
# 6 9.6695 -3.8911 5.8357 10.7624 4.8922 41.8484
#
#
#
# Elastic Compliance Matrix: (Units=1/GPa)
#
#
# Indices 1 2 3 4 5 6 
#
# 1 0.021943 -0.003915 0.021375 -0.002246 -0.035271 -0.003714
# 2 -0.003915 0.015715 -0.005468 -0.000045 -0.001130 0.003272
# 3 0.021375 -0.005468 0.063357 0.009789 -0.062820 -0.009456
# 4 -0.002246 -0.000045 0.009789 0.057331 -0.007162 -0.014757
# 5 -0.035271 -0.001130 -0.062820 -0.007162 0.102705 0.006640
# 6 -0.003714 0.003272 -0.009456 -0.014757 0.006640 0.029396
#
#
# Mechanical properties :
#
#
# Convention : Reuss Voigt Hill
#
# Bulk Modulus (GPa) = 8.00015 42.59936 25.29975
# Shear Modulus (GPa) = 16.22702 34.47018 25.34860
#
# Velocity S-wave (km/s) = 2.63116 3.83487 3.28856
# Velocity P-wave (km/s) = 3.55582 6.14676 5.02128
#
# Compressibility (1/GPa) = 0.12499766
#
# Stress axis : x y z
#
# Youngs Moduli (GPa) = 45.57272 63.63547 15.78359
#
# Poissons Ratio (x) = 0.24911 -0.33737
# Poissons Ratio (y) = 0.17840 0.08631
# Poissons Ratio (z) = -0.97410 0.34797
#
# Static dielectric constant tensor:
#      x y z
#    x 2.034440 0.099940 -0.002000 
#    y 0.099940 1.990590 -0.051350 
#    z -0.002000 -0.051350 2.015410 
# 
# From -- ./inp_files/178167.got.cif
#   From: 2010.05.17/outbox.cif.g08.bks.cpg/sg2_90_cif.got.tgz:178167.got - 2010.06.03 11:33:40.
