data_PCOD9104776
_publ_section_title
;
Structure prediction by ZEFSAII (Michael W. Deem and Ramdas Pophale) SiO2 
 PCOD9104776
Probable space group: P -1
;
_chemical_formula_sum "Si O2"
_cell_formula_units_Z 14
_cell_length_a 9.351413
_cell_length_b 12.079395
_cell_length_c 8.761834
_cell_angle_alpha 125.674548
_cell_angle_beta 71.781013
_cell_angle_gamma 127.654142
_cell_volume 635.072850
_symmetry_space_group_name_H-M "P -1"
_symmetry_group_IT_number 2
_symmetry_cell_setting 'triclinic'
loop_
_space_group_symop_operation_xyz
x,y,z
-x,-y,-z
loop_
_atom_site_type_symbol
_atom_site_label
_atom_site_fract_x
_atom_site_fract_y
_atom_site_fract_z
Si Si1 0.317097 0.842204 0.641132
Si Si2 0.421002 0.580964 0.886946
Si Si3 0.329957 0.804765 0.270802
Si Si4 0.443354 0.202905 0.258395
Si Si5 0.239158 0.268316 0.884746
Si Si6 0.899348 0.083256 0.038400
Si Si7 0.806093 0.967469 0.517028
O O1 0.302629 0.751114 0.414780
O O2 0.390516 0.799689 0.730598
O O3 0.476148 0.028049 0.694169
O O4 0.138024 0.829367 0.744156
O O5 0.474668 0.634299 0.737481
O O6 0.293383 0.394264 0.829918
O O7 0.328320 0.672616 0.057575
O O8 0.609581 0.647591 0.967080
O O9 0.202349 0.873234 0.342198
O O10 0.325210 0.163181 0.417475
O O11 0.296828 0.052818 0.077131
O O12 0.249915 0.120137 0.698277
O O13 0.041394 0.205140 0.962912
O O14 0.000000 0.000000 0.000000
O O15 0.000000 0.000000 0.500000
#
# Coordination Sequence:
#
# PCOD9104776 Si02
#       7
#     2   2   2   2   2   2   2
#     4  10  21  35  62  89 122 154 216 251 292 361
#     4  11  23  41  62  91 127 166 199 247 321 369
#     4  10  20  39  62  89 120 168 200 245 308 370
#     4  11  22  36  64  90 121 161 210 251 301 365
#     4  11  24  41  61  92 130 161 198 257 313 364
#     4  12  20  36  63  93 118 158 212 255 297 360
#     4  11  23  38  63  96 122 156 214 261 295 356
#
# _framework density 22.044713999999999
#
# number of rings (size 3 to 8) (size 9 to 14) (size 15 to 20)
#    0.000    1.143    4.286    3.857    2.000    0.571 
#    0.000    3.571    0.000    0.000    0.000    0.000 
#    0.000    0.000    0.000    0.000    0.000    0.000 
#
# Total GULP energy -78152.798857 kJ/mol
# GULP energy per Si atom -5582.342776 kJ/mol
# Density = 2.199454 g / cm^3
# Si number density = 22.044714 Si / 1000 Ang^3
#
#
#
# Elastic Constant Matrix: (Units=GPa)
#
#
# Indices 1 2 3 4 5 6 
#
# 1 102.7610 37.6181 13.4119 -12.0895 -16.2346 -14.3303
# 2 37.6181 91.7056 2.2538 -23.7060 1.2929 -17.2687
# 3 13.4119 2.2538 58.2081 -16.2036 -14.8506 -1.2876
# 4 -12.0895 -23.7060 -16.2036 32.2407 -4.6821 -0.6369
# 5 -16.2346 1.2929 -14.8506 -4.6821 35.8082 -8.9449
# 6 -14.3303 -17.2687 -1.2876 -0.6369 -8.9449 26.9342
#
#
#
# Elastic Compliance Matrix: (Units=1/GPa)
#
#
# Indices 1 2 3 4 5 6 
#
# 1 0.014111 -0.002836 0.001099 0.005385 0.009952 0.009174
# 2 -0.002836 0.018822 0.006687 0.017335 0.006427 0.013422
# 3 0.001099 0.006687 0.027601 0.022025 0.017732 0.012601
# 4 0.005385 0.017335 0.022025 0.060990 0.025124 0.024818
# 5 0.009952 0.006427 0.017732 0.025124 0.049679 0.027356
# 6 0.009174 0.013422 0.012601 0.024818 0.027356 0.060889
#
#
# Mechanical properties :
#
#
# Convention : Reuss Voigt Hill
#
# Bulk Modulus (GPa) = 14.19752 39.91580 27.05666
# Shear Modulus (GPa) = 20.35251 32.28933 26.32092
#
# Velocity S-wave (km/s) = 3.04178 3.83132 3.45915
# Velocity P-wave (km/s) = 4.33484 6.14150 5.31549
#
# Compressibility (1/GPa) = 0.07043482
#
# Stress axis : x y z
#
# Youngs Moduli (GPa) = 70.86539 53.13055 36.23010
#
# Poissons Ratio (x) = 0.15069 -0.03983
# Poissons Ratio (y) = 0.20099 -0.24227
# Poissons Ratio (z) = -0.07791 -0.35529
#
# Static dielectric constant tensor:
#      x y z
#    x 1.874620 -0.022970 0.042820 
#    y -0.022970 1.807650 0.001390 
#    z 0.042820 0.001390 1.878420 
# 
# From -- ./inp_files/182296.got.cif
#   From: 2010.05.17/outbox.cif.g08.bks.cpg/sg2_92_cif.got.tgz:182296.got - 2010.06.03 11:33:40.
