data_PCOD9104506
_publ_section_title
;
Structure prediction by ZEFSAII (Michael W. Deem and Ramdas Pophale) SiO2 
 PCOD9104506
Probable space group: P -1
;
_chemical_formula_sum "Si O2"
_cell_formula_units_Z 15
_cell_length_a 14.689618
_cell_length_b 8.450107
_cell_length_c 8.159881
_cell_angle_alpha 127.613490
_cell_angle_beta 49.657151
_cell_angle_gamma 109.691565
_cell_volume 608.692962
_symmetry_space_group_name_H-M "P -1"
_symmetry_group_IT_number 2
_symmetry_cell_setting 'triclinic'
loop_
_space_group_symop_operation_xyz
x,y,z
-x,-y,-z
loop_
_atom_site_type_symbol
_atom_site_label
_atom_site_fract_x
_atom_site_fract_y
_atom_site_fract_z
Si Si1 0.138236 0.507219 0.515782
Si Si2 0.159424 0.086012 0.719807
Si Si3 0.952962 0.840714 0.769983
Si Si4 0.431039 0.159513 0.059617
Si Si5 0.658895 0.285919 0.706353
Si Si6 0.428301 0.861767 0.612779
Si Si7 0.500000 0.500000 0.500000
Si Si8 0.747389 0.549456 0.328157
O O1 0.099297 0.285270 0.393124
O O2 0.255862 0.534767 0.282173
O O3 0.159988 0.547653 0.707273
O O4 0.039234 0.673287 0.664691
O O5 0.187367 0.305389 0.773526
O O6 0.266316 0.916403 0.442958
O O7 0.142433 0.078526 0.931240
O O8 0.038897 0.011480 0.735224
O O9 0.530635 0.293568 0.949419
O O10 0.371289 0.024691 0.911272
O O11 0.342871 0.307280 0.360165
O O12 0.500000 0.000000 0.000000
O O13 0.642532 0.252951 0.510532
O O14 0.519193 0.697710 0.494520
O O15 0.500000 0.000000 0.500000
O O16 0.649017 0.424194 0.277268
#
# Coordination Sequence:
#
# PCOD9104506 Si02
#       8
#     2   2   2   2   2   2   1   2
#     4  10  22  41  62  92 119 156 209 266 310 370
#     4  10  21  41  67  86 118 163 206 260 324 369
#     4   9  22  44  65  86 116 154 217 269 311 371
#     4  11  21  38  57  91 130 165 204 250 298 389
#     4  10  20  39  61  86 126 167 199 246 316 375
#     4  10  21  39  58  83 129 173 206 247 298 368
#     4  12  22  40  60  96 134 164 208 256 298 392
#     4  12  24  38  62  93 128 165 205 250 320 373
#
# _framework density 24.642966000000001
#
# number of rings (size 3 to 8) (size 9 to 14) (size 15 to 20)
#    0.000    1.600    4.000    0.800    1.867    2.667 
#    0.000    0.000    0.000    0.000    0.000    0.000 
#    0.000    0.000    0.000    0.000    0.000    0.000 
#
# Total GULP energy -83592.232413 kJ/mol
# GULP energy per Si atom -5572.815494 kJ/mol
# Density = 2.458688 g / cm^3
# Si number density = 24.642966 Si / 1000 Ang^3
#
#
#
# Elastic Constant Matrix: (Units=GPa)
#
#
# Indices 1 2 3 4 5 6 
#
# 1 68.9473 32.9456 -6.6397 -5.5575 -3.2054 2.3784
# 2 32.9456 99.4056 -4.8876 -6.2720 6.4285 6.8373
# 3 -6.6397 -4.8876 61.2346 -2.6730 -7.5385 7.4877
# 4 -5.5575 -6.2720 -2.6730 26.6337 1.5140 -0.5845
# 5 -3.2054 6.4285 -7.5385 1.5140 21.3413 7.3217
# 6 2.3784 6.8373 7.4877 -0.5845 7.3217 42.7471
#
#
#
# Elastic Compliance Matrix: (Units=1/GPa)
#
#
# Indices 1 2 3 4 5 6 
#
# 1 0.018111 -0.006012 0.002462 0.002253 0.005731 -0.001428
# 2 -0.006012 0.012525 -0.000019 0.001931 -0.004523 -0.000864
# 3 0.002462 -0.000019 0.018278 0.001766 0.008333 -0.004739
# 4 0.002253 0.001931 0.001766 0.038792 -0.002442 0.000205
# 5 0.005731 -0.004523 0.008333 -0.002442 0.055853 -0.010655
# 6 -0.001428 -0.000864 -0.004739 0.000205 -0.010655 0.026269
#
#
# Mechanical properties :
#
#
# Convention : Reuss Voigt Hill
#
# Bulk Modulus (GPa) = 23.93577 30.26934 27.10255
# Shear Modulus (GPa) = 26.19309 32.02236 29.10773
#
# Velocity S-wave (km/s) = 3.26376 3.60870 3.44056
# Velocity P-wave (km/s) = 4.89254 5.44734 5.17737
#
# Compressibility (1/GPa) = 0.04177848
#
# Stress axis : x y z
#
# Youngs Moduli (GPa) = 55.21553 79.84002 54.70915
#
# Poissons Ratio (x) = 0.47996 -0.13472
# Poissons Ratio (y) = 0.33193 0.00103
# Poissons Ratio (z) = -0.13597 0.00151
#
# Static dielectric constant tensor:
#      x y z
#    x 3.077930 0.527610 0.138400 
#    y 0.527610 2.247880 0.088750 
#    z 0.138400 0.088750 1.986870 
# 
# From -- ./inp_files/178756.got.cif
#   From: 2010.05.17/outbox.cif.g08.bks.cpg/sg2_90_cif.got.tgz:178756.got - 2010.06.03 11:33:40.
