data_PCOD9104897
_publ_section_title
;
Structure prediction by ZEFSAII (Michael W. Deem and Ramdas Pophale) SiO2 
 PCOD9104897
Probable space group: P -1
;
_chemical_formula_sum "Si O2"
_cell_formula_units_Z 16
_cell_length_a 8.035322
_cell_length_b 11.325115
_cell_length_c 16.921088
_cell_angle_alpha 33.493470
_cell_angle_beta 61.037151
_cell_angle_gamma 72.872009
_cell_volume 724.161317
_symmetry_space_group_name_H-M "P -1"
_symmetry_group_IT_number 2
_symmetry_cell_setting 'triclinic'
loop_
_space_group_symop_operation_xyz
x,y,z
-x,-y,-z
loop_
_atom_site_type_symbol
_atom_site_label
_atom_site_fract_x
_atom_site_fract_y
_atom_site_fract_z
Si Si1 0.499421 0.392071 0.416099
Si Si2 0.543055 0.088124 0.350268
Si Si3 0.853565 0.772206 0.681925
Si Si4 0.800135 0.357193 0.591905
Si Si5 0.214997 0.894808 0.108710
Si Si6 0.686470 0.533872 0.998585
Si Si7 0.928241 0.492341 0.326970
Si Si8 0.427433 0.288350 0.912862
O O1 0.368925 0.508292 0.437779
O O2 0.726892 0.464335 0.343168
O O3 0.478774 0.485131 0.280949
O O4 0.433744 0.130005 0.579081
O O5 0.350899 0.169601 0.324014
O O6 0.500000 0.000000 0.500000
O O7 0.705628 0.300575 0.163240
O O8 0.853167 0.676765 0.824242
O O9 0.910046 0.586866 0.717046
O O10 0.000000 0.000000 0.500000
O O11 0.755033 0.167256 0.771991
O O12 0.857279 0.319422 0.511301
O O13 0.000000 0.500000 0.500000
O O14 0.395141 0.834847 0.054403
O O15 0.021608 0.735136 0.206369
O O16 0.261192 0.154675 0.965548
O O17 0.500000 0.500000 0.000000
O O18 0.648830 0.669716 0.007773
#
# Coordination Sequence:
#
# PCOD9104897 Si02
#       8
#     2   2   2   2   2   2   2   2
#     4  11  22  39  64  96 133 168 223 282 339 400
#     4  11  22  41  67  96 131 176 217 282 335 389
#     4  11  24  42  65  98 134 180 217 274 336 402
#     4   9  21  38  63  91 122 170 222 272 330 394
#     4   9  20  37  63  90 126 175 218 279 332 398
#     4  10  22  39  66  98 131 177 227 269 337 407
#     4  11  22  41  61  93 133 172 223 270 337 404
#     4  10  20  39  62  94 129 171 229 276 331 400
#
# _framework density 22.094525999999998
#
# number of rings (size 3 to 8) (size 9 to 14) (size 15 to 20)
#    0.000    1.750    2.500    1.875    5.250    0.500 
#    0.000    8.750    0.000    0.000    0.000    0.000 
#    0.000    0.000    0.000    0.125    0.000    0.000 
#
# Total GULP energy -89141.846846 kJ/mol
# GULP energy per Si atom -5571.365428 kJ/mol
# Density = 2.204424 g / cm^3
# Si number density = 22.094526 Si / 1000 Ang^3
#
#
#
# Elastic Constant Matrix: (Units=GPa)
#
#
# Indices 1 2 3 4 5 6 
#
# 1 25.3388 -6.7313 6.8346 -6.3255 4.6157 3.7466
# 2 -6.7313 96.2957 44.2047 13.7166 8.7207 12.9545
# 3 6.8346 44.2047 159.9396 8.1579 7.9342 10.0512
# 4 -6.3255 13.7166 8.1579 44.0621 8.3908 -4.8409
# 5 4.6157 8.7207 7.9342 8.3908 28.4262 0.0481
# 6 3.7466 12.9545 10.0512 -4.8409 0.0481 23.8299
#
#
#
# Elastic Compliance Matrix: (Units=1/GPa)
#
#
# Indices 1 2 3 4 5 6 
#
# 1 0.046410 0.005611 -0.002865 0.006568 -0.010383 -0.007783
# 2 0.005611 0.014107 -0.003320 -0.003188 -0.003358 -0.007792
# 3 -0.002865 -0.003320 0.007415 -0.000798 -0.000349 -0.001034
# 4 0.006568 -0.003188 -0.000798 0.026990 -0.007844 0.006536
# 5 -0.010383 -0.003358 -0.000349 -0.007844 0.040304 0.001930
# 6 -0.007783 -0.007792 -0.001034 0.006536 0.001930 0.049183
#
#
# Mechanical properties :
#
#
# Convention : Reuss Voigt Hill
#
# Bulk Modulus (GPa) = 14.97327 41.13222 28.05275
# Shear Modulus (GPa) = 24.05926 35.08140 29.57033
#
# Velocity S-wave (km/s) = 3.30346 3.98903 3.66232
# Velocity P-wave (km/s) = 4.61975 6.31453 5.53243
#
# Compressibility (1/GPa) = 0.06678567
#
# Stress axis : x y z
#
# Youngs Moduli (GPa) = 21.54690 70.88489 134.85569
#
# Poissons Ratio (x) = -0.39774 0.38634
# Poissons Ratio (y) = -0.12090 0.44772
# Poissons Ratio (z) = 0.06173 0.23534
#
# Static dielectric constant tensor:
#      x y z
#    x 1.804600 0.022140 0.001240 
#    y 0.022140 1.804920 -0.020110 
#    z 0.001240 -0.020110 1.906720 
# 
# From -- ./inp_files/558823.got.cif
#   From: 2010.05.17/outbox.cif.g08.bks.cpg/sg2_280_cif.got.tgz:558823.got - 2010.06.03 11:33:40.
