data_PCOD9104394
_publ_section_title
;
Structure prediction by ZEFSAII (Michael W. Deem and Ramdas Pophale) SiO2 
 PCOD9104394
Probable space group: P -1
;
_chemical_formula_sum "Si O2"
_cell_formula_units_Z 16
_cell_length_a 11.658392
_cell_length_b 9.358092
_cell_length_c 11.308653
_cell_angle_alpha 93.853048
_cell_angle_beta 140.865704
_cell_angle_gamma 91.630495
_cell_volume 770.539870
_symmetry_space_group_name_H-M "P -1"
_symmetry_group_IT_number 2
_symmetry_cell_setting 'triclinic'
loop_
_space_group_symop_operation_xyz
x,y,z
-x,-y,-z
loop_
_atom_site_type_symbol
_atom_site_label
_atom_site_fract_x
_atom_site_fract_y
_atom_site_fract_z
Si Si1 0.710916 0.894451 0.471977
Si Si2 0.314519 0.679162 0.368091
Si Si3 0.969931 0.603007 0.257657
Si Si4 0.096893 0.868396 0.520223
Si Si5 0.300206 0.146453 0.265026
Si Si6 0.946017 0.278754 0.291404
Si Si7 0.713165 0.149220 0.875962
Si Si8 0.180508 0.427152 0.108686
O O1 0.721303 0.914596 0.622909
O O2 0.500984 0.836584 0.270960
O O3 0.857421 0.783822 0.553684
O O4 0.763230 0.046605 0.455727
O O5 0.163647 0.635646 0.344792
O O6 0.496345 0.766318 0.571515
O O7 0.246507 0.778419 0.215697
O O8 0.338652 0.534944 0.303847
O O9 0.963642 0.743328 0.340566
O O10 0.966390 0.451769 0.313781
O O11 0.817018 0.583886 0.031199
O O12 0.162558 0.787968 0.683459
O O13 0.000000 0.000000 0.500000
O O14 0.172454 0.269276 0.147567
O O15 0.269771 0.019070 0.139345
O O16 0.840363 0.219818 0.085280
O O17 0.000000 0.500000 0.000000
#
# Coordination Sequence:
#
# PCOD9104394 Si02
#       8
#     2   2   2   2   2   2   2   2
#     4  10  22  42  61  90 129 158 203 264 296 364
#     4  10  20  39  60  91 129 158 198 247 314 376
#     4  11  21  40  63  90 125 159 206 254 305 368
#     4  10  23  41  65  88 117 166 213 260 303 351
#     4  11  22  36  62  92 128 164 192 251 317 369
#     4  11  24  41  65  86 123 169 208 253 307 355
#     4  11  23  39  61  98 124 161 206 248 312 375
#     4  10  21  34  57  92 123 158 197 239 301 379
#
# _framework density 20.764662999999999
#
# number of rings (size 3 to 8) (size 9 to 14) (size 15 to 20)
#    0.000    1.500    1.250    5.250    5.250    2.000 
#    0.000    0.000    0.000    3.750    0.000    0.000 
#    0.000    0.000    0.000    0.000    0.000    0.000 
#
# Total GULP energy -89330.381359 kJ/mol
# GULP energy per Si atom -5583.148835 kJ/mol
# Density = 2.071740 g / cm^3
# Si number density = 20.764663 Si / 1000 Ang^3
#
#
#
# Elastic Constant Matrix: (Units=GPa)
#
#
# Indices 1 2 3 4 5 6 
#
# 1 51.3444 47.4962 25.8093 -8.5523 -3.7324 12.3568
# 2 47.4962 164.9880 54.4450 7.4583 -8.3685 5.4551
# 3 25.8093 54.4450 72.0029 -4.9127 -0.4432 -3.8691
# 4 -8.5523 7.4583 -4.9127 32.0520 -0.3912 -14.5320
# 5 -3.7324 -8.3685 -0.4432 -0.3912 27.3499 2.7361
# 6 12.3568 5.4551 -3.8691 -14.5320 2.7361 41.5150
#
#
#
# Elastic Compliance Matrix: (Units=1/GPa)
#
#
# Indices 1 2 3 4 5 6 
#
# 1 0.032074 -0.007111 -0.006081 0.006023 0.002915 -0.007263
# 2 -0.007111 0.010536 -0.005943 -0.006204 0.002283 -0.002144
# 3 -0.006081 -0.005943 0.021334 0.006130 -0.002907 0.006917
# 4 0.006023 -0.006204 0.006130 0.041647 -0.001811 0.014291
# 5 0.002915 0.002283 -0.002907 -0.001811 0.038045 -0.004580
# 6 -0.007263 -0.002144 0.006917 0.014291 -0.004580 0.032480
#
#
# Mechanical properties :
#
#
# Convention : Reuss Voigt Hill
#
# Bulk Modulus (GPa) = 38.94904 60.42625 49.68764
# Shear Modulus (GPa) = 22.42713 30.88907 26.65810
#
# Velocity S-wave (km/s) = 3.29000 3.86110 3.58693
# Velocity P-wave (km/s) = 5.76456 7.00294 6.41371
#
# Compressibility (1/GPa) = 0.02567457
#
# Stress axis : x y z
#
# Youngs Moduli (GPa) = 31.17754 94.91055 46.87422
#
# Poissons Ratio (x) = 0.67490 0.28506
# Poissons Ratio (y) = 0.22170 0.27855
# Poissons Ratio (z) = 0.18960 0.56401
#
# Static dielectric constant tensor:
#      x y z
#    x 1.787170 0.000430 0.005330 
#    y 0.000430 1.790690 0.004100 
#    z 0.005330 0.004100 1.771420 
# 
# From -- ./inp_files/224224.got.cif
#   From: 2010.05.17/outbox.cif.g08.bks.cpg/sg2_113_cif.got.tgz:224224.got - 2010.06.03 11:33:40.
