data_PCOD9104700
_publ_section_title
;
Structure prediction by ZEFSAII (Michael W. Deem and Ramdas Pophale) SiO2 
 PCOD9104700
Probable space group: P -1
;
_chemical_formula_sum "Si O2"
_cell_formula_units_Z 16
_cell_length_a 8.468048
_cell_length_b 16.994960
_cell_length_c 12.945778
_cell_angle_alpha 143.795485
_cell_angle_beta 81.701734
_cell_angle_gamma 122.462797
_cell_volume 756.733050
_symmetry_space_group_name_H-M "P -1"
_symmetry_group_IT_number 2
_symmetry_cell_setting 'triclinic'
loop_
_space_group_symop_operation_xyz
x,y,z
-x,-y,-z
loop_
_atom_site_type_symbol
_atom_site_label
_atom_site_fract_x
_atom_site_fract_y
_atom_site_fract_z
Si Si1 0.238504 0.608672 0.304606
Si Si2 0.903164 0.724824 0.892971
Si Si3 0.249614 0.565817 0.816936
Si Si4 0.407503 0.132972 0.285768
Si Si5 0.777558 0.455258 0.446166
Si Si6 0.712235 0.879752 0.172645
Si Si7 0.189971 0.246588 0.542824
Si Si8 0.592089 0.704254 0.222737
O O1 0.403010 0.785908 0.557816
O O2 0.386076 0.667367 0.251630
O O3 0.993299 0.526007 0.220008
O O4 0.178229 0.432947 0.182280
O O5 0.796819 0.802870 0.016412
O O6 0.181462 0.905807 0.058225
O O7 0.812166 0.611920 0.673675
O O8 0.233559 0.532293 0.661079
O O9 0.303158 0.458193 0.753233
O O10 0.470658 0.787349 0.056007
O O11 0.552767 0.244009 0.286178
O O12 0.308698 0.217285 0.420967
O O13 0.000000 0.500000 0.500000
O O14 0.681904 0.816798 0.227282
O O15 0.925797 0.107044 0.390479
O O16 0.221704 0.196729 0.598062
O O17 0.500000 0.500000 0.000000
#
# Coordination Sequence:
#
# PCOD9104700 Si02
#       8
#     2   2   2   2   2   2   2   2
#     4  10  21  38  59  91 120 154 196 242 293 345
#     4  10  20  39  62  85 116 156 206 239 284 351
#     4  12  23  39  58  87 127 152 189 251 298 344
#     4   9  20  39  61  85 114 159 203 240 282 351
#     4  11  22  39  58  87 120 161 196 236 298 351
#     4  11  23  40  63  90 117 156 196 245 293 348
#     4  10  23  40  61  90 121 151 197 244 292 349
#     4  11  19  41  69  84 115 160 199 236 291 356
#
# _framework density 21.143519000000001
#
# number of rings (size 3 to 8) (size 9 to 14) (size 15 to 20)
#    0.000    1.500    5.000    1.875    0.000    5.000 
#    0.000    3.125    0.000    0.000    0.000    0.000 
#    0.000    0.000    0.000    0.000    0.000    0.000 
#
# Total GULP energy -89377.529514 kJ/mol
# GULP energy per Si atom -5586.095595 kJ/mol
# Density = 2.109540 g / cm^3
# Si number density = 21.143519 Si / 1000 Ang^3
#
#
#
# Elastic Constant Matrix: (Units=GPa)
#
#
# Indices 1 2 3 4 5 6 
#
# 1 50.4027 17.7827 17.8758 -4.3415 25.7112 13.0559
# 2 17.7827 78.3927 29.6997 -4.5335 10.5023 22.7856
# 3 17.8758 29.6997 71.6894 20.6456 23.3192 21.5288
# 4 -4.3415 -4.5335 20.6456 38.6779 9.5206 3.8061
# 5 25.7112 10.5023 23.3192 9.5206 34.2140 10.4887
# 6 13.0559 22.7856 21.5288 3.8061 10.4887 23.5664
#
#
#
# Elastic Compliance Matrix: (Units=1/GPa)
#
#
# Indices 1 2 3 4 5 6 
#
# 1 0.038687 -0.001433 -0.000634 0.012508 -0.029059 -0.008556
# 2 -0.001433 0.019668 -0.005704 0.006218 0.001729 -0.014786
# 3 -0.000634 -0.005704 0.026344 -0.011427 -0.008726 -0.012472
# 4 0.012508 0.006218 -0.011427 0.037591 -0.013145 -0.002723
# 5 -0.029059 0.001729 -0.008726 -0.013145 0.060936 -0.002600
# 6 -0.008556 -0.014786 -0.012472 -0.002723 -0.002600 0.074460
#
#
# Mechanical properties :
#
#
# Convention : Reuss Voigt Hill
#
# Bulk Modulus (GPa) = 14.45940 36.80013 25.62977
# Shear Modulus (GPa) = 16.87597 28.30008 22.58802
#
# Velocity S-wave (km/s) = 2.82824 3.66249 3.27206
# Velocity P-wave (km/s) = 4.18555 5.94372 5.14036
#
# Compressibility (1/GPa) = 0.06915916
#
# Stress axis : x y z
#
# Youngs Moduli (GPa) = 25.84831 50.84457 37.95863
#
# Poissons Ratio (x) = 0.07284 0.02405
# Poissons Ratio (y) = 0.03703 0.21651
# Poissons Ratio (z) = 0.01638 0.29001
#
# Static dielectric constant tensor:
#      x y z
#    x 1.771460 0.015590 0.021240 
#    y 0.015590 1.727200 0.000190 
#    z 0.021240 0.000190 1.772350 
# 
# From -- ./inp_files/258710.got.cif
#   From: 2010.05.17/outbox.cif.g08.bks.cpg/sg2_130_cif.got.tgz:258710.got - 2010.06.03 11:33:40.
