data_PCOD9104944
_publ_section_title
;
Structure prediction by ZEFSAII (Michael W. Deem and Ramdas Pophale) SiO2 
 PCOD9104944
Probable space group: P -1
;
_chemical_formula_sum "Si O2"
_cell_formula_units_Z 14
_cell_length_a 12.579499
_cell_length_b 9.059014
_cell_length_c 14.812005
_cell_angle_alpha 154.622124
_cell_angle_beta 53.150595
_cell_angle_gamma 122.054089
_cell_volume 578.594556
_symmetry_space_group_name_H-M "P -1"
_symmetry_group_IT_number 2
_symmetry_cell_setting 'triclinic'
loop_
_space_group_symop_operation_xyz
x,y,z
-x,-y,-z
loop_
_atom_site_type_symbol
_atom_site_label
_atom_site_fract_x
_atom_site_fract_y
_atom_site_fract_z
Si Si1 0.421125 0.755871 0.773355
Si Si2 0.290602 0.326488 0.470399
Si Si3 0.234996 0.933802 0.121841
Si Si4 0.760367 0.676965 0.069843
Si Si5 0.042539 0.887959 0.678361
Si Si6 0.803128 0.187310 0.624342
Si Si7 0.477390 0.984626 0.396348
O O1 0.323824 0.680899 0.697940
O O2 0.562813 0.866170 0.724797
O O3 0.453538 0.375146 0.588879
O O4 0.348536 0.959648 0.002929
O O5 0.231109 0.277732 0.375328
O O6 0.202783 0.126128 0.475222
O O7 0.253352 0.617595 0.007944
O O8 0.094005 0.887458 0.121023
O O9 0.611947 0.807057 0.193707
O O10 0.848258 0.966404 0.229945
O O11 0.826733 0.512315 0.855591
O O12 0.098147 0.897024 0.553270
O O13 0.000000 0.500000 0.500000
O O14 0.655094 0.212670 0.670604
O O15 0.500000 0.000000 0.500000
#
# Coordination Sequence:
#
# PCOD9104944 Si02
#       7
#     2   2   2   2   2   2   2
#     4  10  20  39  63 100 133 162 209 266 324 376
#     4   9  21  38  63  99 125 164 213 267 316 375
#     4  11  23  41  68  90 128 176 215 253 321 387
#     4  11  23  43  69  96 126 176 214 262 327 380
#     4  12  28  46  63  95 131 173 219 268 317 383
#     4  10  23  44  66  95 128 170 218 262 325 383
#     4  11  19  38  71  99 136 161 209 275 324 376
#
# _framework density 24.196563999999999
#
# number of rings (size 3 to 8) (size 9 to 14) (size 15 to 20)
#    0.000    1.429    2.857    2.143    2.000    4.000 
#   12.857    0.000    0.000    0.000    0.000    0.000 
#    0.000    0.000    0.000    0.000    0.000    0.000 
#
# Total GULP energy -78330.286821 kJ/mol
# GULP energy per Si atom -5595.020487 kJ/mol
# Density = 2.414149 g / cm^3
# Si number density = 24.196564 Si / 1000 Ang^3
#
#
#
# Elastic Constant Matrix: (Units=GPa)
#
#
# Indices 1 2 3 4 5 6 
#
# 1 62.8594 11.2252 17.1143 -2.1732 18.0094 1.8910
# 2 11.2252 97.5439 29.7842 -12.7294 14.5531 1.5082
# 3 17.1143 29.7842 46.8822 -7.4783 13.3184 -9.6849
# 4 -2.1732 -12.7294 -7.4783 40.5809 -1.9276 2.5461
# 5 18.0094 14.5531 13.3184 -1.9276 48.3732 -2.1924
# 6 1.8910 1.5082 -9.6849 2.5461 -2.1924 28.8897
#
#
#
# Elastic Compliance Matrix: (Units=1/GPa)
#
#
# Indices 1 2 3 4 5 6 
#
# 1 0.019383 0.000751 -0.006741 0.000009 -0.005768 -0.004006
# 2 0.000751 0.013560 -0.008699 0.002850 -0.002036 -0.004079
# 3 -0.006741 -0.008699 0.032983 0.002107 -0.003349 0.011512
# 4 0.000009 0.002850 0.002107 0.026013 -0.000485 -0.001772
# 5 -0.005768 -0.002036 -0.003349 -0.000485 0.024392 0.001255
# 6 -0.004006 -0.004079 0.011512 -0.001772 0.001255 0.039200
#
#
# Mechanical properties :
#
#
# Convention : Reuss Voigt Hill
#
# Bulk Modulus (GPa) = 27.36020 35.94807 31.65414
# Shear Modulus (GPa) = 25.36910 33.51288 29.44099
#
# Velocity S-wave (km/s) = 3.24150 3.72563 3.49197
# Velocity P-wave (km/s) = 5.03407 5.77893 5.41931
#
# Compressibility (1/GPa) = 0.03654944
#
# Stress axis : x y z
#
# Youngs Moduli (GPa) = 51.59196 73.74583 30.31904
#
# Poissons Ratio (x) = -0.05540 0.20437
# Poissons Ratio (y) = -0.03876 0.26373
# Poissons Ratio (z) = 0.34776 0.64149
#
# Static dielectric constant tensor:
#      x y z
#    x 1.963840 -0.008670 0.005300 
#    y -0.008670 1.904420 0.028350 
#    z 0.005300 0.028350 1.944890 
# 
# From -- ./inp_files/240696.got.cif
#   From: 2010.05.17/outbox.cif.g08.bks.cpg/sg2_121_cif.got.tgz:240696.got - 2010.06.03 11:33:40.
