data_PCOD9104665
_publ_section_title
;
Structure prediction by ZEFSAII (Michael W. Deem and Ramdas Pophale) SiO2 
 PCOD9104665
Probable space group: P -1
;
_chemical_formula_sum "Si O2"
_cell_formula_units_Z 16
_cell_length_a 13.767685
_cell_length_b 5.688127
_cell_length_c 21.755466
_cell_angle_alpha 62.862776
_cell_angle_beta 146.968625
_cell_angle_gamma 97.257225
_cell_volume 701.922563
_symmetry_space_group_name_H-M "P -1"
_symmetry_group_IT_number 2
_symmetry_cell_setting 'triclinic'
loop_
_space_group_symop_operation_xyz
x,y,z
-x,-y,-z
loop_
_atom_site_type_symbol
_atom_site_label
_atom_site_fract_x
_atom_site_fract_y
_atom_site_fract_z
Si Si1 0.922185 0.785375 0.740379
Si Si2 0.938800 0.651054 0.364392
Si Si3 0.024337 0.587031 0.070381
Si Si4 0.880955 0.788732 0.180175
Si Si5 0.781721 0.014619 0.389339
Si Si6 0.517468 0.679151 0.146375
Si Si7 0.653969 0.218269 0.821302
Si Si8 0.743999 0.173479 0.487932
O O1 0.879993 0.675600 0.795521
O O2 0.061617 0.458531 0.815008
O O3 0.746149 0.990092 0.571141
O O4 0.007114 0.009801 0.779559
O O5 0.935829 0.602195 0.295265
O O6 0.712081 0.725049 0.255077
O O7 0.020973 0.885445 0.385390
O O8 0.127431 0.342674 0.532921
O O9 0.184682 0.702725 0.132923
O O10 0.000000 0.500000 0.000000
O O11 0.783704 0.847360 0.928587
O O12 0.639138 0.063672 0.014504
O O13 0.616775 0.314220 0.227164
O O14 0.703906 0.079297 0.411083
O O15 0.000000 0.000000 0.500000
O O16 0.389422 0.729629 0.135203
O O17 0.433924 0.461610 0.643522
#
# Coordination Sequence:
#
# PCOD9104665 Si02
#       8
#     2   2   2   2   2   2   2   2
#     4  11  24  43  72  92 138 172 223 278 332 392
#     4  10  21  38  62  91 139 173 217 264 321 397
#     4  11  24  44  68  95 124 171 219 288 335 394
#     4  11  22  43  64 101 130 180 220 270 329 396
#     4   9  19  35  57  86 127 167 215 260 311 383
#     4  10  20  39  61  97 128 176 220 267 325 393
#     4  10  23  41  66  93 130 164 228 269 338 392
#     4  10  22  41  61  96 128 178 211 268 329 396
#
# _framework density 22.794536999999998
#
# number of rings (size 3 to 8) (size 9 to 14) (size 15 to 20)
#    0.000    1.750    2.500    1.125    1.750    8.000 
#    4.500    2.500    0.000    0.000    0.000    0.000 
#    0.000    0.000    0.000    0.000    0.000    0.000 
#
# Total GULP energy -89111.329838 kJ/mol
# GULP energy per Si atom -5569.458115 kJ/mol
# Density = 2.274266 g / cm^3
# Si number density = 22.794537 Si / 1000 Ang^3
#
#
#
# Elastic Constant Matrix: (Units=GPa)
#
#
# Indices 1 2 3 4 5 6 
#
# 1 92.9082 24.2195 15.7028 -0.8693 -12.6439 4.6466
# 2 24.2195 58.1594 18.2451 -8.9294 -1.2774 1.7063
# 3 15.7028 18.2451 88.9871 -12.1194 -1.8089 5.7477
# 4 -0.8693 -8.9294 -12.1194 25.8499 -3.4947 -1.3781
# 5 -12.6439 -1.2774 -1.8089 -3.4947 36.6822 -2.6183
# 6 4.6466 1.7063 5.7477 -1.3781 -2.6183 32.9695
#
#
#
# Elastic Compliance Matrix: (Units=1/GPa)
#
#
# Indices 1 2 3 4 5 6 
#
# 1 0.012883 -0.005064 -0.001280 -0.001434 0.003988 -0.001074
# 2 -0.005064 0.021002 -0.002656 0.005777 -0.000575 0.000286
# 3 -0.001280 -0.002656 0.012808 0.005017 0.000457 -0.001669
# 4 -0.001434 0.005777 0.005017 0.043615 0.004194 0.001185
# 5 0.003988 -0.000575 0.000457 0.004194 0.029172 0.001880
# 6 -0.001074 0.000286 -0.001669 0.001185 0.001880 0.030957
#
#
# Mechanical properties :
#
#
# Convention : Reuss Voigt Hill
#
# Bulk Modulus (GPa) = 34.85151 39.59885 37.22518
# Shear Modulus (GPa) = 28.08955 31.22614 29.65784
#
# Velocity S-wave (km/s) = 3.51421 3.70523 3.61098
# Velocity P-wave (km/s) = 5.63816 5.97618 5.80963
#
# Compressibility (1/GPa) = 0.02869316
#
# Stress axis : x y z
#
# Youngs Moduli (GPa) = 77.62266 47.61401 78.07393
#
# Poissons Ratio (x) = 0.24114 0.09993
# Poissons Ratio (y) = 0.39312 0.20735
# Poissons Ratio (z) = 0.09935 0.12645
#
# Static dielectric constant tensor:
#      x y z
#    x 1.908340 0.047560 0.024690 
#    y 0.047560 1.999040 0.015060 
#    z 0.024690 0.015060 1.873430 
# 
# From -- ./inp_files/97076.got.cif
#   From: 2010.05.17/outbox.cif.g08.bks.cpg/sg2_49_cif.got.tgz:97076.got - 2010.06.03 11:33:40.
