data_PCOD9104372
_publ_section_title
;
Structure prediction by ZEFSAII (Michael W. Deem and Ramdas Pophale) SiO2 
 PCOD9104372
Probable space group: P -1
;
_chemical_formula_sum "Si O2"
_cell_formula_units_Z 14
_cell_length_a 5.020490
_cell_length_b 29.072425
_cell_length_c 20.930184
_cell_angle_alpha 10.814327
_cell_angle_beta 109.876709
_cell_angle_gamma 108.401164
_cell_volume 536.135355
_symmetry_space_group_name_H-M "P -1"
_symmetry_group_IT_number 2
_symmetry_cell_setting 'triclinic'
loop_
_space_group_symop_operation_xyz
x,y,z
-x,-y,-z
loop_
_atom_site_type_symbol
_atom_site_label
_atom_site_fract_x
_atom_site_fract_y
_atom_site_fract_z
Si Si1 0.103021 0.694494 0.352205
Si Si2 0.515634 0.229228 0.837748
Si Si3 0.606089 0.498965 0.905701
Si Si4 0.610229 0.850793 0.541493
Si Si5 0.985938 0.121948 0.121017
Si Si6 0.257869 0.550184 0.694680
Si Si7 0.159561 0.728325 0.882800
O O1 0.351861 0.750949 0.248426
O O2 0.188994 0.725633 0.390051
O O3 0.807783 0.826483 0.121162
O O4 0.052746 0.404227 0.741605
O O5 0.500000 0.500000 0.500000
O O6 0.751669 0.080152 0.104844
O O7 0.686833 0.642054 0.778909
O O8 0.407470 0.655639 0.624827
O O9 0.435681 0.276737 0.220504
O O10 0.854087 0.379751 0.043033
O O11 0.831798 0.047437 0.275527
O O12 0.286289 0.968479 0.341094
O O13 0.980349 0.444638 0.842905
O O14 0.498207 0.320187 0.010150
O O15 0.000000 0.000000 0.500000
#
# Coordination Sequence:
#
# PCOD9104372 Si02
#       7
#     2   2   2   2   2   2   2
#     4  11  21  38  64  92 124 154 193 253 325 353
#     4  10  20  39  60  89 127 151 193 259 309 359
#     4   9  26  41  62  85 130 163 206 247 297 346
#     4  11  24  40  63  87 122 171 206 242 291 365
#     4  11  23  37  63  93 118 158 208 246 301 367
#     4  10  23  37  61  88 120 160 196 243 311 358
#     4  10  22  38  57  87 123 157 198 255 295 353
#
# _framework density 26.11281
#
# number of rings (size 3 to 8) (size 9 to 14) (size 15 to 20)
#    0.857    0.857    0.000    5.571    6.000    1.143 
#    0.000    0.000    0.000    5.143    0.000    0.000 
#    0.000    0.000    0.000    0.000    0.000    0.000 
#
# Total GULP energy -78356.965520 kJ/mol
# GULP energy per Si atom -5596.926109 kJ/mol
# Density = 2.605338 g / cm^3
# Si number density = 26.112810 Si / 1000 Ang^3
#
#
#
# Elastic Constant Matrix: (Units=GPa)
#
#
# Indices 1 2 3 4 5 6 
#
# 1 151.9915 8.5709 14.8323 -1.9064 16.9173 -30.7596
# 2 8.5709 115.3267 4.8630 11.6129 13.0302 -3.1304
# 3 14.8323 4.8630 64.3605 4.0756 23.0038 -11.3959
# 4 -1.9064 11.6129 4.0756 41.2019 2.3683 -7.6597
# 5 16.9173 13.0302 23.0038 2.3683 37.6846 14.0256
# 6 -30.7596 -3.1304 -11.3959 -7.6597 14.0256 40.5971
#
#
#
# Elastic Compliance Matrix: (Units=1/GPa)
#
#
# Indices 1 2 3 4 5 6 
#
# 1 0.010625 0.000607 0.004768 0.003377 -0.013601 0.014772
# 2 0.000607 0.009494 0.001996 -0.001862 -0.005942 0.003454
# 3 0.004768 0.001996 0.028137 0.002583 -0.028335 0.021942
# 4 0.003377 -0.001862 0.002583 0.027247 -0.008312 0.011153
# 5 -0.013601 -0.005942 -0.028335 -0.008312 0.068928 -0.044099
# 6 0.014772 0.003454 0.021942 0.011153 -0.044099 0.059590
#
#
# Mechanical properties :
#
#
# Convention : Reuss Voigt Hill
#
# Bulk Modulus (GPa) = 15.87321 43.13456 29.50389
# Shear Modulus (GPa) = 23.77794 44.12420 33.95107
#
# Velocity S-wave (km/s) = 3.02086 4.11512 3.60970
# Velocity P-wave (km/s) = 4.27310 6.25567 5.35690
#
# Compressibility (1/GPa) = 0.06299922
#
# Stress axis : x y z
#
# Youngs Moduli (GPa) = 94.11386 105.32562 35.54067
#
# Poissons Ratio (x) = -0.06392 -0.16947
# Poissons Ratio (y) = -0.05711 -0.07094
# Poissons Ratio (z) = -0.44876 -0.21024
#
# Static dielectric constant tensor:
#      x y z
#    x 2.026570 0.061800 0.029460 
#    y 0.061800 2.165450 -0.020900 
#    z 0.029460 -0.020900 2.103790 
# 
# From -- ./inp_files/584539.got.cif
#   From: 2010.05.17/outbox.cif.g08.bks.cpg/sg2_293_cif.got.tgz:584539.got - 2010.06.03 11:33:40.
