data_PCOD9104168
_publ_section_title
;
Structure prediction by ZEFSAII (Michael W. Deem and Ramdas Pophale) SiO2 
 PCOD9104168
Probable space group: P -1
;
_chemical_formula_sum "Si O2"
_cell_formula_units_Z 16
_cell_length_a 13.431263
_cell_length_b 23.838351
_cell_length_c 5.198415
_cell_angle_alpha 83.678740
_cell_angle_beta 87.922037
_cell_angle_gamma 27.202580
_cell_volume 749.248079
_symmetry_space_group_name_H-M "P -1"
_symmetry_group_IT_number 2
_symmetry_cell_setting 'triclinic'
loop_
_space_group_symop_operation_xyz
x,y,z
-x,-y,-z
loop_
_atom_site_type_symbol
_atom_site_label
_atom_site_fract_x
_atom_site_fract_y
_atom_site_fract_z
Si Si1 0.800184 0.655572 0.708412
Si Si2 0.720042 0.623248 0.236178
Si Si3 0.253377 0.116975 0.211966
Si Si4 0.489662 0.913914 0.692096
Si Si5 0.052264 0.127377 0.846087
Si Si6 0.415698 0.677178 0.145248
Si Si7 0.452627 0.459288 0.286865
Si Si8 0.854267 0.322550 0.456018
O O1 0.713992 0.656912 0.494253
O O2 0.666920 0.780507 0.644478
O O3 0.062923 0.526348 0.708831
O O4 0.760386 0.648395 0.995671
O O5 0.508682 0.692811 0.156600
O O6 0.401907 0.094693 0.121038
O O7 0.057653 0.245984 0.327862
O O8 0.393829 0.002910 0.433184
O O9 0.127187 0.140483 0.016187
O O10 0.283465 0.985295 0.803468
O O11 0.848594 0.194015 0.934320
O O12 0.948628 0.213525 0.574290
O O13 0.483235 0.611023 0.435050
O O14 0.532353 0.586509 0.942214
O O15 0.633778 0.418178 0.272760
O O16 0.226253 0.602699 0.324622
#
# Coordination Sequence:
#
# PCOD9104168 Si02
#       8
#     2   2   2   2   2   2   2   2
#     4  10  23  45  66  90 124 155 209 264 308 360
#     4  10  23  44  67  93 119 158 207 266 313 359
#     4  10  20  39  58  90 126 164 211 243 303 374
#     4  10  23  38  62  90 119 173 205 253 305 365
#     4  10  21  37  58  87 130 161 202 254 302 366
#     4  11  22  39  63  91 124 165 202 257 315 364
#     4  10  21  33  57  89 127 166 200 243 311 365
#     4   9  20  33  51  87 127 163 202 248 294 374
#
# _framework density 21.354744
#
# number of rings (size 3 to 8) (size 9 to 14) (size 15 to 20)
#    0.000    2.000    1.250    1.125    5.250    1.500 
#    0.000    1.250    0.000    0.000    0.000    0.000 
#    0.000    0.000    0.000    0.000    0.000    0.000 
#
# Total GULP energy -89275.045929 kJ/mol
# GULP energy per Si atom -5579.690371 kJ/mol
# Density = 2.130614 g / cm^3
# Si number density = 21.354744 Si / 1000 Ang^3
#
#
#
# Elastic Constant Matrix: (Units=GPa)
#
#
# Indices 1 2 3 4 5 6 
#
# 1 60.2925 35.7986 -7.2194 -0.7371 16.4778 -22.5443
# 2 35.7986 117.7158 16.0874 11.1810 6.1899 -4.0039
# 3 -7.2194 16.0874 71.8435 2.4358 8.9384 -1.0961
# 4 -0.7371 11.1810 2.4358 20.3771 -1.9838 2.6150
# 5 16.4778 6.1899 8.9384 -1.9838 23.8384 -2.2694
# 6 -22.5443 -4.0039 -1.0961 2.6150 -2.2694 22.5613
#
#
#
# Elastic Compliance Matrix: (Units=1/GPa)
#
#
# Indices 1 2 3 4 5 6 
#
# 1 0.055712 -0.015206 0.014191 -0.001214 -0.035198 0.050261
# 2 -0.015206 0.013563 -0.005506 -0.005100 0.007515 -0.011708
# 3 0.014191 -0.005506 0.018609 -0.001732 -0.014276 0.012872
# 4 -0.001214 -0.005100 -0.001732 0.053669 0.006540 -0.007765
# 5 -0.035198 0.007515 -0.014276 0.006540 0.067512 -0.028499
# 6 0.050261 -0.011708 0.012872 -0.007765 -0.028499 0.091128
#
#
# Mechanical properties :
#
#
# Convention : Reuss Voigt Hill
#
# Bulk Modulus (GPa) = 13.36163 37.68720 25.52442
# Shear Modulus (GPa) = 14.78493 27.03439 20.90966
#
# Velocity S-wave (km/s) = 2.63411 3.56190 3.13254
# Velocity P-wave (km/s) = 3.93979 5.88240 5.00623
#
# Compressibility (1/GPa) = 0.07484115
#
# Stress axis : x y z
#
# Youngs Moduli (GPa) = 17.94952 73.73094 53.73695
#
# Poissons Ratio (x) = 1.12116 -0.76256
# Poissons Ratio (y) = 0.27294 0.29586
# Poissons Ratio (z) = -0.25471 0.40594
#
# Static dielectric constant tensor:
#      x y z
#    x 1.786150 -0.059510 -0.004850 
#    y -0.059510 1.820000 -0.005470 
#    z -0.004850 -0.005470 1.838620 
# 
# From -- ./inp_files/70502.got.cif
#   From: 2010.05.17/outbox.cif.g08.bks.cpg/sg2_36_cif.got.tgz:70502.got - 2010.06.03 11:33:40.
