data_PCOD9104531
_publ_section_title
;
Structure prediction by ZEFSAII (Michael W. Deem and Ramdas Pophale) SiO2 
 PCOD9104531
Probable space group: P -1
;
_chemical_formula_sum "Si O2"
_cell_formula_units_Z 14
_cell_length_a 16.919427
_cell_length_b 7.202859
_cell_length_c 5.556088
_cell_angle_alpha 108.485353
_cell_angle_beta 99.501566
_cell_angle_gamma 57.220457
_cell_volume 539.896616
_symmetry_space_group_name_H-M "P -1"
_symmetry_group_IT_number 2
_symmetry_cell_setting 'triclinic'
loop_
_space_group_symop_operation_xyz
x,y,z
-x,-y,-z
loop_
_atom_site_type_symbol
_atom_site_label
_atom_site_fract_x
_atom_site_fract_y
_atom_site_fract_z
Si Si1 0.091571 0.740560 0.954643
Si Si2 0.169990 0.185585 0.683498
Si Si3 0.463932 0.196768 0.364412
Si Si4 0.407774 0.533884 0.849743
Si Si5 0.030431 0.729466 0.416863
Si Si6 0.221616 0.928500 0.098161
Si Si7 0.353016 0.184625 0.911179
O O1 0.178935 0.768476 0.052864
O O2 0.094534 0.636016 0.650609
O O3 0.077652 0.628035 0.140031
O O4 0.000000 0.000000 0.000000
O O5 0.166340 0.080965 0.900990
O O6 0.059667 0.292292 0.606887
O O7 0.249917 0.245732 0.813430
O O8 0.214332 0.041307 0.398026
O O9 0.429593 0.446810 0.551640
O O10 0.500000 0.000000 0.500000
O O11 0.559812 0.077191 0.205963
O O12 0.372498 0.213196 0.208684
O O13 0.324996 0.782428 0.983101
O O14 0.378045 0.360377 0.872519
O O15 0.500000 0.500000 0.000000
O O16 0.000000 0.000000 0.500000
#
# Coordination Sequence:
#
# PCOD9104531 Si02
#       7
#     2   2   2   2   2   2   2
#     4  10  16  34  55  91 125 155 201 256 300 357
#     4  12  23  37  65  98 123 162 213 257 307 372
#     4   9  21  44  63  84 118 164 210 255 309 373
#     4  11  26  42  61  89 129 163 204 260 318 370
#     4  10  16  33  56  90 122 155 203 259 294 353
#     4  12  24  37  65  99 126 162 209 262 311 362
#     4  10  24  41  64  86 122 167 209 257 310 376
#
# _framework density 25.930890999999999
#
# number of rings (size 3 to 8) (size 9 to 14) (size 15 to 20)
#    0.000    1.429    5.714    0.857   12.000    0.571 
#    0.000    0.000    0.000    1.714    0.000    0.000 
#    0.000    0.000    0.000    0.000    0.000    0.000 
#
# Total GULP energy -78180.651891 kJ/mol
# GULP energy per Si atom -5584.332278 kJ/mol
# Density = 2.587187 g / cm^3
# Si number density = 25.930891 Si / 1000 Ang^3
#
#
#
# Elastic Constant Matrix: (Units=GPa)
#
#
# Indices 1 2 3 4 5 6 
#
# 1 187.4161 28.7430 73.4671 3.8229 35.8424 -7.4495
# 2 28.7430 42.7506 34.4015 -0.6956 2.4224 -6.8733
# 3 73.4671 34.4015 214.4189 -15.0508 19.1219 -2.5019
# 4 3.8229 -0.6956 -15.0508 27.7918 -6.0610 7.4644
# 5 35.8424 2.4224 19.1219 -6.0610 53.7673 -7.7185
# 6 -7.4495 -6.8733 -2.5019 7.4644 -7.7185 41.5284
#
#
#
# Elastic Compliance Matrix: (Units=1/GPa)
#
#
# Indices 1 2 3 4 5 6 
#
# 1 0.007514 -0.003275 -0.001869 -0.003226 -0.004498 0.000437
# 2 -0.003275 0.029313 -0.003884 -0.001616 0.002755 0.004833
# 3 -0.001869 -0.003884 0.006227 0.003782 -0.000566 -0.001388
# 4 -0.003226 -0.001616 0.003782 0.041353 0.004505 -0.007214
# 5 -0.004498 0.002755 -0.000566 0.004505 0.022614 0.003008
# 6 0.000437 0.004833 -0.001388 -0.007214 0.003008 0.026730
#
#
# Mechanical properties :
#
#
# Convention : Reuss Voigt Hill
#
# Bulk Modulus (GPa) = 40.00286 79.75653 59.87970
# Shear Modulus (GPa) = 31.22251 45.14911 38.18581
#
# Velocity S-wave (km/s) = 3.47373 4.17721 3.84161
# Velocity P-wave (km/s) = 5.61687 7.35456 6.54366
#
# Compressibility (1/GPa) = 0.02499821
#
# Stress axis : x y z
#
# Youngs Moduli (GPa) = 133.08222 34.11428 160.58737
#
# Poissons Ratio (x) = 0.11173 0.30020
# Poissons Ratio (y) = 0.43586 0.62366
# Poissons Ratio (z) = 0.24878 0.13249
#
# Static dielectric constant tensor:
#      x y z
#    x 2.002840 0.009760 -0.082630 
#    y 0.009760 2.289470 0.006300 
#    z -0.082630 0.006300 2.156190 
# 
# From -- ./inp_files/37991.got.cif
#   From: 2010.05.17/outbox.cif.g08.bks.cpg/sg2_19_cif.got.tgz:37991.got - 2010.06.03 11:33:40.
