data_PCOD9104324
_publ_section_title
;
Structure prediction by ZEFSAII (Michael W. Deem and Ramdas Pophale) SiO2 
 PCOD9104324
Probable space group: P -1
;
_chemical_formula_sum "Si O2"
_cell_formula_units_Z 14
_cell_length_a 7.773924
_cell_length_b 11.628718
_cell_length_c 14.868059
_cell_angle_alpha 118.359869
_cell_angle_beta 147.509382
_cell_angle_gamma 78.331151
_cell_volume 576.662970
_symmetry_space_group_name_H-M "P -1"
_symmetry_group_IT_number 2
_symmetry_cell_setting 'triclinic'
loop_
_space_group_symop_operation_xyz
x,y,z
-x,-y,-z
loop_
_atom_site_type_symbol
_atom_site_label
_atom_site_fract_x
_atom_site_fract_y
_atom_site_fract_z
Si Si1 0.721341 0.435601 0.160347
Si Si2 0.258893 0.882125 0.653896
Si Si3 0.229341 0.746164 0.161788
Si Si4 0.210077 0.172076 0.716368
Si Si5 0.031025 0.461690 0.879247
Si Si6 0.881766 0.228672 0.265087
Si Si7 0.877394 0.962916 0.078170
O O1 0.967816 0.532620 0.225855
O O2 0.931337 0.378562 0.299183
O O3 0.441218 0.296193 0.931066
O O4 0.441420 0.492151 0.096188
O O5 0.053986 0.766480 0.597914
O O6 0.153838 0.836339 0.488157
O O7 0.178165 0.021674 0.684544
O O8 0.668445 0.935700 0.880765
O O9 0.566911 0.800408 0.267304
O O10 0.217936 0.683943 0.233912
O O11 0.114226 0.876262 0.158318
O O12 0.972331 0.597646 0.941993
O O13 0.026803 0.128309 0.237371
O O14 0.457821 0.129675 0.039878
#
# Coordination Sequence:
#
# PCOD9104324 Si02
#       7
#     2   2   2   2   2   2   2
#     4  10  16  33  56  75  96 138 176 205 234 308
#     4   9  18  32  50  76 106 135 164 190 261 323
#     4  10  19  32  50  81 104 126 167 224 248 279
#     4  10  19  31  52  77 107 130 163 208 255 301
#     4   9  19  30  52  75  99 131 181 208 241 281
#     4   9  16  31  53  76  97 138 165 203 241 315
#     4   9  16  30  53  72 104 128 164 205 251 296
#
# _framework density 24.277612999999999
#
# number of rings (size 3 to 8) (size 9 to 14) (size 15 to 20)
#    0.857    1.714    2.857    0.000    0.000    0.571 
#    0.000    0.714    0.000   32.571    0.000    0.000 
#    0.000    0.000    0.000    0.000    0.000    0.000 
#
# Total GULP energy -78007.729274 kJ/mol
# GULP energy per Si atom -5571.980662 kJ/mol
# Density = 2.422236 g / cm^3
# Si number density = 24.277613 Si / 1000 Ang^3
#
#
#
# Elastic Constant Matrix: (Units=GPa)
#
#
# Indices 1 2 3 4 5 6 
#
# 1 73.3193 29.5017 5.3004 -11.5669 11.6712 14.3417
# 2 29.5017 141.9810 4.4593 -15.1663 -4.2614 13.0274
# 3 5.3004 4.4593 32.8611 1.8074 -12.1956 7.6939
# 4 -11.5669 -15.1663 1.8074 18.2238 3.2965 -16.4726
# 5 11.6712 -4.2614 -12.1956 3.2965 19.3526 -5.3703
# 6 14.3417 13.0274 7.6939 -16.4726 -5.3703 49.0737
#
#
#
# Elastic Compliance Matrix: (Units=1/GPa)
#
#
# Indices 1 2 3 4 5 6 
#
# 1 0.023084 -0.003220 -0.013950 0.017497 -0.026609 -0.000743
# 2 -0.003220 0.008259 0.000163 0.004873 0.003231 0.000712
# 3 -0.013950 0.000163 0.053170 -0.030906 0.044498 -0.009807
# 4 0.017497 0.004873 -0.030906 0.107487 -0.038866 0.030265
# 5 -0.026609 0.003231 0.044498 -0.038866 0.102572 -0.001879
# 6 -0.000743 0.000712 -0.009807 0.030265 -0.001879 0.031897
#
#
# Mechanical properties :
#
#
# Convention : Reuss Voigt Hill
#
# Bulk Modulus (GPa) = 19.80237 36.29825 28.05031
# Shear Modulus (GPa) = 13.25147 31.25669 22.25408
#
# Velocity S-wave (km/s) = 2.33884 3.59203 3.03091
# Velocity P-wave (km/s) = 3.93292 5.67339 4.88135
#
# Compressibility (1/GPa) = 0.05049900
#
# Stress axis : x y z
#
# Youngs Moduli (GPa) = 43.31927 121.07582 18.80773
#
# Poissons Ratio (x) = 0.38985 0.26237
# Poissons Ratio (y) = 0.13948 -0.00306
# Poissons Ratio (z) = 0.60431 -0.01970
#
# Static dielectric constant tensor:
#      x y z
#    x 2.002760 -0.016340 -0.001570 
#    y -0.016340 1.993110 -0.009590 
#    z -0.001570 -0.009590 1.974300 
# 
# From -- ./inp_files/401161.got.cif
#   From: 2010.05.17/outbox.cif.g08.bks.cpg/sg2_201_cif.got.tgz:401161.got - 2010.06.03 11:33:40.
