data_PCOD9104306
_publ_section_title
;
Structure prediction by ZEFSAII (Michael W. Deem and Ramdas Pophale) SiO2 
 PCOD9104306
Probable space group: P -1
;
_chemical_formula_sum "Si O2"
_cell_formula_units_Z 16
_cell_length_a 16.449132
_cell_length_b 8.885688
_cell_length_c 15.886662
_cell_angle_alpha 109.400438
_cell_angle_beta 153.824990
_cell_angle_gamma 87.927464
_cell_volume 750.628187
_symmetry_space_group_name_H-M "P -1"
_symmetry_group_IT_number 2
_symmetry_cell_setting 'triclinic'
loop_
_space_group_symop_operation_xyz
x,y,z
-x,-y,-z
loop_
_atom_site_type_symbol
_atom_site_label
_atom_site_fract_x
_atom_site_fract_y
_atom_site_fract_z
Si Si1 0.089225 0.680636 0.848127
Si Si2 0.999277 0.809598 0.480657
Si Si3 0.834546 0.232013 0.541623
Si Si4 0.172691 0.232918 0.954737
Si Si5 0.988077 0.967282 0.884228
Si Si6 0.517648 0.694913 0.293630
Si Si7 0.748167 0.566769 0.362757
Si Si8 0.593557 0.894793 0.973728
O O1 0.901814 0.448809 0.667757
O O2 0.988116 0.655723 0.655126
O O3 0.061772 0.828818 0.900440
O O4 0.345377 0.740559 0.109463
O O5 0.999591 0.722140 0.375988
O O6 0.804046 0.638748 0.331901
O O7 0.000000 0.000000 0.500000
O O8 0.246624 0.919887 0.779505
O O9 0.571615 0.087920 0.235377
O O10 0.913160 0.153084 0.670579
O O11 0.350192 0.473053 0.143511
O O12 0.244358 0.124598 0.941168
O O13 0.161206 0.174374 0.029138
O O14 0.724509 0.851254 0.580264
O O15 0.000000 0.000000 0.000000
O O16 0.637241 0.661070 0.322339
O O17 0.571023 0.322632 0.169546
#
# Coordination Sequence:
#
# PCOD9104306 Si02
#       8
#     2   2   2   2   2   2   2   2
#     4   9  20  41  62  87 119 155 203 238 294 365
#     4  12  23  37  54  89 126 156 210 253 281 337
#     4  10  22  40  60  87 121 162 206 245 293 347
#     4  10  21  42  62  87 121 156 199 243 295 365
#     4  11  24  41  65  95 120 147 192 247 303 367
#     4   9  20  41  64  87 120 163 192 240 305 348
#     4   9  21  39  58  84 123 163 201 246 291 338
#     4  10  20  39  60  84 117 163 205 245 294 335
#
# _framework density 21.315480000000001
#
# number of rings (size 3 to 8) (size 9 to 14) (size 15 to 20)
#    0.000    2.000    1.250    2.625    0.000    5.500 
#    2.250    2.500    0.000    0.000    0.000    0.000 
#    0.000    0.000    0.000    0.000    0.000    0.000 
#
# Total GULP energy -89478.026177 kJ/mol
# GULP energy per Si atom -5592.376636 kJ/mol
# Density = 2.126697 g / cm^3
# Si number density = 21.315480 Si / 1000 Ang^3
#
#
#
# Elastic Constant Matrix: (Units=GPa)
#
#
# Indices 1 2 3 4 5 6 
#
# 1 77.0554 61.5466 12.4933 -2.4620 -11.1804 24.8999
# 2 61.5466 96.7947 22.5735 -9.0617 8.0781 14.4193
# 3 12.4933 22.5735 84.7877 -14.9956 7.3651 4.4925
# 4 -2.4620 -9.0617 -14.9956 38.7213 -4.1695 8.3585
# 5 -11.1804 8.0781 7.3651 -4.1695 19.7115 -2.9013
# 6 24.8999 14.4193 4.4925 8.3585 -2.9013 25.6084
#
#
#
# Elastic Compliance Matrix: (Units=1/GPa)
#
#
# Indices 1 2 3 4 5 6 
#
# 1 0.059762 -0.035737 0.000096 0.007982 0.044968 -0.035514
# 2 -0.035737 0.034184 -0.001937 -0.001185 -0.031950 0.012607
# 3 0.000096 -0.001937 0.013730 0.005236 -0.003695 -0.003539
# 4 0.007982 -0.001185 0.005236 0.032731 0.007351 -0.017863
# 5 0.044968 -0.031950 -0.003695 0.007351 0.089717 -0.017320
# 6 -0.035514 0.012607 -0.003539 -0.017863 -0.017320 0.070971
#
#
# Mechanical properties :
#
#
# Convention : Reuss Voigt Hill
#
# Bulk Modulus (GPa) = 30.75107 50.20719 40.47913
# Shear Modulus (GPa) = 12.91680 27.60989 20.26334
#
# Velocity S-wave (km/s) = 2.46434 3.60293 3.08659
# Velocity P-wave (km/s) = 4.74924 6.39637 5.63333
#
# Compressibility (1/GPa) = 0.03251919
#
# Stress axis : x y z
#
# Youngs Moduli (GPa) = 16.73299 29.25362 72.83127
#
# Poissons Ratio (x) = 1.04544 -0.00699
# Poissons Ratio (y) = 0.59799 0.14110
# Poissons Ratio (z) = -0.00160 0.05667
#
# Static dielectric constant tensor:
#      x y z
#    x 1.718910 0.011370 0.056090 
#    y 0.011370 1.805650 -0.003190 
#    z 0.056090 -0.003190 1.828350 
# 
# From -- ./inp_files/337603.got.cif
#   From: 2010.05.17/outbox.cif.g08.bks.cpg/sg2_169_cif.got.tgz:337603.got - 2010.06.03 11:33:40.
