data_PCOD9104631
_publ_section_title
;
Structure prediction by ZEFSAII (Michael W. Deem and Ramdas Pophale) SiO2 
 PCOD9104631
Probable space group: P -1
;
_chemical_formula_sum "Si O2"
_cell_formula_units_Z 13
_cell_length_a 13.199367
_cell_length_b 9.600880
_cell_length_c 13.466769
_cell_angle_alpha 141.243607
_cell_angle_beta 30.862988
_cell_angle_gamma 145.908542
_cell_volume 476.393711
_symmetry_space_group_name_H-M "P -1"
_symmetry_group_IT_number 2
_symmetry_cell_setting 'triclinic'
loop_
_space_group_symop_operation_xyz
x,y,z
-x,-y,-z
loop_
_atom_site_type_symbol
_atom_site_label
_atom_site_fract_x
_atom_site_fract_y
_atom_site_fract_z
Si Si1 0.815100 0.605776 0.831852
Si Si2 0.376566 0.717705 0.793824
Si Si3 0.001409 0.189705 0.764494
Si Si4 0.000000 0.000000 0.000000
Si Si5 0.857170 0.156921 0.648643
Si Si6 0.547636 0.343102 0.721568
Si Si7 0.662626 0.215576 0.356842
O O1 0.813608 0.359279 0.738124
O O2 0.686972 0.541185 0.800495
O O3 0.708066 0.699682 0.066828
O O4 0.029792 0.884045 0.800778
O O5 0.411416 0.726372 0.652100
O O6 0.202784 0.415471 0.784926
O O7 0.623017 0.897828 0.732442
O O8 0.231644 0.857013 0.017988
O O9 0.987054 0.274614 0.708368
O O10 0.026676 0.946977 0.583368
O O11 0.885115 0.181923 0.146561
O O12 0.648777 0.389285 0.553267
O O13 0.525652 0.076650 0.623114
#
# Coordination Sequence:
#
# PCOD9104631 Si02
#       7
#     2   2   2   1   2   2   2
#     4  10  20  40  62  91 128 168 216 260 336 382
#     4  11  22  45  68  96 131 179 211 281 332 393
#     4  10  25  43  67  99 134 160 237 274 325 399
#     4  10  22  36  60  92 130 162 208 284 306 396
#     4  11  22  45  67  97 130 179 215 278 336 391
#     4   9  20  39  61  90 126 164 212 260 300 429
#     4  10  20  39  61  92 127 167 216 254 340 383
#
# _framework density 27.288352
#
# number of rings (size 3 to 8) (size 9 to 14) (size 15 to 20)
#    0.000    1.846    1.538    1.846    0.000    1.846 
#   19.385    0.000    0.000    0.000    0.000    0.000 
#    0.000    0.000    0.000    0.000    0.000    0.000 
#
# Total GULP energy -72486.001716 kJ/mol
# GULP energy per Si atom -5575.846286 kJ/mol
# Density = 2.722624 g / cm^3
# Si number density = 27.288352 Si / 1000 Ang^3
#
#
#
# Elastic Constant Matrix: (Units=GPa)
#
#
# Indices 1 2 3 4 5 6 
#
# 1 66.9007 27.4773 34.7587 5.1156 8.1604 16.2114
# 2 27.4773 106.6478 46.4613 23.9428 1.8447 33.7366
# 3 34.7587 46.4613 169.7541 5.2794 -5.9473 10.1955
# 4 5.1156 23.9428 5.2794 47.1652 3.1296 11.2985
# 5 8.1604 1.8447 -5.9473 3.1296 44.8368 6.1381
# 6 16.2114 33.7366 10.1955 11.2985 6.1381 46.4982
#
#
#
# Elastic Compliance Matrix: (Units=1/GPa)
#
#
# Indices 1 2 3 4 5 6 
#
# 1 0.018822 -0.002349 -0.003111 0.000650 -0.003252 -0.003905
# 2 -0.002349 0.015026 -0.002941 -0.005112 0.000915 -0.008317
# 3 -0.003111 -0.002941 0.007287 0.000612 0.001435 0.001282
# 4 0.000650 -0.005112 0.000612 0.024313 -0.001195 -0.002402
# 5 -0.003252 0.000915 0.001435 -0.001195 0.023495 -0.002655
# 6 -0.003905 -0.008317 0.001282 -0.002402 -0.002655 0.029555
#
#
# Mechanical properties :
#
#
# Convention : Reuss Voigt Hill
#
# Bulk Modulus (GPa) = 41.09567 62.29968 51.69767
# Shear Modulus (GPa) = 34.86542 43.34040 39.10291
#
# Velocity S-wave (km/s) = 3.57832 3.98959 3.78954
# Velocity P-wave (km/s) = 5.67142 6.64095 6.17524
#
# Compressibility (1/GPa) = 0.02433347
#
# Stress axis : x y z
#
# Youngs Moduli (GPa) = 53.13068 66.55213 137.23029
#
# Poissons Ratio (x) = 0.15631 0.42689
# Poissons Ratio (y) = 0.12478 0.40361
# Poissons Ratio (z) = 0.16527 0.19574
#
# Static dielectric constant tensor:
#      x y z
#    x 2.289270 0.130970 -0.069180 
#    y 0.130970 2.385850 -0.102450 
#    z -0.069180 -0.102450 2.116370 
# 
# From -- ./inp_files/244271.got.cif
#   From: 2010.05.17/outbox.cif.g08.bks.cpg/sg2_123_cif.got.tgz:244271.got - 2010.06.03 11:33:40.
