data_PCOD9104850
_publ_section_title
;
Structure prediction by ZEFSAII (Michael W. Deem and Ramdas Pophale) SiO2 
 PCOD9104850
Probable space group: P -1
;
_chemical_formula_sum "Si O2"
_cell_formula_units_Z 15
_cell_length_a 7.645638
_cell_length_b 19.580533
_cell_length_c 7.905635
_cell_angle_alpha 126.678634
_cell_angle_beta 124.919805
_cell_angle_gamma 39.596678
_cell_volume 590.245158
_symmetry_space_group_name_H-M "P -1"
_symmetry_group_IT_number 2
_symmetry_cell_setting 'triclinic'
loop_
_space_group_symop_operation_xyz
x,y,z
-x,-y,-z
loop_
_atom_site_type_symbol
_atom_site_label
_atom_site_fract_x
_atom_site_fract_y
_atom_site_fract_z
Si Si1 0.606694 0.578738 0.523404
Si Si2 0.248678 0.016240 0.482980
Si Si3 0.984623 0.786722 0.129654
Si Si4 0.719450 0.891876 0.799177
Si Si5 0.144517 0.361206 0.994799
Si Si6 0.040259 0.656989 0.456031
Si Si7 0.584325 0.576600 0.130017
Si Si8 0.000000 0.000000 0.000000
O O1 0.634912 0.642765 0.778596
O O2 0.296550 0.620605 0.425064
O O3 0.819993 0.447874 0.497888
O O4 0.660830 0.592732 0.382357
O O5 0.419178 0.940346 0.629226
O O6 0.500000 0.000000 0.500000
O O7 0.110177 0.985364 0.236092
O O8 0.029762 0.143045 0.619951
O O9 0.298542 0.696960 0.094727
O O10 0.757867 0.872578 0.991785
O O11 0.896548 0.716964 0.045526
O O12 0.926528 0.766847 0.652206
O O13 0.833275 0.954022 0.893865
O O14 0.857727 0.491693 0.041578
O O15 0.189647 0.322829 0.768928
O O16 0.500000 0.500000 0.000000
#
# Coordination Sequence:
#
# PCOD9104850 Si02
#       8
#     2   2   2   2   2   2   2   1
#     4  11  23  38  65  92 136 179 221 265 329 395
#     4  10  23  46  70  96 128 169 223 281 339 396
#     4  11  23  44  67  98 139 176 215 286 338 386
#     4  11  25  44  69  96 133 175 224 277 340 396
#     4  11  22  41  65  97 134 178 226 263 329 405
#     4  11  23  41  63  98 137 177 219 276 327 389
#     4  10  20  39  62  91 135 174 213 272 326 386
#     4  10  24  46  70  94 126 168 226 280 330 402
#
# _framework density 25.413170999999998
#
# number of rings (size 3 to 8) (size 9 to 14) (size 15 to 20)
#    0.000    1.333    2.667    4.400    1.867    3.733 
#    4.800    0.000    0.000    0.000    0.000    0.000 
#    0.000    0.000    0.000    0.000    0.000    0.000 
#
# Total GULP energy -83720.830692 kJ/mol
# GULP energy per Si atom -5581.388713 kJ/mol
# Density = 2.535533 g / cm^3
# Si number density = 25.413171 Si / 1000 Ang^3
#
#
#
# Elastic Constant Matrix: (Units=GPa)
#
#
# Indices 1 2 3 4 5 6 
#
# 1 38.3503 14.0457 14.8509 6.2919 6.8213 3.5726
# 2 14.0457 90.9062 45.3593 -20.5691 0.8441 7.4948
# 3 14.8509 45.3593 219.5631 -28.1106 13.0323 -4.0551
# 4 6.2919 -20.5691 -28.1106 35.2395 1.5037 -7.0135
# 5 6.8213 0.8441 13.0323 1.5037 43.2454 4.2855
# 6 3.5726 7.4948 -4.0551 -7.0135 4.2855 24.3530
#
#
#
# Elastic Compliance Matrix: (Units=1/GPa)
#
#
# Indices 1 2 3 4 5 6 
#
# 1 0.032431 -0.006038 -0.002460 -0.012398 -0.003199 -0.006317
# 2 -0.006038 0.014718 -0.001723 0.007879 0.001094 -0.001854
# 3 -0.002460 -0.001723 0.005887 0.004931 -0.001883 0.003623
# 4 -0.012398 0.007879 0.004931 0.041745 -0.002390 0.012658
# 5 -0.003199 0.001094 -0.001883 -0.002390 0.024776 -0.005229
# 6 -0.006317 -0.001854 0.003623 0.012658 -0.005229 0.047729
#
#
# Mechanical properties :
#
#
# Convention : Reuss Voigt Hill
#
# Bulk Modulus (GPa) = 30.68023 55.25905 42.96964
# Shear Modulus (GPa) = 25.17723 38.87181 32.02452
#
# Velocity S-wave (km/s) = 3.15098 3.91524 3.55372
# Velocity P-wave (km/s) = 5.03359 6.49849 5.81237
#
# Compressibility (1/GPa) = 0.03259428
#
# Stress axis : x y z
#
# Youngs Moduli (GPa) = 30.83457 67.94243 169.87239
#
# Poissons Ratio (x) = 0.41024 0.41794
# Poissons Ratio (y) = 0.18618 0.29263
# Poissons Ratio (z) = 0.07586 0.11704
#
# Static dielectric constant tensor:
#      x y z
#    x 2.088850 0.026100 -0.059810 
#    y 0.026100 2.018800 -0.032590 
#    z -0.059810 -0.032590 2.012780 
# 
# From -- ./inp_files/221203.got.cif
#   From: 2010.05.17/outbox.cif.g08.bks.cpg/sg2_111_cif.got.tgz:221203.got - 2010.06.03 11:33:40.
