data_PCOD9104328
_publ_section_title
;
Structure prediction by ZEFSAII (Michael W. Deem and Ramdas Pophale) SiO2 
 PCOD9104328
Probable space group: P -1
;
_chemical_formula_sum "Si O2"
_cell_formula_units_Z 12
_cell_length_a 5.297971
_cell_length_b 5.078428
_cell_length_c 20.450497
_cell_angle_alpha 112.398251
_cell_angle_beta 61.360475
_cell_angle_gamma 90.241748
_cell_volume 435.551388
_symmetry_space_group_name_H-M "P -1"
_symmetry_group_IT_number 2
_symmetry_cell_setting 'triclinic'
loop_
_space_group_symop_operation_xyz
x,y,z
-x,-y,-z
loop_
_atom_site_type_symbol
_atom_site_label
_atom_site_fract_x
_atom_site_fract_y
_atom_site_fract_z
Si Si1 0.799936 0.754854 0.451605
Si Si2 0.304997 0.873167 0.739366
Si Si3 0.845747 0.742047 0.969977
Si Si4 0.912891 0.487446 0.800185
Si Si5 0.075139 0.181953 0.404893
Si Si6 0.393710 0.226529 0.870512
O O1 0.913290 0.773617 0.513916
O O2 0.820524 0.407446 0.418084
O O3 0.500000 0.000000 0.500000
O O4 0.014666 0.856881 0.381568
O O5 0.380866 0.920957 0.810713
O O6 0.152945 0.193173 0.761752
O O7 0.616439 0.773517 0.656093
O O8 0.075289 0.665374 0.747673
O O9 0.803505 0.712133 0.895511
O O10 0.076990 0.437464 0.922681
O O11 0.568484 0.767160 0.055554
O O12 0.000000 0.000000 0.000000
O O13 0.626616 0.356476 0.812985
#
# Coordination Sequence:
#
# PCOD9104328 Si02
#       6
#     2   2   2   2   2   2
#     4  10  21  41  69  99 125 172 222 261 326 398
#     4  11  24  42  60  93 131 167 211 268 332 389
#     4  10  20  39  60  86 122 164 217 275 322 382
#     4  11  24  39  63  89 124 171 219 263 327 397
#     4  10  22  41  65  95 138 168 212 280 322 387
#     4  10  23  39  59  89 123 166 216 270 326 386
#
# _framework density 27.551286000000001
#
# number of rings (size 3 to 8) (size 9 to 14) (size 15 to 20)
#    0.000    1.667    1.667    2.000    2.333    2.000 
#    0.000    3.333    0.000    0.000    0.000    0.000 
#    0.000    0.000    0.000    0.000    0.000    0.000 
#
# Total GULP energy -67081.961831 kJ/mol
# GULP energy per Si atom -5590.163486 kJ/mol
# Density = 2.748858 g / cm^3
# Si number density = 27.551286 Si / 1000 Ang^3
#
#
#
# Elastic Constant Matrix: (Units=GPa)
#
#
# Indices 1 2 3 4 5 6 
#
# 1 80.5121 42.1043 26.1617 0.1296 -19.1625 -2.0818
# 2 42.1043 198.3135 54.1242 -5.9329 -23.0691 -14.2680
# 3 26.1617 54.1242 127.0545 -35.1981 -20.6221 -5.0230
# 4 0.1296 -5.9329 -35.1981 37.9972 9.8435 -16.8398
# 5 -19.1625 -23.0691 -20.6221 9.8435 34.8345 8.5694
# 6 -2.0818 -14.2680 -5.0230 -16.8398 8.5694 61.2366
#
#
#
# Elastic Compliance Matrix: (Units=1/GPa)
#
#
# Indices 1 2 3 4 5 6 
#
# 1 0.016531 -0.002082 -0.003205 -0.007067 0.008636 -0.003338
# 2 -0.002082 0.006344 -0.002329 -0.001417 0.001941 0.000555
# 3 -0.003205 -0.002329 0.013604 0.014329 -0.000398 0.004460
# 4 -0.007067 -0.001417 0.014329 0.050542 -0.014699 0.016561
# 5 0.008636 0.001941 -0.000398 -0.014699 0.040887 -0.009051
# 6 -0.003338 0.000555 0.004460 0.016561 -0.009051 0.022533
#
#
# Mechanical properties :
#
#
# Convention : Reuss Voigt Hill
#
# Bulk Modulus (GPa) = 47.06683 72.29561 59.68122
# Shear Modulus (GPa) = 28.94282 45.71299 37.32791
#
# Velocity S-wave (km/s) = 3.24467 4.07774 3.68482
# Velocity P-wave (km/s) = 5.58190 6.96190 6.30974
#
# Compressibility (1/GPa) = 0.02124638
#
# Stress axis : x y z
#
# Youngs Moduli (GPa) = 60.49177 157.64101 73.50723
#
# Poissons Ratio (x) = 0.32822 0.23559
# Poissons Ratio (y) = 0.12595 0.17121
# Poissons Ratio (z) = 0.19388 0.36717
#
# Static dielectric constant tensor:
#      x y z
#    x 2.262450 -0.004580 0.098530 
#    y -0.004580 2.219420 -0.016270 
#    z 0.098530 -0.016270 2.228590 
# 
# From -- ./inp_files/11861.got.cif
#   From: 2010.05.17/outbox.cif.g08.bks.cpg/sg2_6_cif.got.tgz:11861.got - 2010.06.03 11:33:40.
