data_PCOD9104964
_publ_section_title
;
Structure prediction by ZEFSAII (Michael W. Deem and Ramdas Pophale) SiO2 
 PCOD9104964
Probable space group: P -1
;
_chemical_formula_sum "Si O2"
_cell_formula_units_Z 16
_cell_length_a 7.087891
_cell_length_b 17.346906
_cell_length_c 9.019755
_cell_angle_alpha 113.246769
_cell_angle_beta 114.548158
_cell_angle_gamma 38.451777
_cell_volume 622.576246
_symmetry_space_group_name_H-M "P -1"
_symmetry_group_IT_number 2
_symmetry_cell_setting 'triclinic'
loop_
_space_group_symop_operation_xyz
x,y,z
-x,-y,-z
loop_
_atom_site_type_symbol
_atom_site_label
_atom_site_fract_x
_atom_site_fract_y
_atom_site_fract_z
Si Si1 0.284831 0.678046 0.540127
Si Si2 0.779082 0.109714 0.890026
Si Si3 0.934212 0.931512 0.601167
Si Si4 0.846897 0.462527 0.744535
Si Si5 0.393640 0.185300 0.271945
Si Si6 0.728225 0.631438 0.428510
Si Si7 0.793704 0.920980 0.215315
Si Si8 0.157722 0.291138 0.970410
O O1 0.993750 0.821169 0.599116
O O2 0.545994 0.602432 0.696032
O O3 0.201358 0.610324 0.414356
O O4 0.429207 0.676587 0.435698
O O5 0.481167 0.230455 0.969827
O O6 0.957246 0.123436 0.858553
O O7 0.695813 0.059818 0.708865
O O8 0.000000 0.000000 0.000000
O O9 0.263059 0.879190 0.693001
O O10 0.861678 0.942566 0.413951
O O11 0.161886 0.405123 0.732523
O O12 0.896560 0.421900 0.899610
O O13 0.294247 0.265403 0.446094
O O14 0.463087 0.065445 0.184216
O O15 0.164434 0.285994 0.145473
O O16 0.000000 0.500000 0.500000
O O17 0.819656 0.813511 0.148764
#
# Coordination Sequence:
#
# PCOD9104964 Si02
#       8
#     2   2   2   2   2   2   2   2
#     4   9  19  40  58  86 117 149 200 253 292 331
#     4  11  23  39  60  86 129 157 196 244 304 360
#     4  10  20  39  63  85 118 165 197 245 300 350
#     4  10  21  36  64  87 114 156 205 243 288 362
#     4  10  21  38  60  86 131 152 191 254 305 349
#     4   9  20  39  63  84 110 160 203 244 291 352
#     4  11  23  40  59  89 124 165 194 246 298 357
#     4  12  24  38  59  96 124 159 196 246 306 358
#
# _framework density 25.699665
#
# number of rings (size 3 to 8) (size 9 to 14) (size 15 to 20)
#    0.000    1.750    3.750    1.875    5.250    1.500 
#    0.000    5.625    0.000    6.750    0.000    0.000 
#    0.000    0.000    0.000    0.000    0.000    0.000 
#
# Total GULP energy -89434.338561 kJ/mol
# GULP energy per Si atom -5589.646160 kJ/mol
# Density = 2.564117 g / cm^3
# Si number density = 25.699665 Si / 1000 Ang^3
#
#
#
# Elastic Constant Matrix: (Units=GPa)
#
#
# Indices 1 2 3 4 5 6 
#
# 1 77.2129 13.8318 15.4071 7.2079 -11.9498 11.9639
# 2 13.8318 81.0427 17.6706 -11.0638 -2.7374 22.8487
# 3 15.4071 17.6706 102.9260 -20.8190 -4.1836 5.6036
# 4 7.2079 -11.0638 -20.8190 54.1345 8.2703 2.3211
# 5 -11.9498 -2.7374 -4.1836 8.2703 23.2546 -1.9842
# 6 11.9639 22.8487 5.6036 2.3211 -1.9842 28.0891
#
#
#
# Elastic Compliance Matrix: (Units=1/GPa)
#
#
# Indices 1 2 3 4 5 6 
#
# 1 0.016171 -0.001320 -0.002522 -0.004578 0.008962 -0.004299
# 2 -0.001320 0.017167 -0.001259 0.004007 -0.001468 -0.013585
# 3 -0.002522 -0.001259 0.011225 0.004590 -0.001108 -0.000599
# 4 -0.004578 0.004007 0.004590 0.023368 -0.009779 -0.004847
# 5 0.008962 -0.001468 -0.001108 -0.009779 0.050884 0.002001
# 6 -0.004299 -0.013585 -0.000599 -0.004847 0.002001 0.049144
#
#
# Mechanical properties :
#
#
# Convention : Reuss Voigt Hill
#
# Bulk Modulus (GPa) = 29.10248 39.44451 34.27349
# Shear Modulus (GPa) = 26.36915 35.38045 30.87480
#
# Velocity S-wave (km/s) = 3.20668 3.71440 3.46984
# Velocity P-wave (km/s) = 5.00590 5.81182 5.42385
#
# Compressibility (1/GPa) = 0.03436134
#
# Stress axis : x y z
#
# Youngs Moduli (GPa) = 61.83765 58.25266 89.08340
#
# Poissons Ratio (x) = 0.07691 0.22463
# Poissons Ratio (y) = 0.08164 0.11217
# Poissons Ratio (z) = 0.15593 0.07335
#
# Static dielectric constant tensor:
#      x y z
#    x 2.088730 0.052090 0.001650 
#    y 0.052090 2.062010 -0.033020 
#    z 0.001650 -0.033020 2.054600 
# 
# From -- ./inp_files/217876.got.cif
#   From: 2010.05.17/outbox.cif.g08.bks.cpg/sg2_109_cif.got.tgz:217876.got - 2010.06.03 11:33:40.
