data_PCOD9104079
_publ_section_title
;
Structure prediction by ZEFSAII (Michael W. Deem and Ramdas Pophale) SiO2 
 PCOD9104079
Probable space group: P -1
;
_chemical_formula_sum "Si O2"
_cell_formula_units_Z 15
_cell_length_a 5.058789
_cell_length_b 13.157793
_cell_length_c 7.898921
_cell_angle_alpha 77.576820
_cell_angle_beta 85.436383
_cell_angle_gamma 77.479072
_cell_volume 500.950391
_symmetry_space_group_name_H-M "P -1"
_symmetry_group_IT_number 2
_symmetry_cell_setting 'triclinic'
loop_
_space_group_symop_operation_xyz
x,y,z
-x,-y,-z
loop_
_atom_site_type_symbol
_atom_site_label
_atom_site_fract_x
_atom_site_fract_y
_atom_site_fract_z
Si Si1 0.685154 0.879453 0.459649
Si Si2 0.500000 0.500000 0.000000
Si Si3 0.831783 0.060927 0.226963
Si Si4 0.331091 0.878259 0.139616
Si Si5 0.694370 0.402955 0.287733
Si Si6 0.151798 0.701340 0.370907
Si Si7 0.185561 0.241298 0.198687
Si Si8 0.106258 0.391774 0.854215
O O1 0.532687 0.875641 0.289614
O O2 0.977196 0.801323 0.441070
O O3 0.598033 0.820363 0.651956
O O4 0.734832 0.999777 0.415724
O O5 0.509235 0.383869 0.151061
O O6 0.816202 0.449424 0.921008
O O7 0.987518 0.155415 0.219006
O O8 0.620578 0.091057 0.068461
O O9 0.068594 0.966605 0.173493
O O10 0.272084 0.759473 0.192457
O O11 0.680953 0.527510 0.183615
O O12 0.636600 0.371919 0.489388
O O13 0.997171 0.342361 0.265743
O O14 0.954368 0.632126 0.326868
O O15 0.208468 0.284850 0.992153
#
# Coordination Sequence:
#
# PCOD9104079 Si02
#       8
#     2   1   2   2   2   2   2   2
#     4  10  23  37  59  88 116 145 195 237 276 342
#     4   8  22  34  58  84 116 142 190 238 276 332
#     4  10  21  40  57  84 119 149 187 240 284 334
#     4  10  21  38  60  86 114 149 193 233 281 343
#     4   9  21  38  56  84 117 146 188 239 275 337
#     4  10  20  39  61  83 116 154 187 229 288 337
#     4  11  21  38  60  82 114 155 187 231 293 330
#     4  10  20  39  57  83 114 151 186 232 285 334
#
# _framework density 29.943086999999998
#
# number of rings (size 3 to 8) (size 9 to 14) (size 15 to 20)
#    0.800    1.333    1.333    1.600    1.867    1.600 
#    2.400    0.000    0.000    4.800    0.000    0.000 
#    0.000    0.000    0.000    0.000    0.000    0.000 
#
# Total GULP energy -83795.417557 kJ/mol
# GULP energy per Si atom -5586.361170 kJ/mol
# Density = 2.987494 g / cm^3
# Si number density = 29.943087 Si / 1000 Ang^3
#
#
#
# Elastic Constant Matrix: (Units=GPa)
#
#
# Indices 1 2 3 4 5 6 
#
# 1 109.5404 16.6912 45.7341 -19.3685 17.6062 0.9518
# 2 16.6912 100.7112 59.8255 -34.3224 16.2181 2.1134
# 3 45.7341 59.8255 275.7917 -50.1139 33.0269 2.8925
# 4 -19.3685 -34.3224 -50.1139 64.0445 0.8269 20.6971
# 5 17.6062 16.2181 33.0269 0.8269 53.7444 -0.9291
# 6 0.9518 2.1134 2.8925 20.6971 -0.9291 39.5244
#
#
#
# Elastic Compliance Matrix: (Units=1/GPa)
#
#
# Indices 1 2 3 4 5 6 
#
# 1 0.010555 0.000511 -0.000803 0.003581 -0.003211 -0.002174
# 2 0.000511 0.014204 -0.001037 0.008743 -0.004044 -0.005369
# 3 -0.000803 -0.001037 0.005046 0.003971 -0.002628 -0.002436
# 4 0.003581 0.008743 0.003971 0.029980 -0.007002 -0.016708
# 5 -0.003211 -0.004044 -0.002628 -0.007002 0.022682 0.004686
# 6 -0.002174 -0.005369 -0.002436 -0.016708 0.004686 0.034678
#
#
# Mechanical properties :
#
#
# Convention : Reuss Voigt Hill
#
# Bulk Modulus (GPa) = 36.83643 81.17166 59.00404
# Shear Modulus (GPa) = 38.80459 55.71548 47.26004
#
# Velocity S-wave (km/s) = 3.60383 4.31828 3.97713
# Velocity P-wave (km/s) = 5.44478 7.21324 6.39048
#
# Compressibility (1/GPa) = 0.02714704
#
# Stress axis : x y z
#
# Youngs Moduli (GPa) = 94.74459 70.40290 198.18595
#
# Poissons Ratio (x) = -0.03598 0.15915
# Poissons Ratio (y) = -0.04841 0.20545
# Poissons Ratio (z) = 0.07608 0.07298
#
# Static dielectric constant tensor:
#      x y z
#    x 2.432890 0.042840 -0.107050 
#    y 0.042840 2.400170 0.083430 
#    z -0.107050 0.083430 2.512050 
# 
# From -- ./inp_files/135015.got.cif
#   From: 2010.05.17/outbox.cif.g08.bks.cpg/sg2_68_cif.got.tgz:135015.got - 2010.06.03 11:33:40.
