data_PCOD9104434
_publ_section_title
;
Structure prediction by ZEFSAII (Michael W. Deem and Ramdas Pophale) SiO2 
 PCOD9104434
Probable space group: P -1
;
_chemical_formula_sum "Si O2"
_cell_formula_units_Z 15
_cell_length_a 9.819315
_cell_length_b 7.712992
_cell_length_c 9.739812
_cell_angle_alpha 77.779803
_cell_angle_beta 114.758832
_cell_angle_gamma 72.977869
_cell_volume 591.141228
_symmetry_space_group_name_H-M "P -1"
_symmetry_group_IT_number 2
_symmetry_cell_setting 'triclinic'
loop_
_space_group_symop_operation_xyz
x,y,z
-x,-y,-z
loop_
_atom_site_type_symbol
_atom_site_label
_atom_site_fract_x
_atom_site_fract_y
_atom_site_fract_z
Si Si1 0.239659 0.250769 0.311179
Si Si2 0.227057 0.759278 0.179785
Si Si3 0.129514 0.772502 0.584754
Si Si4 0.984393 0.385806 0.688394
Si Si5 0.225398 0.155828 0.032313
Si Si6 0.500000 0.000000 0.000000
Si Si7 0.661513 0.315818 0.050597
Si Si8 0.597724 0.216393 0.498370
O O1 0.109468 0.390133 0.342253
O O2 0.171076 0.289149 0.121287
O O3 0.406597 0.280810 0.380295
O O4 0.302211 0.021313 0.409337
O O5 0.099302 0.717077 0.226698
O O6 0.381301 0.708810 0.355459
O O7 0.169777 0.984916 0.072976
O O8 0.278600 0.648132 0.078006
O O9 0.049458 0.661559 0.471871
O O10 0.192384 0.717724 0.774798
O O11 0.299307 0.731131 0.580836
O O12 0.000000 0.000000 0.500000
O O13 0.171930 0.274166 0.844391
O O14 0.424335 0.052993 0.115865
O O15 0.608512 0.135055 0.044287
O O16 0.500000 0.500000 0.000000
#
# Coordination Sequence:
#
# PCOD9104434 Si02
#       8
#     2   2   2   2   2   1   2   2
#     4  10  21  37  63  95 121 163 217 271 315 385
#     4   9  21  38  64  90 122 166 211 265 321 391
#     4  11  24  44  64  92 132 174 212 270 336 394
#     4  11  23  38  67  94 129 162 222 273 317 386
#     4  10  20  39  60  95 126 172 211 262 332 390
#     4  10  22  42  64  88 136 174 208 268 330 386
#     4  11  25  42  67 100 131 174 222 266 332 397
#     4   9  21  41  65  87 125 167 212 261 332 385
#
# _framework density 25.374645999999998
#
# number of rings (size 3 to 8) (size 9 to 14) (size 15 to 20)
#    0.000    1.867    0.000    3.200    5.600    4.267 
#    2.400    0.667    0.000    0.000    0.000    0.000 
#    0.000    0.000    0.000    0.000    0.000    0.000 
#
# Total GULP energy -83691.195289 kJ/mol
# GULP energy per Si atom -5579.413019 kJ/mol
# Density = 2.531689 g / cm^3
# Si number density = 25.374646 Si / 1000 Ang^3
#
#
#
# Elastic Constant Matrix: (Units=GPa)
#
#
# Indices 1 2 3 4 5 6 
#
# 1 86.6441 -0.6948 10.4286 11.3982 -27.4170 14.3640
# 2 -0.6948 123.6949 55.5709 18.2871 -3.9504 -6.3792
# 3 10.4286 55.5709 140.4655 26.9806 -10.3788 -4.8840
# 4 11.3982 18.2871 26.9806 42.8745 -15.3939 -5.4490
# 5 -27.4170 -3.9504 -10.3788 -15.3939 28.5626 11.0465
# 6 14.3640 -6.3792 -4.8840 -5.4490 11.0465 33.0522
#
#
#
# Elastic Compliance Matrix: (Units=1/GPa)
#
#
# Indices 1 2 3 4 5 6 
#
# 1 0.026219 -0.000063 -0.000739 0.003381 0.035544 -0.022838
# 2 -0.000063 0.010095 -0.003592 -0.002527 -0.001986 0.001692
# 3 -0.000739 -0.003592 0.009403 -0.004215 -0.000213 0.000394
# 4 0.003381 -0.002527 -0.004215 0.033098 0.020775 -0.004067
# 5 0.035544 -0.001986 -0.000213 0.020775 0.097370 -0.044979
# 6 -0.022838 0.001692 0.000394 -0.004067 -0.044979 0.054927
#
#
# Mechanical properties :
#
#
# Convention : Reuss Voigt Hill
#
# Bulk Modulus (GPa) = 27.07922 53.49043 40.28483
# Shear Modulus (GPa) = 19.82494 39.93119 29.87807
#
# Velocity S-wave (km/s) = 2.79819 3.97125 3.43516
# Velocity P-wave (km/s) = 4.59725 6.49259 5.62532
#
# Compressibility (1/GPa) = 0.03692868
#
# Stress axis : x y z
#
# Youngs Moduli (GPa) = 38.14098 99.05856 106.35436
#
# Poissons Ratio (x) = 0.00627 0.07856
# Poissons Ratio (y) = 0.00242 0.38199
# Poissons Ratio (z) = 0.02817 0.35578
#
# Static dielectric constant tensor:
#      x y z
#    x 2.056620 -0.017580 0.098680 
#    y -0.017580 2.130850 -0.091560 
#    z 0.098680 -0.091560 2.027720 
# 
# From -- ./inp_files/244730.got.cif
#   From: 2010.05.17/outbox.cif.g08.bks.cpg/sg2_123_cif.got.tgz:244730.got - 2010.06.03 11:33:40.
