data_PCOD9104033
_publ_section_title
;
Structure prediction by ZEFSAII (Michael W. Deem and Ramdas Pophale) SiO2 
 PCOD9104033
Probable space group: P -1
;
_chemical_formula_sum "Si O2"
_cell_formula_units_Z 14
_cell_length_a 8.368938
_cell_length_b 14.428416
_cell_length_c 15.154549
_cell_angle_alpha 30.322275
_cell_angle_beta 103.728353
_cell_angle_gamma 125.612839
_cell_volume 573.036234
_symmetry_space_group_name_H-M "P -1"
_symmetry_group_IT_number 2
_symmetry_cell_setting 'triclinic'
loop_
_space_group_symop_operation_xyz
x,y,z
-x,-y,-z
loop_
_atom_site_type_symbol
_atom_site_label
_atom_site_fract_x
_atom_site_fract_y
_atom_site_fract_z
Si Si1 0.270797 0.399577 0.606698
Si Si2 0.020819 0.708027 0.992090
Si Si3 0.277959 0.111549 0.092513
Si Si4 0.250535 0.877679 0.614158
Si Si5 0.438672 0.905688 0.169396
Si Si6 0.591016 0.402262 0.335933
Si Si7 0.770062 0.839639 0.765549
O O1 0.500000 0.500000 0.500000
O O2 0.334351 0.496339 0.636964
O O3 0.230480 0.565648 0.423119
O O4 0.003677 0.065184 0.833144
O O5 0.954377 0.462855 0.132383
O O6 0.826530 0.543138 0.187102
O O7 0.960684 0.840788 0.819894
O O8 0.306115 0.948980 0.868889
O O9 0.355168 0.012194 0.123157
O O10 0.256281 0.050761 0.242799
O O11 0.473118 0.448795 0.830664
O O12 0.500000 0.000000 0.500000
O O13 0.364256 0.062919 0.566261
O O14 0.168820 0.980121 0.457735
O O15 0.500000 0.000000 0.000000
O O16 0.500000 0.500000 0.000000
#
# Coordination Sequence:
#
# PCOD9104033 Si02
#       7
#     2   2   2   2   2   2   2
#     4  12  25  43  69  97 132 179 229 283 347 408
#     4  10  23  43  70 101 141 181 225 283 339 412
#     4  11  24  42  69  97 134 181 221 287 341 405
#     4  10  20  38  74 102 135 179 226 280 344 407
#     4  12  27  45  63 100 139 178 237 283 334 412
#     4  10  21  43  70  99 133 175 224 277 350 402
#     4  11  20  41  71 102 137 179 227 278 348 407
#
# _framework density 24.431263000000001
#
# number of rings (size 3 to 8) (size 9 to 14) (size 15 to 20)
#    0.000    1.143    4.286    4.286    6.000    0.000 
#    2.571    5.000    0.000    0.000    0.000    0.000 
#    0.000    0.000    0.000    0.000    0.000    0.000 
#
# Total GULP energy -78363.691900 kJ/mol
# GULP energy per Si atom -5597.406564 kJ/mol
# Density = 2.437566 g / cm^3
# Si number density = 24.431263 Si / 1000 Ang^3
#
#
#
# Elastic Constant Matrix: (Units=GPa)
#
#
# Indices 1 2 3 4 5 6 
#
# 1 125.8303 43.2483 29.8796 -8.3838 -2.9106 -12.2342
# 2 43.2483 147.8622 25.2189 -4.9407 2.0937 -20.3957
# 3 29.8796 25.2189 86.7835 -9.9192 22.9088 -8.0432
# 4 -8.3838 -4.9407 -9.9192 44.5023 -7.1780 9.4893
# 5 -2.9106 2.0937 22.9088 -7.1780 34.8899 -1.3047
# 6 -12.2342 -20.3957 -8.0432 9.4893 -1.3047 52.1155
#
#
#
# Elastic Compliance Matrix: (Units=1/GPa)
#
#
# Indices 1 2 3 4 5 6 
#
# 1 0.009744 -0.002166 -0.003431 0.001226 0.003477 0.000774
# 2 -0.002166 0.007969 -0.001467 -0.000320 0.000330 0.002450
# 3 -0.003431 -0.001467 0.016082 0.000932 -0.010541 0.000669
# 4 0.001226 -0.000320 0.000932 0.024442 0.004387 -0.004034
# 5 0.003477 0.000330 -0.010541 0.004387 0.036734 -0.000561
# 6 0.000774 0.002450 0.000669 -0.004034 -0.000561 0.021152
#
#
# Mechanical properties :
#
#
# Convention : Reuss Voigt Hill
#
# Bulk Modulus (GPa) = 50.84752 61.90773 56.37762
# Shear Modulus (GPa) = 36.54773 43.77684 40.16228
#
# Velocity S-wave (km/s) = 3.87194 4.23760 4.05889
# Velocity P-wave (km/s) = 6.39115 7.02407 6.71507
#
# Compressibility (1/GPa) = 0.01966664
#
# Stress axis : x y z
#
# Youngs Moduli (GPa) = 102.62789 125.47891 62.18316
#
# Poissons Ratio (x) = 0.27182 0.21337
# Poissons Ratio (y) = 0.22232 0.09119
# Poissons Ratio (z) = 0.35215 0.18402
#
# Static dielectric constant tensor:
#      x y z
#    x 1.942340 -0.007710 -0.008340 
#    y -0.007710 1.955340 0.044790 
#    z -0.008340 0.044790 1.967610 
# 
# From -- ./inp_files/429150.got.cif
#   From: 2010.05.17/outbox.cif.g08.bks.cpg/sg2_215_cif.got.tgz:429150.got - 2010.06.03 11:33:40.
