data_PCOD9104313
_publ_section_title
;
Structure prediction by ZEFSAII (Michael W. Deem and Ramdas Pophale) SiO2 
 PCOD9104313
Probable space group: P -1
;
_chemical_formula_sum "Si O2"
_cell_formula_units_Z 15
_cell_length_a 8.324960
_cell_length_b 10.909247
_cell_length_c 12.634107
_cell_angle_alpha 89.947673
_cell_angle_beta 123.773534
_cell_angle_gamma 55.296390
_cell_volume 694.396274
_symmetry_space_group_name_H-M "P -1"
_symmetry_group_IT_number 2
_symmetry_cell_setting 'triclinic'
loop_
_space_group_symop_operation_xyz
x,y,z
-x,-y,-z
loop_
_atom_site_type_symbol
_atom_site_label
_atom_site_fract_x
_atom_site_fract_y
_atom_site_fract_z
Si Si1 0.728978 0.520879 0.311409
Si Si2 0.736371 0.560727 0.549344
Si Si3 0.220790 0.728749 0.817904
Si Si4 0.358159 0.947311 0.387308
Si Si5 0.500000 0.000000 0.000000
Si Si6 0.694811 0.088980 0.876787
Si Si7 0.961545 0.392146 0.837813
Si Si8 0.204695 0.533544 0.989219
O O1 0.698004 0.511088 0.424220
O O2 0.757666 0.380716 0.265190
O O3 0.487352 0.710626 0.186245
O O4 0.992370 0.481501 0.375358
O O5 0.506405 0.760633 0.478386
O O6 0.777933 0.461274 0.667637
O O7 0.512289 0.659029 0.921636
O O8 0.196391 0.657350 0.914325
O O9 0.956757 0.920578 0.705665
O O10 0.369868 0.943682 0.262558
O O11 0.500000 0.000000 0.500000
O O12 0.610848 0.035652 0.939930
O O13 0.231309 0.204204 0.911310
O O14 0.000000 0.000000 0.000000
O O15 0.847250 0.404629 0.909820
O O16 0.999547 0.522521 0.871101
#
# Coordination Sequence:
#
# PCOD9104313 Si02
#       8
#     2   2   2   2   1   2   2   2
#     4  10  20  39  63  87 125 166 211 257 318 389
#     4  10  20  39  60  84 126 169 207 257 316 387
#     4  11  21  38  65  94 118 165 213 263 317 390
#     4  11  22  38  67  96 125 176 222 259 324 404
#     4  12  24  38  68 100 128 170 218 268 330 386
#     4  11  26  42  68 101 133 167 221 279 325 387
#     4  11  22  42  60  93 123 167 206 268 321 387
#     4  10  23  38  62  90 130 154 207 267 329 370
#
# _framework density 21.601500000000001
#
# number of rings (size 3 to 8) (size 9 to 14) (size 15 to 20)
#    0.000    1.333    4.000    0.800    7.467    1.067 
#    0.000    1.333    5.867    0.000    0.000    0.000 
#    0.000    0.000    0.000    0.000    0.000    0.000 
#
# Total GULP energy -83571.456193 kJ/mol
# GULP energy per Si atom -5571.430413 kJ/mol
# Density = 2.155233 g / cm^3
# Si number density = 21.601500 Si / 1000 Ang^3
#
#
#
# Elastic Constant Matrix: (Units=GPa)
#
#
# Indices 1 2 3 4 5 6 
#
# 1 77.6910 33.3359 44.4905 -2.2961 -13.2950 -19.2820
# 2 33.3359 121.8516 71.6568 -14.5656 -17.1949 -32.2044
# 3 44.4905 71.6568 124.1200 -10.2655 -25.9881 -12.3228
# 4 -2.2961 -14.5656 -10.2655 44.0101 -14.9053 16.5219
# 5 -13.2950 -17.1949 -25.9881 -14.9053 34.2689 -0.8954
# 6 -19.2820 -32.2044 -12.3228 16.5219 -0.8954 26.3014
#
#
#
# Elastic Compliance Matrix: (Units=1/GPa)
#
#
# Indices 1 2 3 4 5 6 
#
# 1 0.020911 0.003721 -0.007794 -0.006572 0.001744 0.020422
# 2 0.003721 0.019298 -0.009854 -0.003986 0.002556 0.024331
# 3 -0.007794 -0.009854 0.017705 0.009117 0.009035 -0.014904
# 4 -0.006572 -0.003986 0.009117 0.041342 0.019543 -0.030732
# 5 0.001744 0.002556 0.009035 0.019543 0.046438 -0.002054
# 6 0.020422 0.024331 -0.014904 -0.030732 -0.002054 0.095037
#
#
# Mechanical properties :
#
#
# Convention : Reuss Voigt Hill
#
# Bulk Modulus (GPa) = 33.26698 69.18103 51.22401
# Shear Modulus (GPa) = 17.94638 32.52805 25.23722
#
# Velocity S-wave (km/s) = 2.88548 3.88470 3.42176
# Velocity P-wave (km/s) = 5.15122 7.22612 6.27502
#
# Compressibility (1/GPa) = 0.03005983
#
# Stress axis : x y z
#
# Youngs Moduli (GPa) = 47.82108 51.81809 56.47967
#
# Poissons Ratio (x) = -0.19280 0.44023
# Poissons Ratio (y) = -0.17793 0.55654
# Poissons Ratio (z) = 0.37274 0.51060
#
# Static dielectric constant tensor:
#      x y z
#    x 1.803620 -0.013120 0.039500 
#    y -0.013120 1.770270 0.033000 
#    z 0.039500 0.033000 1.825410 
# 
# From -- ./inp_files/392623.got.cif
#   From: 2010.05.17/outbox.cif.g08.bks.cpg/sg2_197_cif.got.tgz:392623.got - 2010.06.03 11:33:40.
