data_PCOD9104756
_publ_section_title
;
Structure prediction by ZEFSAII (Michael W. Deem and Ramdas Pophale) SiO2 
 PCOD9104756
Probable space group: P -1
;
_chemical_formula_sum "Si O2"
_cell_formula_units_Z 16
_cell_length_a 7.204075
_cell_length_b 12.511592
_cell_length_c 10.324683
_cell_angle_alpha 94.285003
_cell_angle_beta 137.154888
_cell_angle_gamma 69.428367
_cell_volume 567.500239
_symmetry_space_group_name_H-M "P -1"
_symmetry_group_IT_number 2
_symmetry_cell_setting 'triclinic'
loop_
_space_group_symop_operation_xyz
x,y,z
-x,-y,-z
loop_
_atom_site_type_symbol
_atom_site_label
_atom_site_fract_x
_atom_site_fract_y
_atom_site_fract_z
Si Si1 0.164142 0.536435 0.467249
Si Si2 0.176222 0.832183 0.721161
Si Si3 0.817397 0.385402 0.889079
Si Si4 0.440379 0.368485 0.915194
Si Si5 0.213952 0.040979 0.260379
Si Si6 0.373683 0.233516 0.272589
Si Si7 0.622089 0.848971 0.269360
Si Si8 0.098420 0.769642 0.318403
O O1 0.522688 0.458007 0.652579
O O2 0.154862 0.664955 0.444539
O O3 0.000000 0.500000 0.500000
O O4 0.913143 0.545490 0.231996
O O5 0.376662 0.847047 0.711275
O O6 0.067933 0.931988 0.786716
O O7 0.878508 0.830080 0.506718
O O8 0.379823 0.704378 0.876924
O O9 0.628999 0.418285 0.931103
O O10 0.941589 0.267009 0.848737
O O11 0.153180 0.362689 0.111959
O O12 0.433652 0.265700 0.804208
O O13 0.162346 0.171263 0.197832
O O14 0.500000 0.000000 0.500000
O O15 0.321246 0.950387 0.187888
O O16 0.585390 0.222833 0.503637
O O17 0.782923 0.868400 0.223743
#
# Coordination Sequence:
#
# PCOD9104756 Si02
#       8
#     2   2   2   2   2   2   2   2
#     4   9  20  40  63  90 124 161 204 251 307 366
#     4  10  21  39  62  85 125 162 201 257 302 355
#     4  11  22  38  64  90 126 162 201 257 310 357
#     4  10  20  39  62  88 122 165 204 252 306 365
#     4  10  22  40  62  91 124 164 206 258 306 359
#     4  11  23  41  62  93 127 160 210 252 307 366
#     4   9  21  39  59  86 120 160 210 245 307 359
#     4  10  22  38  63  92 122 163 202 254 307 366
#
# _framework density 28.193822999999998
#
# number of rings (size 3 to 8) (size 9 to 14) (size 15 to 20)
#    0.000    2.000    1.250    1.875    3.500    5.500 
#    0.000    3.750    0.000   17.250    0.000    0.000 
#    0.000    0.000    0.000    0.000    0.000    0.000 
#
# Total GULP energy -89178.322879 kJ/mol
# GULP energy per Si atom -5573.645180 kJ/mol
# Density = 2.812965 g / cm^3
# Si number density = 28.193823 Si / 1000 Ang^3
#
#
#
# Elastic Constant Matrix: (Units=GPa)
#
#
# Indices 1 2 3 4 5 6 
#
# 1 107.5949 24.5755 31.6597 4.4154 18.2210 -16.8818
# 2 24.5755 62.2189 12.5900 15.1820 1.3396 -4.3679
# 3 31.6597 12.5900 136.2739 -1.4998 31.0990 -22.1426
# 4 4.4154 15.1820 -1.4998 39.6456 -1.8752 -4.1983
# 5 18.2210 1.3396 31.0990 -1.8752 58.2512 -3.5470
# 6 -16.8818 -4.3679 -22.1426 -4.1983 -3.5470 46.6299
#
#
#
# Elastic Compliance Matrix: (Units=1/GPa)
#
#
# Indices 1 2 3 4 5 6 
#
# 1 0.011500 -0.004144 -0.001178 0.000459 -0.002672 0.003054
# 2 -0.004144 0.019640 -0.001363 -0.007140 0.001291 -0.000853
# 3 -0.001178 -0.001363 0.009331 0.001189 -0.004321 0.003655
# 4 0.000459 -0.007140 0.001189 0.028253 0.000456 0.002640
# 5 -0.002672 0.001291 -0.004321 0.000456 0.020214 -0.001320
# 6 0.003054 -0.000853 0.003655 0.002640 -0.001320 0.024344
#
#
# Mechanical properties :
#
#
# Convention : Reuss Voigt Hill
#
# Bulk Modulus (GPa) = 36.90002 49.30425 43.10213
# Shear Modulus (GPa) = 36.84984 44.72282 40.78633
#
# Velocity S-wave (km/s) = 3.61919 3.98711 3.80760
# Velocity P-wave (km/s) = 5.53002 6.22267 5.88654
#
# Compressibility (1/GPa) = 0.02710026
#
# Stress axis : x y z
#
# Youngs Moduli (GPa) = 86.95548 50.91748 107.17206
#
# Poissons Ratio (x) = 0.21100 0.12622
# Poissons Ratio (y) = 0.36035 0.14612
# Poissons Ratio (z) = 0.10241 0.06942
#
# Static dielectric constant tensor:
#      x y z
#    x 2.244520 0.053240 0.043310 
#    y 0.053240 2.418300 -0.037800 
#    z 0.043310 -0.037800 2.200580 
# 
# From -- ./inp_files/399151.got.cif
#   From: 2010.05.17/outbox.cif.g08.bks.cpg/sg2_200_cif.got.tgz:399151.got - 2010.06.03 11:33:40.
