data_PCOD9104491
_publ_section_title
;
Structure prediction by ZEFSAII (Michael W. Deem and Ramdas Pophale) SiO2 
 PCOD9104491
Probable space group: P -1
;
_chemical_formula_sum "Si O2"
_cell_formula_units_Z 14
_cell_length_a 14.397044
_cell_length_b 10.070230
_cell_length_c 8.444125
_cell_angle_alpha 106.885375
_cell_angle_beta 71.901120
_cell_angle_gamma 152.323150
_cell_volume 540.179368
_symmetry_space_group_name_H-M "P -1"
_symmetry_group_IT_number 2
_symmetry_cell_setting 'triclinic'
loop_
_space_group_symop_operation_xyz
x,y,z
-x,-y,-z
loop_
_atom_site_type_symbol
_atom_site_label
_atom_site_fract_x
_atom_site_fract_y
_atom_site_fract_z
Si Si1 0.961619 0.371732 0.140255
Si Si2 0.694782 0.469204 0.387893
Si Si3 0.305181 0.971567 0.282507
Si Si4 0.907143 0.096868 0.834448
Si Si5 0.131722 0.241330 0.146925
Si Si6 0.252422 0.147080 0.630443
Si Si7 0.480037 0.237133 0.747981
O O1 0.132292 0.641006 0.259358
O O2 0.733427 0.104530 0.229084
O O3 0.000000 0.500000 0.000000
O O4 0.989650 0.251250 0.014294
O O5 0.910899 0.672554 0.307304
O O6 0.709501 0.652406 0.392938
O O7 0.608639 0.343360 0.565633
O O8 0.529446 0.196373 0.264510
O O9 0.268651 0.018189 0.162221
O O10 0.281643 0.058541 0.461769
O O11 0.831727 0.847915 0.789307
O O12 0.361094 0.575714 0.127016
O O13 0.976867 0.142777 0.291327
O O14 0.000000 0.000000 0.000000
O O15 0.395459 0.283897 0.750466
#
# Coordination Sequence:
#
# PCOD9104491 Si02
#       7
#     2   2   2   2   2   2   2
#     4  10  24  41  59  85 124 171 206 243 294 353
#     4  10  21  37  67  97 118 155 201 250 310 363
#     4  10  20  39  61  85 122 162 203 243 293 359
#     4  10  21  40  60  89 126 156 195 255 307 352
#     4  11  23  37  62  94 122 155 199 252 312 366
#     4  10  21  38  64  98 123 150 198 256 310 361
#     4  11  22  41  62  89 125 160 202 250 301 358
#
# _framework density 25.917318000000002
#
# number of rings (size 3 to 8) (size 9 to 14) (size 15 to 20)
#    0.000    1.714    0.000    5.143    0.000   12.000 
#    0.000   10.714    0.000    0.000    0.000    0.000 
#    0.000    0.000    0.000    0.000    0.000    0.000 
#
# Total GULP energy -78186.205964 kJ/mol
# GULP energy per Si atom -5584.728997 kJ/mol
# Density = 2.585833 g / cm^3
# Si number density = 25.917318 Si / 1000 Ang^3
#
#
#
# Elastic Constant Matrix: (Units=GPa)
#
#
# Indices 1 2 3 4 5 6 
#
# 1 32.0540 17.2064 -2.2594 4.5164 -1.1086 15.2735
# 2 17.2064 165.0279 44.1339 -2.2789 6.4979 30.4988
# 3 -2.2594 44.1339 68.0237 -7.9224 -0.4173 7.2513
# 4 4.5164 -2.2789 -7.9224 54.3327 6.0880 6.6967
# 5 -1.1086 6.4979 -0.4173 6.0880 29.0928 5.1412
# 6 15.2735 30.4988 7.2513 6.6967 5.1412 47.4870
#
#
#
# Elastic Compliance Matrix: (Units=1/GPa)
#
#
# Indices 1 2 3 4 5 6 
#
# 1 0.039184 -0.003413 0.004537 -0.001868 0.004717 -0.011351
# 2 -0.003413 0.008525 -0.005227 0.000486 -0.001597 -0.003475
# 3 0.004537 -0.005227 0.018650 0.002138 0.001409 -0.001404
# 4 -0.001868 0.000486 0.002138 0.019616 -0.003832 -0.002389
# 5 0.004717 -0.001597 0.001409 -0.003832 0.036458 -0.004114
# 6 -0.011351 -0.003475 -0.001404 -0.002389 -0.004114 0.027938
#
#
# Mechanical properties :
#
#
# Convention : Reuss Voigt Hill
#
# Bulk Modulus (GPa) = 17.19568 42.58528 29.89048
# Shear Modulus (GPa) = 28.09578 39.91747 34.00662
#
# Velocity S-wave (km/s) = 3.29607 3.92878 3.62625
# Velocity P-wave (km/s) = 4.59724 6.08665 5.39360
#
# Compressibility (1/GPa) = 0.05815414
#
# Stress axis : x y z
#
# Youngs Moduli (GPa) = 25.52042 117.29998 53.61878
#
# Poissons Ratio (x) = 0.40029 -0.24326
# Poissons Ratio (y) = 0.08709 0.28027
# Poissons Ratio (z) = -0.11578 0.61315
#
# Static dielectric constant tensor:
#      x y z
#    x 2.250260 -0.050180 0.180990 
#    y -0.050180 2.061270 0.044250 
#    z 0.180990 0.044250 2.219050 
# 
# From -- ./inp_files/333509.got.cif
#   From: 2010.05.17/outbox.cif.g08.bks.cpg/sg2_167_cif.got.tgz:333509.got - 2010.06.03 11:33:40.
