data_PCOD9104581
_publ_section_title
;
Structure prediction by ZEFSAII (Michael W. Deem and Ramdas Pophale) SiO2 
 PCOD9104581
Probable space group: P -1
;
_chemical_formula_sum "Si O2"
_cell_formula_units_Z 16
_cell_length_a 5.689821
_cell_length_b 9.171732
_cell_length_c 25.399885
_cell_angle_alpha 47.744555
_cell_angle_beta 119.398125
_cell_angle_gamma 127.899740
_cell_volume 767.255518
_symmetry_space_group_name_H-M "P -1"
_symmetry_group_IT_number 2
_symmetry_cell_setting 'triclinic'
loop_
_space_group_symop_operation_xyz
x,y,z
-x,-y,-z
loop_
_atom_site_type_symbol
_atom_site_label
_atom_site_fract_x
_atom_site_fract_y
_atom_site_fract_z
Si Si1 0.792129 0.740625 0.538488
Si Si2 0.103640 0.289415 0.328428
Si Si3 0.343738 0.225746 0.947188
Si Si4 0.345567 0.980353 0.906031
Si Si5 0.393908 0.092236 0.318654
Si Si6 0.170014 0.315060 0.156296
Si Si7 0.817874 0.390423 0.558822
Si Si8 0.875732 0.404134 0.830016
O O1 0.711197 0.667473 0.607606
O O2 0.923530 0.582165 0.567113
O O3 0.520959 0.695118 0.479898
O O4 0.000000 0.000000 0.500000
O O5 0.268939 0.193032 0.328394
O O6 0.096072 0.500566 0.248310
O O7 0.750289 0.148207 0.341323
O O8 0.614953 0.453330 0.902590
O O9 0.067606 0.283763 0.900985
O O10 0.264021 0.032987 0.942228
O O11 0.452863 0.149132 0.029825
O O12 0.066105 0.838019 0.874221
O O13 0.535974 0.220460 0.844255
O O14 0.340379 0.192886 0.233954
O O15 0.189049 0.831527 0.365064
O O16 0.025801 0.387558 0.171405
O O17 0.000000 0.500000 0.500000
#
# Coordination Sequence:
#
# PCOD9104581 Si02
#       8
#     2   2   2   2   2   2   2   2
#     4  11  24  44  69  98 135 175 219 269 333 390
#     4  11  24  44  71  94 133 182 217 274 336 391
#     4  10  20  39  61  89 129 163 217 272 325 394
#     4  10  22  37  61  94 122 169 216 272 326 393
#     4  11  24  45  68  96 136 173 224 274 329 397
#     4  10  22  40  61  89 128 168 215 270 331 387
#     4  11  26  42  68 103 134 172 225 274 323 400
#     4  10  22  40  60  89 128 164 219 269 325 390
#
# _framework density 20.853546999999999
#
# number of rings (size 3 to 8) (size 9 to 14) (size 15 to 20)
#    0.000    1.500    2.500    1.500    3.500    4.500 
#    2.250    0.000    0.000    0.000    0.000    0.000 
#    0.000    0.000    0.000    0.000    0.000    0.000 
#
# Total GULP energy -89146.856638 kJ/mol
# GULP energy per Si atom -5571.678540 kJ/mol
# Density = 2.080608 g / cm^3
# Si number density = 20.853547 Si / 1000 Ang^3
#
#
#
# Elastic Constant Matrix: (Units=GPa)
#
#
# Indices 1 2 3 4 5 6 
#
# 1 49.4843 17.1926 2.4177 -2.1302 -2.7691 -1.7957
# 2 17.1926 120.2898 31.8876 11.1761 -3.8803 -9.5685
# 3 2.4177 31.8876 99.7162 -0.4785 -3.9087 -2.0332
# 4 -2.1302 11.1761 -0.4785 34.5224 1.5845 -0.5604
# 5 -2.7691 -3.8803 -3.9087 1.5845 33.2654 -3.1591
# 6 -1.7957 -9.5685 -2.0332 -0.5604 -3.1591 13.1995
#
#
#
# Elastic Compliance Matrix: (Units=1/GPa)
#
#
# Indices 1 2 3 4 5 6 
#
# 1 0.021560 -0.003338 0.000635 0.002370 0.001468 0.001063
# 2 -0.003338 0.010546 -0.003113 -0.003616 0.001414 0.006896
# 3 0.000635 -0.003113 0.011046 0.001155 0.000914 -0.000201
# 4 0.002370 -0.003616 0.001155 0.030355 -0.001651 -0.001227
# 5 0.001468 0.001414 0.000914 -0.001651 0.031370 0.008803
# 6 0.001063 0.006896 -0.000201 -0.001227 0.008803 0.082928
#
#
# Mechanical properties :
#
#
# Convention : Reuss Voigt Hill
#
# Bulk Modulus (GPa) = 31.72570 41.38735 36.55652
# Shear Modulus (GPa) = 23.81604 30.73029 27.27317
#
# Velocity S-wave (km/s) = 3.38311 3.84295 3.62033
# Velocity P-wave (km/s) = 5.52333 6.29132 5.91979
#
# Compressibility (1/GPa) = 0.03152019
#
# Stress axis : x y z
#
# Youngs Moduli (GPa) = 46.38234 94.82616 90.53292
#
# Poissons Ratio (x) = 0.31654 -0.05752
# Poissons Ratio (y) = 0.15483 0.28180
# Poissons Ratio (z) = -0.02947 0.29517
#
# Static dielectric constant tensor:
#      x y z
#    x 1.751710 -0.032700 0.063650 
#    y -0.032700 1.705800 -0.003080 
#    z 0.063650 -0.003080 1.766690 
# 
# From -- ./inp_files/11154.got.cif
#   From: 2010.05.17/outbox.cif.g08.bks.cpg/sg2_6_cif.got.tgz:11154.got - 2010.06.03 11:33:40.
