data_PCOD9104786
_publ_section_title
;
Structure prediction by ZEFSAII (Michael W. Deem and Ramdas Pophale) SiO2 
 PCOD9104786
Probable space group: P -1
;
_chemical_formula_sum "Si O2"
_cell_formula_units_Z 14
_cell_length_a 20.518987
_cell_length_b 6.842344
_cell_length_c 8.528739
_cell_angle_alpha 94.364023
_cell_angle_beta 132.231891
_cell_angle_gamma 115.018172
_cell_volume 677.720879
_symmetry_space_group_name_H-M "P -1"
_symmetry_group_IT_number 2
_symmetry_cell_setting 'triclinic'
loop_
_space_group_symop_operation_xyz
x,y,z
-x,-y,-z
loop_
_atom_site_type_symbol
_atom_site_label
_atom_site_fract_x
_atom_site_fract_y
_atom_site_fract_z
Si Si1 0.952317 0.992229 0.255525
Si Si2 0.374755 0.373935 0.971896
Si Si3 0.689684 0.619562 0.783290
Si Si4 0.258165 0.622731 0.349151
Si Si5 0.156014 0.144823 0.381006
Si Si6 0.433934 0.102964 0.863498
Si Si7 0.166113 0.866669 0.100857
O O1 0.038687 0.027091 0.271208
O O2 0.000000 0.000000 0.500000
O O3 0.928694 0.185775 0.178746
O O4 0.821099 0.733207 0.025710
O O5 0.258578 0.260382 0.680024
O O6 0.398192 0.179712 0.960772
O O7 0.364477 0.413599 0.139817
O O8 0.480667 0.642660 0.085447
O O9 0.649385 0.382335 0.595304
O O10 0.714014 0.857573 0.745372
O O11 0.193235 0.378033 0.342948
O O12 0.178315 0.653513 0.120410
O O13 0.324097 0.876370 0.576164
O O14 0.140958 0.937069 0.229862
O O15 0.500000 0.000000 0.000000
#
# Coordination Sequence:
#
# PCOD9104786 Si02
#       7
#     2   2   2   2   2   2   2
#     4  10  20  39  62  89 127 165 199 243 307 364
#     4  11  22  41  66  90 122 162 202 255 309 353
#     4   9  23  40  62  89 128 159 197 250 306 358
#     4  11  22  40  62  92 125 158 208 252 299 361
#     4  11  19  38  65  88 127 163 199 250 300 364
#     4  11  24  40  65  93 117 160 212 251 305 366
#     4   9  21  38  59  89 127 161 199 247 302 360
#
# _framework density 20.657471999999999
#
# number of rings (size 3 to 8) (size 9 to 14) (size 15 to 20)
#    0.857    0.857    4.286    0.429    0.000    2.286 
#    0.000    2.143    0.000    0.000    0.000    0.000 
#    0.000    0.000    0.000    0.000    0.000    0.000 
#
# Total GULP energy -78009.464824 kJ/mol
# GULP energy per Si atom -5572.104630 kJ/mol
# Density = 2.061045 g / cm^3
# Si number density = 20.657472 Si / 1000 Ang^3
#
#
#
# Elastic Constant Matrix: (Units=GPa)
#
#
# Indices 1 2 3 4 5 6 
#
# 1 153.7225 63.8667 9.0343 -1.1206 -27.7974 -3.2238
# 2 63.8667 89.2877 10.7632 -14.3141 -12.1491 -33.2434
# 3 9.0343 10.7632 35.0443 -7.2393 -0.6257 -7.2619
# 4 -1.1206 -14.3141 -7.2393 33.1715 -1.3484 2.1427
# 5 -27.7974 -12.1491 -0.6257 -1.3484 33.9286 -4.1315
# 6 -3.2238 -33.2434 -7.2619 2.1427 -4.1315 29.5453
#
#
#
# Elastic Compliance Matrix: (Units=1/GPa)
#
#
# Indices 1 2 3 4 5 6 
#
# 1 0.013414 -0.015764 -0.003126 -0.005861 0.003083 -0.016186
# 2 -0.015764 0.044355 0.004311 0.016753 0.009726 0.049391
# 3 -0.003126 0.004311 0.032199 0.008060 0.001361 0.012029
# 4 -0.005861 0.016753 0.008060 0.037970 0.005064 0.018146
# 5 0.003083 0.009726 0.001361 0.005064 0.037721 0.016522
# 6 -0.016186 0.049391 0.012029 0.018146 0.016522 0.091604
#
#
# Mechanical properties :
#
#
# Convention : Reuss Voigt Hill
#
# Bulk Modulus (GPa) = 16.44527 49.48698 32.96612
# Shear Modulus (GPa) = 16.30296 32.28844 24.29570
#
# Velocity S-wave (km/s) = 2.81233 3.95782 3.43318
# Velocity P-wave (km/s) = 4.30393 6.70028 5.63105
#
# Compressibility (1/GPa) = 0.06080777
#
# Stress axis : x y z
#
# Youngs Moduli (GPa) = 74.54907 22.54555 31.05667
#
# Poissons Ratio (x) = 0.35542 0.09709
# Poissons Ratio (y) = 1.17523 -0.13387
# Poissons Ratio (z) = 0.23305 -0.09718
#
# Static dielectric constant tensor:
#      x y z
#    x 1.926030 -0.206550 0.402940 
#    y -0.206550 1.910140 -0.486120 
#    z 0.402940 -0.486120 3.384930 
# 
# From -- ./inp_files/322798.got.cif
#   From: 2010.05.17/outbox.cif.g08.bks.cpg/sg2_162_cif.got.tgz:322798.got - 2010.06.03 11:33:40.
