data_PCOD9104626
_publ_section_title
;
Structure prediction by ZEFSAII (Michael W. Deem and Ramdas Pophale) SiO2 
 PCOD9104626
Probable space group: P -1
;
_chemical_formula_sum "Si O2"
_cell_formula_units_Z 14
_cell_length_a 11.711860
_cell_length_b 12.121206
_cell_length_c 10.933453
_cell_angle_alpha 91.587382
_cell_angle_beta 44.864470
_cell_angle_gamma 57.860818
_cell_volume 681.838865
_symmetry_space_group_name_H-M "P -1"
_symmetry_group_IT_number 2
_symmetry_cell_setting 'triclinic'
loop_
_space_group_symop_operation_xyz
x,y,z
-x,-y,-z
loop_
_atom_site_type_symbol
_atom_site_label
_atom_site_fract_x
_atom_site_fract_y
_atom_site_fract_z
Si Si1 0.826401 0.671880 0.553613
Si Si2 0.720111 0.941537 0.989001
Si Si3 0.738563 0.727425 0.124407
Si Si4 0.301161 0.827499 0.382249
Si Si5 0.854437 0.134337 0.227965
Si Si6 0.292167 0.366393 0.619213
Si Si7 0.964456 0.826788 0.541436
O O1 0.789220 0.636110 0.449391
O O2 0.960122 0.722047 0.455808
O O3 0.000000 0.500000 0.500000
O O4 0.527741 0.846890 0.830574
O O5 0.826579 0.858210 0.771495
O O6 0.961911 0.861381 0.878621
O O7 0.627718 0.888061 0.137796
O O8 0.603883 0.690017 0.168867
O O9 0.667555 0.757578 0.321569
O O10 0.045476 0.561580 0.867008
O O11 0.166681 0.909381 0.621388
O O12 0.230612 0.745701 0.378284
O O13 0.190111 0.985843 0.389368
O O14 0.553061 0.300296 0.420979
O O15 0.000000 0.000000 0.000000
#
# Coordination Sequence:
#
# PCOD9104626 Si02
#       7
#     2   2   2   2   2   2   2
#     4  12  24  37  60  95 129 161 208 257 306 369
#     4  11  22  38  67  90 120 174 206 253 312 369
#     4  10  21  41  65  92 122 161 213 256 311 372
#     4   9  20  37  66  84 124 165 208 249 301 378
#     4  10  20  39  61  92 122 158 210 259 310 362
#     4  10  23  40  62  92 127 160 203 267 308 361
#     4  10  21  39  60  91 120 169 208 243 310 373
#
# _framework density 20.532709000000001
#
# number of rings (size 3 to 8) (size 9 to 14) (size 15 to 20)
#    0.000    1.714    2.857    1.286    2.000    2.286 
#    0.000    3.571    0.000    0.000    0.000    0.000 
#    0.000    0.000    0.000    0.000    0.000    0.000 
#
# Total GULP energy -77988.699768 kJ/mol
# GULP energy per Si atom -5570.621412 kJ/mol
# Density = 2.048598 g / cm^3
# Si number density = 20.532709 Si / 1000 Ang^3
#
#
#
# Elastic Constant Matrix: (Units=GPa)
#
#
# Indices 1 2 3 4 5 6 
#
# 1 143.2353 30.2890 32.6199 -9.8655 -30.3081 -8.1092
# 2 30.2890 75.4388 8.2840 -5.5731 -15.4748 -4.2666
# 3 32.6199 8.2840 80.7555 4.5407 -39.7261 2.4825
# 4 -9.8655 -5.5731 4.5407 20.1784 -4.0315 -0.6769
# 5 -30.3081 -15.4748 -39.7261 -4.0315 32.8899 -2.8198
# 6 -8.1092 -4.2666 2.4825 -0.6769 -2.8198 20.8961
#
#
#
# Elastic Compliance Matrix: (Units=1/GPa)
#
#
# Indices 1 2 3 4 5 6 
#
# 1 0.010170 -0.001016 0.001136 0.006930 0.011577 0.005391
# 2 -0.001016 0.016763 0.005388 0.005987 0.014582 0.004550
# 3 0.001136 0.005388 0.032502 0.003562 0.043592 0.003678
# 4 0.006930 0.005987 0.003562 0.058344 0.021365 0.008261
# 5 0.011577 0.014582 0.043592 0.021365 0.104672 0.017109
# 6 0.005391 0.004550 0.003678 0.008261 0.017109 0.053016
#
#
# Mechanical properties :
#
#
# Convention : Reuss Voigt Hill
#
# Bulk Modulus (GPa) = 14.19438 49.09061 31.64249
# Shear Modulus (GPa) = 17.36505 30.00867 23.68686
#
# Velocity S-wave (km/s) = 2.91129 3.82711 3.40018
# Velocity P-wave (km/s) = 4.26953 6.59465 5.55510
#
# Compressibility (1/GPa) = 0.07045042
#
# Stress axis : x y z
#
# Youngs Moduli (GPa) = 98.32915 59.65516 30.76728
#
# Poissons Ratio (x) = 0.06063 -0.03496
# Poissons Ratio (y) = 0.09993 -0.16577
# Poissons Ratio (z) = -0.11172 -0.32141
#
# Static dielectric constant tensor:
#      x y z
#    x 1.786510 -0.016300 -0.023020 
#    y -0.016300 1.755440 -0.017740 
#    z -0.023020 -0.017740 1.747800 
# 
# From -- ./inp_files/168736.got.cif
#   From: 2010.05.17/outbox.cif.g08.bks.cpg/sg2_85_cif.got.tgz:168736.got - 2010.06.03 11:33:40.
