data_PCOD9104267
_publ_section_title
;
Structure prediction by ZEFSAII (Michael W. Deem and Ramdas Pophale) SiO2 
 PCOD9104267
Probable space group: P -1
;
_chemical_formula_sum "Si O2"
_cell_formula_units_Z 14
_cell_length_a 5.290826
_cell_length_b 8.574319
_cell_length_c 15.318426
_cell_angle_alpha 109.800169
_cell_angle_beta 89.784318
_cell_angle_gamma 106.276791
_cell_volume 624.426808
_symmetry_space_group_name_H-M "P -1"
_symmetry_group_IT_number 2
_symmetry_cell_setting 'triclinic'
loop_
_space_group_symop_operation_xyz
x,y,z
-x,-y,-z
loop_
_atom_site_type_symbol
_atom_site_label
_atom_site_fract_x
_atom_site_fract_y
_atom_site_fract_z
Si Si1 0.018108 0.856856 0.757749
Si Si2 0.164321 0.422456 0.417870
Si Si3 0.383339 0.230836 0.512704
Si Si4 0.196034 0.381373 0.961713
Si Si5 0.221169 0.850212 0.197679
Si Si6 0.399552 0.043603 0.638789
Si Si7 0.644601 0.930983 0.062833
O O1 0.947592 0.659738 0.689463
O O2 0.220501 0.963233 0.704901
O O3 0.157460 0.904291 0.858617
O O4 0.789404 0.950965 0.772817
O O5 0.197710 0.260480 0.442497
O O6 0.430685 0.576044 0.431490
O O7 0.000000 0.500000 0.500000
O O8 0.274424 0.144369 0.587970
O O9 0.539919 0.110492 0.445114
O O10 0.198326 0.209044 0.985115
O O11 0.065729 0.282122 0.852371
O O12 0.500000 0.500000 0.000000
O O13 0.000000 0.500000 0.000000
O O14 0.335412 0.835131 0.290884
O O15 0.424938 0.837541 0.118650
O O16 0.500000 0.000000 0.000000
#
# Coordination Sequence:
#
# PCOD9104267 Si02
#       7
#     2   2   2   2   2   2   2
#     4  10  21  37  65  89 130 172 221 271 333 402
#     4  11  21  38  56  90 129 170 208 277 330 383
#     4  10  22  35  60  85 127 163 220 264 326 386
#     4  11  22  43  68  97 132 172 216 281 344 398
#     4  10  21  41  67  90 134 167 223 271 337 398
#     4  10  20  39  59  92 117 172 218 266 319 405
#     4  10  23  43  70  99 128 178 229 277 344 416
#
# _framework density 22.420560999999999
#
# number of rings (size 3 to 8) (size 9 to 14) (size 15 to 20)
#    0.000    1.714    4.286    0.000    0.000    4.000 
#    2.571    1.429    0.000    0.000    0.000    0.000 
#    0.000    0.000    0.000    0.000    0.000    0.000 
#
# Total GULP energy -78002.486862 kJ/mol
# GULP energy per Si atom -5571.606204 kJ/mol
# Density = 2.236953 g / cm^3
# Si number density = 22.420561 Si / 1000 Ang^3
#
#
#
# Elastic Constant Matrix: (Units=GPa)
#
#
# Indices 1 2 3 4 5 6 
#
# 1 77.4821 21.4576 28.3737 10.4945 6.6723 -11.9973
# 2 21.4576 67.9859 57.7296 10.3631 12.0200 -21.6494
# 3 28.3737 57.7296 122.2034 21.8813 26.6480 -0.7771
# 4 10.4945 10.3631 21.8813 45.4460 2.9370 4.3500
# 5 6.6723 12.0200 26.6480 2.9370 42.3219 8.4317
# 6 -11.9973 -21.6494 -0.7771 4.3500 8.4317 38.0753
#
#
#
# Elastic Compliance Matrix: (Units=1/GPa)
#
#
# Indices 1 2 3 4 5 6 
#
# 1 0.015220 -0.000304 -0.002547 -0.002617 -0.001568 0.005217
# 2 -0.000304 0.035603 -0.015182 -0.002467 -0.004542 0.021126
# 3 -0.002547 -0.015182 0.017483 -0.003339 -0.004531 -0.007693
# 4 -0.002617 -0.002467 -0.003339 0.025160 0.002615 -0.005749
# 5 -0.001568 -0.004542 -0.004531 0.002615 0.029844 -0.010077
# 6 0.005217 0.021126 -0.007693 -0.005749 -0.010077 0.042651
#
#
# Mechanical properties :
#
#
# Convention : Reuss Voigt Hill
#
# Bulk Modulus (GPa) = 31.01596 53.64370 42.32983
# Shear Modulus (GPa) = 23.49921 35.84267 29.67094
#
# Velocity S-wave (km/s) = 3.24096 4.00265 3.64178
# Velocity P-wave (km/s) = 5.27910 6.73348 6.05015
#
# Compressibility (1/GPa) = 0.03224147
#
# Stress axis : x y z
#
# Youngs Moduli (GPa) = 65.70185 28.08778 57.19777
#
# Poissons Ratio (x) = 0.00853 0.14567
# Poissons Ratio (y) = 0.01995 0.86837
# Poissons Ratio (z) = 0.16733 0.42642
#
# Static dielectric constant tensor:
#      x y z
#    x 1.959060 -0.001220 -0.019860 
#    y -0.001220 1.861280 0.130790 
#    z -0.019860 0.130790 2.205920 
# 
# From -- ./inp_files/38031.got.cif
#   From: 2010.05.17/outbox.cif.g08.bks.cpg/sg2_20_cif.got.tgz:38031.got - 2010.06.03 11:33:40.
