data_PCOD9104503
_publ_section_title
;
Structure prediction by ZEFSAII (Michael W. Deem and Ramdas Pophale) SiO2 
 PCOD9104503
Probable space group: P -1
;
_chemical_formula_sum "Si O2"
_cell_formula_units_Z 16
_cell_length_a 16.770140
_cell_length_b 8.500331
_cell_length_c 13.689732
_cell_angle_alpha 89.229845
_cell_angle_beta 157.052355
_cell_angle_gamma 88.435372
_cell_volume 756.847958
_symmetry_space_group_name_H-M "P -1"
_symmetry_group_IT_number 2
_symmetry_cell_setting 'triclinic'
loop_
_space_group_symop_operation_xyz
x,y,z
-x,-y,-z
loop_
_atom_site_type_symbol
_atom_site_label
_atom_site_fract_x
_atom_site_fract_y
_atom_site_fract_z
Si Si1 0.764960 0.900254 0.237564
Si Si2 0.992823 0.262570 0.675236
Si Si3 0.053527 0.233530 0.067379
Si Si4 0.336834 0.516636 0.403171
Si Si5 0.464385 0.654503 0.894571
Si Si6 0.683431 0.510288 0.955304
Si Si7 0.157547 0.846130 0.813927
Si Si8 0.935963 0.995759 0.094132
O O1 0.889038 0.814794 0.285524
O O2 0.922422 0.883940 0.507262
O O3 0.721493 0.072210 0.136379
O O4 0.568800 0.810457 0.041402
O O5 0.776373 0.329622 0.391315
O O6 0.940365 0.138327 0.699716
O O7 0.134117 0.390069 0.878519
O O8 0.199849 0.370567 0.245538
O O9 0.137747 0.111455 0.077417
O O10 0.038129 0.131009 0.149589
O O11 0.825226 0.324220 0.785905
O O12 0.500000 0.500000 0.500000
O O13 0.491166 0.501624 0.667895
O O14 0.581799 0.608911 0.928248
O O15 0.500000 0.500000 0.000000
O O16 0.781747 0.339681 0.104238
O O17 0.193948 0.918374 0.962902
#
# Coordination Sequence:
#
# PCOD9104503 Si02
#       8
#     2   2   2   2   2   2   2   2
#     4   9  21  39  59  86 120 159 199 239 289 347
#     4  10  21  40  61  85 120 155 197 246 289 344
#     4  10  23  42  62  90 119 149 198 243 292 358
#     4  11  23  41  65  89 117 153 194 246 297 347
#     4  11  22  37  61  88 119 159 197 242 294 343
#     4  11  23  38  61  90 116 154 201 241 293 353
#     4  10  20  39  61  86 123 158 195 243 290 346
#     4  10  21  40  63  84 119 159 187 242 299 339
#
# _framework density 21.140311000000001
#
# number of rings (size 3 to 8) (size 9 to 14) (size 15 to 20)
#    0.000    1.750    0.000    3.750    0.000    7.000 
#    0.000   23.750    0.000    0.000    0.000    0.000 
#    0.000    0.000    0.000    0.000    0.000    0.000 
#
# Total GULP energy -89142.078201 kJ/mol
# GULP energy per Si atom -5571.379888 kJ/mol
# Density = 2.109219 g / cm^3
# Si number density = 21.140311 Si / 1000 Ang^3
#
#
#
# Elastic Constant Matrix: (Units=GPa)
#
#
# Indices 1 2 3 4 5 6 
#
# 1 104.9067 40.0083 42.3432 2.1579 -4.7398 2.1530
# 2 40.0083 111.0604 52.1726 6.0193 1.1773 12.9812
# 3 42.3432 52.1726 104.7048 9.2901 -4.5758 17.4055
# 4 2.1579 6.0193 9.2901 28.3186 0.4843 -5.4011
# 5 -4.7398 1.1773 -4.5758 0.4843 22.7765 -1.9406
# 6 2.1530 12.9812 17.4055 -5.4011 -1.9406 34.6159
#
#
#
# Elastic Compliance Matrix: (Units=1/GPa)
#
#
# Indices 1 2 3 4 5 6 
#
# 1 0.012279 -0.002976 -0.003970 0.001478 0.002110 0.002697
# 2 -0.002976 0.012668 -0.004663 -0.001385 -0.002401 -0.002572
# 3 -0.003970 -0.004663 0.015030 -0.004855 0.002009 -0.006207
# 4 0.001478 -0.001385 -0.004855 0.038793 -0.000664 0.008885
# 5 0.002110 -0.002401 0.002009 -0.000664 0.045072 0.002182
# 6 0.002697 -0.002572 -0.006207 0.008885 0.002182 0.034314
#
#
# Mechanical properties :
#
#
# Convention : Reuss Voigt Hill
#
# Bulk Modulus (GPa) = 59.67156 65.52447 62.59801
# Shear Modulus (GPa) = 26.74344 29.55205 28.14774
#
# Velocity S-wave (km/s) = 3.56061 3.74291 3.65289
# Velocity P-wave (km/s) = 6.72247 7.05276 6.88960
#
# Compressibility (1/GPa) = 0.01675840
#
# Stress axis : x y z
#
# Youngs Moduli (GPa) = 81.43751 78.93931 66.53300
#
# Poissons Ratio (x) = 0.23494 0.26415
# Poissons Ratio (y) = 0.24237 0.31025
# Poissons Ratio (z) = 0.32332 0.36811
#
# Static dielectric constant tensor:
#      x y z
#    x 1.785160 -0.029520 -0.019390 
#    y -0.029520 1.850080 0.028660 
#    z -0.019390 0.028660 1.762870 
# 
# From -- ./inp_files/537363.got.cif
#   From: 2010.05.17/outbox.cif.g08.bks.cpg/sg2_269_cif.got.tgz:537363.got - 2010.06.03 11:33:40.
