data_PCOD9104077
_publ_section_title
;
Structure prediction by ZEFSAII (Michael W. Deem and Ramdas Pophale) SiO2 
 PCOD9104077
Probable space group: P -1
;
_chemical_formula_sum "Si O2"
_cell_formula_units_Z 14
_cell_length_a 7.249015
_cell_length_b 14.914149
_cell_length_c 17.276484
_cell_angle_alpha 23.979000
_cell_angle_beta 52.264739
_cell_angle_gamma 64.036253
_cell_volume 555.852297
_symmetry_space_group_name_H-M "P -1"
_symmetry_group_IT_number 2
_symmetry_cell_setting 'triclinic'
loop_
_space_group_symop_operation_xyz
x,y,z
-x,-y,-z
loop_
_atom_site_type_symbol
_atom_site_label
_atom_site_fract_x
_atom_site_fract_y
_atom_site_fract_z
Si Si1 0.916551 0.224269 0.212102
Si Si2 0.762033 0.517420 0.322843
Si Si3 0.135377 0.065975 0.139679
Si Si4 0.783956 0.696183 0.349660
Si Si5 0.430433 0.252444 0.261356
Si Si6 0.311083 0.858473 0.047089
Si Si7 0.813219 0.609220 0.647836
O O1 0.676349 0.189289 0.246651
O O2 0.116833 0.177078 0.141593
O O3 0.806095 0.008920 0.474188
O O4 0.000000 0.500000 0.000000
O O5 0.759761 0.551085 0.389324
O O6 0.472914 0.437367 0.432159
O O7 0.933500 0.362928 0.389371
O O8 0.900984 0.763650 0.049860
O O9 0.404518 0.047957 0.071142
O O10 0.911906 0.811739 0.398791
O O11 0.076306 0.757596 0.246457
O O12 0.741546 0.933108 0.147641
O O13 0.385255 0.340673 0.287753
O O14 0.500000 0.500000 0.000000
O O15 0.286100 0.648368 0.160043
#
# Coordination Sequence:
#
# PCOD9104077 Si02
#       7
#     2   2   2   2   2   2   2
#     4  10  22  40  59  88 123 148 192 245 287 345
#     4  10  20  39  59  81 116 151 190 233 287 331
#     4  11  22  38  61  84 112 153 190 233 287 340
#     4   9  20  39  57  80 118 151 185 243 279 333
#     4  10  21  39  62  86 117 157 191 235 296 349
#     4  10  20  39  57  82 115 150 187 235 285 327
#     4  10  21  40  58  83 118 148 188 237 284 336
#
# _framework density 25.186544999999999
#
# number of rings (size 3 to 8) (size 9 to 14) (size 15 to 20)
#    0.000    2.000    1.429    1.714    0.000    1.714 
#   10.286    0.000    0.000    0.000    0.000    0.000 
#    0.000    0.000    0.000    0.000    0.000    0.000 
#
# Total GULP energy -78154.228437 kJ/mol
# GULP energy per Si atom -5582.444888 kJ/mol
# Density = 2.512922 g / cm^3
# Si number density = 25.186545 Si / 1000 Ang^3
#
#
#
# Elastic Constant Matrix: (Units=GPa)
#
#
# Indices 1 2 3 4 5 6 
#
# 1 73.5346 22.2701 26.1963 14.4828 -15.2961 -19.5853
# 2 22.2701 102.2333 21.2911 -6.5578 -10.4006 -21.1961
# 3 26.1963 21.2911 134.4613 -6.1526 19.1504 -10.9924
# 4 14.4828 -6.5578 -6.1526 51.6700 -3.7554 -9.9519
# 5 -15.2961 -10.4006 19.1504 -3.7554 36.2770 -5.4334
# 6 -19.5853 -21.1961 -10.9924 -9.9519 -5.4334 31.6510
#
#
#
# Elastic Compliance Matrix: (Units=1/GPa)
#
#
# Indices 1 2 3 4 5 6 
#
# 1 0.022805 0.000301 -0.005559 -0.003313 0.014361 0.013806
# 2 0.000301 0.013399 -0.002123 0.003981 0.007133 0.010898
# 3 -0.005559 -0.002123 0.009919 0.001392 -0.008408 -0.002422
# 4 -0.003313 0.003981 0.001392 0.022831 0.002682 0.008739
# 5 0.014361 0.007133 -0.008408 0.002682 0.043229 0.019008
# 6 0.013806 0.010898 -0.002422 0.008739 0.019008 0.052605
#
#
# Mechanical properties :
#
#
# Convention : Reuss Voigt Hill
#
# Bulk Modulus (GPa) = 31.88674 49.97157 40.92916
# Shear Modulus (GPa) = 26.31506 39.95105 33.13305
#
# Velocity S-wave (km/s) = 3.23585 3.98704 3.63093
# Velocity P-wave (km/s) = 5.16224 6.40929 5.81926
#
# Compressibility (1/GPa) = 0.03136100
#
# Stress axis : x y z
#
# Youngs Moduli (GPa) = 43.84950 74.63409 100.81229
#
# Poissons Ratio (x) = -0.02246 0.56041
# Poissons Ratio (y) = -0.01319 0.21403
# Poissons Ratio (z) = 0.24376 0.15846
#
# Static dielectric constant tensor:
#      x y z
#    x 2.080790 -0.000400 -0.044370 
#    y -0.000400 1.922240 -0.015420 
#    z -0.044370 -0.015420 2.083890 
# 
# From -- ./inp_files/47178.got.cif
#   From: 2010.05.17/outbox.cif.g08.bks.cpg/sg2_24_cif.got.tgz:47178.got - 2010.06.03 11:33:40.
