data_PCOD9104464
_publ_section_title
;
Structure prediction by ZEFSAII (Michael W. Deem and Ramdas Pophale) SiO2 
 PCOD9104464
Probable space group: P -1
;
_chemical_formula_sum "Si O2"
_cell_formula_units_Z 16
_cell_length_a 18.906891
_cell_length_b 7.259547
_cell_length_c 8.803266
_cell_angle_alpha 83.396064
_cell_angle_beta 32.841287
_cell_angle_gamma 82.572795
_cell_volume 649.731929
_symmetry_space_group_name_H-M "P -1"
_symmetry_group_IT_number 2
_symmetry_cell_setting 'triclinic'
loop_
_space_group_symop_operation_xyz
x,y,z
-x,-y,-z
loop_
_atom_site_type_symbol
_atom_site_label
_atom_site_fract_x
_atom_site_fract_y
_atom_site_fract_z
Si Si1 0.670971 0.112978 0.228202
Si Si2 0.683969 0.452775 0.569631
Si Si3 0.027404 0.320118 0.293232
Si Si4 0.898790 0.275900 0.964950
Si Si5 0.249685 0.175669 0.106237
Si Si6 0.732281 0.222832 0.795458
Si Si7 0.093403 0.306398 0.843070
Si Si8 0.517241 0.611997 0.303374
O O1 0.566103 0.189252 0.531884
O O2 0.817440 0.150370 0.014702
O O3 0.652055 0.232965 0.095732
O O4 0.675324 0.904670 0.175551
O O5 0.672437 0.327239 0.749645
O O6 0.759747 0.636901 0.455833
O O7 0.554709 0.475474 0.700460
O O8 0.788124 0.342229 0.281365
O O9 0.062626 0.535284 0.204969
O O10 0.105236 0.229574 0.302708
O O11 0.874303 0.297119 0.564964
O O12 0.080836 0.235577 0.043373
O O13 0.024663 0.200296 0.841651
O O14 0.250521 0.000798 0.232997
O O15 0.333699 0.340062 0.996354
O O16 0.000000 0.500000 0.000000
O O17 0.500000 0.500000 0.500000
#
# Coordination Sequence:
#
# PCOD9104464 Si02
#       8
#     2   2   2   2   2   2   2   2
#     4   9  22  33  52  84 109 137 171 226 275 302
#     4   9  16  32  55  81  99 141 179 220 254 315
#     4  10  16  33  56  81 109 144 180 210 255 327
#     4   9  15  31  55  78 101 143 185 207 250 316
#     4  10  22  33  53  80 114 141 173 219 269 312
#     4  10  19  33  53  83 114 139 164 220 283 310
#     4   8  13  26  53  76 101 134 187 209 244 303
#     4  11  21  40  62  74  96 143 198 218 248 323
#
# _framework density 24.625541999999999
#
# number of rings (size 3 to 8) (size 9 to 14) (size 15 to 20)
#    0.750    2.000    3.750    3.000    0.000    1.000 
#    0.000    1.250    0.000    0.000    0.000    0.000 
#    0.000    0.000    0.000    0.000    0.000    0.000 
#
# Total GULP energy -89335.235041 kJ/mol
# GULP energy per Si atom -5583.452190 kJ/mol
# Density = 2.456949 g / cm^3
# Si number density = 24.625542 Si / 1000 Ang^3
#
#
#
# Elastic Constant Matrix: (Units=GPa)
#
#
# Indices 1 2 3 4 5 6 
#
# 1 181.9532 27.6132 34.4660 -20.8879 -35.6600 -9.7492
# 2 27.6132 47.4667 24.5285 2.2207 -2.1075 -3.1574
# 3 34.4660 24.5285 58.8349 -3.8700 0.7257 -4.6581
# 4 -20.8879 2.2207 -3.8700 20.8606 8.6298 -4.8460
# 5 -35.6600 -2.1075 0.7257 8.6298 39.8685 -11.9710
# 6 -9.7492 -3.1574 -4.6581 -4.8460 -11.9710 29.3175
#
#
#
# Elastic Compliance Matrix: (Units=1/GPa)
#
#
# Indices 1 2 3 4 5 6 
#
# 1 0.009644 -0.003358 -0.003307 0.007319 0.009100 0.007245
# 2 -0.003358 0.028941 -0.010764 -0.008813 0.000319 -0.001037
# 3 -0.003307 -0.010764 0.023785 0.004299 -0.004810 0.000267
# 4 0.007319 -0.008813 0.004299 0.061142 -0.004042 0.010624
# 5 0.009100 0.000319 -0.004810 -0.004042 0.039537 0.017772
# 6 0.007245 -0.001037 0.000267 0.010624 0.017772 0.045462
#
#
# Mechanical properties :
#
#
# Convention : Reuss Voigt Hill
#
# Bulk Modulus (GPa) = 36.34809 51.27447 43.81128
# Shear Modulus (GPa) = 19.79902 31.45245 25.62574
#
# Velocity S-wave (km/s) = 2.83857 3.57771 3.22936
# Velocity P-wave (km/s) = 5.05328 6.15902 5.63335
#
# Compressibility (1/GPa) = 0.02751176
#
# Stress axis : x y z
#
# Youngs Moduli (GPa) = 103.69516 34.55344 42.04392
#
# Poissons Ratio (x) = 0.11602 0.13902
# Poissons Ratio (y) = 0.34819 0.45257
# Poissons Ratio (z) = 0.34288 0.37194
#
# Static dielectric constant tensor:
#      x y z
#    x 1.984890 0.017150 0.008770 
#    y 0.017150 2.011440 0.062840 
#    z 0.008770 0.062840 1.976330 
# 
# From -- ./inp_files/328667.got.cif
#   From: 2010.05.17/outbox.cif.g08.bks.cpg/sg2_165_cif.got.tgz:328667.got - 2010.06.03 11:33:40.
