data_PCOD9104909
_publ_section_title
;
Structure prediction by ZEFSAII (Michael W. Deem and Ramdas Pophale) SiO2 
 PCOD9104909
Probable space group: P -1
;
_chemical_formula_sum "Si O2"
_cell_formula_units_Z 16
_cell_length_a 11.954272
_cell_length_b 7.483102
_cell_length_c 14.168015
_cell_angle_alpha 137.639525
_cell_angle_beta 99.447822
_cell_angle_gamma 105.054477
_cell_volume 690.214927
_symmetry_space_group_name_H-M "P -1"
_symmetry_group_IT_number 2
_symmetry_cell_setting 'triclinic'
loop_
_space_group_symop_operation_xyz
x,y,z
-x,-y,-z
loop_
_atom_site_type_symbol
_atom_site_label
_atom_site_fract_x
_atom_site_fract_y
_atom_site_fract_z
Si Si1 0.301114 0.296901 0.958130
Si Si2 0.486653 0.248105 0.478779
Si Si3 0.206652 0.519153 0.371701
Si Si4 0.466392 0.751411 0.995954
Si Si5 0.194198 0.570658 0.175823
Si Si6 0.109077 0.045526 0.350001
Si Si7 0.373996 0.491443 0.695085
Si Si8 0.890721 0.157220 0.399992
O O1 0.399842 0.244427 0.012958
O O2 0.187311 0.321141 0.003843
O O3 0.407707 0.613892 0.036550
O O4 0.230250 0.019306 0.761959
O O5 0.500000 0.500000 0.500000
O O6 0.629314 0.283887 0.513165
O O7 0.458348 0.350395 0.615538
O O8 0.351791 0.887568 0.306368
O O9 0.175209 0.430732 0.223430
O O10 0.140608 0.226169 0.323516
O O11 0.157637 0.752068 0.479054
O O12 0.350120 0.504744 0.808274
O O13 0.523316 0.122892 0.155027
O O14 0.106882 0.724220 0.213103
O O15 0.236992 0.299523 0.536232
O O16 0.970166 0.985467 0.350402
O O17 0.000000 0.500000 0.500000
#
# Coordination Sequence:
#
# PCOD9104909 Si02
#       8
#     2   2   2   2   2   2   2   2
#     4  11  24  39  62  95 131 163 212 269 321 380
#     4  11  20  35  63  91 132 166 205 261 327 378
#     4  11  22  40  66  94 126 173 216 260 322 380
#     4  10  22  36  62  94 134 161 209 264 331 381
#     4  11  24  38  65  97 129 166 214 269 323 383
#     4  10  23  44  66  91 133 170 225 258 314 384
#     4  10  20  39  62  95 127 171 205 263 328 383
#     4  10  24  44  69  88 128 179 215 266 316 378
#
# _framework density 23.181184999999999
#
# number of rings (size 3 to 8) (size 9 to 14) (size 15 to 20)
#    0.000    1.500    2.500    3.375    7.000    1.000 
#    0.000    2.500    0.000    0.000    0.000    0.000 
#    0.000    0.000    0.000    0.000    0.000    0.000 
#
# Total GULP energy -89393.339682 kJ/mol
# GULP energy per Si atom -5587.083730 kJ/mol
# Density = 2.312842 g / cm^3
# Si number density = 23.181185 Si / 1000 Ang^3
#
#
#
# Elastic Constant Matrix: (Units=GPa)
#
#
# Indices 1 2 3 4 5 6 
#
# 1 119.8326 16.1024 -11.9331 -13.0283 -15.8119 9.7722
# 2 16.1024 71.6015 12.6997 -11.7750 -2.5983 -11.4487
# 3 -11.9331 12.6997 60.8277 -14.9531 -11.4774 6.1198
# 4 -13.0283 -11.7750 -14.9531 22.5962 6.8731 -5.7046
# 5 -15.8119 -2.5983 -11.4774 6.8731 33.1042 -3.0603
# 6 9.7722 -11.4487 6.1198 -5.7046 -3.0603 21.2231
#
#
#
# Elastic Compliance Matrix: (Units=1/GPa)
#
#
# Indices 1 2 3 4 5 6 
#
# 1 0.011244 -0.003588 0.005931 0.005204 0.005451 -0.006639
# 2 -0.003588 0.019643 -0.004383 0.009969 -0.002295 0.015861
# 3 0.005931 -0.004383 0.023800 0.012749 0.007404 -0.007464
# 4 0.005204 0.009969 0.012749 0.066448 -0.004582 0.016505
# 5 0.005451 -0.002295 0.007404 -0.004582 0.035971 -0.001928
# 6 -0.006639 0.015861 -0.007464 0.016505 -0.001928 0.065042
#
#
# Mechanical properties :
#
#
# Convention : Reuss Voigt Hill
#
# Bulk Modulus (GPa) = 19.76076 31.77776 25.76926
# Shear Modulus (GPa) = 20.56778 31.07755 25.82267
#
# Velocity S-wave (km/s) = 2.98193 3.66544 3.34121
# Velocity P-wave (km/s) = 4.51651 5.62602 5.10152
#
# Compressibility (1/GPa) = 0.05060533
#
# Stress axis : x y z
#
# Youngs Moduli (GPa) = 88.93503 50.90925 42.01597
#
# Poissons Ratio (x) = 0.18269 -0.24919
# Poissons Ratio (y) = 0.31914 0.18417
# Poissons Ratio (z) = -0.52745 0.22315
#
# Static dielectric constant tensor:
#      x y z
#    x 1.901150 -0.006540 0.003750 
#    y -0.006540 1.973500 0.009540 
#    z 0.003750 0.009540 1.875030 
# 
# From -- ./inp_files/516395.got.cif
#   From: 2010.05.17/outbox.cif.g08.bks.cpg/sg2_259_cif.got.tgz:516395.got - 2010.06.03 11:33:40.
