data_PCOD9104509
_publ_section_title
;
Structure prediction by ZEFSAII (Michael W. Deem and Ramdas Pophale) SiO2 
 PCOD9104509
Probable space group: P -1
;
_chemical_formula_sum "Si O2"
_cell_formula_units_Z 16
_cell_length_a 19.643490
_cell_length_b 16.457188
_cell_length_c 10.438287
_cell_angle_alpha 45.255892
_cell_angle_beta 55.018707
_cell_angle_gamma 19.695415
_cell_volume 749.228414
_symmetry_space_group_name_H-M "P -1"
_symmetry_group_IT_number 2
_symmetry_cell_setting 'triclinic'
loop_
_space_group_symop_operation_xyz
x,y,z
-x,-y,-z
loop_
_atom_site_type_symbol
_atom_site_label
_atom_site_fract_x
_atom_site_fract_y
_atom_site_fract_z
Si Si1 0.492618 0.216888 0.220646
Si Si2 0.965749 0.280858 0.780472
Si Si3 0.180268 0.131698 0.942066
Si Si4 0.845701 0.013646 0.646338
Si Si5 0.862819 0.742689 0.553426
Si Si6 0.113909 0.816874 0.402985
Si Si7 0.765254 0.232731 0.102348
Si Si8 0.575233 0.275392 0.419677
O O1 0.279769 0.410920 0.246709
O O2 0.591644 0.108294 0.092070
O O3 0.684779 0.937221 0.420577
O O4 0.394864 0.462386 0.101414
O O5 0.118133 0.119122 0.913898
O O6 0.989120 0.350165 0.572622
O O7 0.066442 0.038678 0.877245
O O8 0.004764 0.455883 0.762217
O O9 0.162680 0.086610 0.143316
O O10 0.848754 0.122421 0.611498
O O11 0.645683 0.249288 0.503541
O O12 0.051572 0.781939 0.588994
O O13 0.740076 0.963024 0.555959
O O14 0.335900 0.528633 0.404858
O O15 0.911207 0.092035 0.220663
O O16 0.616438 0.319093 0.220141
#
# Coordination Sequence:
#
# PCOD9104509 Si02
#       8
#     2   2   2   2   2   2   2   2
#     4  11  21  36  60  85 113 151 183 226 288 335
#     4  10  21  37  57  85 116 146 184 231 281 335
#     4  11  24  39  55  82 116 152 193 231 267 326
#     4  10  22  37  59  85 113 146 186 231 280 333
#     4  10  24  40  55  81 115 150 195 234 265 323
#     4  10  20  39  61  87 116 139 179 235 287 340
#     4  10  21  35  59  91 115 141 181 230 287 343
#     4  10  21  39  60  82 113 151 184 230 285 328
#
# _framework density 21.355302999999999
#
# number of rings (size 3 to 8) (size 9 to 14) (size 15 to 20)
#    0.000    1.750    0.000    4.500    0.000   12.000 
#    0.000    0.625    0.000    0.000    0.000    0.000 
#    0.000    0.000    0.000    0.000    0.000    0.000 
#
# Total GULP energy -89414.745617 kJ/mol
# GULP energy per Si atom -5588.421601 kJ/mol
# Density = 2.130670 g / cm^3
# Si number density = 21.355303 Si / 1000 Ang^3
#
#
#
# Elastic Constant Matrix: (Units=GPa)
#
#
# Indices 1 2 3 4 5 6 
#
# 1 42.8605 8.5528 -4.6311 -1.8586 7.1521 -0.4346
# 2 8.5528 161.3960 41.1294 14.4003 -6.2131 -29.0058
# 3 -4.6311 41.1294 83.0349 13.7619 -5.5927 -4.9261
# 4 -1.8586 14.4003 13.7619 26.5932 6.7876 -5.1971
# 5 7.1521 -6.2131 -5.5927 6.7876 19.1068 -1.0541
# 6 -0.4346 -29.0058 -4.9261 -5.1971 -1.0541 31.4674
#
#
#
# Elastic Compliance Matrix: (Units=1/GPa)
#
#
# Indices 1 2 3 4 5 6 
#
# 1 0.026392 -0.002970 0.001019 0.005844 -0.012715 -0.001675
# 2 -0.002970 0.008980 -0.003367 -0.003048 0.004535 0.007358
# 3 0.001019 -0.003367 0.015348 -0.007855 0.005708 -0.001793
# 4 0.005844 -0.003048 -0.007855 0.050339 -0.023163 0.003580
# 5 -0.012715 0.004535 0.005708 -0.023163 0.068657 0.003373
# 6 -0.001675 0.007358 -0.001793 0.003580 0.003373 0.038962
#
#
# Mechanical properties :
#
#
# Convention : Reuss Voigt Hill
#
# Bulk Modulus (GPa) = 24.94734 41.93260 33.43997
# Shear Modulus (GPa) = 21.48913 31.58282 26.53598
#
# Velocity S-wave (km/s) = 3.17561 3.84985 3.52887
# Velocity P-wave (km/s) = 5.01532 6.28013 5.68302
#
# Compressibility (1/GPa) = 0.04008443
#
# Stress axis : x y z
#
# Youngs Moduli (GPa) = 37.88955 111.35624 65.15701
#
# Poissons Ratio (x) = 0.33074 -0.06639
# Poissons Ratio (y) = 0.11254 0.21936
# Poissons Ratio (z) = -0.03860 0.37490
#
# Static dielectric constant tensor:
#      x y z
#    x 1.795420 0.001180 -0.008620 
#    y 0.001180 1.809180 0.040960 
#    z -0.008620 0.040960 1.772680 
# 
# From -- ./inp_files/472187.got.cif
#   From: 2010.05.17/outbox.cif.g08.bks.cpg/sg2_237_cif.got.tgz:472187.got - 2010.06.03 11:33:40.
