data_PCOD9104542
_publ_section_title
;
Structure prediction by ZEFSAII (Michael W. Deem and Ramdas Pophale) SiO2 
 PCOD9104542
Probable space group: P -1
;
_chemical_formula_sum "Si O2"
_cell_formula_units_Z 16
_cell_length_a 22.556453
_cell_length_b 23.468748
_cell_length_c 16.865748
_cell_angle_alpha 156.549318
_cell_angle_beta 157.238624
_cell_angle_gamma 11.836376
_cell_volume 695.958522
_symmetry_space_group_name_H-M "P -1"
_symmetry_group_IT_number 2
_symmetry_cell_setting 'triclinic'
loop_
_space_group_symop_operation_xyz
x,y,z
-x,-y,-z
loop_
_atom_site_type_symbol
_atom_site_label
_atom_site_fract_x
_atom_site_fract_y
_atom_site_fract_z
Si Si1 0.565600 0.937831 0.796017
Si Si2 0.874887 0.210634 0.549322
Si Si3 0.562579 0.206181 0.880952
Si Si4 0.948487 0.392788 0.345662
Si Si5 0.879429 0.586579 0.272204
Si Si6 0.990469 0.051206 0.317168
Si Si7 0.659951 0.589483 0.571494
Si Si8 0.472738 0.232675 0.194616
O O1 0.627082 0.733451 0.647865
O O2 0.898100 0.702697 0.868262
O O3 0.324679 0.154829 0.707200
O O4 0.444226 0.137391 0.971094
O O5 0.830052 0.170403 0.358002
O O6 0.617547 0.538459 0.662063
O O7 0.000000 0.000000 0.500000
O O8 0.179157 0.059436 0.722094
O O9 0.332384 0.457548 0.853150
O O10 0.350285 0.311431 0.822501
O O11 0.817320 0.092461 0.094327
O O12 0.748488 0.939755 0.720106
O O13 0.000000 0.500000 0.500000
O O14 0.918476 0.469001 0.495886
O O15 0.933102 0.258997 0.481395
O O16 0.348573 0.746288 0.384483
O O17 0.692848 0.638360 0.760446
#
# Coordination Sequence:
#
# PCOD9104542 Si02
#       8
#     2   2   2   2   2   2   2   2
#     4  12  23  39  62  91 124 159 207 262 289 358
#     4  10  21  38  57  84 130 156 190 256 304 352
#     4  11  21  39  66  90 121 157 201 243 300 395
#     4  10  20  39  61  88 125 158 190 245 312 373
#     4  11  23  37  61  96 124 152 193 258 325 347
#     4  10  22  39  64  88 114 165 209 242 295 366
#     4  10  22  42  62  83 123 166 213 247 292 342
#     4  10  22  39  58  88 114 170 210 240 297 351
#
# _framework density 22.989875000000001
#
# number of rings (size 3 to 8) (size 9 to 14) (size 15 to 20)
#    0.000    1.500    0.000    6.750    1.750    0.000 
#    9.000    5.000    0.000   15.000    0.000    0.000 
#    0.000    0.000    0.000    0.000    0.000    0.000 
#
# Total GULP energy -89333.617608 kJ/mol
# GULP energy per Si atom -5583.351101 kJ/mol
# Density = 2.293755 g / cm^3
# Si number density = 22.989875 Si / 1000 Ang^3
#
#
#
# Elastic Constant Matrix: (Units=GPa)
#
#
# Indices 1 2 3 4 5 6 
#
# 1 52.3067 16.5484 11.1815 1.9537 -10.7817 20.2228
# 2 16.5484 133.1780 0.4146 3.4407 -3.2754 12.9013
# 3 11.1815 0.4146 53.2149 -5.9289 -18.3358 3.2948
# 4 1.9537 3.4407 -5.9289 32.4160 7.2729 -7.3019
# 5 -10.7817 -3.2754 -18.3358 7.2729 16.4771 -4.5566
# 6 20.2228 12.9013 3.2948 -7.3019 -4.5566 41.4794
#
#
#
# Elastic Compliance Matrix: (Units=1/GPa)
#
#
# Indices 1 2 3 4 5 6 
#
# 1 0.028889 -0.001627 0.000431 -0.008760 0.019323 -0.013032
# 2 -0.001627 0.007954 0.000733 -0.001341 0.001421 -0.001819
# 3 0.000431 0.000733 0.030753 -0.002385 0.035879 0.000641
# 4 -0.008760 -0.001341 -0.002385 0.038301 -0.023045 0.009088
# 5 0.019323 0.001421 0.035879 -0.023045 0.122809 -0.003278
# 6 -0.013032 -0.001819 0.000641 0.009088 -0.003278 0.032217
#
#
# Mechanical properties :
#
#
# Convention : Reuss Voigt Hill
#
# Bulk Modulus (GPa) = 14.99927 32.77652 23.88790
# Shear Modulus (GPa) = 17.60118 32.11151 24.85634
#
# Velocity S-wave (km/s) = 2.76996 3.74139 3.29171
# Velocity P-wave (km/s) = 4.09496 5.74037 4.98601
#
# Compressibility (1/GPa) = 0.06666989
#
# Stress axis : x y z
#
# Youngs Moduli (GPa) = 34.61504 125.71626 32.51747
#
# Poissons Ratio (x) = 0.20454 -0.01402
# Poissons Ratio (y) = 0.05632 -0.02382
# Poissons Ratio (z) = -0.01493 -0.09210
#
# Static dielectric constant tensor:
#      x y z
#    x 1.890310 0.009290 0.015790 
#    y 0.009290 1.764970 -0.023540 
#    z 0.015790 -0.023540 1.907920 
# 
# From -- ./inp_files/579968.got.cif
#   From: 2010.05.17/outbox.cif.g08.bks.cpg/sg2_290_cif.got.tgz:579968.got - 2010.06.03 11:33:40.
