data_PCOD9104623
_publ_section_title
;
Structure prediction by ZEFSAII (Michael W. Deem and Ramdas Pophale) SiO2 
 PCOD9104623
Probable space group: P -1
;
_chemical_formula_sum "Si O2"
_cell_formula_units_Z 16
_cell_length_a 14.733879
_cell_length_b 9.355463
_cell_length_c 8.265163
_cell_angle_alpha 80.890130
_cell_angle_beta 132.280279
_cell_angle_gamma 77.029430
_cell_volume 741.969685
_symmetry_space_group_name_H-M "P -1"
_symmetry_group_IT_number 2
_symmetry_cell_setting 'triclinic'
loop_
_space_group_symop_operation_xyz
x,y,z
-x,-y,-z
loop_
_atom_site_type_symbol
_atom_site_label
_atom_site_fract_x
_atom_site_fract_y
_atom_site_fract_z
Si Si1 0.759379 0.510992 0.278699
Si Si2 0.379237 0.760462 0.069172
Si Si3 0.958439 0.604280 0.680515
Si Si4 0.461415 0.072665 0.616854
Si Si5 0.454737 0.763494 0.786676
Si Si6 0.913764 0.186216 0.310720
Si Si7 0.357968 0.560900 0.514751
Si Si8 0.202647 0.414048 0.193219
O O1 0.848773 0.334975 0.337058
O O2 0.700369 0.482066 0.383042
O O3 0.862919 0.586946 0.431431
O O4 0.618522 0.636819 0.998431
O O5 0.398636 0.745723 0.899355
O O6 0.226467 0.803925 0.931468
O O7 0.425032 0.892516 0.162670
O O8 0.490653 0.587594 0.303020
O O9 0.984013 0.761651 0.672020
O O10 0.885460 0.597178 0.759818
O O11 0.112097 0.455902 0.915316
O O12 0.335156 0.245249 0.398313
O O13 0.500000 0.000000 0.500000
O O14 0.431290 0.946120 0.707097
O O15 0.379150 0.715791 0.561050
O O16 0.000000 0.000000 0.500000
O O17 0.253717 0.551487 0.260011
#
# Coordination Sequence:
#
# PCOD9104623 Si02
#       8
#     2   2   2   2   2   2   2   2
#     4  10  20  39  61  92 118 156 209 250 305 364
#     4  10  21  41  59  92 125 156 208 258 313 361
#     4  10  23  41  63  85 125 174 199 246 301 378
#     4  11  26  38  63  94 124 161 204 267 309 363
#     4  11  20  38  72  91 119 159 205 272 313 351
#     4  12  25  35  59  91 126 157 201 257 305 359
#     4   9  17  38  69  89 114 156 207 259 304 360
#     4   9  22  43  62  88 125 168 209 235 313 384
#
# _framework density 21.564223999999999
#
# number of rings (size 3 to 8) (size 9 to 14) (size 15 to 20)
#    0.000    1.750    2.500    2.250    5.250    2.000 
#    0.000    2.500    0.000    5.250    0.000    0.000 
#    0.000    0.000    0.000    0.000    0.000    0.000 
#
# Total GULP energy -89289.218437 kJ/mol
# GULP energy per Si atom -5580.576152 kJ/mol
# Density = 2.151514 g / cm^3
# Si number density = 21.564224 Si / 1000 Ang^3
#
#
#
# Elastic Constant Matrix: (Units=GPa)
#
#
# Indices 1 2 3 4 5 6 
#
# 1 62.6626 34.1186 44.6490 3.5305 14.9416 11.8375
# 2 34.1186 132.7276 56.0414 16.9979 15.4609 27.6792
# 3 44.6490 56.0414 96.3837 15.9568 22.5798 14.2023
# 4 3.5305 16.9979 15.9568 36.1220 12.3934 2.5940
# 5 14.9416 15.4609 22.5798 12.3934 25.9024 7.3600
# 6 11.8375 27.6792 14.2023 2.5940 7.3600 38.6650
#
#
#
# Elastic Compliance Matrix: (Units=1/GPa)
#
#
# Indices 1 2 3 4 5 6 
#
# 1 0.025698 -0.001967 -0.009668 0.005298 -0.007220 -0.001889
# 2 -0.001967 0.011523 -0.004754 -0.003273 0.001672 -0.005999
# 3 -0.009668 -0.004754 0.019788 -0.003002 -0.007611 0.000745
# 4 0.005298 -0.003273 -0.003002 0.035386 -0.016133 0.002520
# 5 -0.007220 0.001672 -0.007611 -0.016133 0.057867 -0.006124
# 6 -0.001889 -0.005999 0.000745 0.002520 -0.006124 0.031459
#
#
# Mechanical properties :
#
#
# Convention : Reuss Voigt Hill
#
# Bulk Modulus (GPa) = 41.27111 62.37690 51.82401
# Shear Modulus (GPa) = 22.46410 30.60221 26.53316
#
# Velocity S-wave (km/s) = 3.23109 3.77121 3.51155
# Velocity P-wave (km/s) = 5.75327 6.92471 6.36599
#
# Compressibility (1/GPa) = 0.02423002
#
# Stress axis : x y z
#
# Youngs Moduli (GPa) = 38.91306 86.78504 50.53483
#
# Poissons Ratio (x) = 0.17073 0.48857
# Poissons Ratio (y) = 0.07655 0.24026
# Poissons Ratio (z) = 0.37621 0.41261
#
# Static dielectric constant tensor:
#      x y z
#    x 1.852310 0.031280 -0.014140 
#    y 0.031280 1.649160 0.143210 
#    z -0.014140 0.143210 1.684670 
# 
# From -- ./inp_files/260612.got.cif
#   From: 2010.05.17/outbox.cif.g08.bks.cpg/sg2_131_cif.got.tgz:260612.got - 2010.06.03 11:33:40.
