data_PCOD9104371
_publ_section_title
;
Structure prediction by ZEFSAII (Michael W. Deem and Ramdas Pophale) SiO2 
 PCOD9104371
Probable space group: P -1
;
_chemical_formula_sum "Si O2"
_cell_formula_units_Z 16
_cell_length_a 14.162559
_cell_length_b 10.896679
_cell_length_c 9.142646
_cell_angle_alpha 79.002772
_cell_angle_beta 58.206180
_cell_angle_gamma 43.377585
_cell_volume 777.714952
_symmetry_space_group_name_H-M "P -1"
_symmetry_group_IT_number 2
_symmetry_cell_setting 'triclinic'
loop_
_space_group_symop_operation_xyz
x,y,z
-x,-y,-z
loop_
_atom_site_type_symbol
_atom_site_label
_atom_site_fract_x
_atom_site_fract_y
_atom_site_fract_z
Si Si1 0.996044 0.949864 0.176172
Si Si2 0.125996 0.302665 0.349043
Si Si3 0.676648 0.416794 0.840673
Si Si4 0.758107 0.918502 0.411383
Si Si5 0.696670 0.642956 0.942662
Si Si6 0.467596 0.322450 0.638516
Si Si7 0.732421 0.325024 0.477619
Si Si8 0.963439 0.548980 0.187458
O O1 0.177943 0.761541 0.133583
O O2 0.877502 0.929489 0.262590
O O3 0.904926 0.123117 0.321115
O O4 0.000000 0.000000 0.000000
O O5 0.185812 0.150571 0.449245
O O6 0.012155 0.383049 0.278078
O O7 0.000000 0.500000 0.500000
O O8 0.295385 0.226979 0.167274
O O9 0.731173 0.358746 0.641515
O O10 0.500000 0.500000 0.000000
O O11 0.659163 0.575531 0.864048
O O12 0.794427 0.761053 0.326988
O O13 0.570867 0.129938 0.511111
O O14 0.597059 0.687917 0.157958
O O15 0.892522 0.476173 0.868739
O O16 0.596139 0.327012 0.570800
O O17 0.326995 0.508677 0.612420
O O18 0.000000 0.500000 0.000000
#
# Coordination Sequence:
#
# PCOD9104371 Si02
#       8
#     2   2   2   2   2   2   2   2
#     4  11  23  41  65  92 131 174 216 258 324 384
#     4   8  17  36  60  85 116 159 206 258 314 365
#     4  12  22  39  66  97 131 165 219 261 321 386
#     4  10  20  39  64  86 128 164 213 256 321 382
#     4  10  20  39  60  89 126 167 205 263 326 368
#     4  10  21  40  59  90 129 172 202 268 318 378
#     4  10  23  38  61  91 132 168 216 255 321 379
#     4   9  19  39  63  88 118 163 214 261 316 377
#
# _framework density 20.573091000000002
#
# number of rings (size 3 to 8) (size 9 to 14) (size 15 to 20)
#    0.750    1.250    2.500    1.125    3.500    0.500 
#    6.750    4.375    0.000    0.000    0.000    0.000 
#    0.000    0.000    0.000    0.000    0.000    0.000 
#
# Total GULP energy -89121.107431 kJ/mol
# GULP energy per Si atom -5570.069214 kJ/mol
# Density = 2.052627 g / cm^3
# Si number density = 20.573091 Si / 1000 Ang^3
#
#
#
# Elastic Constant Matrix: (Units=GPa)
#
#
# Indices 1 2 3 4 5 6 
#
# 1 31.4457 -15.8156 11.2524 -4.2047 3.3431 -0.1191
# 2 -15.8156 59.2565 23.1677 -12.3657 -9.4444 7.1011
# 3 11.2524 23.1677 126.6366 -27.2577 0.8144 6.4985
# 4 -4.2047 -12.3657 -27.2577 44.9297 -2.6263 -0.9495
# 5 3.3431 -9.4444 0.8144 -2.6263 36.0356 -1.9084
# 6 -0.1191 7.1011 6.4985 -0.9495 -1.9084 18.1572
#
#
#
# Elastic Compliance Matrix: (Units=1/GPa)
#
#
# Indices 1 2 3 4 5 6 
#
# 1 0.041544 0.014520 -0.005171 0.004691 0.000236 -0.003285
# 2 0.014520 0.025432 -0.004328 0.005894 0.005453 -0.007420
# 3 -0.005171 -0.004328 0.010201 0.004436 -0.000659 -0.001829
# 4 0.004691 0.005894 0.004436 0.027132 0.002873 -0.002141
# 5 0.000236 0.005453 -0.000659 0.002873 0.029453 0.001351
# 6 -0.003285 -0.007420 -0.001829 -0.002141 0.001351 0.058640
#
#
# Mechanical properties :
#
#
# Convention : Reuss Voigt Hill
#
# Bulk Modulus (GPa) = 11.46553 28.28310 19.87431
# Shear Modulus (GPa) = 23.64814 33.07346 28.36080
#
# Velocity S-wave (km/s) = 3.39406 4.01385 3.71690
# Velocity P-wave (km/s) = 4.57654 5.93791 5.30111
#
# Compressibility (1/GPa) = 0.08721798
#
# Stress axis : x y z
#
# Youngs Moduli (GPa) = 24.07098 39.32084 98.03013
#
# Poissons Ratio (x) = -0.57094 0.50691
# Poissons Ratio (y) = -0.34951 0.42432
# Poissons Ratio (z) = 0.12447 0.17020
#
# Static dielectric constant tensor:
#      x y z
#    x 1.714010 0.003610 -0.030100 
#    y 0.003610 1.764290 -0.012070 
#    z -0.030100 -0.012070 1.745530 
# 
# From -- ./inp_files/307280.got.cif
#   From: 2010.05.17/outbox.cif.g08.bks.cpg/sg2_154_cif.got.tgz:307280.got - 2010.06.03 11:33:40.
