data_PCOD9104671
_publ_section_title
;
Structure prediction by ZEFSAII (Michael W. Deem and Ramdas Pophale) SiO2 
 PCOD9104671
Probable space group: P -1
;
_chemical_formula_sum "Si O2"
_cell_formula_units_Z 14
_cell_length_a 15.687888
_cell_length_b 5.055298
_cell_length_c 9.308444
_cell_angle_alpha 100.843509
_cell_angle_beta 115.852568
_cell_angle_gamma 67.489082
_cell_volume 613.524455
_symmetry_space_group_name_H-M "P -1"
_symmetry_group_IT_number 2
_symmetry_cell_setting 'triclinic'
loop_
_space_group_symop_operation_xyz
x,y,z
-x,-y,-z
loop_
_atom_site_type_symbol
_atom_site_label
_atom_site_fract_x
_atom_site_fract_y
_atom_site_fract_z
Si Si1 0.586262 0.189116 0.699510
Si Si2 0.915242 0.410861 0.507136
Si Si3 0.812386 0.136056 0.195286
Si Si4 0.463304 0.834880 0.671959
Si Si5 0.190391 0.819795 0.122065
Si Si6 0.277896 0.246834 0.745581
Si Si7 0.907763 0.552282 0.830025
O O1 0.502380 0.498688 0.698813
O O2 0.581740 0.128213 0.519406
O O3 0.694351 0.206492 0.812774
O O4 0.556248 0.952624 0.740741
O O5 0.891556 0.160410 0.376383
O O6 0.937418 0.377666 0.687248
O O7 0.000000 0.500000 0.500000
O O8 0.807100 0.667206 0.433238
O O9 0.770478 0.885459 0.177224
O O10 0.721658 0.442755 0.175218
O O11 0.854518 0.131555 0.066803
O O12 0.380083 0.024399 0.739346
O O13 0.174109 0.553346 0.160369
O O14 0.135170 0.110214 0.197522
O O15 0.000000 0.500000 0.000000
#
# Coordination Sequence:
#
# PCOD9104671 Si02
#       7
#     2   2   2   2   2   2   2
#     4  10  22  36  67  91 132 169 211 272 324 383
#     4  10  25  43  69  95 129 173 220 264 329 389
#     4  10  24  41  67  90 135 174 214 264 330 383
#     4  10  20  39  61  99 125 167 221 265 323 388
#     4  12  25  47  65  99 137 171 220 268 335 378
#     4  10  22  41  66  92 130 174 217 266 320 393
#     4  12  27  43  70 100 133 172 219 274 321 391
#
# _framework density 22.818975999999999
#
# number of rings (size 3 to 8) (size 9 to 14) (size 15 to 20)
#    0.857    0.571    0.000    4.714    6.000    1.714 
#    0.000    4.286    0.000    0.000    0.000    0.000 
#    0.000    0.000    0.000    0.000    0.000    0.000 
#
# Total GULP energy -78288.264370 kJ/mol
# GULP energy per Si atom -5592.018884 kJ/mol
# Density = 2.276704 g / cm^3
# Si number density = 22.818976 Si / 1000 Ang^3
#
#
#
# Elastic Constant Matrix: (Units=GPa)
#
#
# Indices 1 2 3 4 5 6 
#
# 1 66.4097 -9.6937 22.1999 6.0910 4.4508 6.0892
# 2 -9.6937 60.1246 -8.6518 7.7338 -5.9601 4.7790
# 3 22.1999 -8.6518 93.6968 10.1146 -11.1417 5.7531
# 4 6.0910 7.7338 10.1146 19.8893 1.2838 -7.1722
# 5 4.4508 -5.9601 -11.1417 1.2838 28.1691 2.9987
# 6 6.0892 4.7790 5.7531 -7.1722 2.9987 39.7313
#
#
#
# Elastic Compliance Matrix: (Units=1/GPa)
#
#
# Indices 1 2 3 4 5 6 
#
# 1 0.017703 0.003133 -0.003382 -0.005987 -0.002830 -0.003467
# 2 0.003133 0.020635 0.003840 -0.013713 0.006707 -0.006500
# 3 -0.003382 0.003840 0.014067 -0.009671 0.007811 -0.004316
# 4 -0.005987 -0.013713 -0.009671 0.069293 -0.010779 0.017289
# 5 -0.002830 0.006707 0.007811 -0.010779 0.041649 -0.006593
# 6 -0.003467 -0.006500 -0.004316 0.017289 -0.006593 0.030726
#
#
# Mechanical properties :
#
#
# Convention : Reuss Voigt Hill
#
# Bulk Modulus (GPa) = 16.78280 25.32666 21.05473
# Shear Modulus (GPa) = 24.18348 31.98307 28.08328
#
# Velocity S-wave (km/s) = 3.25898 3.74786 3.51194
# Velocity P-wave (km/s) = 4.64026 5.46366 5.06871
#
# Compressibility (1/GPa) = 0.05958482
#
# Stress axis : x y z
#
# Youngs Moduli (GPa) = 56.48843 48.46110 71.09066
#
# Poissons Ratio (x) = -0.15181 0.24046
# Poissons Ratio (y) = -0.17695 -0.27300
# Poissons Ratio (z) = 0.19107 -0.18610
#
# Static dielectric constant tensor:
#      x y z
#    x 1.797290 -0.039240 0.014550 
#    y -0.039240 1.840800 -0.002690 
#    z 0.014550 -0.002690 1.879300 
# 
# From -- ./inp_files/289055.got.cif
#   From: 2010.05.17/outbox.cif.g08.bks.cpg/sg2_145_cif.got.tgz:289055.got - 2010.06.03 11:33:40.
