data_PCOD9104364
_publ_section_title
;
Structure prediction by ZEFSAII (Michael W. Deem and Ramdas Pophale) SiO2 
 PCOD9104364
Probable space group: P -1
;
_chemical_formula_sum "Si O2"
_cell_formula_units_Z 16
_cell_length_a 9.247577
_cell_length_b 18.728826
_cell_length_c 23.628596
_cell_angle_alpha 27.043248
_cell_angle_beta 26.722984
_cell_angle_gamma 26.331173
_cell_volume 728.139280
_symmetry_space_group_name_H-M "P -1"
_symmetry_group_IT_number 2
_symmetry_cell_setting 'triclinic'
loop_
_space_group_symop_operation_xyz
x,y,z
-x,-y,-z
loop_
_atom_site_type_symbol
_atom_site_label
_atom_site_fract_x
_atom_site_fract_y
_atom_site_fract_z
Si Si1 0.712505 0.204308 0.785128
Si Si2 0.243832 0.095723 0.829978
Si Si3 0.923999 0.884221 0.561537
Si Si4 0.802984 0.448841 0.656158
Si Si5 0.159141 0.617705 0.577593
Si Si6 0.879664 0.726936 0.137509
Si Si7 0.713216 0.783109 0.511218
Si Si8 0.411894 0.861554 0.840063
O O1 0.567214 0.375771 0.756573
O O2 0.379509 0.188519 0.885938
O O3 0.934713 0.235471 0.634264
O O4 0.033984 0.033002 0.826575
O O5 0.041979 0.280300 0.733673
O O6 0.339434 0.154164 0.814619
O O7 0.526675 0.943941 0.795023
O O8 0.000000 0.000000 0.000000
O O9 0.718556 0.798847 0.729545
O O10 0.225196 0.727235 0.527381
O O11 0.629077 0.031336 0.518652
O O12 0.000000 0.000000 0.500000
O O13 0.633648 0.625426 0.628909
O O14 0.000000 0.500000 0.500000
O O15 0.500000 0.500000 0.500000
O O16 0.058291 0.472672 0.739486
O O17 0.831681 0.752884 0.555751
O O18 0.266640 0.725622 0.002593
#
# Coordination Sequence:
#
# PCOD9104364 Si02
#       8
#     2   2   2   2   2   2   2   2
#     4   9  18  31  58  94 126 161 205 261 315 377
#     4   9  18  33  56  90 125 168 208 255 310 386
#     4  11  27  43  65  91 129 170 212 270 326 380
#     4   9  17  30  54  85 123 165 208 257 312 369
#     4  12  25  39  65  98 128 166 216 262 323 384
#     4  11  20  34  63  95 127 163 215 261 310 389
#     4  10  20  39  60  88 127 163 210 261 320 377
#     4   9  21  40  59  88 131 171 207 257 329 379
#
# _framework density 21.973817
#
# number of rings (size 3 to 8) (size 9 to 14) (size 15 to 20)
#    0.000    2.000    2.500    1.500    3.500    1.500 
#    0.000    0.000    0.000    0.750    0.000    0.000 
#    0.000    0.000    0.000    0.000    0.000    0.000 
#
# Total GULP energy -89225.763659 kJ/mol
# GULP energy per Si atom -5576.610229 kJ/mol
# Density = 2.192380 g / cm^3
# Si number density = 21.973817 Si / 1000 Ang^3
#
#
#
# Elastic Constant Matrix: (Units=GPa)
#
#
# Indices 1 2 3 4 5 6 
#
# 1 124.1067 36.3296 22.0417 -5.1842 -13.7406 29.9819
# 2 36.3296 73.0908 35.0409 -1.6596 -4.2046 32.4722
# 3 22.0417 35.0409 86.7701 -16.6534 3.6385 11.1893
# 4 -5.1842 -1.6596 -16.6534 19.4646 -0.0133 -4.9540
# 5 -13.7406 -4.2046 3.6385 -0.0133 33.4245 -14.4793
# 6 29.9819 32.4722 11.1893 -4.9540 -14.4793 38.2876
#
#
#
# Elastic Compliance Matrix: (Units=1/GPa)
#
#
# Indices 1 2 3 4 5 6 
#
# 1 0.010370 -0.002222 -0.001085 0.000329 0.001861 -0.005173
# 2 -0.002222 0.030560 -0.010850 -0.013736 -0.006893 -0.025392
# 3 -0.001085 -0.010850 0.018530 0.016250 -0.001079 0.006331
# 4 0.000329 -0.013736 0.016250 0.068535 0.004048 0.017042
# 5 0.001861 -0.006893 -0.001079 0.004048 0.038508 0.019791
# 6 -0.005173 -0.025392 0.006331 0.017042 0.019791 0.059543
#
#
# Mechanical properties :
#
#
# Convention : Reuss Voigt Hill
#
# Bulk Modulus (GPa) = 32.10596 52.31025 42.20810
# Shear Modulus (GPa) = 18.88635 30.93903 24.91269
#
# Velocity S-wave (km/s) = 2.93489 3.75640 3.37076
# Velocity P-wave (km/s) = 5.11151 6.53234 5.86511
#
# Compressibility (1/GPa) = 0.03114686
#
# Stress axis : x y z
#
# Youngs Moduli (GPa) = 96.43148 32.72257 53.96796
#
# Poissons Ratio (x) = 0.07270 0.05855
# Poissons Ratio (y) = 0.21423 0.58554
# Poissons Ratio (z) = 0.10462 0.35503
#
# Static dielectric constant tensor:
#      x y z
#    x 1.855330 0.009140 0.000110 
#    y 0.009140 1.847520 -0.004280 
#    z 0.000110 -0.004280 1.842500 
# 
# From -- ./inp_files/608447.got.cif
#   From: 2010.05.17/outbox.cif.g08.bks.cpg/sg2_305_cif.got.tgz:608447.got - 2010.06.03 11:33:40.
