data_PCOD9104571
_publ_section_title
;
Structure prediction by ZEFSAII (Michael W. Deem and Ramdas Pophale) SiO2 
 PCOD9104571
Probable space group: P -1
;
_chemical_formula_sum "Si O2"
_cell_formula_units_Z 10
_cell_length_a 8.813106
_cell_length_b 8.019639
_cell_length_c 10.005040
_cell_angle_alpha 68.221879
_cell_angle_beta 136.580405
_cell_angle_gamma 88.793410
_cell_volume 401.879045
_symmetry_space_group_name_H-M "P -1"
_symmetry_group_IT_number 2
_symmetry_cell_setting 'triclinic'
loop_
_space_group_symop_operation_xyz
x,y,z
-x,-y,-z
loop_
_atom_site_type_symbol
_atom_site_label
_atom_site_fract_x
_atom_site_fract_y
_atom_site_fract_z
Si Si1 0.168730 0.131515 0.379415
Si Si2 0.686209 0.498490 0.006568
Si Si3 0.104373 0.585991 0.380865
Si Si4 0.260130 0.155321 0.722330
Si Si5 0.553756 0.258639 0.486024
O O1 0.234553 0.056975 0.596496
O O2 0.325923 0.257369 0.419586
O O3 0.877386 0.273938 0.149159
O O4 0.265768 0.970551 0.372327
O O5 0.869726 0.580564 0.161860
O O6 0.500000 0.500000 0.000000
O O7 0.551196 0.625559 0.754153
O O8 0.255797 0.369372 0.614987
O O9 0.271682 0.648354 0.375157
O O10 0.982925 0.760257 0.364779
O O11 0.500000 0.000000 0.000000
#
# Coordination Sequence:
#
# PCOD9104571 Si02
#       5
#     2   2   2   2   2
#     4  10  24  41  62  92 128 167 204 255 316 367
#     4  11  23  42  66  92 124 164 207 259 313 364
#     4  10  23  39  64  95 119 160 215 252 302 376
#     4  10  20  39  61  89 124 160 205 255 306 361
#     4  11  23  43  63  91 131 163 205 258 308 370
#
# _framework density 24.883108
#
# number of rings (size 3 to 8) (size 9 to 14) (size 15 to 20)
#    0.000    1.600    0.000    5.400    0.000    9.600 
#    0.000   11.000    0.000    0.000    0.000    0.000 
#    0.000    0.000    0.000    0.000    0.000    0.000 
#
# Total GULP energy -55995.711596 kJ/mol
# GULP energy per Si atom -5599.571160 kJ/mol
# Density = 2.482647 g / cm^3
# Si number density = 24.883108 Si / 1000 Ang^3
#
#
#
# Elastic Constant Matrix: (Units=GPa)
#
#
# Indices 1 2 3 4 5 6 
#
# 1 136.8544 9.9073 31.1371 -3.5227 37.3171 11.7691
# 2 9.9073 66.8848 16.1609 10.5744 22.0699 14.7307
# 3 31.1371 16.1609 107.8998 -10.9539 21.7287 5.2534
# 4 -3.5227 10.5744 -10.9539 33.4961 -6.9934 15.4735
# 5 37.3171 22.0699 21.7287 -6.9934 42.2430 3.3413
# 6 11.7691 14.7307 5.2534 15.4735 3.3413 49.0233
#
#
#
# Elastic Compliance Matrix: (Units=1/GPa)
#
#
# Indices 1 2 3 4 5 6 
#
# 1 0.010249 0.002725 -0.001430 -0.001361 -0.009806 -0.002028
# 2 0.002725 0.021685 -0.001945 -0.008566 -0.013892 -0.003311
# 3 -0.001430 -0.001945 0.010979 0.004158 -0.002570 -0.001386
# 4 -0.001361 -0.008566 0.004158 0.041388 0.011291 -0.011378
# 5 -0.009806 -0.013892 -0.002570 0.011291 0.042759 0.000326
# 6 -0.002028 -0.003311 -0.001386 -0.011378 0.000326 0.025598
#
#
# Mechanical properties :
#
#
# Convention : Reuss Voigt Hill
#
# Bulk Modulus (GPa) = 24.03151 47.33884 35.68517
# Shear Modulus (GPa) = 29.79228 41.91473 35.85350
#
# Velocity S-wave (km/s) = 3.46394 4.10868 3.80001
# Velocity P-wave (km/s) = 5.06727 6.44780 5.79876
#
# Compressibility (1/GPa) = 0.04161204
#
# Stress axis : x y z
#
# Youngs Moduli (GPa) = 97.57513 46.11480 91.08333
#
# Poissons Ratio (x) = -0.12567 0.13027
# Poissons Ratio (y) = -0.26590 0.17717
# Poissons Ratio (z) = 0.13955 0.08970
#
# Static dielectric constant tensor:
#      x y z
#    x 1.979870 0.005130 0.050460 
#    y 0.005130 2.107170 0.006100 
#    z 0.050460 0.006100 1.921640 
# 
# From -- ./inp_files/172211.got.cif
#   From: 2010.05.17/outbox.cif.g08.bks.cpg/sg2_87_cif.got.tgz:172211.got - 2010.06.03 11:33:40.
