data_PCOD9104100
_publ_section_title
;
Structure prediction by ZEFSAII (Michael W. Deem and Ramdas Pophale) SiO2 
 PCOD9104100
Probable space group: P -1
;
_chemical_formula_sum "Si O2"
_cell_formula_units_Z 16
_cell_length_a 9.207866
_cell_length_b 18.851356
_cell_length_c 14.098845
_cell_angle_alpha 148.177575
_cell_angle_beta 146.721639
_cell_angle_gamma 32.769960
_cell_volume 631.949058
_symmetry_space_group_name_H-M "P -1"
_symmetry_group_IT_number 2
_symmetry_cell_setting 'triclinic'
loop_
_space_group_symop_operation_xyz
x,y,z
-x,-y,-z
loop_
_atom_site_type_symbol
_atom_site_label
_atom_site_fract_x
_atom_site_fract_y
_atom_site_fract_z
Si Si1 0.732661 0.723350 0.406075
Si Si2 0.825701 0.942236 0.156455
Si Si3 0.310401 0.483314 0.112304
Si Si4 0.481188 0.152349 0.774454
Si Si5 0.133505 0.973364 0.917838
Si Si6 0.423586 0.641022 0.706378
Si Si7 0.584776 0.043632 0.340786
Si Si8 0.035313 0.598547 0.903912
O O1 0.604574 0.823984 0.355766
O O2 0.528299 0.813989 0.486670
O O3 0.077618 0.690354 0.556507
O O4 0.768315 0.553773 0.219809
O O5 0.938446 0.017076 0.223165
O O6 0.804123 0.996371 0.314628
O O7 0.972352 0.761975 0.018194
O O8 0.500000 0.000000 0.000000
O O9 0.481282 0.485249 0.302587
O O10 0.478534 0.311427 0.975224
O O11 0.000000 0.500000 0.000000
O O12 0.211400 0.586219 0.084122
O O13 0.806996 0.026645 0.837273
O O14 0.295495 0.100927 0.686046
O O15 0.380395 0.809370 0.895592
O O16 0.279532 0.076329 0.153120
O O17 0.717296 0.592172 0.744332
#
# Coordination Sequence:
#
# PCOD9104100 Si02
#       8
#     2   2   2   2   2   2   2   2
#     4  11  24  33  59  95 128 149 191 259 311 343
#     4  10  21  40  64  85 116 164 206 238 288 365
#     4   9  18  32  58  89 116 152 198 250 289 344
#     4  11  20  36  57  94 124 152 198 254 298 344
#     4  11  21  36  66  89 117 157 211 243 286 358
#     4  11  18  36  61  91 120 154 199 247 303 348
#     4  11  19  36  60  91 116 155 204 246 291 350
#     4  10  20  39  57  88 126 154 194 247 306 354
#
# _framework density 25.318497000000001
#
# number of rings (size 3 to 8) (size 9 to 14) (size 15 to 20)
#    0.000    1.500    5.000    2.625    0.000    0.000 
#    0.000    5.625    0.000    3.000    0.000    0.000 
#    0.000    0.000    0.000    0.000    0.000    0.000 
#
# Total GULP energy -89084.072478 kJ/mol
# GULP energy per Si atom -5567.754530 kJ/mol
# Density = 2.526087 g / cm^3
# Si number density = 25.318497 Si / 1000 Ang^3
#
#
#
# Elastic Constant Matrix: (Units=GPa)
#
#
# Indices 1 2 3 4 5 6 
#
# 1 103.1101 6.3333 23.1735 9.0295 -31.0910 2.5494
# 2 6.3333 127.0825 13.0561 4.1187 -20.1584 3.9686
# 3 23.1735 13.0561 65.2651 2.9480 -25.0961 0.9658
# 4 9.0295 4.1187 2.9480 42.5464 -6.7395 -10.5827
# 5 -31.0910 -20.1584 -25.0961 -6.7395 44.2654 -6.7165
# 6 2.5494 3.9686 0.9658 -10.5827 -6.7165 34.5796
#
#
#
# Elastic Compliance Matrix: (Units=1/GPa)
#
#
# Indices 1 2 3 4 5 6 
#
# 1 0.012557 0.000863 -0.001402 -0.001288 0.008256 0.000224
# 2 0.000863 0.008551 -0.000393 -0.000412 0.004161 -0.000352
# 3 -0.001402 -0.000393 0.019889 0.001131 0.010587 0.001995
# 4 -0.001288 -0.000412 0.001131 0.026854 0.005050 0.009310
# 5 0.008256 0.004161 0.010587 0.005050 0.038207 0.007585
# 6 0.000224 -0.000352 0.001995 0.009310 0.007585 0.033209
#
#
# Mechanical properties :
#
#
# Convention : Reuss Voigt Hill
#
# Bulk Modulus (GPa) = 25.55442 42.28706 33.92074
# Shear Modulus (GPa) = 32.43058 41.13794 36.78426
#
# Velocity S-wave (km/s) = 3.58286 4.03528 3.81578
# Velocity P-wave (km/s) = 5.21832 6.20077 5.73064
#
# Compressibility (1/GPa) = 0.03913218
#
# Stress axis : x y z
#
# Youngs Moduli (GPa) = 79.63668 116.95025 50.27908
#
# Poissons Ratio (x) = -0.10087 0.07048
# Poissons Ratio (y) = -0.06869 0.01976
# Poissons Ratio (z) = 0.11163 0.04596
#
# Static dielectric constant tensor:
#      x y z
#    x -0.654510 0.396880 0.427360 
#    y 0.396880 1.873430 -0.074320 
#    z 0.427360 -0.074320 2.029390 
# 
# From -- ./inp_files/524115.got.cif
#   From: 2010.05.17/outbox.cif.g08.bks.cpg/sg2_263_cif.got.tgz:524115.got - 2010.06.03 11:33:40.
