data_PCOD9104530
_publ_section_title
;
Structure prediction by ZEFSAII (Michael W. Deem and Ramdas Pophale) SiO2 
 PCOD9104530
Probable space group: P -1
;
_chemical_formula_sum "Si O2"
_cell_formula_units_Z 14
_cell_length_a 15.084143
_cell_length_b 13.934834
_cell_length_c 8.839653
_cell_angle_alpha 103.127450
_cell_angle_beta 85.038148
_cell_angle_gamma 28.659166
_cell_volume 686.414131
_symmetry_space_group_name_H-M "P -1"
_symmetry_group_IT_number 2
_symmetry_cell_setting 'triclinic'
loop_
_space_group_symop_operation_xyz
x,y,z
-x,-y,-z
loop_
_atom_site_type_symbol
_atom_site_label
_atom_site_fract_x
_atom_site_fract_y
_atom_site_fract_z
Si Si1 0.548872 0.150021 0.340829
Si Si2 0.513051 0.141131 0.703123
Si Si3 0.333995 0.757418 0.563562
Si Si4 0.874369 0.145737 0.908677
Si Si5 0.792413 0.657473 0.507461
Si Si6 0.979414 0.417787 0.060199
Si Si7 0.375533 0.762911 0.208099
O O1 0.556264 0.115521 0.507727
O O2 0.556213 0.259377 0.377907
O O3 0.318821 0.324584 0.390279
O O4 0.774331 0.884950 0.118840
O O5 0.244009 0.418412 0.897292
O O6 0.638922 0.103505 0.754302
O O7 0.594285 0.945184 0.638966
O O8 0.500000 0.500000 0.500000
O O9 0.323097 0.787577 0.397545
O O10 0.073443 0.997256 0.733984
O O11 0.789536 0.128830 0.842435
O O12 0.642631 0.450510 0.044819
O O13 0.000000 0.000000 0.000000
O O14 0.901981 0.517662 0.279334
O O15 0.000000 0.500000 0.500000
O O16 0.000000 0.500000 0.000000
#
# Coordination Sequence:
#
# PCOD9104530 Si02
#       7
#     2   2   2   2   2   2   2
#     4  10  21  39  63  85 115 166 203 240 303 360
#     4  10  20  39  61  88 118 157 203 244 302 368
#     4  11  22  40  64  91 123 162 210 256 307 368
#     4  11  22  42  64  91 125 160 210 257 307 367
#     4  11  23  38  56  91 127 152 196 254 302 357
#     4  11  18  38  65  80 115 163 201 240 290 362
#     4  10  23  41  64  89 125 166 202 256 313 364
#
# _framework density 20.395852000000001
#
# number of rings (size 3 to 8) (size 9 to 14) (size 15 to 20)
#    0.000    1.429    4.286    2.143    0.000    1.714 
#    5.143    0.000    0.000    0.000    0.000    0.000 
#    0.000    0.000    0.000    0.000    0.000    0.000 
#
# Total GULP energy -78057.829314 kJ/mol
# GULP energy per Si atom -5575.559237 kJ/mol
# Density = 2.034943 g / cm^3
# Si number density = 20.395852 Si / 1000 Ang^3
#
#
#
# Elastic Constant Matrix: (Units=GPa)
#
#
# Indices 1 2 3 4 5 6 
#
# 1 184.1007 46.4802 69.0980 10.7632 2.2674 -23.2171
# 2 46.4802 47.2372 22.9988 5.0993 -1.2415 -19.8138
# 3 69.0980 22.9988 125.2277 22.1154 -22.7042 -11.5994
# 4 10.7632 5.0993 22.1154 17.0344 -10.3705 1.3243
# 5 2.2674 -1.2415 -22.7042 -10.3705 37.3256 7.8126
# 6 -23.2171 -19.8138 -11.5994 1.3243 7.8126 32.5551
#
#
#
# Elastic Compliance Matrix: (Units=1/GPa)
#
#
# Indices 1 2 3 4 5 6 
#
# 1 0.008837 -0.005641 -0.004147 -0.001185 -0.004083 0.002419
# 2 -0.005641 0.036608 -0.000847 -0.011741 -0.006397 0.019968
# 3 -0.004147 -0.000847 0.013437 -0.011524 0.005077 0.000565
# 4 -0.001185 -0.011741 -0.011524 0.093729 0.023209 -0.021479
# 5 -0.004083 -0.006397 0.005077 0.023209 0.039595 -0.015442
# 6 0.002419 0.019968 0.000565 -0.021479 -0.015442 0.049377
#
#
# Mechanical properties :
#
#
# Convention : Reuss Voigt Hill
#
# Bulk Modulus (GPa) = 26.58739 70.41330 48.50035
# Shear Modulus (GPa) = 18.15595 31.91560 25.03577
#
# Velocity S-wave (km/s) = 2.98682 3.96006 3.50736
# Velocity P-wave (km/s) = 4.99588 7.45035 6.34297
#
# Compressibility (1/GPa) = 0.03761181
#
# Stress axis : x y z
#
# Youngs Moduli (GPa) = 113.15872 27.31635 74.41932
#
# Poissons Ratio (x) = 0.15409 0.30862
# Poissons Ratio (y) = 0.63833 0.06306
# Poissons Ratio (z) = 0.46927 0.02315
#
# Static dielectric constant tensor:
#      x y z
#    x 1.337700 -0.656860 -0.804290 
#    y -0.656860 0.894320 -1.234930 
#    z -0.804290 -1.234930 0.036810 
# 
# From -- ./inp_files/315205.got.cif
#   From: 2010.05.17/outbox.cif.g08.bks.cpg/sg2_158_cif.got.tgz:315205.got - 2010.06.03 11:33:40.
