data_PCOD9104327
_publ_section_title
;
Structure prediction by ZEFSAII (Michael W. Deem and Ramdas Pophale) SiO2 
 PCOD9104327
Probable space group: P -1
;
_chemical_formula_sum "Si O2"
_cell_formula_units_Z 12
_cell_length_a 11.323420
_cell_length_b 23.145236
_cell_length_c 6.969663
_cell_angle_alpha 147.399947
_cell_angle_beta 40.246098
_cell_angle_gamma 150.457187
_cell_volume 482.074257
_symmetry_space_group_name_H-M "P -1"
_symmetry_group_IT_number 2
_symmetry_cell_setting 'triclinic'
loop_
_space_group_symop_operation_xyz
x,y,z
-x,-y,-z
loop_
_atom_site_type_symbol
_atom_site_label
_atom_site_fract_x
_atom_site_fract_y
_atom_site_fract_z
Si Si1 0.436095 0.866704 0.308296
Si Si2 0.103058 0.693228 0.529654
Si Si3 0.430210 0.471898 0.281992
Si Si4 0.718370 0.771567 0.665360
Si Si5 0.584039 0.764016 0.252121
Si Si6 0.179734 0.954488 0.346217
O O1 0.577216 0.942705 0.544380
O O2 0.500000 0.000000 0.500000
O O3 0.166999 0.738727 0.353278
O O4 0.539252 0.798286 0.896373
O O5 0.302128 0.686879 0.349499
O O6 0.821427 0.561046 0.525502
O O7 0.138252 0.821732 0.944473
O O8 0.628164 0.614613 0.319205
O O9 0.292805 0.218048 0.057964
O O10 0.399621 0.332650 0.902185
O O11 0.500000 0.500000 0.500000
O O12 0.968707 0.889609 0.581700
O O13 0.749552 0.927959 0.569594
#
# Coordination Sequence:
#
# PCOD9104327 Si02
#       6
#     2   2   2   2   2   2
#     4  10  21  36  64  90 111 152 200 239 288 344
#     4  10  22  39  60  87 121 152 191 247 292 335
#     4  10  22  37  61  85 117 159 198 231 288 354
#     4   9  20  37  57  85 120 149 192 240 283 347
#     4   9  19  38  62  85 113 155 199 235 289 346
#     4  10  20  39  60  86 122 145 192 251 291 335
#
# _framework density 24.892430000000001
#
# number of rings (size 3 to 8) (size 9 to 14) (size 15 to 20)
#    0.000    2.667    0.000    4.000    7.000    7.333 
#    3.000    0.833    0.000    0.000    0.000    0.000 
#    0.000    0.000    0.000    0.000    0.000    0.000 
#
# Total GULP energy -66971.189462 kJ/mol
# GULP energy per Si atom -5580.932455 kJ/mol
# Density = 2.483577 g / cm^3
# Si number density = 24.892430 Si / 1000 Ang^3
#
#
#
# Elastic Constant Matrix: (Units=GPa)
#
#
# Indices 1 2 3 4 5 6 
#
# 1 72.1083 33.6683 7.2398 5.0864 -19.5894 4.1230
# 2 33.6683 137.8467 27.4381 7.4813 -28.6243 -1.7219
# 3 7.2398 27.4381 88.0389 0.3461 -13.0335 -10.6466
# 4 5.0864 7.4813 0.3461 47.9357 -5.8491 -11.6656
# 5 -19.5894 -28.6243 -13.0335 -5.8491 34.1718 8.5718
# 6 4.1230 -1.7219 -10.6466 -11.6656 8.5718 43.7686
#
#
#
# Elastic Compliance Matrix: (Units=1/GPa)
#
#
# Indices 1 2 3 4 5 6 
#
# 1 0.017741 -0.002501 0.000177 -0.001341 0.008872 -0.003821
# 2 -0.002501 0.009534 -0.002033 -0.000788 0.005959 -0.001261
# 3 0.000177 -0.002033 0.012718 0.001220 0.002761 0.002782
# 4 -0.001341 -0.000788 0.001220 0.022795 0.001384 0.006196
# 5 0.008872 0.005959 0.002761 0.001384 0.042614 -0.007907
# 6 -0.003821 -0.001261 0.002782 0.006196 -0.007907 0.027034
#
#
# Mechanical properties :
#
#
# Convention : Reuss Voigt Hill
#
# Bulk Modulus (GPa) = 31.96974 48.29847 40.13411
# Shear Modulus (GPa) = 32.98639 40.48506 36.73573
#
# Velocity S-wave (km/s) = 3.64422 4.03724 3.84575
# Velocity P-wave (km/s) = 5.52975 6.41696 5.98981
#
# Compressibility (1/GPa) = 0.03127958
#
# Stress axis : x y z
#
# Youngs Moduli (GPa) = 56.36543 104.88403 78.62932
#
# Poissons Ratio (x) = 0.26233 -0.01393
# Poissons Ratio (y) = 0.14098 0.15985
# Poissons Ratio (z) = -0.00998 0.21323
#
# Static dielectric constant tensor:
#      x y z
#    x 2.158090 -0.122730 -0.040530 
#    y -0.122730 2.037910 0.084170 
#    z -0.040530 0.084170 2.234690 
# 
# From -- ./inp_files/108227.got.cif
#   From: 2010.05.17/outbox.cif.g08.bks.cpg/sg2_55_cif.got.tgz:108227.got - 2010.06.03 11:33:40.
