data_PCOD9104677
_publ_section_title
;
Structure prediction by ZEFSAII (Michael W. Deem and Ramdas Pophale) SiO2 
 PCOD9104677
Probable space group: P -1
;
_chemical_formula_sum "Si O2"
_cell_formula_units_Z 16
_cell_length_a 8.844417
_cell_length_b 9.030960
_cell_length_c 11.833878
_cell_angle_alpha 88.083213
_cell_angle_beta 138.548613
_cell_angle_gamma 77.896146
_cell_volume 584.677019
_symmetry_space_group_name_H-M "P -1"
_symmetry_group_IT_number 2
_symmetry_cell_setting 'triclinic'
loop_
_space_group_symop_operation_xyz
x,y,z
-x,-y,-z
loop_
_atom_site_type_symbol
_atom_site_label
_atom_site_fract_x
_atom_site_fract_y
_atom_site_fract_z
Si Si1 0.168768 0.424080 0.233561
Si Si2 0.894948 0.358724 0.446594
Si Si3 0.961358 0.262941 0.958219
Si Si4 0.596208 0.572635 0.950116
Si Si5 0.851257 0.089542 0.560390
Si Si6 0.316849 0.167017 0.507383
Si Si7 0.709927 0.076111 0.923125
Si Si8 0.629439 0.070001 0.183856
O O1 0.175738 0.316721 0.129614
O O2 0.310569 0.304961 0.412787
O O3 0.204347 0.585912 0.211019
O O4 0.882551 0.485471 0.101825
O O5 0.889040 0.258601 0.559927
O O6 0.075978 0.244008 0.454925
O O7 0.000000 0.500000 0.500000
O O8 0.606808 0.426408 0.255811
O O9 0.086454 0.099093 0.966996
O O10 0.824920 0.211576 0.986703
O O11 0.550227 0.755444 0.942958
O O12 0.500000 0.500000 0.000000
O O13 0.738681 0.077296 0.372277
O O14 0.126428 0.981788 0.748946
O O15 0.707455 0.995499 0.550886
O O16 0.559076 0.119807 0.719233
O O17 0.500140 0.058395 0.885213
#
# Coordination Sequence:
#
# PCOD9104677 Si02
#       8
#     2   2   2   2   2   2   2   2
#     4  11  23  39  59  86 117 151 195 239 286 340
#     4  11  21  32  55  93 119 146 187 231 288 347
#     4  10  24  41  58  83 113 155 201 240 285 334
#     4  11  19  34  58  86 118 150 180 231 295 350
#     4   9  15  33  54  82 111 147 185 221 282 352
#     4  11  20  38  62  83 115 155 193 236 282 349
#     4  10  20  39  62  79 107 155 197 241 284 328
#     4   9  14  29  58  77 105 151 185 218 281 345
#
# _framework density 27.365537
#
# number of rings (size 3 to 8) (size 9 to 14) (size 15 to 20)
#    0.000    1.750    7.500    0.000    1.750    1.000 
#    0.000    3.750    0.000    3.000    0.000    0.000 
#    0.000    0.000    0.000    0.000    0.000    0.000 
#
# Total GULP energy -89360.678364 kJ/mol
# GULP energy per Si atom -5585.042398 kJ/mol
# Density = 2.730325 g / cm^3
# Si number density = 27.365537 Si / 1000 Ang^3
#
#
#
# Elastic Constant Matrix: (Units=GPa)
#
#
# Indices 1 2 3 4 5 6 
#
# 1 90.8030 47.1012 11.1324 -12.5169 8.8582 20.8977
# 2 47.1012 223.9739 49.3798 -21.5510 -1.6053 47.0954
# 3 11.1324 49.3798 89.1421 -14.3205 10.7784 0.2341
# 4 -12.5169 -21.5510 -14.3205 48.3135 12.0144 -2.9329
# 5 8.8582 -1.6053 10.7784 12.0144 37.4500 -5.1199
# 6 20.8977 47.0954 0.2341 -2.9329 -5.1199 56.0513
#
#
#
# Elastic Compliance Matrix: (Units=1/GPa)
#
#
# Indices 1 2 3 4 5 6 
#
# 1 0.013890 -0.001895 0.000623 0.004039 -0.005371 -0.003868
# 2 -0.001895 0.006730 -0.003401 0.001030 0.000727 -0.004813
# 3 0.000623 -0.003401 0.014401 0.004431 -0.005546 0.002290
# 4 0.004039 0.001030 0.004431 0.026089 -0.010831 -0.002014
# 5 -0.005371 0.000727 -0.005546 -0.010831 0.033611 0.003918
# 6 -0.003868 -0.004813 0.002290 -0.002014 0.003918 0.023570
#
#
# Mechanical properties :
#
#
# Convention : Reuss Voigt Hill
#
# Bulk Modulus (GPa) = 38.94780 68.79400 53.87090
# Shear Modulus (GPa) = 36.71251 48.11666 42.41458
#
# Velocity S-wave (km/s) = 3.66670 4.19775 3.94118
# Velocity P-wave (km/s) = 5.67359 6.97770 6.35916
#
# Compressibility (1/GPa) = 0.02567539
#
# Stress axis : x y z
#
# Youngs Moduli (GPa) = 71.99238 148.59880 69.44156
#
# Poissons Ratio (x) = 0.28160 -0.04329
# Poissons Ratio (y) = 0.13643 0.23617
# Poissons Ratio (z) = -0.04488 0.50538
#
# Static dielectric constant tensor:
#      x y z
#    x 2.288260 -0.052510 -0.075120 
#    y -0.052510 2.171290 0.027310 
#    z -0.075120 0.027310 2.228300 
# 
# From -- ./inp_files/566704.got.cif
#   From: 2010.05.17/outbox.cif.g08.bks.cpg/sg2_284_cif.got.tgz:566704.got - 2010.06.03 11:33:40.
