data_PCOD9104187
_publ_section_title
;
Structure prediction by ZEFSAII (Michael W. Deem and Ramdas Pophale) SiO2 
 PCOD9104187
Probable space group: P -1
;
_chemical_formula_sum "Si O2"
_cell_formula_units_Z 16
_cell_length_a 20.890452
_cell_length_b 8.648020
_cell_length_c 23.006608
_cell_angle_alpha 150.212270
_cell_angle_beta 159.727967
_cell_angle_gamma 34.688838
_cell_volume 714.623815
_symmetry_space_group_name_H-M "P -1"
_symmetry_group_IT_number 2
_symmetry_cell_setting 'triclinic'
loop_
_space_group_symop_operation_xyz
x,y,z
-x,-y,-z
loop_
_atom_site_type_symbol
_atom_site_label
_atom_site_fract_x
_atom_site_fract_y
_atom_site_fract_z
Si Si1 0.994957 0.498577 0.874575
Si Si2 0.178731 0.405341 0.811354
Si Si3 0.519947 0.000637 0.129579
Si Si4 0.672797 0.592922 0.718216
Si Si5 0.162252 0.632349 0.427962
Si Si6 0.363362 0.025873 0.447439
Si Si7 0.321153 0.634351 0.123988
Si Si8 0.770643 0.063267 0.050436
O O1 0.845789 0.641787 0.838895
O O2 0.890923 0.406422 0.696786
O O3 0.163578 0.701275 0.060836
O O4 0.087351 0.192713 0.884167
O O5 0.008910 0.224300 0.633517
O O6 0.356796 0.198110 0.875455
O O7 0.228357 0.617304 0.977546
O O8 0.132615 0.641869 0.797008
O O9 0.662826 0.163131 0.347066
O O10 0.403866 0.286373 0.094314
O O11 0.374206 0.826346 0.987312
O O12 0.500000 0.500000 0.500000
O O13 0.660974 0.881597 0.847143
O O14 0.709583 0.292705 0.694172
O O15 0.213866 0.295744 0.390930
O O16 0.506516 0.150602 0.657593
O O17 0.500000 0.000000 0.500000
#
# Coordination Sequence:
#
# PCOD9104187 Si02
#       8
#     2   2   2   2   2   2   2   2
#     4  10  21  39  57  82 117 148 180 230 281 332
#     4  11  21  37  59  84 111 148 189 233 277 325
#     4  10  20  39  59  81 112 148 186 234 280 323
#     4  12  23  38  59  84 116 151 181 226 285 336
#     4  10  22  38  59  84 112 145 190 231 275 333
#     4  11  21  38  59  84 114 150 186 228 277 334
#     4   9  21  37  59  85 112 144 189 231 275 333
#     4  11  23  38  56  84 115 148 188 229 275 336
#
# _framework density 22.389402
#
# number of rings (size 3 to 8) (size 9 to 14) (size 15 to 20)
#    0.000    1.500    0.000    6.750    0.000    1.000 
#    0.000    5.625    0.000    0.000    0.000    0.000 
#    0.000    0.000    0.000    0.000    0.000    0.000 
#
# Total GULP energy -89451.227531 kJ/mol
# GULP energy per Si atom -5590.701721 kJ/mol
# Density = 2.233844 g / cm^3
# Si number density = 22.389402 Si / 1000 Ang^3
#
#
#
# Elastic Constant Matrix: (Units=GPa)
#
#
# Indices 1 2 3 4 5 6 
#
# 1 116.5352 23.7953 15.5814 -9.0247 25.9869 -13.9900
# 2 23.7953 39.1605 8.7254 -8.5081 14.2873 -12.7858
# 3 15.5814 8.7254 42.1509 -17.7243 -0.2725 12.7198
# 4 -9.0247 -8.5081 -17.7243 28.3860 0.0801 6.6220
# 5 25.9869 14.2873 -0.2725 0.0801 33.7388 -10.9310
# 6 -13.9900 -12.7858 12.7198 6.6220 -10.9310 39.4590
#
#
#
# Elastic Compliance Matrix: (Units=1/GPa)
#
#
# Indices 1 2 3 4 5 6 
#
# 1 0.011649 -0.002568 -0.005275 -0.001107 -0.006861 0.003283
# 2 -0.002568 0.036821 -0.009157 0.002009 -0.010190 0.010812
# 3 -0.005275 -0.009157 0.049022 0.032280 -0.000200 -0.026112
# 4 -0.001107 0.002009 0.032280 0.060865 -0.007118 -0.022333
# 5 -0.006861 -0.010190 -0.000200 -0.007118 0.041532 0.007030
# 6 0.003283 0.010812 -0.026112 -0.022333 0.007030 0.044123
#
#
# Mechanical properties :
#
#
# Convention : Reuss Voigt Hill
#
# Bulk Modulus (GPa) = 15.74994 32.67230 24.21112
# Shear Modulus (GPa) = 16.71253 30.29971 23.50612
#
# Velocity S-wave (km/s) = 2.73508 3.68272 3.24370
# Velocity P-wave (km/s) = 4.12602 5.71906 4.98657
#
# Compressibility (1/GPa) = 0.06349229
#
# Stress axis : x y z
#
# Youngs Moduli (GPa) = 85.84139 27.15846 20.39904
#
# Poissons Ratio (x) = 0.06975 0.10761
# Poissons Ratio (y) = 0.22046 0.18678
# Poissons Ratio (z) = 0.45283 0.24868
#
# Static dielectric constant tensor:
#      x y z
#    x 1.823580 -0.007840 0.002440 
#    y -0.007840 1.837140 -0.008260 
#    z 0.002440 -0.008260 1.843060 
# 
# From -- ./inp_files/208210.got.cif
#   From: 2010.05.17/outbox.cif.g08.bks.cpg/sg2_105_cif.got.tgz:208210.got - 2010.06.03 11:33:40.
