data_PCOD9104471
_publ_section_title
;
Structure prediction by ZEFSAII (Michael W. Deem and Ramdas Pophale) SiO2 
 PCOD9104471
Probable space group: P -1
;
_chemical_formula_sum "Si O2"
_cell_formula_units_Z 16
_cell_length_a 17.630329
_cell_length_b 19.507062
_cell_length_c 7.499232
_cell_angle_alpha 58.634108
_cell_angle_beta 68.852888
_cell_angle_gamma 20.952940
_cell_volume 718.124711
_symmetry_space_group_name_H-M "P -1"
_symmetry_group_IT_number 2
_symmetry_cell_setting 'triclinic'
loop_
_space_group_symop_operation_xyz
x,y,z
-x,-y,-z
loop_
_atom_site_type_symbol
_atom_site_label
_atom_site_fract_x
_atom_site_fract_y
_atom_site_fract_z
Si Si1 0.509804 0.087401 0.369833
Si Si2 0.600029 0.580855 0.673034
Si Si3 0.108701 0.109066 0.398212
Si Si4 0.987379 0.323554 0.540099
Si Si5 0.643372 0.303945 0.528900
Si Si6 0.674692 0.934662 0.827161
Si Si7 0.261318 0.305677 0.948756
Si Si8 0.873484 0.206509 0.192353
O O1 0.525367 0.091580 0.560946
O O2 0.500000 0.000000 0.500000
O O3 0.306000 0.296964 0.121903
O O4 0.745264 0.906166 0.330133
O O5 0.797556 0.466227 0.644293
O O6 0.517039 0.621442 0.497864
O O7 0.356937 0.839702 0.602649
O O8 0.714322 0.404149 0.928193
O O9 0.993551 0.249763 0.482322
O O10 0.958796 0.185454 0.309277
O O11 0.162781 0.138378 0.194878
O O12 0.903913 0.483886 0.306645
O O13 0.500000 0.500000 0.500000
O O14 0.732180 0.265539 0.324742
O O15 0.885903 0.048340 0.753746
O O16 0.507373 0.081684 0.937968
O O17 0.795610 0.736645 0.955387
#
# Coordination Sequence:
#
# PCOD9104471 Si02
#       8
#     2   2   2   2   2   2   2   2
#     4   9  21  37  56  86 116 154 214 260 308 375
#     4  11  23  39  61  92 126 153 206 251 294 381
#     4  10  22  39  57  87 126 153 208 256 301 366
#     4  11  23  38  62  88 119 169 210 252 320 368
#     4  10  22  42  65  92 125 153 200 244 296 374
#     4   9  19  38  59  84 122 160 207 271 303 363
#     4  10  20  39  61  83 124 163 211 269 314 356
#     4  10  23  40  64  92 121 165 191 243 319 355
#
# _framework density 22.280253999999999
#
# number of rings (size 3 to 8) (size 9 to 14) (size 15 to 20)
#    0.000    2.000    1.250    1.125    1.750    8.000 
#    0.000    6.875    0.000    0.000    0.000    0.000 
#    0.000    0.000    0.000    0.000    0.000    0.000 
#
# Total GULP energy -89319.301247 kJ/mol
# GULP energy per Si atom -5582.456328 kJ/mol
# Density = 2.222954 g / cm^3
# Si number density = 22.280254 Si / 1000 Ang^3
#
#
#
# Elastic Constant Matrix: (Units=GPa)
#
#
# Indices 1 2 3 4 5 6 
#
# 1 79.9115 23.9147 3.8963 -9.5233 -4.8606 -7.2065
# 2 23.9147 74.0466 19.4102 -15.3250 -1.4759 -10.3252
# 3 3.8963 19.4102 87.7120 -21.1906 -7.9810 -2.8911
# 4 -9.5233 -15.3250 -21.1906 31.1691 2.8268 -13.1451
# 5 -4.8606 -1.4759 -7.9810 2.8268 31.9769 -2.4643
# 6 -7.2065 -10.3252 -2.8911 -13.1451 -2.4643 49.9388
#
#
#
# Elastic Compliance Matrix: (Units=1/GPa)
#
#
# Indices 1 2 3 4 5 6 
#
# 1 0.014482 -0.003706 0.001591 0.004641 0.002229 0.002747
# 2 -0.003706 0.017651 -0.001476 0.008835 -0.000487 0.005331
# 3 0.001591 -0.001476 0.014765 0.011143 0.003172 0.003869
# 4 0.004641 0.008835 0.011143 0.052539 0.000560 0.016999
# 5 0.002229 -0.000487 0.003172 0.000560 0.032497 0.002156
# 6 0.002747 0.005331 0.003869 0.016999 0.002156 0.026328
#
#
# Mechanical properties :
#
#
# Convention : Reuss Voigt Hill
#
# Bulk Modulus (GPa) = 25.17817 37.34585 31.26201
# Shear Modulus (GPa) = 27.98274 35.58023 31.78149
#
# Velocity S-wave (km/s) = 3.54777 4.00051 3.78092
# Velocity P-wave (km/s) = 5.30165 6.17552 5.75519
#
# Compressibility (1/GPa) = 0.03971695
#
# Stress axis : x y z
#
# Youngs Moduli (GPa) = 69.05220 56.65389 67.72793
#
# Poissons Ratio (x) = 0.20998 -0.10778
# Poissons Ratio (y) = 0.25593 0.09993
# Poissons Ratio (z) = -0.10989 0.08359
#
# Static dielectric constant tensor:
#      x y z
#    x 1.821840 -0.003280 -0.011360 
#    y -0.003280 1.844530 0.004190 
#    z -0.011360 0.004190 1.819340 
# 
# From -- ./inp_files/337585.got.cif
#   From: 2010.05.17/outbox.cif.g08.bks.cpg/sg2_169_cif.got.tgz:337585.got - 2010.06.03 11:33:40.
