data_PCOD9104097
_publ_section_title
;
Structure prediction by ZEFSAII (Michael W. Deem and Ramdas Pophale) SiO2 
 PCOD9104097
Probable space group: P -1
;
_chemical_formula_sum "Si O2"
_cell_formula_units_Z 16
_cell_length_a 18.825252
_cell_length_b 14.265002
_cell_length_c 8.168600
_cell_angle_alpha 102.564601
_cell_angle_beta 103.823687
_cell_angle_gamma 18.538965
_cell_volume 676.969554
_symmetry_space_group_name_H-M "P -1"
_symmetry_group_IT_number 2
_symmetry_cell_setting 'triclinic'
loop_
_space_group_symop_operation_xyz
x,y,z
-x,-y,-z
loop_
_atom_site_type_symbol
_atom_site_label
_atom_site_fract_x
_atom_site_fract_y
_atom_site_fract_z
Si Si1 0.683656 0.931626 0.823102
Si Si2 0.244522 0.909225 0.381681
Si Si3 0.658960 0.426877 0.664717
Si Si4 0.048200 0.317935 0.823045
Si Si5 0.602608 0.448531 0.159753
Si Si6 0.998847 0.845725 0.241189
Si Si7 0.165198 0.206206 0.496623
Si Si8 0.280573 0.532286 0.977615
O O1 0.675764 0.969560 0.640095
O O2 0.814184 0.667805 0.810317
O O3 0.841594 0.799259 0.983024
O O4 0.438022 0.252706 0.890150
O O5 0.437644 0.688467 0.538297
O O6 0.212234 0.834619 0.339651
O O7 0.379434 0.764680 0.236982
O O8 0.074214 0.209476 0.419447
O O9 0.818361 0.311960 0.634411
O O10 0.595980 0.552597 0.852300
O O11 0.209310 0.152356 0.697513
O O12 0.000757 0.264584 0.755184
O O13 0.500000 0.500000 0.000000
O O14 0.752687 0.348522 0.136523
O O15 0.760936 0.191010 0.267859
O O16 0.064768 0.769405 0.053838
O O17 0.000000 0.500000 0.500000
#
# Coordination Sequence:
#
# PCOD9104097 Si02
#       8
#     2   2   2   2   2   2   2   2
#     4  10  20  40  68  91 115 172 218 251 316 373
#     4  11  21  38  64  86 117 171 210 249 313 374
#     4   9  23  38  58  91 122 163 205 256 311 375
#     4  10  22  39  65  91 125 163 212 268 305 372
#     4  12  21  36  63  89 124 161 207 258 309 382
#     4  10  24  39  58  92 133 161 199 267 321 365
#     4  10  22  39  64  95 121 155 219 269 301 370
#     4  10  20  39  57  87 128 157 206 254 310 374
#
# _framework density 23.634741000000002
#
# number of rings (size 3 to 8) (size 9 to 14) (size 15 to 20)
#    0.750    1.000    2.500    1.875    3.500    1.000 
#    0.000    0.000    0.000    1.500    0.000    0.000 
#    0.000    0.000    0.000    0.000    0.000    0.000 
#
# Total GULP energy -89093.910275 kJ/mol
# GULP energy per Si atom -5568.369392 kJ/mol
# Density = 2.358095 g / cm^3
# Si number density = 23.634741 Si / 1000 Ang^3
#
#
#
# Elastic Constant Matrix: (Units=GPa)
#
#
# Indices 1 2 3 4 5 6 
#
# 1 100.1715 38.5710 18.8507 -8.4081 -4.1861 26.6302
# 2 38.5710 88.0191 18.9155 16.4757 15.6462 30.9983
# 3 18.8507 18.9155 87.5680 14.3457 -12.0124 -3.0411
# 4 -8.4081 16.4757 14.3457 35.3486 -1.3791 7.6148
# 5 -4.1861 15.6462 -12.0124 -1.3791 30.5808 7.6016
# 6 26.6302 30.9983 -3.0411 7.6148 7.6016 44.2192
#
#
#
# Elastic Compliance Matrix: (Units=1/GPa)
#
#
# Indices 1 2 3 4 5 6 
#
# 1 0.016663 -0.006893 -0.003140 0.010554 0.007155 -0.008466
# 2 -0.006893 0.021695 -0.003621 -0.009094 -0.011966 -0.007683
# 3 -0.003140 -0.003621 0.014829 -0.006050 0.005601 0.005528
# 4 0.010554 -0.009094 -0.006050 0.039629 0.007629 -0.008533
# 5 0.007155 -0.011966 0.005601 0.007629 0.043418 -0.004313
# 6 -0.008466 -0.007683 0.005528 -0.008533 -0.004313 0.035691
#
#
# Mechanical properties :
#
#
# Convention : Reuss Voigt Hill
#
# Bulk Modulus (GPa) = 38.63941 47.60366 43.12154
# Shear Modulus (GPa) = 24.05465 35.32447 29.68956
#
# Velocity S-wave (km/s) = 3.19371 3.87020 3.54811
# Velocity P-wave (km/s) = 5.47574 6.33691 5.92200
#
# Compressibility (1/GPa) = 0.02588031
#
# Stress axis : x y z
#
# Youngs Moduli (GPa) = 60.01149 46.09330 67.43501
#
# Poissons Ratio (x) = 0.31772 0.21172
# Poissons Ratio (y) = 0.41366 0.24419
# Poissons Ratio (z) = 0.18841 0.16691
#
# Static dielectric constant tensor:
#      x y z
#    x 1.910810 -0.006990 -0.058960 
#    y -0.006990 1.913300 0.033980 
#    z -0.058960 0.033980 2.020550 
# 
# From -- ./inp_files/346979.got.cif
#   From: 2010.05.17/outbox.cif.g08.bks.cpg/sg2_174_cif.got.tgz:346979.got - 2010.06.03 11:33:40.
