data_PCOD9104608
_publ_section_title
;
Structure prediction by ZEFSAII (Michael W. Deem and Ramdas Pophale) SiO2 
 PCOD9104608
Probable space group: P -1
;
_chemical_formula_sum "Si O2"
_cell_formula_units_Z 12
_cell_length_a 11.425397
_cell_length_b 6.925323
_cell_length_c 11.765462
_cell_angle_alpha 52.948380
_cell_angle_beta 138.576898
_cell_angle_gamma 116.984553
_cell_volume 491.559088
_symmetry_space_group_name_H-M "P -1"
_symmetry_group_IT_number 2
_symmetry_cell_setting 'triclinic'
loop_
_space_group_symop_operation_xyz
x,y,z
-x,-y,-z
loop_
_atom_site_type_symbol
_atom_site_label
_atom_site_fract_x
_atom_site_fract_y
_atom_site_fract_z
Si Si1 0.835307 0.400376 0.275789
Si Si2 0.641700 0.827610 0.021944
Si Si3 0.264410 0.063949 0.701752
Si Si4 0.157711 0.782312 0.404068
Si Si5 0.069373 0.852414 0.993201
Si Si6 0.304280 0.510310 0.409762
O O1 0.676077 0.581255 0.066146
O O2 0.794575 0.275548 0.411742
O O3 0.998398 0.587469 0.333003
O O4 0.866801 0.166387 0.304830
O O5 0.729913 0.802013 0.220526
O O6 0.750451 0.032153 0.963800
O O7 0.447757 0.920587 0.869201
O O8 0.262867 0.260301 0.532286
O O9 0.301031 0.712255 0.437929
O O10 0.081519 0.053247 0.236903
O O11 0.141354 0.593397 0.179196
O O12 0.000000 0.000000 0.000000
O O13 0.500000 0.500000 0.500000
#
# Coordination Sequence:
#
# PCOD9104608 Si02
#       6
#     2   2   2   2   2   2
#     4  10  20  39  62  90 118 155 205 246 302 349
#     4  10  20  39  61  91 119 155 200 255 294 348
#     4  11  22  35  66  92 117 156 203 253 294 354
#     4   9  20  39  62  85 121 159 194 254 293 353
#     4   9  19  37  64  80 120 166 190 235 312 351
#     4  11  20  38  61  87 121 163 195 245 304 350
#
# _framework density 24.412120999999999
#
# number of rings (size 3 to 8) (size 9 to 14) (size 15 to 20)
#    0.000    2.000    3.333    0.500    0.000    0.667 
#    0.000    1.667   14.667    0.000    0.000    0.000 
#    0.000    0.000    0.000    0.000    0.000    0.000 
#
# Total GULP energy -66943.450436 kJ/mol
# GULP energy per Si atom -5578.620870 kJ/mol
# Density = 2.435656 g / cm^3
# Si number density = 24.412121 Si / 1000 Ang^3
#
#
#
# Elastic Constant Matrix: (Units=GPa)
#
#
# Indices 1 2 3 4 5 6 
#
# 1 128.8914 12.8949 19.8237 -6.1195 7.7918 -6.4376
# 2 12.8949 95.4187 46.3097 -37.0971 0.7748 -0.6688
# 3 19.8237 46.3097 125.4351 -47.1233 -14.3166 -5.0722
# 4 -6.1195 -37.0971 -47.1233 40.2645 -1.3091 2.2463
# 5 7.7918 0.7748 -14.3166 -1.3091 44.6282 -15.9413
# 6 -6.4376 -0.6688 -5.0722 2.2463 -15.9413 22.0472
#
#
#
# Elastic Compliance Matrix: (Units=1/GPa)
#
#
# Indices 1 2 3 4 5 6 
#
# 1 0.008189 -0.000918 -0.001796 -0.001809 -0.001727 0.000886
# 2 -0.000918 0.016509 -0.000708 0.014324 -0.000579 -0.001808
# 3 -0.001796 -0.000708 0.016936 0.018744 0.009199 0.008092
# 4 -0.001809 0.014324 0.018744 0.059724 0.009660 0.005118
# 5 -0.001727 -0.000579 0.009199 0.009660 0.035285 0.026123
# 6 0.000886 -0.001808 0.008092 0.005118 0.026123 0.065790
#
#
# Mechanical properties :
#
#
# Convention : Reuss Voigt Hill
#
# Bulk Modulus (GPa) = 28.74318 56.42241 42.58280
# Shear Modulus (GPa) = 22.63750 39.43578 31.03664
#
# Velocity S-wave (km/s) = 3.04847 4.02359 3.56948
# Velocity P-wave (km/s) = 4.91840 6.68942 5.87107
#
# Compressibility (1/GPa) = 0.03479086
#
# Stress axis : x y z
#
# Youngs Moduli (GPa) = 122.11054 60.57407 59.04489
#
# Poissons Ratio (x) = 0.05561 0.10605
# Poissons Ratio (y) = 0.11210 0.04178
# Poissons Ratio (z) = 0.21932 0.04287
#
# Static dielectric constant tensor:
#      x y z
#    x 1.922390 -0.012520 0.018540 
#    y -0.012520 2.018890 0.064470 
#    z 0.018540 0.064470 2.039560 
# 
# From -- ./inp_files/188245.got.cif
#   From: 2010.05.17/outbox.cif.g08.bks.cpg/sg2_95_cif.got.tgz:188245.got - 2010.06.03 11:33:40.
