data_PCOD9104817
_publ_section_title
;
Structure prediction by ZEFSAII (Michael W. Deem and Ramdas Pophale) SiO2 
 PCOD9104817
Probable space group: P -1
;
_chemical_formula_sum "Si O2"
_cell_formula_units_Z 16
_cell_length_a 7.120199
_cell_length_b 17.358459
_cell_length_c 9.918425
_cell_angle_alpha 143.939193
_cell_angle_beta 61.858317
_cell_angle_gamma 115.038134
_cell_volume 634.217512
_symmetry_space_group_name_H-M "P -1"
_symmetry_group_IT_number 2
_symmetry_cell_setting 'triclinic'
loop_
_space_group_symop_operation_xyz
x,y,z
-x,-y,-z
loop_
_atom_site_type_symbol
_atom_site_label
_atom_site_fract_x
_atom_site_fract_y
_atom_site_fract_z
Si Si1 0.830359 0.663579 0.673595
Si Si2 0.875793 0.133650 0.035505
Si Si3 0.971941 0.799278 0.203413
Si Si4 0.535781 0.292331 0.478587
Si Si5 0.473729 0.819662 0.117331
Si Si6 0.861386 0.530848 0.764641
Si Si7 0.378597 0.875064 0.524423
Si Si8 0.878602 0.854002 0.599209
O O1 0.891094 0.606395 0.719213
O O2 0.973768 0.800837 0.806437
O O3 0.937700 0.555400 0.395059
O O4 0.595777 0.708406 0.841521
O O5 0.683300 0.227149 0.225348
O O6 0.024398 0.138770 0.859022
O O7 0.796866 0.984579 0.876030
O O8 0.223470 0.795851 0.140887
O O9 0.877402 0.873747 0.464762
O O10 0.861956 0.651205 0.036506
O O11 0.648283 0.434099 0.679531
O O12 0.565119 0.202362 0.471782
O O13 0.289377 0.269430 0.486183
O O14 0.494239 0.820680 0.275598
O O15 0.557306 0.969134 0.262097
O O16 0.125302 0.849231 0.545832
#
# Coordination Sequence:
#
# PCOD9104817 Si02
#       8
#     2   2   2   2   2   2   2   2
#     4   9  18  38  65  82 119 164 201 257 296 349
#     4  10  20  39  62  91 120 156 209 251 306 367
#     4  10  22  38  64  90 118 160 213 250 292 368
#     4  11  24  41  61  90 130 168 191 252 316 359
#     4  10  20  39  63  94 119 158 203 263 305 348
#     4   9  21  40  56  89 122 161 214 236 294 380
#     4  10  23  40  61  97 127 150 211 251 308 377
#     4  11  22  39  62  92 122 162 202 253 311 357
#
# _framework density 25.227938000000002
#
# number of rings (size 3 to 8) (size 9 to 14) (size 15 to 20)
#    0.000    2.000    1.250    2.250    3.500    1.500 
#    6.750    1.250    0.000    0.000    0.000    0.000 
#    0.000    0.000    0.000    0.000    0.000    0.000 
#
# Total GULP energy -89418.643872 kJ/mol
# GULP energy per Si atom -5588.665242 kJ/mol
# Density = 2.517052 g / cm^3
# Si number density = 25.227938 Si / 1000 Ang^3
#
#
#
# Elastic Constant Matrix: (Units=GPa)
#
#
# Indices 1 2 3 4 5 6 
#
# 1 84.5656 27.9363 28.8546 11.7031 -13.3070 32.0696
# 2 27.9363 105.2753 39.9455 16.1049 8.3764 21.2134
# 3 28.8546 39.9455 100.1312 30.5410 4.1227 16.6635
# 4 11.7031 16.1049 30.5410 38.6065 8.5007 10.8308
# 5 -13.3070 8.3764 4.1227 8.5007 19.0187 -4.7373
# 6 32.0696 21.2134 16.6635 10.8308 -4.7373 58.7403
#
#
#
# Elastic Compliance Matrix: (Units=1/GPa)
#
#
# Indices 1 2 3 4 5 6 
#
# 1 0.019388 -0.003506 -0.002502 -0.004076 0.015835 -0.006581
# 2 -0.003506 0.012846 -0.003711 0.001238 -0.008504 -0.002586
# 3 -0.002502 -0.003711 0.015140 -0.010028 0.001173 0.000355
# 4 -0.004076 0.001238 -0.010028 0.040278 -0.020333 -0.004444
# 5 0.015835 -0.008504 0.001173 -0.020333 0.077253 0.004073
# 6 -0.006581 -0.002586 0.000355 -0.004444 0.004073 0.022598
#
#
# Mechanical properties :
#
#
# Convention : Reuss Voigt Hill
#
# Bulk Modulus (GPa) = 35.79729 53.71609 44.75669
# Shear Modulus (GPa) = 23.12103 36.15550 29.63827
#
# Velocity S-wave (km/s) = 3.03064 3.78981 3.43128
# Velocity P-wave (km/s) = 5.14458 6.36307 5.78599
#
# Compressibility (1/GPa) = 0.02793508
#
# Stress axis : x y z
#
# Youngs Moduli (GPa) = 51.57722 77.84596 66.05124
#
# Poissons Ratio (x) = 0.27292 0.16527
# Poissons Ratio (y) = 0.18083 0.24514
# Poissons Ratio (z) = 0.12905 0.28892
#
# Static dielectric constant tensor:
#      x y z
#    x 2.030140 0.008040 0.028120 
#    y 0.008040 2.027480 -0.030440 
#    z 0.028120 -0.030440 1.990010 
# 
# From -- ./inp_files/181472.got.cif
#   From: 2010.05.17/outbox.cif.g08.bks.cpg/sg2_91_cif.got.tgz:181472.got - 2010.06.03 11:33:40.
