data_PCOD9104220
_publ_section_title
;
Structure prediction by ZEFSAII (Michael W. Deem and Ramdas Pophale) SiO2 
 PCOD9104220
Probable space group: P -1
;
_chemical_formula_sum "Si O2"
_cell_formula_units_Z 12
_cell_length_a 13.402508
_cell_length_b 7.201318
_cell_length_c 6.569307
_cell_angle_alpha 66.458888
_cell_angle_beta 61.296129
_cell_angle_gamma 107.135039
_cell_volume 405.966780
_symmetry_space_group_name_H-M "P -1"
_symmetry_group_IT_number 2
_symmetry_cell_setting 'triclinic'
loop_
_space_group_symop_operation_xyz
x,y,z
-x,-y,-z
loop_
_atom_site_type_symbol
_atom_site_label
_atom_site_fract_x
_atom_site_fract_y
_atom_site_fract_z
Si Si1 0.090713 0.968669 0.158974
Si Si2 0.798507 0.474364 0.733235
Si Si3 0.630938 0.880807 0.207144
Si Si4 0.893827 0.570804 0.066293
Si Si5 0.696000 0.784798 0.793509
Si Si6 0.395403 0.881522 0.348046
O O1 0.154770 0.030246 0.303164
O O2 0.038972 0.138983 0.092026
O O3 0.957463 0.677196 0.397669
O O4 0.235617 0.090606 0.834039
O O5 0.703092 0.577173 0.767800
O O6 0.726296 0.178773 0.907775
O O7 0.828213 0.502547 0.935631
O O8 0.486306 0.836791 0.432128
O O9 0.592427 0.691625 0.135939
O O10 0.754834 0.390299 0.422176
O O11 0.000000 0.500000 0.000000
O O12 0.649896 0.934386 0.645759
O O13 0.500000 0.000000 0.000000
#
# Coordination Sequence:
#
# PCOD9104220 Si02
#       6
#     2   2   2   2   2   2
#     4   9  19  36  57  87 114 148 194 232 290 340
#     4  11  19  37  61  84 119 149 190 243 282 343
#     4   9  21  34  60  85 115 152 191 229 295 342
#     4  11  22  36  64  84 114 155 196 240 287 337
#     4   8  18  35  58  80 110 152 189 225 284 337
#     4  10  20  39  59  86 118 154 191 235 289 346
#
# _framework density 29.559063999999999
#
# number of rings (size 3 to 8) (size 9 to 14) (size 15 to 20)
#    1.000    1.333    0.000    4.500    0.000    2.000 
#    0.000    0.833    7.333    0.000    0.000    0.000 
#    0.000    0.000    0.000    0.000    0.000    0.000 
#
# Total GULP energy -67036.225649 kJ/mol
# GULP energy per Si atom -5586.352137 kJ/mol
# Density = 2.949179 g / cm^3
# Si number density = 29.559064 Si / 1000 Ang^3
#
#
#
# Elastic Constant Matrix: (Units=GPa)
#
#
# Indices 1 2 3 4 5 6 
#
# 1 124.7882 48.2569 28.5583 -9.1598 -32.3174 -52.2227
# 2 48.2569 196.0955 29.8735 10.9266 -7.3819 -61.4347
# 3 28.5583 29.8735 95.6289 4.7897 -30.2361 -8.7110
# 4 -9.1598 10.9266 4.7897 47.0938 -5.4774 1.0621
# 5 -32.3174 -7.3819 -30.2361 -5.4774 48.5210 6.2981
# 6 -52.2227 -61.4347 -8.7110 1.0621 6.2981 70.2383
#
#
#
# Elastic Compliance Matrix: (Units=1/GPa)
#
#
# Indices 1 2 3 4 5 6 
#
# 1 0.014995 -0.000327 -0.000987 0.003854 0.008469 0.009923
# 2 -0.000327 0.007484 -0.002007 -0.001893 -0.001349 0.006203
# 3 -0.000987 -0.002007 0.013703 -0.000186 0.007748 -0.001482
# 4 0.003854 -0.001893 -0.000186 0.022979 0.004703 0.000418
# 5 0.008469 -0.001349 0.007748 0.004703 0.030985 0.003229
# 6 0.009923 0.006203 -0.001482 0.000418 0.003229 0.026561
#
#
# Mechanical properties :
#
#
# Convention : Reuss Voigt Hill
#
# Bulk Modulus (GPa) = 33.85276 69.98779 51.92027
# Shear Modulus (GPa) = 37.53883 53.82554 45.68218
#
# Velocity S-wave (km/s) = 3.56752 4.27189 3.93549
# Velocity P-wave (km/s) = 5.33357 6.93258 6.18497
#
# Compressibility (1/GPa) = 0.02953969
#
# Stress axis : x y z
#
# Youngs Moduli (GPa) = 66.69010 133.62023 72.97817
#
# Poissons Ratio (x) = 0.04368 0.07204
# Poissons Ratio (y) = 0.02180 0.14645
# Poissons Ratio (z) = 0.06583 0.26815
#
# Static dielectric constant tensor:
#      x y z
#    x 2.581850 0.045880 0.083550 
#    y 0.045880 2.253190 0.083560 
#    z 0.083550 0.083560 2.328960 
# 
# From -- ./inp_files/181197.got.cif
#   From: 2010.05.17/outbox.cif.g08.bks.cpg/sg2_91_cif.got.tgz:181197.got - 2010.06.03 11:33:40.
