data_PCOD9104849
_publ_section_title
;
Structure prediction by ZEFSAII (Michael W. Deem and Ramdas Pophale) SiO2 
 PCOD9104849
Probable space group: P -1
;
_chemical_formula_sum "Si O2"
_cell_formula_units_Z 16
_cell_length_a 7.144072
_cell_length_b 18.091586
_cell_length_c 7.608835
_cell_angle_alpha 67.890391
_cell_angle_beta 60.332641
_cell_angle_gamma 48.355842
_cell_volume 636.854577
_symmetry_space_group_name_H-M "P -1"
_symmetry_group_IT_number 2
_symmetry_cell_setting 'triclinic'
loop_
_space_group_symop_operation_xyz
x,y,z
-x,-y,-z
loop_
_atom_site_type_symbol
_atom_site_label
_atom_site_fract_x
_atom_site_fract_y
_atom_site_fract_z
Si Si1 0.309801 0.643473 0.437830
Si Si2 0.744400 0.923908 0.193329
Si Si3 0.315314 0.417038 0.379679
Si Si4 0.830668 0.717750 0.378195
Si Si5 0.707314 0.590430 0.000867
Si Si6 0.862288 0.896800 0.757170
Si Si7 0.257593 0.248860 0.992660
Si Si8 0.173952 0.861083 0.322656
O O1 0.522583 0.413748 0.416356
O O2 0.049336 0.655010 0.483875
O O3 0.232930 0.753808 0.377507
O O4 0.508119 0.595377 0.225418
O O5 0.751891 0.827817 0.324277
O O6 0.927235 0.929751 0.243492
O O7 0.436420 0.016683 0.246538
O O8 0.868866 0.908348 0.953743
O O9 0.372502 0.309545 0.474887
O O10 0.356950 0.422792 0.152159
O O11 0.000000 0.500000 0.500000
O O12 0.907331 0.689977 0.160662
O O13 0.695923 0.688370 0.954516
O O14 0.000000 0.500000 0.000000
O O15 0.073450 0.895423 0.537305
O O16 0.881901 0.796469 0.816692
O O17 0.551334 0.159636 0.855756
#
# Coordination Sequence:
#
# PCOD9104849 Si02
#       8
#     2   2   2   2   2   2   2   2
#     4  10  23  42  64  95 128 169 215 272 324 394
#     4   9  21  39  61  95 131 169 222 273 318 403
#     4  12  23  42  68  92 127 168 216 266 331 398
#     4  10  21  44  64  91 136 166 216 275 321 392
#     4  11  22  43  64  91 133 165 211 281 325 391
#     4  10  21  40  64  91 134 177 216 275 336 379
#     4  10  22  41  66  97 130 176 227 271 331 404
#     4  10  20  39  62  91 135 166 219 273 322 389
#
# _framework density 25.123477000000001
#
# number of rings (size 3 to 8) (size 9 to 14) (size 15 to 20)
#    0.000    1.750    3.750    0.375    3.500    5.000 
#    0.000    6.875    0.000    0.000    0.000    0.000 
#    0.000    0.000    0.000    0.000    0.000    0.000 
#
# Total GULP energy -89534.401777 kJ/mol
# GULP energy per Si atom -5595.900111 kJ/mol
# Density = 2.506629 g / cm^3
# Si number density = 25.123477 Si / 1000 Ang^3
#
#
#
# Elastic Constant Matrix: (Units=GPa)
#
#
# Indices 1 2 3 4 5 6 
#
# 1 135.8550 23.3608 44.6571 -11.0603 30.2552 -17.8393
# 2 23.3608 66.8251 32.0562 -9.1043 8.6078 -6.3341
# 3 44.6571 32.0562 132.4845 10.9686 26.4246 -8.0132
# 4 -11.0603 -9.1043 10.9686 27.3911 -3.2542 -4.1579
# 5 30.2552 8.6078 26.4246 -3.2542 42.0491 -12.2203
# 6 -17.8393 -6.3341 -8.0132 -4.1579 -12.2203 36.3075
#
#
#
# Elastic Compliance Matrix: (Units=1/GPa)
#
#
# Indices 1 2 3 4 5 6 
#
# 1 0.010113 -0.000763 -0.002604 0.004908 -0.004104 0.003442
# 2 -0.000763 0.019030 -0.005184 0.008784 0.001559 0.003332
# 3 -0.002604 -0.005184 0.011329 -0.008353 -0.005561 -0.002512
# 4 0.004908 0.008784 -0.008353 0.046969 0.006349 0.009616
# 5 -0.004104 0.001559 -0.005561 0.006349 0.032975 0.008854
# 6 0.003442 0.003332 -0.002512 0.009616 0.008854 0.033342
#
#
# Mechanical properties :
#
#
# Convention : Reuss Voigt Hill
#
# Bulk Modulus (GPa) = 42.78917 59.47922 51.13420
# Shear Modulus (GPa) = 27.98790 36.82224 32.40507
#
# Velocity S-wave (km/s) = 3.34131 3.83254 3.59532
# Velocity P-wave (km/s) = 5.65281 6.58108 6.13453
#
# Compressibility (1/GPa) = 0.02337040
#
# Stress axis : x y z
#
# Youngs Moduli (GPa) = 98.87823 52.54982 88.26962
#
# Poissons Ratio (x) = 0.04008 0.22985
# Poissons Ratio (y) = 0.07542 0.45759
# Poissons Ratio (z) = 0.25748 0.27242
#
# Static dielectric constant tensor:
#      x y z
#    x 1.939800 0.038160 0.060630 
#    y 0.038160 1.989950 -0.028540 
#    z 0.060630 -0.028540 1.924910 
# 
# From -- ./inp_files/223375.got.cif
#   From: 2010.05.17/outbox.cif.g08.bks.cpg/sg2_112_cif.got.tgz:223375.got - 2010.06.03 11:33:40.
