data_PCOD9104954
_publ_section_title
;
Structure prediction by ZEFSAII (Michael W. Deem and Ramdas Pophale) SiO2 
 PCOD9104954
Probable space group: P -1
;
_chemical_formula_sum "Si O2"
_cell_formula_units_Z 12
_cell_length_a 11.977819
_cell_length_b 8.814427
_cell_length_c 6.639605
_cell_angle_alpha 53.729735
_cell_angle_beta 79.408313
_cell_angle_gamma 106.430906
_cell_volume 482.976182
_symmetry_space_group_name_H-M "P -1"
_symmetry_group_IT_number 2
_symmetry_cell_setting 'triclinic'
loop_
_space_group_symop_operation_xyz
x,y,z
-x,-y,-z
loop_
_atom_site_type_symbol
_atom_site_label
_atom_site_fract_x
_atom_site_fract_y
_atom_site_fract_z
Si Si1 0.792952 0.710001 0.639717
Si Si2 0.979378 0.257666 0.735259
Si Si3 0.863273 0.533077 0.140660
Si Si4 0.782334 0.070085 0.627433
Si Si5 0.368980 0.619022 0.341019
Si Si6 0.499025 0.015921 0.726028
O O1 0.915264 0.773962 0.402633
O O2 0.663159 0.573812 0.653140
O O3 0.790569 0.899160 0.615464
O O4 0.814578 0.572125 0.915958
O O5 0.011645 0.268661 0.951613
O O6 0.000000 0.500000 0.500000
O O7 0.842713 0.087689 0.815449
O O8 0.867348 0.310455 0.315420
O O9 0.752232 0.479460 0.389176
O O10 0.633774 0.016120 0.732533
O O11 0.485056 0.766168 0.344728
O O12 0.383339 0.804421 0.033099
O O13 0.500000 0.000000 0.500000
#
# Coordination Sequence:
#
# PCOD9104954 Si02
#       6
#     2   2   2   2   2   2
#     4  11  21  38  62  87 121 154 190 245 298 346
#     4   9  20  39  59  88 123 153 194 242 288 354
#     4   9  20  39  60  83 119 160 191 234 296 348
#     4  10  21  37  59  89 118 152 200 244 287 347
#     4   9  19  37  57  83 116 149 195 243 281 345
#     4  10  20  39  63  83 116 161 197 241 297 344
#
# _framework density 24.845946000000001
#
# number of rings (size 3 to 8) (size 9 to 14) (size 15 to 20)
#    0.000    2.333    0.000    3.500    0.000    4.000 
#    0.000   30.000    0.000    0.000    0.000    0.000 
#    0.000    0.000    0.000    0.000    0.000    0.000 
#
# Total GULP energy -66946.018801 kJ/mol
# GULP energy per Si atom -5578.834900 kJ/mol
# Density = 2.478940 g / cm^3
# Si number density = 24.845946 Si / 1000 Ang^3
#
#
#
# Elastic Constant Matrix: (Units=GPa)
#
#
# Indices 1 2 3 4 5 6 
#
# 1 61.1472 36.9184 13.3356 3.6922 1.7491 6.3504
# 2 36.9184 209.2568 26.1989 20.5304 13.9827 12.4948
# 3 13.3356 26.1989 81.4156 31.0945 0.1215 15.3866
# 4 3.6922 20.5304 31.0945 39.2842 -1.7061 9.3181
# 5 1.7491 13.9827 0.1215 -1.7061 23.1262 3.9635
# 6 6.3504 12.4948 15.3866 9.3181 3.9635 37.3197
#
#
#
# Elastic Compliance Matrix: (Units=1/GPa)
#
#
# Indices 1 2 3 4 5 6 
#
# 1 0.018874 -0.003200 -0.002677 0.002479 0.001006 -0.001762
# 2 -0.003200 0.005887 -0.000316 -0.002611 -0.003461 -0.000277
# 3 -0.002677 -0.000316 0.018684 -0.013480 -0.000053 -0.003771
# 4 0.002479 -0.002611 -0.013480 0.038452 0.005005 -0.004123
# 5 0.001006 -0.003461 -0.000053 0.005005 0.046515 -0.005180
# 6 -0.001762 -0.000277 -0.003771 -0.004123 -0.005180 0.030322
#
#
# Mechanical properties :
#
#
# Convention : Reuss Voigt Hill
#
# Bulk Modulus (GPa) = 32.19636 56.08062 44.13849
# Shear Modulus (GPa) = 27.55241 38.30381 32.92811
#
# Velocity S-wave (km/s) = 3.33367 3.93065 3.64440
# Velocity P-wave (km/s) = 5.27298 6.57422 5.95922
#
# Compressibility (1/GPa) = 0.03105941
#
# Stress axis : x y z
#
# Youngs Moduli (GPa) = 52.98172 169.87116 53.52255
#
# Poissons Ratio (x) = 0.54359 0.14329
# Poissons Ratio (y) = 0.16954 0.01689
# Poissons Ratio (z) = 0.14184 0.05362
#
# Static dielectric constant tensor:
#      x y z
#    x 2.027480 0.037360 0.013510 
#    y 0.037360 2.030980 -0.052050 
#    z 0.013510 -0.052050 1.975680 
# 
# From -- ./inp_files/35222.got.cif
#   From: 2010.05.17/outbox.cif.g08.bks.cpg/sg2_18_cif.got.tgz:35222.got - 2010.06.03 11:33:40.
