data_PCOD9104707
_publ_section_title
;
Structure prediction by ZEFSAII (Michael W. Deem and Ramdas Pophale) SiO2 
 PCOD9104707
Probable space group: P -1
;
_chemical_formula_sum "Si O2"
_cell_formula_units_Z 16
_cell_length_a 22.059690
_cell_length_b 12.629703
_cell_length_c 12.092797
_cell_angle_alpha 137.529453
_cell_angle_beta 26.216380
_cell_angle_gamma 148.581082
_cell_volume 770.125762
_symmetry_space_group_name_H-M "P -1"
_symmetry_group_IT_number 2
_symmetry_cell_setting 'triclinic'
loop_
_space_group_symop_operation_xyz
x,y,z
-x,-y,-z
loop_
_atom_site_type_symbol
_atom_site_label
_atom_site_fract_x
_atom_site_fract_y
_atom_site_fract_z
Si Si1 0.777468 0.976697 0.121821
Si Si2 0.485272 0.119809 0.944622
Si Si3 0.880925 0.294515 0.710824
Si Si4 0.488763 0.824697 0.318069
Si Si5 0.032442 0.167067 0.202803
Si Si6 0.665298 0.432874 0.079579
Si Si7 0.646676 0.896578 0.514547
Si Si8 0.904117 0.424133 0.215736
O O1 0.862277 0.211817 0.151357
O O2 0.650690 0.848272 0.125894
O O3 0.651383 0.886130 0.366832
O O4 0.925019 0.954187 0.887846
O O5 0.490726 0.144364 0.822989
O O6 0.573069 0.321082 0.027878
O O7 0.590444 0.036241 0.737576
O O8 0.282412 0.942590 0.178487
O O9 0.013361 0.304038 0.418598
O O10 0.205970 0.615254 0.131066
O O11 0.976874 0.415053 0.758998
O O12 0.285388 0.624631 0.518088
O O13 0.500000 0.000000 0.500000
O O14 0.202334 0.324757 0.967081
O O15 0.846611 0.019870 0.328108
O O16 0.505003 0.317377 0.342000
O O17 0.000000 0.500000 0.000000
#
# Coordination Sequence:
#
# PCOD9104707 Si02
#       8
#     2   2   2   2   2   2   2   2
#     4  11  25  43  62  94 136 170 205 273 330 377
#     4  11  19  40  67  94 123 162 226 271 308 366
#     4  11  21  38  67  96 128 166 221 269 308 387
#     4  10  20  39  62  85 123 165 214 262 309 377
#     4  12  24  41  62 100 137 169 210 261 336 383
#     4  11  23  37  67  98 126 173 220 260 318 378
#     4  11  21  41  64  95 133 168 213 269 313 380
#     4  11  23  41  67  97 118 171 229 264 315 385
#
# _framework density 20.775827
#
# number of rings (size 3 to 8) (size 9 to 14) (size 15 to 20)
#    0.000    1.000    5.000    4.500    1.750    0.500 
#    2.250    5.000    0.000    0.000    0.000    0.000 
#    0.000    0.000    0.000    0.000    0.000    0.000 
#
# Total GULP energy -89457.147560 kJ/mol
# GULP energy per Si atom -5591.071723 kJ/mol
# Density = 2.072854 g / cm^3
# Si number density = 20.775827 Si / 1000 Ang^3
#
#
#
# Elastic Constant Matrix: (Units=GPa)
#
#
# Indices 1 2 3 4 5 6 
#
# 1 137.1331 37.0575 46.5638 -11.5623 0.2517 16.1075
# 2 37.0575 66.8707 40.1514 -14.2622 -1.0009 3.8482
# 3 46.5638 40.1514 87.6578 -32.9969 7.0022 -5.5583
# 4 -11.5623 -14.2622 -32.9969 24.0652 1.6883 -0.5599
# 5 0.2517 -1.0009 7.0022 1.6883 47.2837 -1.6133
# 6 16.1075 3.8482 -5.5583 -0.5599 -1.6133 31.6054
#
#
#
# Elastic Compliance Matrix: (Units=1/GPa)
#
#
# Indices 1 2 3 4 5 6 
#
# 1 0.010781 -0.002397 -0.007875 -0.007270 0.001090 -0.006661
# 2 -0.002397 0.022013 -0.009835 -0.001797 0.001893 -0.003123
# 3 -0.007875 -0.009835 0.037366 0.042382 -0.006797 0.012186
# 4 -0.007270 -0.001797 0.042382 0.096052 -0.009275 0.012606
# 5 0.001090 0.001893 -0.006797 -0.009275 0.022487 -0.000998
# 6 -0.006661 -0.003123 0.012186 0.012606 -0.000998 0.037731
#
#
# Mechanical properties :
#
#
# Convention : Reuss Voigt Hill
#
# Bulk Modulus (GPa) = 33.39478 59.91188 46.65333
# Shear Modulus (GPa) = 18.07489 31.78344 24.92917
#
# Velocity S-wave (km/s) = 2.95277 3.91554 3.46773
# Velocity P-wave (km/s) = 5.26630 7.02438 6.20789
#
# Compressibility (1/GPa) = 0.02994480
#
# Stress axis : x y z
#
# Youngs Moduli (GPa) = 92.75200 45.42805 26.76232
#
# Poissons Ratio (x) = 0.10889 0.21076
# Poissons Ratio (y) = 0.22233 0.26321
# Poissons Ratio (z) = 0.73046 0.44680
#
# Static dielectric constant tensor:
#      x y z
#    x 1.734710 0.006190 0.001590 
#    y 0.006190 1.764010 0.011760 
#    z 0.001590 0.011760 1.771970 
# 
# From -- ./inp_files/471198.got.cif
#   From: 2010.05.17/outbox.cif.g08.bks.cpg/sg2_236_cif.got.tgz:471198.got - 2010.06.03 11:33:40.
