data_PCOD9104175
_publ_section_title
;
Structure prediction by ZEFSAII (Michael W. Deem and Ramdas Pophale) SiO2 
 PCOD9104175
Probable space group: P -1
;
_chemical_formula_sum "Si O2"
_cell_formula_units_Z 16
_cell_length_a 14.270327
_cell_length_b 9.150686
_cell_length_c 6.350048
_cell_angle_alpha 88.533792
_cell_angle_beta 114.460163
_cell_angle_gamma 92.072741
_cell_volume 754.242814
_symmetry_space_group_name_H-M "P -1"
_symmetry_group_IT_number 2
_symmetry_cell_setting 'triclinic'
loop_
_space_group_symop_operation_xyz
x,y,z
-x,-y,-z
loop_
_atom_site_type_symbol
_atom_site_label
_atom_site_fract_x
_atom_site_fract_y
_atom_site_fract_z
Si Si1 0.665626 0.151501 0.893712
Si Si2 0.526227 0.392993 0.218741
Si Si3 0.026648 0.106198 0.820405
Si Si4 0.230141 0.287738 0.046816
Si Si5 0.354564 0.537123 0.301365
Si Si6 0.692298 0.941396 0.539745
Si Si7 0.404364 0.142830 0.940974
Si Si8 0.153012 0.902398 0.635888
O O1 0.623864 0.310526 0.803684
O O2 0.680130 0.078165 0.679314
O O3 0.607894 0.016556 0.962034
O O4 0.768471 0.177708 0.132209
O O5 0.439639 0.422372 0.312883
O O6 0.631555 0.430190 0.438450
O O7 0.503497 0.230864 0.119874
O O8 0.500000 0.500000 0.000000
O O9 0.926380 0.166487 0.605898
O O10 0.084796 0.996882 0.723816
O O11 0.111351 0.236468 0.922923
O O12 0.000000 0.000000 0.000000
O O13 0.251529 0.455503 0.125523
O O14 0.270485 0.188742 0.277998
O O15 0.304646 0.236586 0.924284
O O16 0.776111 0.991576 0.445283
O O17 0.599453 0.878434 0.312275
#
# Coordination Sequence:
#
# PCOD9104175 Si02
#       8
#     2   2   2   2   2   2   2   2
#     4  10  20  36  53  82 111 152 175 219 281 326
#     4  10  21  40  58  83 106 142 187 232 272 319
#     4  11  18  31  56  88 109 138 184 235 266 309
#     4  10  18  34  54  82 105 147 183 222 275 320
#     4  10  23  38  57  78 117 142 180 226 277 334
#     4  10  16  33  55  78 108 142 186 225 263 320
#     4   9  19  34  57  80 107 141 190 224 267 325
#     4  10  19  31  53  84 112 136 186 229 265 317
#
# _framework density 21.213329999999999
#
# number of rings (size 3 to 8) (size 9 to 14) (size 15 to 20)
#    0.000    2.000    5.000    0.750    0.000    3.500 
#    0.000    1.875    0.000    3.000    0.000    0.000 
#    0.000    0.000    0.000    0.000    0.000    0.000 
#
# Total GULP energy -89179.075703 kJ/mol
# GULP energy per Si atom -5573.692231 kJ/mol
# Density = 2.116505 g / cm^3
# Si number density = 21.213330 Si / 1000 Ang^3
#
#
#
# Elastic Constant Matrix: (Units=GPa)
#
#
# Indices 1 2 3 4 5 6 
#
# 1 37.2412 18.7224 29.4079 14.5599 1.4408 8.8689
# 2 18.7224 114.0147 44.2308 24.7933 12.2200 11.1343
# 3 29.4079 44.2308 146.2193 28.7793 18.5448 6.0622
# 4 14.5599 24.7933 28.7793 30.1384 8.7428 13.8733
# 5 1.4408 12.2200 18.5448 8.7428 38.4765 6.9700
# 6 8.8689 11.1343 6.0622 13.8733 6.9700 24.2785
#
#
#
# Elastic Compliance Matrix: (Units=1/GPa)
#
#
# Indices 1 2 3 4 5 6 
#
# 1 0.037360 -0.001796 -0.005487 -0.009364 0.005326 -0.007632
# 2 -0.001796 0.011230 -0.001605 -0.006454 -0.001251 -0.000046
# 3 -0.005487 -0.001605 0.010032 -0.007012 -0.003476 0.005240
# 4 -0.009364 -0.006454 -0.007012 0.063166 -0.003699 -0.026901
# 5 0.005326 -0.001251 -0.003476 -0.003699 0.029971 -0.006994
# 6 -0.007632 -0.000046 0.005240 -0.026901 -0.006994 0.060069
#
#
# Mechanical properties :
#
#
# Convention : Reuss Voigt Hill
#
# Bulk Modulus (GPa) = 24.48145 53.57748 39.02946
# Shear Modulus (GPa) = 20.55766 32.25296 26.40531
#
# Velocity S-wave (km/s) = 3.11640 3.90347 3.53193
# Velocity P-wave (km/s) = 4.95125 6.75481 5.92209
#
# Compressibility (1/GPa) = 0.04084726
#
# Stress axis : x y z
#
# Youngs Moduli (GPa) = 26.76668 89.04334 99.68257
#
# Poissons Ratio (x) = 0.15989 0.54693
# Poissons Ratio (y) = 0.04806 0.16000
# Poissons Ratio (z) = 0.14686 0.14292
#
# Static dielectric constant tensor:
#      x y z
#    x 1.844100 0.022570 0.046340 
#    y 0.022570 1.757160 0.071200 
#    z 0.046340 0.071200 1.889610 
# 
# From -- ./inp_files/47059.got.cif
#   From: 2010.05.17/outbox.cif.g08.bks.cpg/sg2_24_cif.got.tgz:47059.got - 2010.06.03 11:33:40.
