data_PCOD9104656
_publ_section_title
;
Structure prediction by ZEFSAII (Michael W. Deem and Ramdas Pophale) SiO2 
 PCOD9104656
Probable space group: P -1
;
_chemical_formula_sum "Si O2"
_cell_formula_units_Z 16
_cell_length_a 10.196636
_cell_length_b 12.268479
_cell_length_c 12.130949
_cell_angle_alpha 49.107329
_cell_angle_beta 62.399102
_cell_angle_gamma 35.629215
_cell_volume 660.066699
_symmetry_space_group_name_H-M "P -1"
_symmetry_group_IT_number 2
_symmetry_cell_setting 'triclinic'
loop_
_space_group_symop_operation_xyz
x,y,z
-x,-y,-z
loop_
_atom_site_type_symbol
_atom_site_label
_atom_site_fract_x
_atom_site_fract_y
_atom_site_fract_z
Si Si1 0.388159 0.064316 0.122437
Si Si2 0.500758 0.322966 0.617720
Si Si3 0.911996 0.968851 0.955657
Si Si4 0.543550 0.176995 0.452687
Si Si5 0.330968 0.663714 0.856302
Si Si6 0.138397 0.259733 0.494623
Si Si7 0.363046 0.381534 0.869211
Si Si8 0.141595 0.255632 0.739443
O O1 0.321229 0.946417 0.243197
O O2 0.587329 0.941675 0.216093
O O3 0.500000 0.000000 0.000000
O O4 0.257556 0.312644 0.006438
O O5 0.500000 0.500000 0.500000
O O6 0.489200 0.294093 0.511563
O O7 0.332576 0.420650 0.723777
O O8 0.079240 0.888644 0.846858
O O9 0.641289 0.183170 0.906073
O O10 0.955626 0.771894 0.107860
O O11 0.000000 0.000000 0.000000
O O12 0.552216 0.292220 0.280979
O O13 0.347809 0.209848 0.476499
O O14 0.779380 0.912714 0.515812
O O15 0.289110 0.567701 0.849533
O O16 0.500000 0.500000 0.000000
O O17 0.081888 0.238709 0.652434
O O18 0.947100 0.516390 0.368326
#
# Coordination Sequence:
#
# PCOD9104656 Si02
#       8
#     2   2   2   2   2   2   2   2
#     4   9  20  39  64  89 120 170 217 255 313 395
#     4  11  21  41  64  90 127 174 216 256 327 389
#     4  11  22  38  61  93 130 164 215 266 322 384
#     4  11  23  40  61  97 127 170 215 266 328 391
#     4  12  23  38  64  95 127 169 213 267 324 383
#     4  10  22  37  64  94 129 160 213 270 330 384
#     4  10  23  41  65  93 127 174 216 266 324 386
#     4  10  20  39  61  96 123 167 207 269 329 378
#
# _framework density 24.239975000000001
#
# number of rings (size 3 to 8) (size 9 to 14) (size 15 to 20)
#    0.000    1.500    3.750    1.500    1.750    1.000 
#    2.250    3.125    0.000    9.000    0.000    0.000 
#    0.000    0.000    0.000    0.000    0.000    0.000 
#
# Total GULP energy -89114.343273 kJ/mol
# GULP energy per Si atom -5569.646455 kJ/mol
# Density = 2.418480 g / cm^3
# Si number density = 24.239975 Si / 1000 Ang^3
#
#
#
# Elastic Constant Matrix: (Units=GPa)
#
#
# Indices 1 2 3 4 5 6 
#
# 1 69.8734 37.8107 24.7544 6.4314 14.0380 17.2905
# 2 37.8107 119.1550 27.4283 7.8220 15.6881 29.4734
# 3 24.7544 27.4283 146.2958 -0.9564 -17.0831 9.3017
# 4 6.4314 7.8220 -0.9564 25.1818 14.9708 0.6368
# 5 14.0380 15.6881 -17.0831 14.9708 23.8866 0.5456
# 6 17.2905 29.4734 9.3017 0.6368 0.5456 44.9344
#
#
#
# Elastic Compliance Matrix: (Units=1/GPa)
#
#
# Indices 1 2 3 4 5 6 
#
# 1 0.021994 -0.002321 -0.005077 0.006240 -0.018811 -0.005750
# 2 -0.002321 0.012643 -0.002781 0.003103 -0.010719 -0.006738
# 3 -0.005077 -0.002781 0.009992 -0.007311 0.016502 0.001612
# 4 0.006240 0.003103 -0.007311 0.069198 -0.054229 -0.003245
# 5 -0.018811 -0.010719 0.016502 -0.054229 0.105513 0.010341
# 6 -0.005750 -0.006738 0.001612 -0.003245 0.010341 0.028473
#
#
# Mechanical properties :
#
#
# Convention : Reuss Voigt Hill
#
# Bulk Modulus (GPa) = 41.19862 57.25678 49.22770
# Shear Modulus (GPa) = 18.09877 35.15594 26.62736
#
# Velocity S-wave (km/s) = 2.73545 3.81245 3.31794
# Velocity P-wave (km/s) = 5.19711 6.56139 5.91869
#
# Compressibility (1/GPa) = 0.02427266
#
# Stress axis : x y z
#
# Youngs Moduli (GPa) = 45.46688 79.09280 100.07603
#
# Poissons Ratio (x) = 0.18360 0.50804
# Poissons Ratio (y) = 0.10554 0.27827
# Poissons Ratio (z) = 0.23082 0.21993
#
# Static dielectric constant tensor:
#      x y z
#    x 2.202140 -0.142660 0.109300 
#    y -0.142660 2.078450 -0.105430 
#    z 0.109300 -0.105430 2.041320 
# 
# From -- ./inp_files/285757.got.cif
#   From: 2010.05.17/outbox.cif.g08.bks.cpg/sg2_143_cif.got.tgz:285757.got - 2010.06.03 11:33:40.
