data_PCOD9104440
_publ_section_title
;
Structure prediction by ZEFSAII (Michael W. Deem and Ramdas Pophale) SiO2 
 PCOD9104440
Probable space group: P -1
;
_chemical_formula_sum "Si O2"
_cell_formula_units_Z 16
_cell_length_a 5.262052
_cell_length_b 12.892394
_cell_length_c 15.984077
_cell_angle_alpha 46.388643
_cell_angle_beta 87.458687
_cell_angle_gamma 62.368597
_cell_volume 628.124602
_symmetry_space_group_name_H-M "P -1"
_symmetry_group_IT_number 2
_symmetry_cell_setting 'triclinic'
loop_
_space_group_symop_operation_xyz
x,y,z
-x,-y,-z
loop_
_atom_site_type_symbol
_atom_site_label
_atom_site_fract_x
_atom_site_fract_y
_atom_site_fract_z
Si Si1 0.256762 0.758956 0.938722
Si Si2 0.440167 0.955294 0.375567
Si Si3 0.819708 0.814642 0.037381
Si Si4 0.744113 0.669396 0.852416
Si Si5 0.102997 0.096361 0.851379
Si Si6 0.013726 0.327772 0.584878
Si Si7 0.882039 0.228659 0.475486
Si Si8 0.178924 0.496102 0.799768
O O1 0.404625 0.733128 0.859643
O O2 0.115488 0.955597 0.868072
O O3 0.553333 0.609539 0.074504
O O4 0.988300 0.742916 0.984899
O O5 0.626528 0.835274 0.357583
O O6 0.258121 0.882969 0.458341
O O7 0.733486 0.906711 0.456564
O O8 0.248001 0.160314 0.238169
O O9 0.014782 0.846352 0.082818
O O10 0.797295 0.663030 0.160431
O O11 0.477744 0.994486 0.920773
O O12 0.838824 0.612249 0.786763
O O13 0.000000 0.500000 0.000000
O O14 0.939103 0.273368 0.701578
O O15 0.000000 0.500000 0.500000
O O16 0.815106 0.328804 0.510246
O O17 0.775141 0.376357 0.324665
#
# Coordination Sequence:
#
# PCOD9104440 Si02
#       8
#     2   2   2   2   2   2   2   2
#     4  10  20  40  64  97 131 176 225 284 346 409
#     4  10  24  46  67  99 137 182 230 285 341 410
#     4  10  22  37  66  96 133 176 222 291 342 412
#     4  10  22  46  67 100 134 178 234 288 347 402
#     4  10  20  39  60  96 134 171 226 283 349 403
#     4  10  22  40  66  97 138 185 228 281 341 417
#     4  10  24  44  69  98 141 180 228 283 342 410
#     4  10  23  40  64  99 134 175 232 279 341 409
#
# _framework density 25.472652
#
# number of rings (size 3 to 8) (size 9 to 14) (size 15 to 20)
#    0.750    1.250    1.250    1.125    1.750    4.000 
#    4.500    0.000    0.000    0.000    0.000    0.000 
#    0.000    0.000    0.000    0.000    0.000    0.000 
#
# Total GULP energy -89343.912182 kJ/mol
# GULP energy per Si atom -5583.994511 kJ/mol
# Density = 2.541468 g / cm^3
# Si number density = 25.472652 Si / 1000 Ang^3
#
#
#
# Elastic Constant Matrix: (Units=GPa)
#
#
# Indices 1 2 3 4 5 6 
#
# 1 94.7656 9.9703 35.7729 -7.6149 -22.1899 -6.5941
# 2 9.9703 85.1868 29.3291 -12.1848 -5.8931 -4.7514
# 3 35.7729 29.3291 145.7669 -24.5449 -33.7021 11.1926
# 4 -7.6149 -12.1848 -24.5449 40.1994 6.4970 -14.1300
# 5 -22.1899 -5.8931 -33.7021 6.4970 28.3603 -2.7830
# 6 -6.5941 -4.7514 11.1926 -14.1300 -2.7830 28.8923
#
#
#
# Elastic Compliance Matrix: (Units=1/GPa)
#
#
# Indices 1 2 3 4 5 6 
#
# 1 0.013796 0.000136 -0.001306 0.002370 0.009290 0.005731
# 2 0.000136 0.013511 -0.002542 0.004573 -0.000622 0.005414
# 3 -0.001306 -0.002542 0.010777 0.003048 0.010322 -0.002406
# 4 0.002370 0.004573 0.003048 0.034522 0.000188 0.017013
# 5 0.009290 -0.000622 0.010322 0.000188 0.054957 0.003405
# 6 0.005731 0.005414 -0.002406 0.017013 0.003405 0.046390
#
#
# Mechanical properties :
#
#
# Convention : Reuss Voigt Hill
#
# Bulk Modulus (GPa) = 32.61522 52.87377 42.74450
# Shear Modulus (GPa) = 26.09668 36.20020 31.14844
#
# Velocity S-wave (km/s) = 3.20425 3.77389 3.50068
# Velocity P-wave (km/s) = 5.14990 6.30807 5.75818
#
# Compressibility (1/GPa) = 0.03066054
#
# Stress axis : x y z
#
# Youngs Moduli (GPa) = 72.48733 74.01381 92.79252
#
# Poissons Ratio (x) = -0.01009 0.12120
# Poissons Ratio (y) = -0.00988 0.23584
# Poissons Ratio (z) = 0.09468 0.18811
#
# Static dielectric constant tensor:
#      x y z
#    x 2.092750 -0.003390 -0.013770 
#    y -0.003390 2.109520 0.009110 
#    z -0.013770 0.009110 1.975320 
# 
# From -- ./inp_files/550070.got.cif
#   From: 2010.05.17/outbox.cif.g08.bks.cpg/sg2_276_cif.got.tgz:550070.got - 2010.06.03 11:33:40.
