data_PCOD9104219
_publ_section_title
;
Structure prediction by ZEFSAII (Michael W. Deem and Ramdas Pophale) SiO2 
 PCOD9104219
Probable space group: P -1
;
_chemical_formula_sum "Si O2"
_cell_formula_units_Z 16
_cell_length_a 15.758990
_cell_length_b 17.262984
_cell_length_c 7.360665
_cell_angle_alpha 83.897735
_cell_angle_beta 110.634432
_cell_angle_gamma 154.759271
_cell_volume 676.451487
_symmetry_space_group_name_H-M "P -1"
_symmetry_group_IT_number 2
_symmetry_cell_setting 'triclinic'
loop_
_space_group_symop_operation_xyz
x,y,z
-x,-y,-z
loop_
_atom_site_type_symbol
_atom_site_label
_atom_site_fract_x
_atom_site_fract_y
_atom_site_fract_z
Si Si1 0.286055 0.649472 0.532607
Si Si2 0.154665 0.051297 0.173721
Si Si3 0.805306 0.487257 0.107891
Si Si4 0.412708 0.064122 0.788097
Si Si5 0.279151 0.789019 0.265531
Si Si6 0.074718 0.265689 0.675298
Si Si7 0.704824 0.515164 0.574196
Si Si8 0.808626 0.067924 0.971473
O O1 0.194166 0.565203 0.692399
O O2 0.176027 0.629061 0.329871
O O3 0.244185 0.532533 0.440232
O O4 0.583437 0.906747 0.701352
O O5 0.405400 0.278581 0.411875
O O6 0.997559 0.867779 0.231956
O O7 0.219334 0.048520 0.047464
O O8 0.000000 0.000000 0.000000
O O9 0.055341 0.671149 0.136079
O O10 0.774914 0.549714 0.143242
O O11 0.580267 0.275943 0.869523
O O12 0.590914 0.137083 0.839429
O O13 0.181299 0.892890 0.524716
O O14 0.293481 0.967990 0.920824
O O15 0.500000 0.000000 0.500000
O O16 0.207162 0.359525 0.558934
O O17 0.892193 0.683078 0.839010
#
# Coordination Sequence:
#
# PCOD9104219 Si02
#       8
#     2   2   2   2   2   2   2   2
#     4   9  20  39  58  83 120 163 201 246 292 345
#     4  11  24  41  64  96 121 146 193 246 300 367
#     4  10  21  38  59  82 119 163 204 247 297 337
#     4  10  20  39  59  86 117 159 205 243 289 351
#     4  12  22  35  55  87 126 155 204 255 290 335
#     4  10  21  41  64  85 121 159 197 242 295 360
#     4   9  20  40  63  88 119 160 194 237 299 352
#     4   9  20  40  63  84 118 157 199 239 296 358
#
# _framework density 23.652842
#
# number of rings (size 3 to 8) (size 9 to 14) (size 15 to 20)
#    0.000    2.000    1.250    3.000    0.000    3.000 
#    2.250    3.750    0.000    0.000    0.000    0.000 
#    0.000    0.000    0.000    0.000    0.000    0.000 
#
# Total GULP energy -89277.922290 kJ/mol
# GULP energy per Si atom -5579.870143 kJ/mol
# Density = 2.359901 g / cm^3
# Si number density = 23.652842 Si / 1000 Ang^3
#
#
#
# Elastic Constant Matrix: (Units=GPa)
#
#
# Indices 1 2 3 4 5 6 
#
# 1 44.3079 -1.3546 -0.5740 -11.4393 9.7136 -3.4795
# 2 -1.3546 105.5109 10.5207 -1.9970 0.3583 2.4528
# 3 -0.5740 10.5207 69.8986 35.0049 -7.8974 -2.3289
# 4 -11.4393 -1.9970 35.0049 56.8510 1.4490 -9.6565
# 5 9.7136 0.3583 -7.8974 1.4490 30.6980 -12.6183
# 6 -3.4795 2.4528 -2.3289 -9.6565 -12.6183 21.6911
#
#
#
# Elastic Compliance Matrix: (Units=1/GPa)
#
#
# Indices 1 2 3 4 5 6 
#
# 1 0.027364 0.001099 -0.005864 0.009806 -0.009665 0.002378
# 2 0.001099 0.009846 -0.002772 0.002087 -0.001840 -0.001376
# 3 -0.005864 -0.002772 0.023735 -0.016152 0.008662 -0.000231
# 4 0.009806 0.002087 -0.016152 0.031599 -0.004146 0.011258
# 5 -0.009665 -0.001840 0.008662 -0.004146 0.048826 0.026145
# 6 0.002378 -0.001376 -0.000231 0.011258 0.026145 0.066836
#
#
# Mechanical properties :
#
#
# Convention : Reuss Voigt Hill
#
# Bulk Modulus (GPa) = 21.79993 26.32243 24.06118
# Shear Modulus (GPa) = 20.95819 35.92305 28.44062
#
# Velocity S-wave (km/s) = 2.97993 3.90136 3.47135
# Velocity P-wave (km/s) = 4.59093 5.60776 5.12462
#
# Compressibility (1/GPa) = 0.04587171
#
# Stress axis : x y z
#
# Youngs Moduli (GPa) = 36.54396 101.56504 42.13171
#
# Poissons Ratio (x) = -0.11164 0.24707
# Poissons Ratio (y) = -0.04017 0.11678
# Poissons Ratio (z) = 0.21430 0.28151
#
# Static dielectric constant tensor:
#      x y z
#    x 1.878460 0.024130 0.004680 
#    y 0.024130 2.083060 -0.013590 
#    z 0.004680 -0.013590 1.901800 
# 
# From -- ./inp_files/315316.got.cif
#   From: 2010.05.17/outbox.cif.g08.bks.cpg/sg2_158_cif.got.tgz:315316.got - 2010.06.03 11:33:40.
