data_PCOD9104377
_publ_section_title
;
Structure prediction by ZEFSAII (Michael W. Deem and Ramdas Pophale) SiO2 
 PCOD9104377
Probable space group: P -1
;
_chemical_formula_sum "Si O2"
_cell_formula_units_Z 16
_cell_length_a 13.964881
_cell_length_b 8.176879
_cell_length_c 15.607335
_cell_angle_alpha 84.525519
_cell_angle_beta 152.594892
_cell_angle_gamma 79.758195
_cell_volume 669.265512
_symmetry_space_group_name_H-M "P -1"
_symmetry_group_IT_number 2
_symmetry_cell_setting 'triclinic'
loop_
_space_group_symop_operation_xyz
x,y,z
-x,-y,-z
loop_
_atom_site_type_symbol
_atom_site_label
_atom_site_fract_x
_atom_site_fract_y
_atom_site_fract_z
Si Si1 0.913708 0.135012 0.806719
Si Si2 0.783734 0.861574 0.811941
Si Si3 0.872527 0.282473 0.238714
Si Si4 0.746474 0.778128 0.603357
Si Si5 0.273191 0.101050 0.694589
Si Si6 0.227421 0.301777 0.825683
Si Si7 0.706992 0.456419 0.499322
Si Si8 0.395182 0.765627 0.109092
O O1 0.808236 0.035486 0.784450
O O2 0.712122 0.298582 0.572458
O O3 0.023113 0.227557 0.951422
O O4 0.153714 0.952250 0.955104
O O5 0.492148 0.989434 0.603280
O O6 0.830928 0.732396 0.771887
O O7 0.776084 0.499152 0.188243
O O8 0.035869 0.255205 0.285045
O O9 0.049222 0.124480 0.459820
O O10 0.668749 0.251280 0.038577
O O11 0.660537 0.640161 0.508962
O O12 0.188289 0.230991 0.707025
O O13 0.385462 0.196934 0.719641
O O14 0.508170 0.878972 0.915323
O O15 0.990827 0.348027 0.692732
O O16 0.503903 0.560070 0.256762
#
# Coordination Sequence:
#
# PCOD9104377 Si02
#       8
#     2   2   2   2   2   2   2   2
#     4  11  22  40  62  88 123 165 206 258 311 361
#     4  10  21  39  63  86 123 161 211 256 309 362
#     4  11  23  41  66  93 128 165 208 252 315 369
#     4  10  20  39  60  90 120 163 206 257 304 365
#     4  11  22  44  68  90 130 162 207 256 312 366
#     4  10  23  42  65  97 122 166 207 257 306 375
#     4  11  23  40  64  90 127 164 207 252 316 366
#     4  12  23  41  65  93 128 167 205 255 314 370
#
# _framework density 23.906804999999999
#
# number of rings (size 3 to 8) (size 9 to 14) (size 15 to 20)
#    0.000    1.250    6.250    0.375    0.000    2.500 
#    0.000    2.500    0.000    0.000    0.000    0.000 
#    0.000    0.000    0.000    0.000    0.000    0.000 
#
# Total GULP energy -89567.110209 kJ/mol
# GULP energy per Si atom -5597.944388 kJ/mol
# Density = 2.385239 g / cm^3
# Si number density = 23.906805 Si / 1000 Ang^3
#
#
#
# Elastic Constant Matrix: (Units=GPa)
#
#
# Indices 1 2 3 4 5 6 
#
# 1 60.5454 23.9494 20.8639 -16.4208 -4.6600 -21.5421
# 2 23.9494 53.4570 38.5389 7.8316 -1.7337 -26.2219
# 3 20.8639 38.5389 124.9296 13.4513 -43.9922 -17.2860
# 4 -16.4208 7.8316 13.4513 35.8439 -0.6513 -5.9423
# 5 -4.6600 -1.7337 -43.9922 -0.6513 33.4555 -1.3864
# 6 -21.5421 -26.2219 -17.2860 -5.9423 -1.3864 41.1259
#
#
#
# Elastic Compliance Matrix: (Units=1/GPa)
#
#
# Indices 1 2 3 4 5 6 
#
# 1 0.030155 -0.008879 -0.001850 0.018495 0.002169 0.012102
# 2 -0.008879 0.040189 -0.014983 -0.005358 -0.018410 0.013281
# 3 -0.001850 -0.014983 0.024570 -0.006236 0.031150 -0.000046
# 4 0.018495 -0.005358 -0.006236 0.041367 -0.004704 0.009469
# 5 0.002169 -0.018410 0.031150 -0.004704 0.070281 0.004181
# 6 0.012102 0.013281 -0.000046 0.009469 0.004181 0.040612
#
#
# Mechanical properties :
#
#
# Convention : Reuss Voigt Hill
#
# Bulk Modulus (GPa) = 22.99392 45.07071 34.03231
# Shear Modulus (GPa) = 15.96962 32.45705 24.21333
#
# Velocity S-wave (km/s) = 2.58736 3.68863 3.18594
# Velocity P-wave (km/s) = 4.30871 6.08563 5.27256
#
# Compressibility (1/GPa) = 0.04348977
#
# Stress axis : x y z
#
# Youngs Moduli (GPa) = 33.16192 24.88256 40.70044
#
# Poissons Ratio (x) = 0.22093 0.07530
# Poissons Ratio (y) = 0.29444 0.60981
# Poissons Ratio (z) = 0.06136 0.37281
#
# Static dielectric constant tensor:
#      x y z
#    x 1.932030 0.002680 -0.003950 
#    y 0.002680 1.899060 0.032010 
#    z -0.003950 0.032010 1.947920 
# 
# From -- ./inp_files/494854.got.cif
#   From: 2010.05.17/outbox.cif.g08.bks.cpg/sg2_248_cif.got.tgz:494854.got - 2010.06.03 11:33:40.
