data_PCOD9104741
_publ_section_title
;
Structure prediction by ZEFSAII (Michael W. Deem and Ramdas Pophale) SiO2 
 PCOD9104741
Probable space group: P -1
;
_chemical_formula_sum "Si O2"
_cell_formula_units_Z 12
_cell_length_a 9.112006
_cell_length_b 20.938061
_cell_length_c 13.180388
_cell_angle_alpha 27.558411
_cell_angle_beta 34.206044
_cell_angle_gamma 27.494615
_cell_volume 527.308436
_symmetry_space_group_name_H-M "P -1"
_symmetry_group_IT_number 2
_symmetry_cell_setting 'triclinic'
loop_
_space_group_symop_operation_xyz
x,y,z
-x,-y,-z
loop_
_atom_site_type_symbol
_atom_site_label
_atom_site_fract_x
_atom_site_fract_y
_atom_site_fract_z
Si Si1 0.386481 0.912965 0.909834
Si Si2 0.343799 0.704028 0.079595
Si Si3 0.811705 0.719617 0.484656
Si Si4 0.801374 0.171280 0.438635
Si Si5 0.274865 0.955464 0.139356
Si Si6 0.738086 0.475927 0.988971
O O1 0.525847 0.762192 0.960871
O O2 0.441653 0.864977 0.065001
O O3 0.378383 0.080080 0.654934
O O4 0.000000 0.000000 0.000000
O O5 0.556399 0.559396 0.080498
O O6 0.146586 0.663046 0.323410
O O7 0.064733 0.868022 0.943419
O O8 0.571277 0.730224 0.522882
O O9 0.867725 0.583170 0.727162
O O10 0.799002 0.139337 0.603575
O O11 0.941882 0.275244 0.179734
O O12 0.000000 0.000000 0.500000
O O13 0.500000 0.000000 0.000000
O O14 0.500000 0.500000 0.000000
#
# Coordination Sequence:
#
# PCOD9104741 Si02
#       6
#     2   2   2   2   2   2
#     4   8  17  33  60  85 112 149 191 223 279 346
#     4  10  20  38  61  85 114 151 190 232 282 341
#     4   9  18  37  57  85 113 147 191 227 283 336
#     4  11  21  35  54  85 118 143 191 244 283 330
#     4  10  16  33  58  84 110 143 190 229 275 329
#     4  10  22  36  54  86 116 149 192 235 281 338
#
# _framework density 22.757079999999998
#
# number of rings (size 3 to 8) (size 9 to 14) (size 15 to 20)
#    0.000    2.667    3.333    2.000    0.000    3.333 
#    3.000    2.500    0.000   14.000    0.000    1.167 
#    0.000    0.000    0.000    0.000    0.000    0.000 
#
# Total GULP energy -66964.411815 kJ/mol
# GULP energy per Si atom -5580.367651 kJ/mol
# Density = 2.270528 g / cm^3
# Si number density = 22.757080 Si / 1000 Ang^3
#
#
#
# Elastic Constant Matrix: (Units=GPa)
#
#
# Indices 1 2 3 4 5 6 
#
# 1 97.2885 16.1873 25.2598 7.7134 -7.4440 27.7526
# 2 16.1873 113.7937 63.9254 0.7551 9.3593 40.2798
# 3 25.2598 63.9254 219.5633 -3.7128 5.9647 14.7687
# 4 7.7134 0.7551 -3.7128 24.1981 -1.0079 -2.5975
# 5 -7.4440 9.3593 5.9647 -1.0079 26.6496 3.4661
# 6 27.7526 40.2798 14.7687 -2.5975 3.4661 34.7717
#
#
#
# Elastic Compliance Matrix: (Units=1/GPa)
#
#
# Indices 1 2 3 4 5 6 
#
# 1 0.016759 0.005749 -0.002533 -0.007836 0.005547 -0.020098
# 2 0.005749 0.020054 -0.004814 -0.006049 -0.001193 -0.026107
# 3 -0.002533 -0.004814 0.005955 0.002405 -0.000954 0.005344
# 4 -0.007836 -0.006049 0.002405 0.046036 -0.000913 0.015770
# 5 0.005547 -0.001193 -0.000954 -0.000913 0.040549 -0.006750
# 6 -0.020098 -0.026107 0.005344 0.015770 -0.006750 0.074624
#
#
# Mechanical properties :
#
#
# Convention : Reuss Voigt Hill
#
# Bulk Modulus (GPa) = 25.27101 71.26562 48.26831
# Shear Modulus (GPa) = 22.68985 38.80874 30.74930
#
# Velocity S-wave (km/s) = 3.16103 4.13407 3.67985
# Velocity P-wave (km/s) = 4.94485 7.36010 6.26988
#
# Compressibility (1/GPa) = 0.03957104
#
# Stress axis : x y z
#
# Youngs Moduli (GPa) = 59.67052 49.86590 167.93764
#
# Poissons Ratio (x) = -0.28668 0.42541
# Poissons Ratio (y) = -0.34304 0.80842
# Poissons Ratio (z) = 0.15115 0.24005
#
# Static dielectric constant tensor:
#      x y z
#    x 2.772270 -1.269730 -0.054310 
#    y -1.269730 3.702210 -0.001890 
#    z -0.054310 -0.001890 1.909620 
# 
# From -- ./inp_files/377188.got.cif
#   From: 2010.05.17/outbox.cif.g08.bks.cpg/sg2_189_cif.got.tgz:377188.got - 2010.06.03 11:33:40.
