data_PCOD9104870
_publ_section_title
;
Structure prediction by ZEFSAII (Michael W. Deem and Ramdas Pophale) SiO2 
 PCOD9104870
Probable space group: P -1
;
_chemical_formula_sum "Si O2"
_cell_formula_units_Z 16
_cell_length_a 9.791852
_cell_length_b 8.983570
_cell_length_c 22.204217
_cell_angle_alpha 110.379137
_cell_angle_beta 43.710149
_cell_angle_gamma 75.247396
_cell_volume 789.032152
_symmetry_space_group_name_H-M "P -1"
_symmetry_group_IT_number 2
_symmetry_cell_setting 'triclinic'
loop_
_space_group_symop_operation_xyz
x,y,z
-x,-y,-z
loop_
_atom_site_type_symbol
_atom_site_label
_atom_site_fract_x
_atom_site_fract_y
_atom_site_fract_z
Si Si1 0.857133 0.266882 0.586146
Si Si2 0.390253 0.169216 0.446380
Si Si3 0.357603 0.334264 0.599619
Si Si4 0.337447 0.273392 0.094894
Si Si5 0.133721 0.370949 0.803103
Si Si6 0.935607 0.035874 0.926683
Si Si7 0.428879 0.463573 0.411773
Si Si8 0.852087 0.331024 0.088762
O O1 0.782261 0.373321 0.557204
O O2 0.519261 0.475770 0.756875
O O3 0.098953 0.234099 0.536890
O O4 0.000000 0.000000 0.500000
O O5 0.495304 0.131135 0.476787
O O6 0.303463 0.396631 0.481046
O O7 0.692070 0.902425 0.278614
O O8 0.358997 0.301461 0.666937
O O9 0.517808 0.404766 0.552097
O O10 0.978664 0.557417 0.741023
O O11 0.199824 0.422260 0.096072
O O12 0.595211 0.230003 0.032529
O O13 0.500000 0.000000 0.000000
O O14 0.116073 0.504646 0.882020
O O15 0.966958 0.187006 0.969226
O O16 0.221321 0.808361 0.760308
O O17 0.961111 0.886449 0.950345
#
# Coordination Sequence:
#
# PCOD9104870 Si02
#       8
#     2   2   2   2   2   2   2   2
#     4  11  20  38  61  81 111 143 188 234 269 323
#     4  12  23  36  56  83 117 149 180 223 289 333
#     4  10  20  37  59  80 110 148 188 227 268 325
#     4  10  16  33  59  79 107 135 192 235 261 307
#     4  10  20  36  56  85 108 142 190 235 266 317
#     4  10  18  34  57  82 107 140 186 235 269 325
#     4  11  22  39  55  83 118 147 175 230 284 335
#     4  10  18  33  59  82 102 142 188 232 274 306
#
# _framework density 20.278008
#
# number of rings (size 3 to 8) (size 9 to 14) (size 15 to 20)
#    0.750    0.750    6.250    1.875    0.000    0.000 
#    0.000    1.250    0.000    0.000    0.000    0.000 
#    0.000    0.000    0.000    0.000    0.000    0.000 
#
# Total GULP energy -89186.913799 kJ/mol
# GULP energy per Si atom -5574.182112 kJ/mol
# Density = 2.023185 g / cm^3
# Si number density = 20.278008 Si / 1000 Ang^3
#
#
#
# Elastic Constant Matrix: (Units=GPa)
#
#
# Indices 1 2 3 4 5 6 
#
# 1 132.8252 19.3330 28.3412 9.2563 2.4461 23.8807
# 2 19.3330 66.1545 -4.4217 9.4391 -2.3844 8.2492
# 3 28.3412 -4.4217 41.2489 14.9588 -2.0377 0.1859
# 4 9.2563 9.4391 14.9588 21.9185 0.1023 2.8996
# 5 2.4461 -2.3844 -2.0377 0.1023 39.2318 10.8882
# 6 23.8807 8.2492 0.1859 2.8996 10.8882 21.3224
#
#
#
# Elastic Compliance Matrix: (Units=1/GPa)
#
#
# Indices 1 2 3 4 5 6 
#
# 1 0.012490 -0.003198 -0.010657 0.005305 0.002531 -0.014672
# 2 -0.003198 0.018969 0.008894 -0.012426 0.002845 -0.003597
# 3 -0.010657 0.008894 0.043607 -0.030706 0.000162 0.012208
# 4 0.005305 -0.012426 -0.030706 0.071088 0.000067 -0.010568
# 5 0.002531 0.002845 0.000162 0.000067 0.031002 -0.019777
# 6 -0.014672 -0.003597 0.012208 -0.010568 -0.019777 0.076153
#
#
# Mechanical properties :
#
#
# Convention : Reuss Voigt Hill
#
# Bulk Modulus (GPa) = 15.35081 36.30373 25.82727
# Shear Modulus (GPa) = 17.54715 29.62629 23.58672
#
# Velocity S-wave (km/s) = 2.94484 3.82646 3.41422
# Velocity P-wave (km/s) = 4.37600 6.12080 5.32041
#
# Compressibility (1/GPa) = 0.06514314
#
# Stress axis : x y z
#
# Youngs Moduli (GPa) = 80.06595 52.71654 22.93202
#
# Poissons Ratio (x) = 0.16861 0.24439
# Poissons Ratio (y) = 0.25609 -0.20396
# Poissons Ratio (z) = 0.85326 -0.46886
#
# Static dielectric constant tensor:
#      x y z
#    x 1.729530 -0.017290 0.020040 
#    y -0.017290 1.780970 -0.002740 
#    z 0.020040 -0.002740 1.709810 
# 
# From -- ./inp_files/606749.got.cif
#   From: 2010.05.17/outbox.cif.g08.bks.cpg/sg2_304_cif.got.tgz:606749.got - 2010.06.03 11:33:40.
