data_PCOD9104446
_publ_section_title
;
Structure prediction by ZEFSAII (Michael W. Deem and Ramdas Pophale) SiO2 
 PCOD9104446
Probable space group: P -1
;
_chemical_formula_sum "Si O2"
_cell_formula_units_Z 16
_cell_length_a 12.053009
_cell_length_b 12.441125
_cell_length_c 8.739417
_cell_angle_alpha 126.894440
_cell_angle_beta 108.983224
_cell_angle_gamma 45.233030
_cell_volume 733.052437
_symmetry_space_group_name_H-M "P -1"
_symmetry_group_IT_number 2
_symmetry_cell_setting 'triclinic'
loop_
_space_group_symop_operation_xyz
x,y,z
-x,-y,-z
loop_
_atom_site_type_symbol
_atom_site_label
_atom_site_fract_x
_atom_site_fract_y
_atom_site_fract_z
Si Si1 0.664453 0.877683 0.807796
Si Si2 0.836623 0.261490 0.578000
Si Si3 0.495212 0.357346 0.802785
Si Si4 0.197601 0.983285 0.475321
Si Si5 0.185431 0.508551 0.971104
Si Si6 0.686441 0.849419 0.148437
Si Si7 0.998795 0.647499 0.701675
Si Si8 0.305944 0.468707 0.516801
O O1 0.677454 0.704128 0.655394
O O2 0.816830 0.829568 0.759820
O O3 0.496321 0.044201 0.803567
O O4 0.673727 0.905061 0.014689
O O5 0.799836 0.137114 0.498704
O O6 0.710011 0.432108 0.558194
O O7 0.841493 0.341657 0.807121
O O8 0.013099 0.132962 0.475126
O O9 0.669714 0.158636 0.710459
O O10 0.351374 0.392501 0.853567
O O11 0.442070 0.403795 0.640798
O O12 0.500000 0.500000 0.000000
O O13 0.249136 0.083346 0.658457
O O14 0.204190 0.364435 0.963105
O O15 0.048975 0.598894 0.860334
O O16 0.139379 0.618600 0.659208
O O17 0.000000 0.500000 0.500000
#
# Coordination Sequence:
#
# PCOD9104446 Si02
#       8
#     2   2   2   2   2   2   2   2
#     4  10  20  39  60  97 135 157 208 269 323 371
#     4  11  24  44  68  95 125 173 218 263 320 380
#     4  11  23  46  66  92 132 174 211 263 320 386
#     4  11  25  42  65  94 136 164 215 269 317 377
#     4  11  23  41  71  94 127 174 216 254 328 385
#     4  11  23  38  65  99 130 164 212 270 317 377
#     4   9  21  37  60  94 129 164 205 264 314 380
#     4  10  21  42  67  92 124 170 216 259 318 383
#
# _framework density 21.826542
#
# number of rings (size 3 to 8) (size 9 to 14) (size 15 to 20)
#    0.000    1.500    3.750    0.750    3.500    3.000 
#    4.500    0.625    0.000    0.000    0.000    0.000 
#    0.000    0.000    0.000    0.000    0.000    0.000 
#
# Total GULP energy -89400.643594 kJ/mol
# GULP energy per Si atom -5587.540225 kJ/mol
# Density = 2.177686 g / cm^3
# Si number density = 21.826542 Si / 1000 Ang^3
#
#
#
# Elastic Constant Matrix: (Units=GPa)
#
#
# Indices 1 2 3 4 5 6 
#
# 1 63.0882 13.3230 1.8226 6.4025 -9.3082 -33.9206
# 2 13.3230 80.8469 -1.2818 -3.3991 -0.4429 -4.3678
# 3 1.8226 -1.2818 51.2989 -1.6678 -0.6447 -6.0405
# 4 6.4025 -3.3991 -1.6678 23.6760 -5.1934 -8.6280
# 5 -9.3082 -0.4429 -0.6447 -5.1934 27.3081 11.3314
# 6 -33.9206 -4.3678 -6.0405 -8.6280 11.3314 31.3609
#
#
#
# Elastic Compliance Matrix: (Units=1/GPa)
#
#
# Indices 1 2 3 4 5 6 
#
# 1 0.040996 -0.003930 0.004164 0.004968 -0.004846 0.047715
# 2 -0.003930 0.013026 0.000336 0.002330 0.000048 -0.001748
# 3 0.004164 0.000336 0.020647 0.003718 -0.001581 0.010122
# 4 0.004968 0.002330 0.003718 0.049042 0.003394 0.018681
# 5 -0.004846 0.000048 -0.001581 0.003394 0.044099 -0.020539
# 6 0.047715 -0.001748 0.010122 0.018681 -0.020539 0.097763
#
#
# Mechanical properties :
#
#
# Convention : Reuss Voigt Hill
#
# Bulk Modulus (GPa) = 13.19099 24.77353 18.98226
# Shear Modulus (GPa) = 17.25915 28.56034 22.90975
#
# Velocity S-wave (km/s) = 2.81506 3.62126 3.24331
# Velocity P-wave (km/s) = 4.07710 5.37211 4.76877
#
# Compressibility (1/GPa) = 0.07580929
#
# Stress axis : x y z
#
# Youngs Moduli (GPa) = 24.39267 76.77101 48.43332
#
# Poissons Ratio (x) = 0.30168 -0.20169
# Poissons Ratio (y) = 0.09585 -0.01626
# Poissons Ratio (z) = -0.10158 -0.02577
#
# Static dielectric constant tensor:
#      x y z
#    x 1.824700 -0.029730 -0.037000 
#    y -0.029730 1.769410 0.023330 
#    z -0.037000 0.023330 1.697400 
# 
# From -- ./inp_files/209257.got.cif
#   From: 2010.05.17/outbox.cif.g08.bks.cpg/sg2_105_cif.got.tgz:209257.got - 2010.06.03 11:33:40.
