data_PCOD9104311
_publ_section_title
;
Structure prediction by ZEFSAII (Michael W. Deem and Ramdas Pophale) SiO2 
 PCOD9104311
Probable space group: P -1
;
_chemical_formula_sum "Si O2"
_cell_formula_units_Z 14
_cell_length_a 13.699135
_cell_length_b 8.119712
_cell_length_c 13.192813
_cell_angle_alpha 72.669111
_cell_angle_beta 33.066840
_cell_angle_gamma 94.438529
_cell_volume 594.882744
_symmetry_space_group_name_H-M "P -1"
_symmetry_group_IT_number 2
_symmetry_cell_setting 'triclinic'
loop_
_space_group_symop_operation_xyz
x,y,z
-x,-y,-z
loop_
_atom_site_type_symbol
_atom_site_label
_atom_site_fract_x
_atom_site_fract_y
_atom_site_fract_z
Si Si1 0.773112 0.859751 0.149977
Si Si2 0.899660 0.718883 0.310557
Si Si3 0.643180 0.745390 0.870078
Si Si4 0.455722 0.635576 0.632921
Si Si5 0.208211 0.614960 0.374480
Si Si6 0.921509 0.146029 0.412960
Si Si7 0.018229 0.475307 0.108962
O O1 0.556467 0.794256 0.417088
O O2 0.691265 0.621093 0.229519
O O3 0.000000 0.000000 0.000000
O O4 0.863015 0.031222 0.948697
O O5 0.682885 0.704263 0.475249
O O6 0.840173 0.593248 0.488953
O O7 0.917444 0.575356 0.238947
O O8 0.834484 0.784806 0.773889
O O9 0.750806 0.896872 0.648091
O O10 0.500000 0.500000 0.000000
O O11 0.462181 0.762071 0.079824
O O12 0.294893 0.639912 0.848491
O O13 0.160134 0.740752 0.469891
O O14 0.000000 0.500000 0.500000
O O15 0.931727 0.240659 0.275028
O O16 0.000000 0.500000 0.000000
#
# Coordination Sequence:
#
# PCOD9104311 Si02
#       7
#     2   2   2   2   2   2   2
#     4   9  18  36  60  86 117 160 206 246 297 367
#     4  10  23  41  61  89 125 163 210 253 309 379
#     4  11  22  43  70  94 127 167 214 265 321 381
#     4  10  20  39  60  84 124 166 202 251 307 361
#     4  11  22  43  64  94 128 161 211 271 323 375
#     4  10  24  43  65  96 130 167 212 263 320 381
#     4  11  22  40  63  94 128 163 209 254 308 379
#
# _framework density 23.534050000000001
#
# number of rings (size 3 to 8) (size 9 to 14) (size 15 to 20)
#    0.000    1.714    1.429    3.857    0.000    1.714 
#   10.286    4.286    0.000    0.000    0.000    0.000 
#    0.000    0.000    0.000    0.000    0.000    0.000 
#
# Total GULP energy -78170.648926 kJ/mol
# GULP energy per Si atom -5583.617780 kJ/mol
# Density = 2.348049 g / cm^3
# Si number density = 23.534050 Si / 1000 Ang^3
#
#
#
# Elastic Constant Matrix: (Units=GPa)
#
#
# Indices 1 2 3 4 5 6 
#
# 1 103.6624 27.6554 61.0945 -8.8287 22.5242 -24.8437
# 2 27.6554 50.3282 25.0677 -5.7174 7.2915 -15.2157
# 3 61.0945 25.0677 143.9550 -5.4158 14.2266 -24.3569
# 4 -8.8287 -5.7174 -5.4158 61.6410 -14.2104 4.0962
# 5 22.5242 7.2915 14.2266 -14.2104 27.4775 -0.1637
# 6 -24.8437 -15.2157 -24.3569 4.0962 -0.1637 29.1279
#
#
#
# Elastic Compliance Matrix: (Units=1/GPa)
#
#
# Indices 1 2 3 4 5 6 
#
# 1 0.018013 -0.003023 -0.004164 -0.001668 -0.012608 0.010466
# 2 -0.003023 0.025604 -0.001172 0.000397 -0.003446 0.009741
# 3 -0.004164 -0.001172 0.009735 -0.000472 -0.001535 0.004034
# 4 -0.001668 0.000397 -0.000472 0.018847 0.011229 -0.004197
# 5 -0.012608 -0.003446 -0.001535 0.011229 0.054155 -0.015113
# 6 0.010466 0.009741 0.004034 -0.004197 -0.015113 0.052225
#
#
# Mechanical properties :
#
#
# Convention : Reuss Voigt Hill
#
# Bulk Modulus (GPa) = 27.29728 58.39785 42.84757
# Shear Modulus (GPa) = 24.09543 35.92448 30.00996
#
# Velocity S-wave (km/s) = 3.20324 3.91127 3.57483
# Velocity P-wave (km/s) = 5.03043 6.72796 5.94015
#
# Compressibility (1/GPa) = 0.03663369
#
# Stress axis : x y z
#
# Youngs Moduli (GPa) = 55.51473 39.05666 102.72715
#
# Poissons Ratio (x) = 0.11806 0.42779
# Poissons Ratio (y) = 0.16780 0.12039
# Poissons Ratio (z) = 0.23118 0.04577
#
# Static dielectric constant tensor:
#      x y z
#    x 1.974010 -0.008620 0.067470 
#    y -0.008620 1.915810 0.034980 
#    z 0.067470 0.034980 1.970150 
# 
# From -- ./inp_files/529519.got.cif
#   From: 2010.05.17/outbox.cif.g08.bks.cpg/sg2_265_cif.got.tgz:529519.got - 2010.06.03 11:33:40.
