data_PCOD9104234
_publ_section_title
;
Structure prediction by ZEFSAII (Michael W. Deem and Ramdas Pophale) SiO2 
 PCOD9104234
Probable space group: P -1
;
_chemical_formula_sum "Si O2"
_cell_formula_units_Z 16
_cell_length_a 8.834406
_cell_length_b 20.519496
_cell_length_c 12.347930
_cell_angle_alpha 147.813747
_cell_angle_beta 142.259067
_cell_angle_gamma 46.282347
_cell_volume 728.180143
_symmetry_space_group_name_H-M "P -1"
_symmetry_group_IT_number 2
_symmetry_cell_setting 'triclinic'
loop_
_space_group_symop_operation_xyz
x,y,z
-x,-y,-z
loop_
_atom_site_type_symbol
_atom_site_label
_atom_site_fract_x
_atom_site_fract_y
_atom_site_fract_z
Si Si1 0.454787 0.523617 0.880982
Si Si2 0.116871 0.086026 0.356010
Si Si3 0.633631 0.010546 0.425221
Si Si4 0.864559 0.330826 0.602096
Si Si5 0.372401 0.280758 0.377608
Si Si6 0.008002 0.571939 0.969819
Si Si7 0.590865 0.974928 0.893565
Si Si8 0.888879 0.261825 0.944778
O O1 0.325708 0.411437 0.594185
O O2 0.500000 0.500000 0.000000
O O3 0.306382 0.653712 0.974674
O O4 0.732071 0.507509 0.972064
O O5 0.355644 0.041399 0.358337
O O6 0.015543 0.225581 0.472699
O O7 0.211349 0.070547 0.512324
O O8 0.874631 0.009733 0.093695
O O9 0.585192 0.960330 0.206836
O O10 0.775782 0.135133 0.674814
O O11 0.601712 0.288289 0.435433
O O12 0.826594 0.462354 0.706204
O O13 0.014684 0.347362 0.822418
O O14 0.431133 0.170914 0.340427
O O15 0.135166 0.243099 0.126907
O O16 0.042387 0.656950 0.005997
O O17 0.500000 0.000000 0.000000
#
# Coordination Sequence:
#
# PCOD9104234 Si02
#       8
#     2   2   2   2   2   2   2   2
#     4   9  18  35  58  85 114 159 204 253 318 366
#     4  11  24  44  67  95 130 170 219 267 330 381
#     4  11  25  43  68  96 132 170 218 271 324 387
#     4  10  20  39  59  87 124 165 209 266 320 380
#     4  11  22  37  59  94 129 161 218 268 312 393
#     4   9  20  36  62  86 120 163 214 262 319 380
#     4  12  24  43  67  97 131 173 217 269 324 385
#     4  11  21  38  62  93 125 166 216 265 321 388
#
# _framework density 21.972586
#
# number of rings (size 3 to 8) (size 9 to 14) (size 15 to 20)
#    0.000    1.500    2.500    3.750    0.000    3.000 
#    0.000    0.000    0.000    0.000    0.000    0.000 
#    0.000    0.000    0.000    0.000    0.000    0.000 
#
# Total GULP energy -89317.938304 kJ/mol
# GULP energy per Si atom -5582.371144 kJ/mol
# Density = 2.192257 g / cm^3
# Si number density = 21.972586 Si / 1000 Ang^3
#
#
#
# Elastic Constant Matrix: (Units=GPa)
#
#
# Indices 1 2 3 4 5 6 
#
# 1 44.8408 9.1300 32.2478 -0.8207 5.4739 12.8256
# 2 9.1300 51.9598 15.8223 -8.6035 3.8529 4.5600
# 3 32.2478 15.8223 87.8916 -16.8765 12.3859 -0.7083
# 4 -0.8207 -8.6035 -16.8765 38.7232 0.8565 -4.0830
# 5 5.4739 3.8529 12.3859 0.8565 39.0073 0.1817
# 6 12.8256 4.5600 -0.7083 -4.0830 0.1817 26.2560
#
#
#
# Elastic Compliance Matrix: (Units=1/GPa)
#
#
# Indices 1 2 3 4 5 6 
#
# 1 0.040331 -0.001712 -0.016369 -0.008898 0.000001 -0.021229
# 2 -0.001712 0.021126 -0.002379 0.003397 -0.001155 -0.002360
# 3 -0.016369 -0.002379 0.020232 0.009131 -0.004141 0.010404
# 4 -0.008898 0.003397 0.009131 0.031368 -0.002716 0.008900
# 5 0.000001 -0.001155 -0.004141 -0.002716 0.027127 -0.000522
# 6 -0.021229 -0.002360 0.010404 0.008900 -0.000522 0.050535
#
#
# Mechanical properties :
#
#
# Convention : Reuss Voigt Hill
#
# Bulk Modulus (GPa) = 24.52861 33.23252 28.88056
# Shear Modulus (GPa) = 20.38901 29.29677 24.84289
#
# Velocity S-wave (km/s) = 3.04950 3.65544 3.36613
# Velocity P-wave (km/s) = 4.85662 5.74228 5.31792
#
# Compressibility (1/GPa) = 0.04076872
#
# Stress axis : x y z
#
# Youngs Moduli (GPa) = 24.79495 47.33449 49.42548
#
# Poissons Ratio (x) = 0.08106 0.80905
# Poissons Ratio (y) = 0.04246 0.11757
# Poissons Ratio (z) = 0.40587 0.11260
#
# Static dielectric constant tensor:
#      x y z
#    x 1.913470 -0.004310 -0.010320 
#    y -0.004310 1.819270 0.046240 
#    z -0.010320 0.046240 1.849940 
# 
# From -- ./inp_files/405744.got.cif
#   From: 2010.05.17/outbox.cif.g08.bks.cpg/sg2_203_cif.got.tgz:405744.got - 2010.06.03 11:33:40.
