data_PCOD9104844
_publ_section_title
;
Structure prediction by ZEFSAII (Michael W. Deem and Ramdas Pophale) SiO2 
 PCOD9104844
Probable space group: P -1
;
_chemical_formula_sum "Si O2"
_cell_formula_units_Z 16
_cell_length_a 11.586456
_cell_length_b 5.500892
_cell_length_c 12.118835
_cell_angle_alpha 99.857939
_cell_angle_beta 113.347861
_cell_angle_gamma 64.345578
_cell_volume 639.248864
_symmetry_space_group_name_H-M "P -1"
_symmetry_group_IT_number 2
_symmetry_cell_setting 'triclinic'
loop_
_space_group_symop_operation_xyz
x,y,z
-x,-y,-z
loop_
_atom_site_type_symbol
_atom_site_label
_atom_site_fract_x
_atom_site_fract_y
_atom_site_fract_z
Si Si1 0.278411 0.407316 0.735981
Si Si2 0.276001 0.002056 0.155815
Si Si3 0.473320 0.439739 0.175267
Si Si4 0.294045 0.250525 0.954703
Si Si5 0.285357 0.166207 0.477728
Si Si6 0.998254 0.779766 0.572351
Si Si7 0.013770 0.712762 0.935329
Si Si8 0.549003 0.759706 0.622337
O O1 0.404954 0.486769 0.815983
O O2 0.291052 0.188955 0.819424
O O3 0.294009 0.271065 0.611949
O O4 0.134797 0.670747 0.690392
O O5 0.396378 0.058808 0.264914
O O6 0.133181 0.185883 0.173124
O O7 0.324275 0.686076 0.156462
O O8 0.268157 0.074498 0.028290
O O9 0.507198 0.361729 0.309542
O O10 0.431667 0.272403 0.054716
O O11 0.160974 0.540298 0.925895
O O12 0.147908 0.115944 0.414014
O O13 0.318838 0.357920 0.418090
O O14 0.419669 0.886918 0.501586
O O15 0.000000 0.500000 0.500000
O O16 0.000000 0.000000 0.500000
O O17 0.000000 0.500000 0.000000
O O18 0.000000 0.000000 0.000000
#
# Coordination Sequence:
#
# PCOD9104844 Si02
#       8
#     2   2   2   2   2   2   2   2
#     4  11  23  42  65  97 133 179 219 277 338 413
#     4  10  21  40  63  93 130 169 219 275 338 398
#     4  11  21  41  64  98 129 172 223 273 341 406
#     4  10  23  40  63  95 135 173 216 273 342 409
#     4  10  22  44  66  96 130 171 232 277 342 397
#     4  10  23  46  67  94 136 179 225 276 331 402
#     4  10  20  39  62  91 131 169 220 268 322 394
#     4  10  22  41  67  94 127 171 223 290 333 393
#
# _framework density 25.029375000000002
#
# number of rings (size 3 to 8) (size 9 to 14) (size 15 to 20)
#    0.000    1.750    2.500    1.125    1.750    1.000 
#   11.250    0.000    0.000    0.000    0.000    0.000 
#    0.000    0.000    0.000    0.000    0.000    0.000 
#
# Total GULP energy -89121.590599 kJ/mol
# GULP energy per Si atom -5570.099412 kJ/mol
# Density = 2.497241 g / cm^3
# Si number density = 25.029375 Si / 1000 Ang^3
#
#
#
# Elastic Constant Matrix: (Units=GPa)
#
#
# Indices 1 2 3 4 5 6 
#
# 1 121.6805 2.2149 35.6110 -13.3623 15.6028 -7.6578
# 2 2.2149 51.8869 12.8803 -12.4428 0.0425 5.0319
# 3 35.6110 12.8803 120.1313 -15.7957 -35.1198 5.3179
# 4 -13.3623 -12.4428 -15.7957 31.5649 -3.5407 6.9643
# 5 15.6028 0.0425 -35.1198 -3.5407 47.3272 -16.7781
# 6 -7.6578 5.0319 5.3179 6.9643 -16.7781 32.3259
#
#
#
# Elastic Compliance Matrix: (Units=1/GPa)
#
#
# Indices 1 2 3 4 5 6 
#
# 1 0.010915 0.001456 -0.005403 0.001882 -0.007917 -0.001267
# 2 0.001456 0.022772 -0.002545 0.009389 -0.004154 -0.006960
# 3 -0.005403 -0.002545 0.014919 0.005122 0.014293 0.002977
# 4 0.001882 0.009389 0.005122 0.041098 0.003001 -0.009155
# 5 -0.007917 -0.004154 0.014293 0.003001 0.040534 0.016812
# 6 -0.001267 -0.006960 0.002977 -0.009155 0.016812 0.041927
#
#
# Mechanical properties :
#
#
# Convention : Reuss Voigt Hill
#
# Bulk Modulus (GPa) = 28.07197 43.90125 35.98661
# Shear Modulus (GPa) = 25.37786 38.44311 31.91048
#
# Velocity S-wave (km/s) = 3.18767 3.92333 3.57448
# Velocity P-wave (km/s) = 4.97878 6.17263 5.60757
#
# Compressibility (1/GPa) = 0.03562272
#
# Stress axis : x y z
#
# Youngs Moduli (GPa) = 91.61632 43.91307 67.03018
#
# Poissons Ratio (x) = -0.06394 0.36214
# Poissons Ratio (y) = -0.13339 0.17059
# Poissons Ratio (z) = 0.49497 0.11176
#
# Static dielectric constant tensor:
#      x y z
#    x 2.077490 -0.098770 -0.018500 
#    y -0.098770 2.157460 0.036820 
#    z -0.018500 0.036820 2.000570 
# 
# From -- ./inp_files/70382.got.cif
#   From: 2010.05.17/outbox.cif.g08.bks.cpg/sg2_36_cif.got.tgz:70382.got - 2010.06.03 11:33:40.
