data_PCOD9104279
_publ_section_title
;
Structure prediction by ZEFSAII (Michael W. Deem and Ramdas Pophale) SiO2 
 PCOD9104279
Probable space group: P -1
;
_chemical_formula_sum "Si O2"
_cell_formula_units_Z 14
_cell_length_a 5.193997
_cell_length_b 9.039227
_cell_length_c 20.314115
_cell_angle_alpha 81.348636
_cell_angle_beta 140.520182
_cell_angle_gamma 78.838901
_cell_volume 521.694913
_symmetry_space_group_name_H-M "P -1"
_symmetry_group_IT_number 2
_symmetry_cell_setting 'triclinic'
loop_
_space_group_symop_operation_xyz
x,y,z
-x,-y,-z
loop_
_atom_site_type_symbol
_atom_site_label
_atom_site_fract_x
_atom_site_fract_y
_atom_site_fract_z
Si Si1 0.978803 0.615428 0.747011
Si Si2 0.030056 0.119277 0.939489
Si Si3 0.616444 0.453107 0.603659
Si Si4 0.487755 0.341470 0.045590
Si Si5 0.076293 0.822846 0.643752
Si Si6 0.301614 0.195021 0.561766
Si Si7 0.547576 0.007284 0.759208
O O1 0.011735 0.448478 0.730789
O O2 0.584893 0.687582 0.721421
O O3 0.423749 0.619038 0.864971
O O4 0.857561 0.733570 0.650552
O O5 0.098136 0.281819 0.963013
O O6 0.630152 0.141868 0.807721
O O7 0.500000 0.000000 0.000000
O O8 0.000000 0.000000 0.000000
O O9 0.500000 0.500000 0.500000
O O10 0.653491 0.268991 0.626882
O O11 0.170842 0.619203 0.536346
O O12 0.956759 0.166733 0.130176
O O13 0.500000 0.500000 0.000000
O O14 0.182028 0.941538 0.705154
O O15 0.774780 0.886593 0.513502
O O16 0.398282 0.077425 0.651403
#
# Coordination Sequence:
#
# PCOD9104279 Si02
#       7
#     2   2   2   2   2   2   2
#     4  10  21  39  65  90 131 167 215 261 328 380
#     4  10  22  45  67  94 131 170 224 278 330 387
#     4  10  20  39  59  95 131 172 207 264 322 394
#     4  10  23  44  69  97 131 173 227 279 327 387
#     4  10  20  40  62  95 126 169 210 262 318 400
#     4  10  21  38  63  92 135 167 214 259 324 396
#     4  10  22  42  66  94 130 173 216 266 333 383
#
# _framework density 26.835608000000001
#
# number of rings (size 3 to 8) (size 9 to 14) (size 15 to 20)
#    0.000    2.000    1.429    1.286    2.000    0.000 
#   10.286   15.714    0.000    0.000    0.000    0.000 
#    0.000    0.000    0.000    0.000    0.000    0.000 
#
# Total GULP energy -78160.580905 kJ/mol
# GULP energy per Si atom -5582.898636 kJ/mol
# Density = 2.677453 g / cm^3
# Si number density = 26.835608 Si / 1000 Ang^3
#
#
#
# Elastic Constant Matrix: (Units=GPa)
#
#
# Indices 1 2 3 4 5 6 
#
# 1 87.6271 45.9603 6.7015 4.9931 0.0167 -0.1454
# 2 45.9603 243.7323 52.4262 48.4226 11.5777 -6.6552
# 3 6.7015 52.4262 93.2787 41.4752 -1.7216 1.9473
# 4 4.9931 48.4226 41.4752 81.5794 9.6939 1.3741
# 5 0.0167 11.5777 -1.7216 9.6939 52.9909 -1.5840
# 6 -0.1454 -6.6552 1.9473 1.3741 -1.5840 55.9525
#
#
#
# Elastic Compliance Matrix: (Units=1/GPa)
#
#
# Indices 1 2 3 4 5 6 
#
# 1 0.012723 -0.002609 0.000319 0.000557 0.000466 -0.000289
# 2 -0.002609 0.005489 -0.002058 -0.001959 -0.000885 0.000741
# 3 0.000319 -0.002058 0.014831 -0.006581 0.002119 -0.000539
# 4 0.000557 -0.001959 -0.006581 0.017089 -0.002927 -0.000505
# 5 0.000466 -0.000885 0.002119 -0.002927 0.019682 0.000451
# 6 -0.000289 0.000741 -0.000539 -0.000505 0.000451 0.018004
#
#
# Mechanical properties :
#
#
# Convention : Reuss Voigt Hill
#
# Bulk Modulus (GPa) = 41.07155 70.53489 55.80322
# Shear Modulus (GPa) = 47.78782 59.40790 53.59786
#
# Velocity S-wave (km/s) = 4.22449 4.71018 4.47393
# Velocity P-wave (km/s) = 6.25565 7.47811 6.89403
#
# Compressibility (1/GPa) = 0.02434775
#
# Stress axis : x y z
#
# Youngs Moduli (GPa) = 78.59492 182.18306 67.42741
#
# Poissons Ratio (x) = 0.47523 -0.02151
# Poissons Ratio (y) = 0.20502 0.13878
# Poissons Ratio (z) = -0.02507 0.37497
#
# Static dielectric constant tensor:
#      x y z
#    x 2.120540 -0.023920 0.095200 
#    y -0.023920 2.477430 -0.223710 
#    z 0.095200 -0.223710 2.395650 
# 
# From -- ./inp_files/543555.got.cif
#   From: 2010.05.17/outbox.cif.g08.bks.cpg/sg2_272_cif.got.tgz:543555.got - 2010.06.03 11:33:40.
