data_PCOD9104150
_publ_section_title
;
Structure prediction by ZEFSAII (Michael W. Deem and Ramdas Pophale) SiO2 
 PCOD9104150
Probable space group: P -1
;
_chemical_formula_sum "Si O2"
_cell_formula_units_Z 14
_cell_length_a 16.366557
_cell_length_b 9.645839
_cell_length_c 6.212479
_cell_angle_alpha 48.236612
_cell_angle_beta 115.194684
_cell_angle_gamma 114.567807
_cell_volume 649.126509
_symmetry_space_group_name_H-M "P -1"
_symmetry_group_IT_number 2
_symmetry_cell_setting 'triclinic'
loop_
_space_group_symop_operation_xyz
x,y,z
-x,-y,-z
loop_
_atom_site_type_symbol
_atom_site_label
_atom_site_fract_x
_atom_site_fract_y
_atom_site_fract_z
Si Si1 0.931740 0.896541 0.350326
Si Si2 0.866878 0.514800 0.117201
Si Si3 0.038714 0.749811 0.263503
Si Si4 0.601155 0.535490 0.672350
Si Si5 0.264198 0.678125 0.181089
Si Si6 0.294459 0.399258 0.885621
Si Si7 0.270902 0.124296 0.778160
O O1 0.978853 0.753880 0.410971
O O2 0.832388 0.833884 0.410134
O O3 0.000000 0.000000 0.500000
O O4 0.920126 0.046800 0.995561
O O5 0.967622 0.647101 0.109596
O O6 0.791040 0.620350 0.025302
O O7 0.880474 0.352799 0.470446
O O8 0.829334 0.416334 0.954180
O O9 0.500000 0.500000 0.500000
O O10 0.653914 0.370253 0.825801
O O11 0.658096 0.736824 0.437631
O O12 0.613104 0.542160 0.934634
O O13 0.278314 0.559134 0.532508
O O14 0.268820 0.901633 0.982441
O O15 0.295194 0.206870 0.958201
#
# Coordination Sequence:
#
# PCOD9104150 Si02
#       7
#     2   2   2   2   2   2   2
#     4  11  23  35  57  91 128 165 215 254 303 365
#     4  10  20  39  58  86 125 170 210 255 304 363
#     4  10  22  35  57  86 125 170 215 254 301 358
#     4  10  25  46  69  94 125 161 205 264 327 386
#     4  10  23  40  66  94 124 164 212 258 316 379
#     4  10  22  41  67  89 130 162 211 256 320 370
#     4  11  23  41  64  96 127 167 209 262 314 370
#
# _framework density 21.567443999999998
#
# number of rings (size 3 to 8) (size 9 to 14) (size 15 to 20)
#    0.000    1.714    1.429    1.714    6.000    6.286 
#    0.000    5.000    0.000    0.000    0.000    0.000 
#    0.000    0.000    0.000    0.000    0.000    0.000 
#
# Total GULP energy -78178.582852 kJ/mol
# GULP energy per Si atom -5584.184489 kJ/mol
# Density = 2.151836 g / cm^3
# Si number density = 21.567444 Si / 1000 Ang^3
#
#
#
# Elastic Constant Matrix: (Units=GPa)
#
#
# Indices 1 2 3 4 5 6 
#
# 1 62.0990 44.3177 30.3759 14.2059 11.9909 11.3610
# 2 44.3177 163.3059 71.5615 7.2133 11.6141 -10.1084
# 3 30.3759 71.5615 97.7650 26.6282 10.6993 10.0108
# 4 14.2059 7.2133 26.6282 47.6170 11.2504 12.6303
# 5 11.9909 11.6141 10.6993 11.2504 33.8423 2.7229
# 6 11.3610 -10.1084 10.0108 12.6303 2.7229 31.0698
#
#
#
# Elastic Compliance Matrix: (Units=1/GPa)
#
#
# Indices 1 2 3 4 5 6 
#
# 1 0.024132 -0.006361 -0.000771 -0.002236 -0.004630 -0.009330
# 2 -0.006361 0.011834 -0.008154 0.002798 -0.000782 0.007734
# 3 -0.000771 -0.008154 0.019107 -0.007813 0.000059 -0.005356
# 4 -0.002236 0.002798 -0.007813 0.029070 -0.006801 -0.006976
# 5 -0.004630 -0.000782 0.000059 -0.006801 0.033600 0.001239
# 6 -0.009330 0.007734 -0.005356 -0.006976 0.001239 0.042567
#
#
# Mechanical properties :
#
#
# Convention : Reuss Voigt Hill
#
# Bulk Modulus (GPa) = 40.81457 68.40891 54.61174
# Shear Modulus (GPa) = 25.11955 34.30013 29.70984
#
# Velocity S-wave (km/s) = 3.41647 3.99227 3.71554
# Velocity P-wave (km/s) = 5.87607 7.28274 6.61690
#
# Compressibility (1/GPa) = 0.02450106
#
# Stress axis : x y z
#
# Youngs Moduli (GPa) = 41.43813 84.50573 52.33765
#
# Poissons Ratio (x) = 0.53751 0.04036
# Poissons Ratio (y) = 0.26357 0.42676
# Poissons Ratio (z) = 0.03195 0.68907
#
# Static dielectric constant tensor:
#      x y z
#    x 1.826280 -0.014760 -0.034420 
#    y -0.014760 1.810740 0.010050 
#    z -0.034420 0.010050 1.814010 
# 
# From -- ./inp_files/56431.got.cif
#   From: 2010.05.17/outbox.cif.g08.bks.cpg/sg2_29_cif.got.tgz:56431.got - 2010.06.03 11:33:40.
