data_PCOD9104275
_publ_section_title
;
Structure prediction by ZEFSAII (Michael W. Deem and Ramdas Pophale) SiO2 
 PCOD9104275
Probable space group: P -1
;
_chemical_formula_sum "Si O2"
_cell_formula_units_Z 14
_cell_length_a 14.987363
_cell_length_b 25.440868
_cell_length_c 11.796000
_cell_angle_alpha 153.119048
_cell_angle_beta 153.732066
_cell_angle_gamma 17.175627
_cell_volume 566.085553
_symmetry_space_group_name_H-M "P -1"
_symmetry_group_IT_number 2
_symmetry_cell_setting 'triclinic'
loop_
_space_group_symop_operation_xyz
x,y,z
-x,-y,-z
loop_
_atom_site_type_symbol
_atom_site_label
_atom_site_fract_x
_atom_site_fract_y
_atom_site_fract_z
Si Si1 0.782143 0.051143 0.673580
Si Si2 0.239205 0.478262 0.088466
Si Si3 0.186603 0.982496 0.822757
Si Si4 0.117627 0.768095 0.711794
Si Si5 0.318737 0.212680 0.783652
Si Si6 0.734529 0.655871 0.658166
Si Si7 0.908925 0.713011 0.742252
O O1 0.417805 0.174410 0.480759
O O2 0.822017 0.155738 0.984024
O O3 0.942138 0.001460 0.637980
O O4 0.971744 0.877311 0.635661
O O5 0.518912 0.438042 0.288945
O O6 0.022932 0.612159 0.205153
O O7 0.407775 0.283209 0.945485
O O8 0.995273 0.559348 0.867438
O O9 0.394619 0.833407 0.671582
O O10 0.435475 0.902137 0.054013
O O11 0.038098 0.173096 0.985509
O O12 0.819666 0.826246 0.529862
O O13 0.824057 0.706616 0.759299
O O14 0.803126 0.496507 0.380018
#
# Coordination Sequence:
#
# PCOD9104275 Si02
#       7
#     2   2   2   2   2   2   2
#     4  11  24  37  63  96 128 160 219 259 312 380
#     4  10  20  39  59  94 128 159 210 262 308 389
#     4  11  23  43  66  98 124 168 213 263 315 376
#     4  11  21  37  58  93 128 164 204 262 312 379
#     4  10  21  35  63  92 127 163 205 260 324 366
#     4  10  24  44  68  91 129 169 215 257 315 379
#     4  11  23  47  67  90 128 173 208 266 314 369
#
# _framework density 24.731245000000001
#
# number of rings (size 3 to 8) (size 9 to 14) (size 15 to 20)
#    0.000    1.429    4.286    0.857    2.000    1.143 
#    0.000    5.714    0.000    0.000    0.000    0.000 
#    0.000    0.000    0.000    0.000    0.000    0.000 
#
# Total GULP energy -78301.334849 kJ/mol
# GULP energy per Si atom -5592.952489 kJ/mol
# Density = 2.467496 g / cm^3
# Si number density = 24.731245 Si / 1000 Ang^3
#
#
#
# Elastic Constant Matrix: (Units=GPa)
#
#
# Indices 1 2 3 4 5 6 
#
# 1 114.8798 36.7700 18.5644 10.7221 -19.0769 -14.4808
# 2 36.7700 52.1327 3.3854 14.0921 4.5716 -6.9806
# 3 18.5644 3.3854 53.1163 2.3193 5.7016 -4.9056
# 4 10.7221 14.0921 2.3193 22.5133 -2.8110 -0.8226
# 5 -19.0769 4.5716 5.7016 -2.8110 33.3744 -1.1280
# 6 -14.4808 -6.9806 -4.9056 -0.8226 -1.1280 54.1088
#
#
#
# Elastic Compliance Matrix: (Units=1/GPa)
#
#
# Indices 1 2 3 4 5 6 
#
# 1 0.015467 -0.011836 -0.005786 0.002187 0.011715 0.002365
# 2 -0.011836 0.033223 0.004308 -0.017250 -0.013472 0.000966
# 3 -0.005786 0.004308 0.021621 -0.003118 -0.007828 0.000757
# 4 0.002187 -0.017250 -0.003118 0.055561 0.008795 -0.000895
# 5 0.011715 -0.013472 -0.007828 0.008795 0.040639 0.001668
# 6 0.002365 0.000966 0.000757 -0.000895 0.001668 0.019329
#
#
# Mechanical properties :
#
#
# Convention : Reuss Voigt Hill
#
# Bulk Modulus (GPa) = 22.89193 37.50761 30.19977
# Shear Modulus (GPa) = 22.02356 32.75991 27.39174
#
# Velocity S-wave (km/s) = 2.98739 3.64350 3.33164
# Velocity P-wave (km/s) = 4.60171 5.73578 5.19975
#
# Compressibility (1/GPa) = 0.04368351
#
# Stress axis : x y z
#
# Youngs Moduli (GPa) = 64.65176 30.09923 46.25196
#
# Poissons Ratio (x) = 0.35624 0.26762
# Poissons Ratio (y) = 0.76519 -0.19924
# Poissons Ratio (z) = 0.37409 -0.12966
#
# Static dielectric constant tensor:
#      x y z
#    x 1.934400 -0.034870 -0.006580 
#    y -0.034870 2.003240 0.128800 
#    z -0.006580 0.128800 2.180070 
# 
# From -- ./inp_files/447255.got.cif
#   From: 2010.05.17/outbox.cif.g08.bks.cpg/sg2_224_cif.got.tgz:447255.got - 2010.06.03 11:33:40.
