data_PCOD9104258
_publ_section_title
;
Structure prediction by ZEFSAII (Michael W. Deem and Ramdas Pophale) SiO2 
 PCOD9104258
Probable space group: P -1
;
_chemical_formula_sum "Si O2"
_cell_formula_units_Z 16
_cell_length_a 9.144245
_cell_length_b 12.637077
_cell_length_c 18.143890
_cell_angle_alpha 148.342280
_cell_angle_beta 61.896196
_cell_angle_gamma 130.997372
_cell_volume 810.085749
_symmetry_space_group_name_H-M "P -1"
_symmetry_group_IT_number 2
_symmetry_cell_setting 'triclinic'
loop_
_space_group_symop_operation_xyz
x,y,z
-x,-y,-z
loop_
_atom_site_type_symbol
_atom_site_label
_atom_site_fract_x
_atom_site_fract_y
_atom_site_fract_z
Si Si1 0.068762 0.289080 0.567887
Si Si2 0.512048 0.814324 0.940620
Si Si3 0.100005 0.401785 0.865286
Si Si4 0.824353 0.211765 0.209507
Si Si5 0.328250 0.798706 0.597985
Si Si6 0.181695 0.286715 0.255493
Si Si7 0.072268 0.983039 0.708654
Si Si8 0.780575 0.013394 0.594373
O O1 0.131553 0.561861 0.715974
O O2 0.054491 0.207311 0.438749
O O3 0.857133 0.117633 0.556547
O O4 0.207652 0.220191 0.535147
O O5 0.295983 0.612962 0.903399
O O6 0.623751 0.703927 0.808819
O O7 0.500000 0.000000 0.000000
O O8 0.658803 0.970452 0.065403
O O9 0.939845 0.218180 0.734087
O O10 0.147986 0.241896 0.810585
O O11 0.000000 0.500000 0.000000
O O12 0.739815 0.232860 0.320118
O O13 0.026507 0.228727 0.192005
O O14 0.235426 0.539152 0.427742
O O15 0.243346 0.940980 0.663908
O O16 0.563232 0.943638 0.621484
O O17 0.063709 0.084246 0.226625
#
# Coordination Sequence:
#
# PCOD9104258 Si02
#       8
#     2   2   2   2   2   2   2   2
#     4  10  20  39  59  90 127 164 200 273 307 366
#     4  12  27  42  67  94 128 173 216 257 317 380
#     4  11  24  46  62  89 131 174 209 259 316 381
#     4  11  22  44  65  92 130 165 214 258 323 374
#     4  11  22  40  68  99 124 167 213 261 320 379
#     4  11  23  42  65  99 129 162 213 267 315 379
#     4  10  21  42  65  92 128 164 207 263 319 374
#     4  10  24  36  61  92 130 155 218 260 315 362
#
# _framework density 19.750995
#
# number of rings (size 3 to 8) (size 9 to 14) (size 15 to 20)
#    0.000    1.250    2.500    3.375    7.000    3.000 
#    0.000    6.875    0.000    0.000    0.000    0.000 
#    0.000    0.000    0.000    0.000    0.000    0.000 
#
# Total GULP energy -89444.465706 kJ/mol
# GULP energy per Si atom -5590.279107 kJ/mol
# Density = 1.970604 g / cm^3
# Si number density = 19.750995 Si / 1000 Ang^3
#
#
#
# Elastic Constant Matrix: (Units=GPa)
#
#
# Indices 1 2 3 4 5 6 
#
# 1 -143.3899 -266.5327 201.7871 35.1343 82.6578 59.5895
# 2 -266.5327 -362.2943 276.5121 60.5428 99.2957 71.5295
# 3 201.7871 276.5121 -44.8900 -20.4516 -65.4223 -34.4737
# 4 35.1343 60.5428 -20.4516 28.7605 -7.6626 -12.0233
# 5 82.6578 99.2957 -65.4223 -7.6626 4.0648 -20.0508
# 6 59.5895 71.5295 -34.4737 -12.0233 -20.0508 27.9001
#
#
#
# Elastic Compliance Matrix: (Units=1/GPa)
#
#
# Indices 1 2 3 4 5 6 
#
# 1 0.022488 -0.018483 0.000102 0.007463 -0.009127 -0.003861
# 2 -0.018483 0.017962 0.003665 -0.006045 0.015039 0.006158
# 3 0.000102 0.003665 0.007212 -0.004486 -0.001189 -0.003490
# 4 0.007463 -0.006045 -0.004486 0.032837 -0.010169 0.000857
# 5 -0.009127 0.015039 -0.001189 -0.010169 0.038106 0.002470
# 6 -0.003861 0.006158 -0.003490 0.000857 0.002470 0.026135
#
#
# Mechanical properties :
#
#
# Convention : Reuss Voigt Hill
#
# Bulk Modulus (GPa) = 54.85963 -14.11567 20.37198
# Shear Modulus (GPa) = 27.73935 -38.67761 -5.46913
#
# Velocity S-wave (km/s) = 3.75167 -4.43003 -1.66585
# Velocity P-wave (km/s) = 6.82661 5.77314 2.57619
#
# Compressibility (1/GPa) = 0.01822834
#
# Stress axis : x y z
#
# Youngs Moduli (GPa) = 44.46849 55.67327 138.66098
#
# Poissons Ratio (x) = 1.02901 -0.01408
# Poissons Ratio (y) = 0.82191 -0.50817
# Poissons Ratio (z) = -0.00452 -0.20404
#
# Static dielectric constant tensor:
#      x y z
#    x 1.682580 -0.015050 0.002100 
#    y -0.015050 1.680250 -0.008490 
#    z 0.002100 -0.008490 1.706170 
# 
# From -- ./inp_files/180199.got.cif
#   From: 2010.05.17/outbox.cif.g08.bks.cpg/sg2_91_cif.got.tgz:180199.got - 2010.06.03 11:33:40.
