data_PCOD9104819
_publ_section_title
;
Structure prediction by ZEFSAII (Michael W. Deem and Ramdas Pophale) SiO2 
 PCOD9104819
Probable space group: P -1
;
_chemical_formula_sum "Si O2"
_cell_formula_units_Z 14
_cell_length_a 8.125647
_cell_length_b 11.201911
_cell_length_c 8.021349
_cell_angle_alpha 113.835853
_cell_angle_beta 60.415964
_cell_angle_gamma 123.690395
_cell_volume 519.669529
_symmetry_space_group_name_H-M "P -1"
_symmetry_group_IT_number 2
_symmetry_cell_setting 'triclinic'
loop_
_space_group_symop_operation_xyz
x,y,z
-x,-y,-z
loop_
_atom_site_type_symbol
_atom_site_label
_atom_site_fract_x
_atom_site_fract_y
_atom_site_fract_z
Si Si1 0.025319 0.225850 0.902938
Si Si2 0.860979 0.649393 0.714716
Si Si3 0.226431 0.515491 0.831546
Si Si4 0.448430 0.040272 0.336468
Si Si5 0.552391 0.180552 0.013712
Si Si6 0.715927 0.362419 0.504020
Si Si7 0.021350 0.942899 0.638811
O O1 0.790834 0.196613 0.942905
O O2 0.195368 0.350494 0.768918
O O3 0.035206 0.073871 0.820592
O O4 0.079430 0.298203 0.097257
O O5 0.070826 0.640085 0.537496
O O6 0.682299 0.483431 0.696159
O O7 0.859495 0.783781 0.690779
O O8 0.258057 0.569798 0.657073
O O9 0.401184 0.650927 0.925158
O O10 0.000000 0.500000 0.000000
O O11 0.561389 0.193523 0.461685
O O12 0.249703 0.948416 0.499588
O O13 0.532806 0.925049 0.163095
O O14 0.424199 0.100536 0.198252
O O15 0.000000 0.000000 0.500000
#
# Coordination Sequence:
#
# PCOD9104819 Si02
#       7
#     2   2   2   2   2   2   2
#     4  11  20  40  61  92 123 159 200 243 308 360
#     4  11  23  39  62  89 126 159 202 251 297 362
#     4   9  16  33  63  89 113 150 205 242 291 356
#     4  10  20  39  62  91 122 153 204 255 291 358
#     4   9  18  35  65  90 119 149 205 253 294 343
#     4  10  21  39  63  93 117 157 205 254 298 344
#     4  12  25  39  62  90 124 165 202 239 307 371
#
# _framework density 26.940200000000001
#
# number of rings (size 3 to 8) (size 9 to 14) (size 15 to 20)
#    0.000    1.714    5.714    1.286    2.000    0.571 
#    0.000    7.143    0.000    0.000    0.000    0.000 
#    0.000    0.000    0.000    0.000    0.000    0.000 
#
# Total GULP energy -78203.155332 kJ/mol
# GULP energy per Si atom -5585.939667 kJ/mol
# Density = 2.687888 g / cm^3
# Si number density = 26.940200 Si / 1000 Ang^3
#
#
#
# Elastic Constant Matrix: (Units=GPa)
#
#
# Indices 1 2 3 4 5 6 
#
# 1 46.3782 56.9705 24.5721 2.6676 2.3226 -6.5169
# 2 56.9705 188.9778 58.0943 26.8468 24.4368 -1.2806
# 3 24.5721 58.0943 88.1458 38.1035 10.6390 4.1843
# 4 2.6676 26.8468 38.1035 59.9065 9.3808 0.5774
# 5 2.3226 24.4368 10.6390 9.3808 27.6836 -0.2783
# 6 -6.5169 -1.2806 4.1843 0.5774 -0.2783 46.3989
#
#
#
# Elastic Compliance Matrix: (Units=1/GPa)
#
#
# Indices 1 2 3 4 5 6 
#
# 1 0.039994 -0.011615 -0.007766 0.007128 0.007526 0.005953
# 2 -0.011615 0.010574 -0.002050 -0.001815 -0.006969 -0.001174
# 3 -0.007766 -0.002050 0.020018 -0.011212 -0.001461 -0.002822
# 4 0.007128 -0.001815 -0.011212 0.024785 -0.003069 0.001635
# 5 0.007526 -0.006969 -0.001461 -0.003069 0.043257 0.001294
# 6 0.005953 -0.001174 -0.002822 0.001635 0.001294 0.022598
#
#
# Mechanical properties :
#
#
# Convention : Reuss Voigt Hill
#
# Bulk Modulus (GPa) = 36.06993 66.97507 51.52250
# Shear Modulus (GPa) = 23.43800 39.05545 31.24672
#
# Velocity S-wave (km/s) = 2.95278 3.81164 3.40936
# Velocity P-wave (km/s) = 5.00431 6.65477 5.88766
#
# Compressibility (1/GPa) = 0.02772393
#
# Stress axis : x y z
#
# Youngs Moduli (GPa) = 25.00384 94.56876 49.95566
#
# Poissons Ratio (x) = 1.09840 0.38797
# Poissons Ratio (y) = 0.29042 0.10240
# Poissons Ratio (z) = 0.19419 0.19385
#
# Static dielectric constant tensor:
#      x y z
#    x 2.342680 0.016650 -0.069030 
#    y 0.016650 2.133410 0.093760 
#    z -0.069030 0.093760 2.135340 
# 
# From -- ./inp_files/254822.got.cif
#   From: 2010.05.17/outbox.cif.g08.bks.cpg/sg2_128_cif.got.tgz:254822.got - 2010.06.03 11:33:40.
