data_PCOD9104276
_publ_section_title
;
Structure prediction by ZEFSAII (Michael W. Deem and Ramdas Pophale) SiO2 
 PCOD9104276
Probable space group: P -1
;
_chemical_formula_sum "Si O2"
_cell_formula_units_Z 13
_cell_length_a 9.135745
_cell_length_b 13.780439
_cell_length_c 4.851635
_cell_angle_alpha 89.575018
_cell_angle_beta 109.684333
_cell_angle_gamma 57.967837
_cell_volume 474.110299
_symmetry_space_group_name_H-M "P -1"
_symmetry_group_IT_number 2
_symmetry_cell_setting 'triclinic'
loop_
_space_group_symop_operation_xyz
x,y,z
-x,-y,-z
loop_
_atom_site_type_symbol
_atom_site_label
_atom_site_fract_x
_atom_site_fract_y
_atom_site_fract_z
Si Si1 0.760691 0.552017 0.544049
Si Si2 0.727478 0.859746 0.383641
Si Si3 0.000000 0.000000 0.000000
Si Si4 0.386642 0.903463 0.534283
Si Si5 0.624460 0.318623 0.433791
Si Si6 0.162344 0.345324 0.908752
Si Si7 0.127029 0.763510 0.881509
O O1 0.565953 0.580499 0.538981
O O2 0.752668 0.598516 0.232660
O O3 0.940268 0.420015 0.694627
O O4 0.816906 0.623520 0.771544
O O5 0.564805 0.874491 0.471455
O O6 0.746457 0.786582 0.128506
O O7 0.929987 0.785571 0.670183
O O8 0.670032 0.991610 0.291578
O O9 0.087075 0.892357 0.820387
O O10 0.209572 0.960600 0.215929
O O11 0.412405 0.783228 0.644899
O O12 0.703314 0.333668 0.200779
O O13 0.800638 0.264836 0.758301
#
# Coordination Sequence:
#
# PCOD9104276 Si02
#       7
#     2   2   1   2   2   2   2
#     4  10  21  38  64  89 116 161 207 247 300 359
#     4  10  20  39  59  95 123 162 193 262 304 356
#     4   8  18  36  56  84 114 162 196 234 282 366
#     4   9  19  36  64  88 126 157 206 243 306 358
#     4  11  21  41  61  90 118 169 201 248 288 379
#     4  10  21  39  62  90 122 153 204 257 297 361
#     4  10  23  37  61  85 130 156 206 242 306 353
#
# _framework density 27.419778000000001
#
# number of rings (size 3 to 8) (size 9 to 14) (size 15 to 20)
#    0.000    2.154    1.538    0.923    2.154    6.769 
#    0.000    5.385    0.000    0.000    0.000    0.000 
#    0.000    0.000    0.000    0.000    0.000    0.000 
#
# Total GULP energy -72618.277235 kJ/mol
# GULP energy per Si atom -5586.021326 kJ/mol
# Density = 2.735737 g / cm^3
# Si number density = 27.419778 Si / 1000 Ang^3
#
#
#
# Elastic Constant Matrix: (Units=GPa)
#
#
# Indices 1 2 3 4 5 6 
#
# 1 110.9521 41.6845 13.7534 -7.6926 21.1615 -18.0924
# 2 41.6845 133.7912 11.4117 4.8012 6.9817 -26.8052
# 3 13.7534 11.4117 80.5785 1.4792 9.8400 2.8432
# 4 -7.6926 4.8012 1.4792 34.7701 -5.1963 8.6837
# 5 21.1615 6.9817 9.8400 -5.1963 29.1385 -2.1485
# 6 -18.0924 -26.8052 2.8432 8.6837 -2.1485 49.8192
#
#
#
# Elastic Compliance Matrix: (Units=1/GPa)
#
#
# Indices 1 2 3 4 5 6 
#
# 1 0.012090 -0.002897 -0.000861 0.001432 -0.007369 0.002314
# 2 -0.002897 0.009503 -0.000952 -0.003083 -0.000059 0.004651
# 3 -0.000861 -0.000952 0.013237 -0.000800 -0.003878 -0.001608
# 4 0.001432 -0.003083 -0.000800 0.031919 0.005186 -0.006433
# 5 -0.007369 -0.000059 -0.003878 0.005186 0.041802 -0.001588
# 6 0.002314 0.004651 -0.001608 -0.006433 -0.001588 0.024560
#
#
# Mechanical properties :
#
#
# Convention : Reuss Voigt Hill
#
# Bulk Modulus (GPa) = 39.35308 51.00233 45.17770
# Shear Modulus (GPa) = 33.11240 39.97704 36.54472
#
# Velocity S-wave (km/s) = 3.47884 3.82247 3.65470
# Velocity P-wave (km/s) = 5.52446 6.17436 5.85843
#
# Compressibility (1/GPa) = 0.02541097
#
# Stress axis : x y z
#
# Youngs Moduli (GPa) = 82.71262 105.22507 75.54559
#
# Poissons Ratio (x) = 0.30480 0.06507
# Poissons Ratio (y) = 0.23959 0.07190
# Poissons Ratio (z) = 0.07125 0.10015
#
# Static dielectric constant tensor:
#      x y z
#    x 2.124490 0.056800 -0.021190 
#    y 0.056800 2.100010 -0.097190 
#    z -0.021190 -0.097190 2.069540 
# 
# From -- ./inp_files/45115.got.cif
#   From: 2010.05.17/outbox.cif.g08.bks.cpg/sg2_23_cif.got.tgz:45115.got - 2010.06.03 11:33:40.
