data_PCOD9104208
_publ_section_title
;
Structure prediction by ZEFSAII (Michael W. Deem and Ramdas Pophale) SiO2 
 PCOD9104208
Probable space group: P -1
;
_chemical_formula_sum "Si O2"
_cell_formula_units_Z 16
_cell_length_a 13.910126
_cell_length_b 8.471819
_cell_length_c 14.217059
_cell_angle_alpha 109.237592
_cell_angle_beta 150.340712
_cell_angle_gamma 87.710995
_cell_volume 665.076747
_symmetry_space_group_name_H-M "P -1"
_symmetry_group_IT_number 2
_symmetry_cell_setting 'triclinic'
loop_
_space_group_symop_operation_xyz
x,y,z
-x,-y,-z
loop_
_atom_site_type_symbol
_atom_site_label
_atom_site_fract_x
_atom_site_fract_y
_atom_site_fract_z
Si Si1 0.819672 0.589373 0.258419
Si Si2 0.983269 0.799523 0.706359
Si Si3 0.155181 0.114219 0.066708
Si Si4 0.715892 0.396065 0.337572
Si Si5 0.090490 0.367007 0.937228
Si Si6 0.198516 0.134305 0.827638
Si Si7 0.425007 0.918652 0.526745
Si Si8 0.653892 0.282829 0.907604
O O1 0.756262 0.482160 0.283358
O O2 0.809570 0.781149 0.263824
O O3 0.637983 0.424567 0.997224
O O4 0.079731 0.639854 0.471208
O O5 0.760419 0.583027 0.474291
O O6 0.186641 0.772553 0.910090
O O7 0.049147 0.905243 0.681678
O O8 0.002153 0.960126 0.824758
O O9 0.392775 0.129505 0.287063
O O10 0.192911 0.320946 0.106654
O O11 0.000000 0.000000 0.000000
O O12 0.461580 0.211731 0.092538
O O13 0.121538 0.249573 0.854409
O O14 0.210586 0.585628 0.042320
O O15 0.826354 0.269695 0.717526
O O16 0.500000 0.000000 0.500000
O O17 0.444218 0.087482 0.646730
#
# Coordination Sequence:
#
# PCOD9104208 Si02
#       8
#     2   2   2   2   2   2   2   2
#     4   9  20  38  61  89 119 154 196 239 286 352
#     4   9  21  37  60  85 116 158 193 239 291 346
#     4  10  20  39  59  85 119 145 196 244 283 347
#     4  10  20  40  61  85 123 155 192 241 292 340
#     4  10  22  39  62  88 115 157 195 238 293 350
#     4  10  21  37  60  88 121 152 197 242 285 344
#     4  11  22  40  63  82 118 155 189 245 293 341
#     4   9  21  40  60  86 119 154 195 239 290 346
#
# _framework density 24.057375
#
# number of rings (size 3 to 8) (size 9 to 14) (size 15 to 20)
#    0.000    2.250    1.250    0.375    0.000   14.000 
#    0.000   11.250    0.000    0.000    0.000    0.000 
#    0.000    0.000    0.000    0.000    0.000    0.000 
#
# Total GULP energy -89366.392931 kJ/mol
# GULP energy per Si atom -5585.399558 kJ/mol
# Density = 2.400262 g / cm^3
# Si number density = 24.057375 Si / 1000 Ang^3
#
#
#
# Elastic Constant Matrix: (Units=GPa)
#
#
# Indices 1 2 3 4 5 6 
#
# 1 36.8708 0.7343 11.0055 -7.8946 1.2466 11.8042
# 2 0.7343 119.3039 28.2953 -13.9702 -0.0968 23.5598
# 3 11.0055 28.2953 94.4820 -21.2692 10.4999 -3.3545
# 4 -7.8946 -13.9702 -21.2692 37.4666 -0.4027 -1.7063
# 5 1.2466 -0.0968 10.4999 -0.4027 38.7282 -4.3739
# 6 11.8042 23.5598 -3.3545 -1.7063 -4.3739 26.5519
#
#
#
# Elastic Compliance Matrix: (Units=1/GPa)
#
#
# Indices 1 2 3 4 5 6 
#
# 1 0.037284 0.006264 -0.005418 0.006054 -0.002227 -0.022796
# 2 0.006264 0.012531 -0.004271 0.002908 -0.000604 -0.014356
# 3 -0.005418 -0.004271 0.014381 0.005761 -0.002780 0.007927
# 4 0.006054 0.002908 0.005761 0.032177 -0.001727 -0.002761
# 5 -0.002227 -0.000604 -0.002780 -0.001727 0.027254 0.005553
# 6 -0.022796 -0.014356 0.007927 -0.002761 0.005553 0.062274
#
#
# Mechanical properties :
#
#
# Convention : Reuss Voigt Hill
#
# Bulk Modulus (GPa) = 17.43727 36.74745 27.09236
# Shear Modulus (GPa) = 23.59981 34.59075 29.09528
#
# Velocity S-wave (km/s) = 3.13546 3.79600 3.48143
# Velocity P-wave (km/s) = 4.51354 5.87545 5.23894
#
# Compressibility (1/GPa) = 0.05734842
#
# Stress axis : x y z
#
# Youngs Moduli (GPa) = 26.82113 79.80020 69.53417
#
# Poissons Ratio (x) = -0.49990 0.37673
# Poissons Ratio (y) = -0.16802 0.29695
# Poissons Ratio (z) = 0.14532 0.34079
#
# Static dielectric constant tensor:
#      x y z
#    x 1.982320 -0.006660 -0.013020 
#    y -0.006660 1.995020 -0.005610 
#    z -0.013020 -0.005610 1.893630 
# 
# From -- ./inp_files/117300.got.cif
#   From: 2010.05.17/outbox.cif.g08.bks.cpg/sg2_59_cif.got.tgz:117300.got - 2010.06.03 11:33:40.
