data_PCOD9104132
_publ_section_title
;
Structure prediction by ZEFSAII (Michael W. Deem and Ramdas Pophale) SiO2 
 PCOD9104132
Probable space group: P -1
;
_chemical_formula_sum "Si O2"
_cell_formula_units_Z 16
_cell_length_a 7.947099
_cell_length_b 18.906798
_cell_length_c 12.021202
_cell_angle_alpha 39.271723
_cell_angle_beta 37.601361
_cell_angle_gamma 41.738375
_cell_volume 655.060741
_symmetry_space_group_name_H-M "P -1"
_symmetry_group_IT_number 2
_symmetry_cell_setting 'triclinic'
loop_
_space_group_symop_operation_xyz
x,y,z
-x,-y,-z
loop_
_atom_site_type_symbol
_atom_site_label
_atom_site_fract_x
_atom_site_fract_y
_atom_site_fract_z
Si Si1 0.445004 0.945359 0.279134
Si Si2 0.590199 0.613713 0.274567
Si Si3 0.136781 0.052371 0.520003
Si Si4 0.034467 0.950410 0.916106
Si Si5 0.182106 0.446537 0.173444
Si Si6 0.306451 0.665433 0.118748
Si Si7 0.209042 0.684641 0.579924
Si Si8 0.699471 0.659405 0.513395
O O1 0.128576 0.988933 0.334713
O O2 0.557756 0.803140 0.412385
O O3 0.691394 0.972255 0.046605
O O4 0.396073 0.002550 0.357575
O O5 0.500000 0.500000 0.500000
O O6 0.481879 0.640673 0.173607
O O7 0.391289 0.710384 0.347893
O O8 0.940636 0.579470 0.144784
O O9 0.012276 0.193810 0.405438
O O10 0.170404 0.014070 0.676677
O O11 0.203737 0.808737 0.986390
O O12 0.000000 0.000000 0.000000
O O13 0.239463 0.389500 0.334661
O O14 0.995142 0.386598 0.267769
O O15 0.491386 0.408679 0.995833
O O16 0.014531 0.631081 0.324918
O O17 0.463124 0.621754 0.612267
#
# Coordination Sequence:
#
# PCOD9104132 Si02
#       8
#     2   2   2   2   2   2   2   2
#     4   9  21  37  58  83 120 155 196 242 286 349
#     4  10  20  42  65  86 119 162 196 254 309 351
#     4  10  20  39  58  84 119 159 195 238 291 350
#     4  11  23  33  57  90 118 154 194 239 292 355
#     4  11  23  41  65  88 122 160 200 255 301 354
#     4  11  22  41  62  89 123 159 199 251 304 354
#     4  10  22  40  65  89 122 164 200 246 300 359
#     4  10  21  42  61  90 126 157 199 249 301 354
#
# _framework density 24.425215999999999
#
# number of rings (size 3 to 8) (size 9 to 14) (size 15 to 20)
#    0.000    1.750    2.500    2.250    3.500    1.000 
#    2.250    0.625    0.000    0.000    0.000    0.000 
#    0.000    0.000    0.000    0.000    0.000    0.000 
#
# Total GULP energy -89520.782700 kJ/mol
# GULP energy per Si atom -5595.048919 kJ/mol
# Density = 2.436962 g / cm^3
# Si number density = 24.425216 Si / 1000 Ang^3
#
#
#
# Elastic Constant Matrix: (Units=GPa)
#
#
# Indices 1 2 3 4 5 6 
#
# 1 124.6894 14.2288 26.5856 5.9108 6.1265 -19.1436
# 2 14.2288 87.6654 54.3659 40.7839 -8.6598 1.1734
# 3 26.5856 54.3659 83.0748 38.5671 4.4752 -23.0738
# 4 5.9108 40.7839 38.5671 39.4365 2.6130 -0.1676
# 5 6.1265 -8.6598 4.4752 2.6130 25.1611 0.1032
# 6 -19.1436 1.1734 -23.0738 -0.1676 0.1032 27.3025
#
#
#
# Elastic Compliance Matrix: (Units=1/GPa)
#
#
# Indices 1 2 3 4 5 6 
#
# 1 0.009466 -0.002857 0.000253 0.001551 -0.003523 0.006997
# 2 -0.002857 0.034497 -0.021482 -0.015530 0.018091 -0.021804
# 3 0.000253 -0.021482 0.052134 -0.027685 -0.014037 0.045043
# 4 0.001551 -0.015530 -0.027685 0.068690 -0.007845 -0.021191
# 5 -0.003523 0.018091 -0.014037 -0.007845 0.050203 -0.015349
# 6 0.006997 -0.021804 0.045043 -0.021191 -0.015349 0.080464
#
#
# Mechanical properties :
#
#
# Convention : Reuss Voigt Hill
#
# Bulk Modulus (GPa) = 20.86551 53.97669 37.42110
# Shear Modulus (GPa) = 13.90437 31.72999 22.81718
#
# Velocity S-wave (km/s) = 2.38851 3.60817 3.05973
# Velocity P-wave (km/s) = 4.02092 6.28532 5.27603
#
# Compressibility (1/GPa) = 0.04792597
#
# Stress axis : x y z
#
# Youngs Moduli (GPa) = 105.64501 28.98832 19.18132
#
# Poissons Ratio (x) = 0.08281 -0.00486
# Poissons Ratio (y) = 0.30178 0.41205
# Poissons Ratio (z) = -0.02675 0.62272
#
# Static dielectric constant tensor:
#      x y z
#    x 1.986350 0.035120 -0.035540 
#    y 0.035120 2.007190 0.022220 
#    z -0.035540 0.022220 1.936940 
# 
# From -- ./inp_files/405362.got.cif
#   From: 2010.05.17/outbox.cif.g08.bks.cpg/sg2_203_cif.got.tgz:405362.got - 2010.06.03 11:33:40.
