data_PCOD9104649
_publ_section_title
;
Structure prediction by ZEFSAII (Michael W. Deem and Ramdas Pophale) SiO2 
 PCOD9104649
Probable space group: P -1
;
_chemical_formula_sum "Si O2"
_cell_formula_units_Z 16
_cell_length_a 8.627109
_cell_length_b 22.103009
_cell_length_c 13.118722
_cell_angle_alpha 27.468255
_cell_angle_beta 142.145110
_cell_angle_gamma 131.618188
_cell_volume 702.202088
_symmetry_space_group_name_H-M "P -1"
_symmetry_group_IT_number 2
_symmetry_cell_setting 'triclinic'
loop_
_space_group_symop_operation_xyz
x,y,z
-x,-y,-z
loop_
_atom_site_type_symbol
_atom_site_label
_atom_site_fract_x
_atom_site_fract_y
_atom_site_fract_z
Si Si1 0.540355 0.784020 0.464539
Si Si2 0.074956 0.593824 0.285052
Si Si3 0.630864 0.363374 0.219242
Si Si4 0.027215 0.162542 0.001641
Si Si5 0.615238 0.521056 0.780306
Si Si6 0.855920 0.675904 0.351377
Si Si7 0.272003 0.651245 0.083854
Si Si8 0.002196 0.936404 0.483183
O O1 0.489330 0.746246 0.612481
O O2 0.267905 0.822441 0.211416
O O3 0.674032 0.649596 0.680288
O O4 0.719854 0.896636 0.379454
O O5 0.922975 0.717702 0.076155
O O6 0.346241 0.571336 0.514063
O O7 0.002090 0.445695 0.462905
O O8 0.114522 0.630999 0.133209
O O9 0.935563 0.325354 0.450500
O O10 0.500000 0.500000 0.000000
O O11 0.591054 0.400358 0.025579
O O12 0.169860 0.191942 0.927473
O O13 0.075738 0.032344 0.289073
O O14 0.773711 0.456952 0.862954
O O15 0.575071 0.641964 0.281192
O O16 0.186230 0.799157 0.781580
O O17 0.000000 0.000000 0.500000
#
# Coordination Sequence:
#
# PCOD9104649 Si02
#       8
#     2   2   2   2   2   2   2   2
#     4   9  21  40  63  91 123 158 210 258 303 368
#     4  10  20  39  61  94 128 161 199 252 317 368
#     4   9  19  36  61  95 124 158 200 250 312 366
#     4  10  21  41  64  89 119 170 211 248 304 365
#     4   9  19  37  62  93 122 155 199 257 312 356
#     4  10  21  38  64  92 128 155 205 264 309 363
#     4  11  24  41  58  97 130 163 200 253 324 360
#     4  12  25  41  62  88 124 173 211 250 297 384
#
# _framework density 22.785464000000001
#
# number of rings (size 3 to 8) (size 9 to 14) (size 15 to 20)
#    0.000    2.000    1.250    3.000    3.500    5.000 
#    4.500    0.000    0.000    3.000    0.000    0.000 
#    0.000    0.000    0.000    0.000    0.000    0.000 
#
# Total GULP energy -89330.955228 kJ/mol
# GULP energy per Si atom -5583.184702 kJ/mol
# Density = 2.273360 g / cm^3
# Si number density = 22.785464 Si / 1000 Ang^3
#
#
#
# Elastic Constant Matrix: (Units=GPa)
#
#
# Indices 1 2 3 4 5 6 
#
# 1 58.6910 14.7658 16.2518 5.4859 -21.2270 0.6232
# 2 14.7658 70.4676 3.9138 0.8379 -11.7693 0.8798
# 3 16.2518 3.9138 97.6398 -14.1216 -39.3311 -1.7781
# 4 5.4859 0.8379 -14.1216 29.6914 8.2101 -5.3158
# 5 -21.2270 -11.7693 -39.3311 8.2101 47.6777 2.7663
# 6 0.6232 0.8798 -1.7781 -5.3158 2.7663 30.0691
#
#
#
# Elastic Compliance Matrix: (Units=1/GPa)
#
#
# Indices 1 2 3 4 5 6 
#
# 1 0.022364 -0.002822 -0.000663 -0.007672 0.010192 -0.002714
# 2 -0.002822 0.015344 0.001263 -0.000465 0.003696 -0.000738
# 3 -0.000663 0.001263 0.015923 0.004336 0.012374 0.000547
# 4 -0.007672 -0.000465 0.004336 0.040720 -0.007448 0.008313
# 5 0.010192 0.003696 0.012374 -0.007448 0.038170 -0.004416
# 6 -0.002714 -0.000738 0.000547 0.008313 -0.004416 0.035243
#
#
# Mechanical properties :
#
#
# Convention : Reuss Voigt Hill
#
# Bulk Modulus (GPa) = 20.33054 32.96235 26.64645
# Shear Modulus (GPa) = 26.51054 34.27878 30.39466
#
# Velocity S-wave (km/s) = 3.41469 3.88289 3.65629
# Velocity P-wave (km/s) = 4.94861 5.88219 5.43548
#
# Compressibility (1/GPa) = 0.04918708
#
# Stress axis : x y z
#
# Youngs Moduli (GPa) = 44.71471 65.17151 62.80289
#
# Poissons Ratio (x) = 0.18391 0.04162
# Poissons Ratio (y) = 0.12618 -0.07930
# Poissons Ratio (z) = 0.02963 -0.08229
#
# Static dielectric constant tensor:
#      x y z
#    x 1.903140 0.001070 0.001600 
#    y 0.001070 1.889860 0.031870 
#    z 0.001600 0.031870 1.855200 
# 
# From -- ./inp_files/244498.got.cif
#   From: 2010.05.17/outbox.cif.g08.bks.cpg/sg2_123_cif.got.tgz:244498.got - 2010.06.03 11:33:40.
