data_PCOD9104109
_publ_section_title
;
Structure prediction by ZEFSAII (Michael W. Deem and Ramdas Pophale) SiO2 
 PCOD9104109
Probable space group: P -1
;
_chemical_formula_sum "Si O2"
_cell_formula_units_Z 16
_cell_length_a 10.372850
_cell_length_b 8.829450
_cell_length_c 11.403820
_cell_angle_alpha 115.280048
_cell_angle_beta 102.753507
_cell_angle_gamma 48.151527
_cell_volume 700.306122
_symmetry_space_group_name_H-M "P -1"
_symmetry_group_IT_number 2
_symmetry_cell_setting 'triclinic'
loop_
_space_group_symop_operation_xyz
x,y,z
-x,-y,-z
loop_
_atom_site_type_symbol
_atom_site_label
_atom_site_fract_x
_atom_site_fract_y
_atom_site_fract_z
Si Si1 0.751633 0.273351 0.570882
Si Si2 0.486775 0.451399 0.178124
Si Si3 0.237161 0.672554 0.997336
Si Si4 0.092637 0.951996 0.688446
Si Si5 0.548169 0.046665 0.146040
Si Si6 0.186770 0.393611 0.312708
Si Si7 0.080888 0.327427 0.856822
Si Si8 0.967508 0.823894 0.806518
O O1 0.592928 0.396458 0.671320
O O2 0.755965 0.161793 0.416308
O O3 0.782051 0.439640 0.583920
O O4 0.916053 0.082231 0.619348
O O5 0.323623 0.532170 0.087945
O O6 0.581671 0.210160 0.167364
O O7 0.611804 0.442478 0.109594
O O8 0.170782 0.915921 0.099231
O O9 0.080600 0.707203 0.909585
O O10 0.096288 0.798570 0.728746
O O11 0.067960 0.140812 0.818257
O O12 0.375751 0.190218 0.235405
O O13 0.712383 0.820568 0.161941
O O14 0.500000 0.000000 0.000000
O O15 0.116091 0.271294 0.302618
O O16 0.037217 0.549679 0.238578
O O17 0.000000 0.500000 0.000000
#
# Coordination Sequence:
#
# PCOD9104109 Si02
#       8
#     2   2   2   2   2   2   2   2
#     4   9  20  41  64  86 124 168 220 249 305 365
#     4  10  20  39  57  92 118 166 205 265 307 371
#     4  10  22  34  59  87 135 153 203 261 326 364
#     4  10  21  40  64  90 121 173 210 256 302 380
#     4  11  21  35  59  87 126 162 206 250 317 373
#     4  10  23  37  58  93 125 166 203 259 309 371
#     4  11  23  38  63  91 128 159 210 265 315 365
#     4  11  22  36  57  93 126 166 201 255 320 378
#
# _framework density 22.847149999999999
#
# number of rings (size 3 to 8) (size 9 to 14) (size 15 to 20)
#    0.000    1.750    2.500    1.500    5.250    0.500 
#    0.000    5.625    0.000    0.000    0.000    8.750 
#    0.000    0.000    0.000    0.000    0.000    0.000 
#
# Total GULP energy -89229.308043 kJ/mol
# GULP energy per Si atom -5576.831753 kJ/mol
# Density = 2.279515 g / cm^3
# Si number density = 22.847150 Si / 1000 Ang^3
#
#
#
# Elastic Constant Matrix: (Units=GPa)
#
#
# Indices 1 2 3 4 5 6 
#
# 1 55.4944 15.9886 12.6437 -1.8205 -9.2365 0.6311
# 2 15.9886 94.6433 23.8627 1.5569 -7.5961 -29.2086
# 3 12.6437 23.8627 103.9197 2.6128 -19.3576 -0.8384
# 4 -1.8205 1.5569 2.6128 19.5417 -0.5300 -1.4939
# 5 -9.2365 -7.5961 -19.3576 -0.5300 35.1916 3.2601
# 6 0.6311 -29.2086 -0.8384 -1.4939 3.2601 45.3051
#
#
#
# Elastic Compliance Matrix: (Units=1/GPa)
#
#
# Indices 1 2 3 4 5 6 
#
# 1 0.020130 -0.003796 -0.000855 0.002181 0.004303 -0.002981
# 2 -0.003796 0.014893 -0.002923 -0.000423 -0.000286 0.009607
# 3 -0.000855 -0.002923 0.011464 -0.001388 0.005625 -0.002111
# 4 0.002181 -0.000423 -0.001388 0.051708 0.000371 0.001350
# 5 0.004303 -0.000286 0.005625 0.000371 0.032814 -0.002489
# 6 -0.002981 0.009607 -0.002111 0.001350 -0.002489 0.028492
#
#
# Mechanical properties :
#
#
# Convention : Reuss Voigt Hill
#
# Bulk Modulus (GPa) = 31.90884 39.89415 35.90149
# Shear Modulus (GPa) = 27.01313 33.44519 30.22916
#
# Velocity S-wave (km/s) = 3.44225 3.83020 3.64140
# Velocity P-wave (km/s) = 5.45851 6.08768 5.78166
#
# Compressibility (1/GPa) = 0.03133928
#
# Stress axis : x y z
#
# Youngs Moduli (GPa) = 49.67764 67.14476 87.23139
#
# Poissons Ratio (x) = 0.25485 0.07458
# Poissons Ratio (y) = 0.18856 0.25499
# Poissons Ratio (z) = 0.04247 0.19628
#
# Static dielectric constant tensor:
#      x y z
#    x 1.974800 0.002240 0.059340 
#    y 0.002240 1.868110 0.020830 
#    z 0.059340 0.020830 1.860040 
# 
# From -- ./inp_files/418159.got.cif
#   From: 2010.05.17/outbox.cif.g08.bks.cpg/sg2_210_cif.got.tgz:418159.got - 2010.06.03 11:33:40.
