data_PCOD9104669
_publ_section_title
;
Structure prediction by ZEFSAII (Michael W. Deem and Ramdas Pophale) SiO2 
 PCOD9104669
Probable space group: P -1
;
_chemical_formula_sum "Si O2"
_cell_formula_units_Z 14
_cell_length_a 5.573138
_cell_length_b 14.555335
_cell_length_c 15.765808
_cell_angle_alpha 32.091836
_cell_angle_beta 69.947055
_cell_angle_gamma 68.695064
_cell_volume 631.428576
_symmetry_space_group_name_H-M "P -1"
_symmetry_group_IT_number 2
_symmetry_cell_setting 'triclinic'
loop_
_space_group_symop_operation_xyz
x,y,z
-x,-y,-z
loop_
_atom_site_type_symbol
_atom_site_label
_atom_site_fract_x
_atom_site_fract_y
_atom_site_fract_z
Si Si1 0.299363 0.024522 0.926084
Si Si2 0.706219 0.597349 0.449193
Si Si3 0.306041 0.391905 0.361434
Si Si4 0.593702 0.778502 0.760683
Si Si5 0.300163 0.858339 0.574518
Si Si6 0.444350 0.277184 0.993652
Si Si7 0.006993 0.547663 0.790835
O O1 0.288814 0.219500 0.740339
O O2 0.500000 0.000000 0.000000
O O3 0.427015 0.887376 0.947058
O O4 0.000000 0.000000 0.000000
O O5 0.500000 0.500000 0.500000
O O6 0.633080 0.623859 0.535795
O O7 0.000000 0.500000 0.500000
O O8 0.415571 0.209123 0.446852
O O9 0.419503 0.559444 0.180113
O O10 0.022956 0.435881 0.320233
O O11 0.344633 0.835759 0.687084
O O12 0.748817 0.604344 0.834314
O O13 0.760057 0.941283 0.603238
O O14 0.536665 0.754085 0.884226
O O15 0.160019 0.704747 0.675778
O O16 0.147088 0.355940 0.947199
#
# Coordination Sequence:
#
# PCOD9104669 Si02
#       7
#     2   2   2   2   2   2   2
#     4  12  28  52  76 111 146 186 245 308 368 431
#     4  12  27  48  78 105 141 191 241 303 365 438
#     4  10  23  41  63  95 135 182 234 282 364 422
#     4  10  20  39  61  97 132 181 231 290 352 419
#     4   9  20  38  62  88 136 177 233 286 347 429
#     4  11  24  40  67  95 141 176 235 292 365 417
#     4  10  22  38  63  97 135 181 229 286 352 437
#
# _framework density 22.171945000000001
#
# number of rings (size 3 to 8) (size 9 to 14) (size 15 to 20)
#    0.000    1.429    0.000    4.286    8.000    6.286 
#    2.571    0.000    0.000    0.000    0.000    0.000 
#    0.000    0.000    0.000    0.000    0.000    0.000 
#
# Total GULP energy -78098.263003 kJ/mol
# GULP energy per Si atom -5578.447357 kJ/mol
# Density = 2.212148 g / cm^3
# Si number density = 22.171945 Si / 1000 Ang^3
#
#
#
# Elastic Constant Matrix: (Units=GPa)
#
#
# Indices 1 2 3 4 5 6 
#
# 1 118.0541 66.5586 69.6672 5.1114 21.5569 19.7235
# 2 66.5586 138.5229 75.0609 -4.1568 23.5212 5.8334
# 3 69.6672 75.0609 172.4938 0.7637 21.4957 11.1014
# 4 5.1114 -4.1568 0.7637 50.1319 6.7432 16.9353
# 5 21.5569 23.5212 21.4957 6.7432 38.1170 -0.8230
# 6 19.7235 5.8334 11.1014 16.9353 -0.8230 42.9167
#
#
#
# Elastic Compliance Matrix: (Units=1/GPa)
#
#
# Indices 1 2 3 4 5 6 
#
# 1 0.014322 -0.004296 -0.003070 0.000629 -0.003948 -0.005528
# 2 -0.004296 0.011430 -0.002861 0.001735 -0.003308 0.000413
# 3 -0.003070 -0.002861 0.008484 0.000312 -0.001350 -0.000544
# 4 0.000629 0.001735 0.000312 0.024335 -0.006130 -0.010326
# 5 -0.003948 -0.003308 -0.001350 -0.006130 0.032477 0.005655
# 6 -0.005528 0.000413 -0.000544 -0.010326 0.005655 0.030109
#
#
# Mechanical properties :
#
#
# Convention : Reuss Voigt Hill
#
# Bulk Modulus (GPa) = 72.55690 94.62714 83.59202
# Shear Modulus (GPa) = 34.19907 40.75206 37.47556
#
# Velocity S-wave (km/s) = 3.93166 4.29184 4.11569
# Velocity P-wave (km/s) = 7.30796 8.20557 7.76974
#
# Compressibility (1/GPa) = 0.01378229
#
# Stress axis : x y z
#
# Youngs Moduli (GPa) = 69.82501 87.49221 117.87156
#
# Poissons Ratio (x) = 0.37585 0.36186
# Poissons Ratio (y) = 0.29996 0.33718
# Poissons Ratio (z) = 0.21436 0.25028
#
# Static dielectric constant tensor:
#      x y z
#    x 2.163450 -0.056010 -0.008290 
#    y -0.056010 1.852300 0.026100 
#    z -0.008290 0.026100 1.789540 
# 
# From -- ./inp_files/137162.got.cif
#   From: 2010.05.17/outbox.cif.g08.bks.cpg/sg2_69_cif.got.tgz:137162.got - 2010.06.03 11:33:40.
