data_PCOD9104724
_publ_section_title
;
Structure prediction by ZEFSAII (Michael W. Deem and Ramdas Pophale) SiO2 
 PCOD9104724
Probable space group: P -1
;
_chemical_formula_sum "Si O2"
_cell_formula_units_Z 14
_cell_length_a 9.312689
_cell_length_b 11.593642
_cell_length_c 10.200332
_cell_angle_alpha 66.650921
_cell_angle_beta 32.050059
_cell_angle_gamma 74.448877
_cell_volume 531.335838
_symmetry_space_group_name_H-M "P -1"
_symmetry_group_IT_number 2
_symmetry_cell_setting 'triclinic'
loop_
_space_group_symop_operation_xyz
x,y,z
-x,-y,-z
loop_
_atom_site_type_symbol
_atom_site_label
_atom_site_fract_x
_atom_site_fract_y
_atom_site_fract_z
Si Si1 0.605111 0.867105 0.509844
Si Si2 0.777180 0.550425 0.480702
Si Si3 0.334607 0.348347 0.930800
Si Si4 0.138156 0.329544 0.365343
Si Si5 0.815383 0.196690 0.321338
Si Si6 0.670178 0.119053 0.739979
Si Si7 0.915269 0.203029 0.957733
O O1 0.470506 0.779074 0.532017
O O2 0.920953 0.869523 0.239502
O O3 0.500000 0.000000 0.500000
O O4 0.410833 0.821542 0.802889
O O5 0.486508 0.477269 0.695568
O O6 0.746902 0.634379 0.596454
O O7 0.970839 0.648523 0.198663
O O8 0.938697 0.434711 0.445526
O O9 0.471878 0.227346 0.833866
O O10 0.358926 0.349817 0.069613
O O11 0.012581 0.316654 0.168671
O O12 0.946681 0.193111 0.560110
O O13 0.762144 0.098409 0.527045
O O14 0.958941 0.159270 0.092980
O O15 0.500000 0.000000 0.000000
#
# Coordination Sequence:
#
# PCOD9104724 Si02
#       7
#     2   2   2   2   2   2   2
#     4  10  22  43  61  91 131 168 212 262 314 376
#     4  10  21  39  62  90 129 161 219 258 321 383
#     4  10  20  39  62  86 127 166 208 269 320 371
#     4   9  21  39  60  91 123 168 209 269 317 373
#     4   9  22  38  62  88 124 162 214 256 326 366
#     4  10  21  40  60  91 125 166 216 262 321 382
#     4  10  23  40  66  95 125 168 217 256 325 378
#
# _framework density 26.348682
#
# number of rings (size 3 to 8) (size 9 to 14) (size 15 to 20)
#    0.857    1.429    0.000    1.714    2.000    4.000 
#    5.143    7.143    0.000    0.000    0.000    0.000 
#    0.000    0.000    0.000    0.000    0.000    0.000 
#
# Total GULP energy -78108.476455 kJ/mol
# GULP energy per Si atom -5579.176890 kJ/mol
# Density = 2.628871 g / cm^3
# Si number density = 26.348682 Si / 1000 Ang^3
#
#
#
# Elastic Constant Matrix: (Units=GPa)
#
#
# Indices 1 2 3 4 5 6 
#
# 1 60.6020 2.6919 20.7880 -5.1511 14.7386 10.2826
# 2 2.6919 89.9694 61.5262 -9.7931 1.7467 -2.4221
# 3 20.7880 61.5262 194.4620 -21.0562 7.5678 -0.1083
# 4 -5.1511 -9.7931 -21.0562 64.8240 5.1058 -9.0982
# 5 14.7386 1.7467 7.5678 5.1058 34.0522 -0.8593
# 6 10.2826 -2.4221 -0.1083 -9.0982 -0.8593 17.1575
#
#
#
# Elastic Compliance Matrix: (Units=1/GPa)
#
#
# Indices 1 2 3 4 5 6 
#
# 1 0.021762 0.000657 -0.002183 -0.000036 -0.009301 -0.013448
# 2 0.000657 0.014340 -0.004484 0.001076 -0.000130 0.002167
# 3 -0.002183 -0.004484 0.007002 0.001693 -0.000595 0.001588
# 4 -0.000036 0.001076 0.001693 0.017681 -0.002830 0.009418
# 5 -0.009301 -0.000130 -0.000595 -0.002830 0.034101 0.005760
# 6 -0.013448 0.002167 0.001588 0.009418 0.005760 0.071941
#
#
# Mechanical properties :
#
#
# Convention : Reuss Voigt Hill
#
# Bulk Modulus (GPa) = 32.17362 57.22729 44.70045
# Shear Modulus (GPa) = 26.42571 40.54190 33.48381
#
# Velocity S-wave (km/s) = 3.17033 3.92684 3.56869
# Velocity P-wave (km/s) = 5.06345 6.50588 5.82945
#
# Compressibility (1/GPa) = 0.03108136
#
# Stress axis : x y z
#
# Youngs Moduli (GPa) = 45.95219 69.73519 142.81601
#
# Poissons Ratio (x) = -0.04580 0.31184
# Poissons Ratio (y) = -0.03018 0.64045
# Poissons Ratio (z) = 0.10034 0.31272
#
# Static dielectric constant tensor:
#      x y z
#    x 2.156180 0.017220 -0.027290 
#    y 0.017220 2.126400 -0.042220 
#    z -0.027290 -0.042220 2.175390 
# 
# From -- ./inp_files/363404.got.cif
#   From: 2010.05.17/outbox.cif.g08.bks.cpg/sg2_182_cif.got.tgz:363404.got - 2010.06.03 11:33:40.
