data_PCOD9104060
_publ_section_title
;
Structure prediction by ZEFSAII (Michael W. Deem and Ramdas Pophale) SiO2 
 PCOD9104060
Probable space group: P -1
;
_chemical_formula_sum "Si O2"
_cell_formula_units_Z 16
_cell_length_a 5.187358
_cell_length_b 24.538921
_cell_length_c 6.125063
_cell_angle_alpha 83.784321
_cell_angle_beta 108.058587
_cell_angle_gamma 121.969341
_cell_volume 627.329392
_symmetry_space_group_name_H-M "P -1"
_symmetry_group_IT_number 2
_symmetry_cell_setting 'triclinic'
loop_
_space_group_symop_operation_xyz
x,y,z
-x,-y,-z
loop_
_atom_site_type_symbol
_atom_site_label
_atom_site_fract_x
_atom_site_fract_y
_atom_site_fract_z
Si Si1 0.347671 0.110770 0.346302
Si Si2 0.646386 0.779113 0.970754
Si Si3 0.060440 0.457343 0.827349
Si Si4 0.392264 0.968749 0.736409
Si Si5 0.294641 0.794345 0.252248
Si Si6 0.907470 0.653356 0.347900
Si Si7 0.330184 0.636557 0.920004
Si Si8 0.514764 0.425231 0.375696
O O1 0.488329 0.081484 0.228551
O O2 0.578797 0.141839 0.600316
O O3 0.986197 0.061325 0.342810
O O4 0.348670 0.171459 0.218956
O O5 0.575762 0.800953 0.173112
O O6 0.359514 0.705060 0.901890
O O7 0.981931 0.782791 0.048389
O O8 0.946376 0.436602 0.053701
O O9 0.781366 0.457447 0.617608
O O10 0.032292 0.390442 0.778613
O O11 0.386325 0.517349 0.793583
O O12 0.500000 0.000000 0.500000
O O13 0.500000 0.000000 0.000000
O O14 0.169016 0.728084 0.382711
O O15 0.595427 0.649282 0.168903
O O16 0.816506 0.614106 0.567668
O O17 0.455272 0.627969 0.725197
#
# Coordination Sequence:
#
# PCOD9104060 Si02
#       8
#     2   2   2   2   2   2   2   2
#     4  12  28  48  85 115 156 209 256 306 382 445
#     4  11  25  44  72 108 150 192 253 315 379 457
#     4  10  20  39  55  86 119 176 225 307 369 458
#     4  12  30  55  87 126 170 216 261 316 377 456
#     4  11  25  45  73 106 153 193 249 320 377 456
#     4  10  22  38  59  89 129 173 233 305 380 439
#     4  10  22  38  59  90 127 174 234 304 379 441
#     4  10  22  35  60  82 124 168 241 294 376 458
#
# _framework density 25.504942
#
# number of rings (size 3 to 8) (size 9 to 14) (size 15 to 20)
#    0.000    1.250    1.250    3.000    7.000    4.500 
#    0.000    0.000    0.000    0.000    0.000    0.000 
#    0.000    0.000    0.000    0.000    0.000    0.000 
#
# Total GULP energy -89399.647972 kJ/mol
# GULP energy per Si atom -5587.477998 kJ/mol
# Density = 2.544689 g / cm^3
# Si number density = 25.504942 Si / 1000 Ang^3
#
#
#
# Elastic Constant Matrix: (Units=GPa)
#
#
# Indices 1 2 3 4 5 6 
#
# 1 67.5887 11.9144 -11.3675 3.8124 -7.2577 8.0037
# 2 11.9144 83.9234 36.8390 13.0356 7.3332 -1.6206
# 3 -11.3675 36.8390 82.2804 -4.0418 -9.0543 3.6085
# 4 3.8124 13.0356 -4.0418 56.9912 -9.9852 1.8522
# 5 -7.2577 7.3332 -9.0543 -9.9852 36.3666 -0.8967
# 6 8.0037 -1.6206 3.6085 1.8522 -0.8967 47.4154
#
#
#
# Elastic Compliance Matrix: (Units=1/GPa)
#
#
# Indices 1 2 3 4 5 6 
#
# 1 0.018052 -0.006347 0.006360 0.002030 0.006932 -0.003696
# 2 -0.006347 0.019683 -0.011212 -0.006676 -0.009794 0.002673
# 3 0.006360 -0.011212 0.019521 0.005334 0.009782 -0.002966
# 4 0.002030 -0.006676 0.005334 0.020907 0.008780 -0.001627
# 5 0.006932 -0.009794 0.009782 0.008780 0.035655 -0.001918
# 6 -0.003696 0.002673 -0.002966 -0.001627 -0.001918 0.022059
#
#
# Mechanical properties :
#
#
# Convention : Reuss Voigt Hill
#
# Bulk Modulus (GPa) = 28.68864 34.28493 31.48679
# Shear Modulus (GPa) = 29.43034 41.24839 35.33936
#
# Velocity S-wave (km/s) = 3.40061 4.02589 3.72639
# Velocity P-wave (km/s) = 5.16638 5.92301 5.55759
#
# Compressibility (1/GPa) = 0.03485700
#
# Stress axis : x y z
#
# Youngs Moduli (GPa) = 55.39693 50.80585 51.22752
#
# Poissons Ratio (x) = 0.32247 -0.32582
# Poissons Ratio (y) = 0.35161 0.57438
# Poissons Ratio (z) = -0.35234 0.56965
#
# Static dielectric constant tensor:
#      x y z
#    x 2.022690 -0.008880 0.025840 
#    y -0.008880 1.999700 -0.030630 
#    z 0.025840 -0.030630 2.061090 
# 
# From -- ./inp_files/13340.got.cif
#   From: 2010.05.17/outbox.cif.g08.bks.cpg/sg2_7_cif.got.tgz:13340.got - 2010.06.03 11:33:40.
