data_PCOD9104733
_publ_section_title
;
Structure prediction by ZEFSAII (Michael W. Deem and Ramdas Pophale) SiO2 
 PCOD9104733
Probable space group: P -1
;
_chemical_formula_sum "Si O2"
_cell_formula_units_Z 14
_cell_length_a 9.957906
_cell_length_b 27.390600
_cell_length_c 9.744238
_cell_angle_alpha 150.737426
_cell_angle_beta 42.094847
_cell_angle_gamma 147.651847
_cell_volume 694.998898
_symmetry_space_group_name_H-M "P -1"
_symmetry_group_IT_number 2
_symmetry_cell_setting 'triclinic'
loop_
_space_group_symop_operation_xyz
x,y,z
-x,-y,-z
loop_
_atom_site_type_symbol
_atom_site_label
_atom_site_fract_x
_atom_site_fract_y
_atom_site_fract_z
Si Si1 0.509148 0.539496 0.246747
Si Si2 0.735010 0.617829 0.699055
Si Si3 0.812899 0.037238 0.092498
Si Si4 0.013485 0.389584 0.760748
Si Si5 0.630638 0.806837 0.811654
Si Si6 0.426582 0.841504 0.306567
Si Si7 0.102401 0.113001 0.801715
O O1 0.287893 0.437475 0.268338
O O2 0.755037 0.570660 0.216867
O O3 0.525551 0.664180 0.532672
O O4 0.500000 0.500000 0.000000
O O5 0.500000 0.500000 0.500000
O O6 0.957569 0.656298 0.520444
O O7 0.755173 0.743941 0.006370
O O8 0.650155 0.070095 0.377176
O O9 0.088044 0.120792 0.160739
O O10 0.876520 0.078731 0.989095
O O11 0.684077 0.890507 0.843970
O O12 0.771250 0.285432 0.773533
O O13 0.000000 0.500000 0.000000
O O14 0.446342 0.816509 0.071792
O O15 0.697500 0.890939 0.274515
O O16 0.000000 0.000000 0.500000
#
# Coordination Sequence:
#
# PCOD9104733 Si02
#       7
#     2   2   2   2   2   2   2
#     4  11  23  40  63  95 136 166 204 273 334 366
#     4  10  20  42  65  90 125 176 218 250 318 399
#     4  10  20  39  62  87 119 168 210 254 314 390
#     4  11  20  39  68  92 121 170 231 258 301 396
#     4  10  21  38  61  88 126 163 206 257 321 385
#     4  11  19  39  64  90 116 166 222 257 305 391
#     4  11  24  39  62  94 130 161 213 275 321 366
#
# _framework density 20.143917999999999
#
# number of rings (size 3 to 8) (size 9 to 14) (size 15 to 20)
#    0.000    1.429    2.857    5.571    2.000    0.571 
#    0.000    2.857    0.000    0.000    0.000    0.000 
#    0.000    0.000    0.000    0.000    0.000    0.000 
#
# Total GULP energy -77989.741488 kJ/mol
# GULP energy per Si atom -5570.695821 kJ/mol
# Density = 2.009807 g / cm^3
# Si number density = 20.143918 Si / 1000 Ang^3
#
#
#
# Elastic Constant Matrix: (Units=GPa)
#
#
# Indices 1 2 3 4 5 6 
#
# 1 34.3829 29.2985 38.6853 -1.7635 -6.9959 -15.6591
# 2 29.2985 124.4138 67.9546 2.0120 0.8600 -34.4019
# 3 38.6853 67.9546 146.1489 13.5683 -14.2230 -21.6189
# 4 -1.7635 2.0120 13.5683 38.4445 -7.0561 -11.9234
# 5 -6.9959 0.8600 -14.2230 -7.0561 31.8159 -3.9271
# 6 -15.6591 -34.4019 -21.6189 -11.9234 -3.9271 30.8591
#
#
#
# Elastic Compliance Matrix: (Units=1/GPa)
#
#
# Indices 1 2 3 4 5 6 
#
# 1 0.061993 0.001062 -0.012089 0.020858 0.017071 0.034404
# 2 0.001062 0.015099 -0.005429 0.006315 0.000788 0.016109
# 3 -0.012089 -0.005429 0.012376 -0.006278 0.000909 -0.005826
# 4 0.020858 0.006315 -0.006278 0.041130 0.014554 0.030970
# 5 0.017071 0.000788 0.000909 0.014554 0.041398 0.021069
# 6 0.034404 0.016109 -0.005826 0.030970 0.021069 0.078388
#
#
# Mechanical properties :
#
#
# Convention : Reuss Voigt Hill
#
# Bulk Modulus (GPa) = 17.68123 64.09140 40.88632
# Shear Modulus (GPa) = 16.54813 31.49104 24.01959
#
# Velocity S-wave (km/s) = 2.86928 3.95815 3.45686
# Velocity P-wave (km/s) = 4.44675 7.26465 6.02282
#
# Compressibility (1/GPa) = 0.05655715
#
# Stress axis : x y z
#
# Youngs Moduli (GPa) = 16.13073 66.22749 80.80136
#
# Poissons Ratio (x) = -0.07033 0.97683
# Poissons Ratio (y) = -0.01713 0.43864
# Poissons Ratio (z) = 0.19501 0.35952
#
# Static dielectric constant tensor:
#      x y z
#    x 1.784040 0.050780 0.037310 
#    y 0.050780 1.846730 0.051150 
#    z 0.037310 0.051150 1.817020 
# 
# From -- ./inp_files/285856.got.cif
#   From: 2010.05.17/outbox.cif.g08.bks.cpg/sg2_143_cif.got.tgz:285856.got - 2010.06.03 11:33:40.
