data_PCOD9104205
_publ_section_title
;
Structure prediction by ZEFSAII (Michael W. Deem and Ramdas Pophale) SiO2 
 PCOD9104205
Probable space group: P -1
;
_chemical_formula_sum "Si O2"
_cell_formula_units_Z 14
_cell_length_a 15.804903
_cell_length_b 27.710534
_cell_length_c 15.128974
_cell_angle_alpha 161.869496
_cell_angle_beta 27.087986
_cell_angle_gamma 160.918820
_cell_volume 672.043107
_symmetry_space_group_name_H-M "P -1"
_symmetry_group_IT_number 2
_symmetry_cell_setting 'triclinic'
loop_
_space_group_symop_operation_xyz
x,y,z
-x,-y,-z
loop_
_atom_site_type_symbol
_atom_site_label
_atom_site_fract_x
_atom_site_fract_y
_atom_site_fract_z
Si Si1 0.363864 0.507593 0.719807
Si Si2 0.112102 0.818316 0.830992
Si Si3 0.368461 0.346841 0.097316
Si Si4 0.839636 0.088957 0.411673
Si Si5 0.639397 0.375660 0.727019
Si Si6 0.368788 0.022767 0.766756
Si Si7 0.897500 0.842642 0.238271
O O1 0.500000 0.500000 0.500000
O O2 0.471912 0.510219 0.716787
O O3 0.059831 0.304498 0.636188
O O4 0.458016 0.737130 0.015333
O O5 0.224652 0.712308 0.560828
O O6 0.814664 0.637588 0.755733
O O7 0.281449 0.984333 0.881540
O O8 0.093252 0.923513 0.115190
O O9 0.565315 0.383072 0.908314
O O10 0.170350 0.096866 0.878917
O O11 0.558004 0.987557 0.522773
O O12 0.862158 0.127322 0.351806
O O13 0.361450 0.221954 0.668431
O O14 0.812863 0.618451 0.952730
O O15 0.000000 0.000000 0.500000
#
# Coordination Sequence:
#
# PCOD9104205 Si02
#       7
#     2   2   2   2   2   2   2
#     4  11  22  36  56  90 127 169 212 251 299 360
#     4  11  21  41  68  92 125 165 208 254 316 374
#     4  10  22  39  63  89 125 167 204 255 304 360
#     4  10  20  39  59  84 130 168 208 251 298 352
#     4  10  22  44  66  92 124 161 202 255 320 375
#     4  10  21  37  60  88 122 170 208 249 303 360
#     4  10  24  44  68  92 124 158 200 262 318 377
#
# _framework density 20.831997000000001
#
# number of rings (size 3 to 8) (size 9 to 14) (size 15 to 20)
#    0.000    1.714    1.429    2.571    0.000    6.286 
#    2.571    2.857    0.000    0.000    0.000    0.000 
#    0.000    0.000    0.000    0.000    0.000    0.000 
#
# Total GULP energy -78149.592252 kJ/mol
# GULP energy per Si atom -5582.113732 kJ/mol
# Density = 2.078458 g / cm^3
# Si number density = 20.831997 Si / 1000 Ang^3
#
#
#
# Elastic Constant Matrix: (Units=GPa)
#
#
# Indices 1 2 3 4 5 6 
#
# 1 130.0706 50.1329 59.3594 -17.9114 24.6997 5.6999
# 2 50.1329 70.1671 45.4411 -21.3583 9.8605 -4.3709
# 3 59.3594 45.4411 79.2406 -24.7359 12.3821 18.0545
# 4 -17.9114 -21.3583 -24.7359 37.8771 5.1759 3.8654
# 5 24.6997 9.8605 12.3821 5.1759 50.6371 -12.0529
# 6 5.6999 -4.3709 18.0545 3.8654 -12.0529 36.5313
#
#
#
# Elastic Compliance Matrix: (Units=1/GPa)
#
#
# Indices 1 2 3 4 5 6 
#
# 1 0.013276 -0.004892 -0.006186 0.000169 -0.004272 -0.001027
# 2 -0.004892 0.028880 -0.015868 0.001790 0.003565 0.013048
# 3 -0.006186 -0.015868 0.040152 0.018712 -0.011982 -0.026711
# 4 0.000169 0.001790 0.018712 0.043451 -0.013781 -0.018204
# 5 -0.004272 0.003565 -0.011982 -0.013781 0.029836 0.018317
# 6 -0.001027 0.013048 -0.026711 -0.018204 0.018317 0.050266
#
#
# Mechanical properties :
#
#
# Convention : Reuss Voigt Hill
#
# Bulk Modulus (GPa) = 35.18976 65.48281 50.33628
# Shear Modulus (GPa) = 18.57185 33.31210 25.94197
#
# Velocity S-wave (km/s) = 2.98905 4.00319 3.53270
# Velocity P-wave (km/s) = 5.37042 7.27113 6.39182
#
# Compressibility (1/GPa) = 0.02841736
#
# Stress axis : x y z
#
# Youngs Moduli (GPa) = 75.32415 34.62630 24.90515
#
# Poissons Ratio (x) = 0.16939 0.15405
# Poissons Ratio (y) = 0.36847 0.39520
# Poissons Ratio (z) = 0.46592 0.54945
#
# Static dielectric constant tensor:
#      x y z
#    x 1.795570 0.001000 0.058380 
#    y 0.001000 1.717540 -0.154200 
#    z 0.058380 -0.154200 1.386140 
# 
# From -- ./inp_files/314895.got.cif
#   From: 2010.05.17/outbox.cif.g08.bks.cpg/sg2_158_cif.got.tgz:314895.got - 2010.06.03 11:33:40.
