data_PCOD9104922
_publ_section_title
;
Structure prediction by ZEFSAII (Michael W. Deem and Ramdas Pophale) SiO2 
 PCOD9104922
Probable space group: P -1
;
_chemical_formula_sum "Si O2"
_cell_formula_units_Z 14
_cell_length_a 16.479715
_cell_length_b 9.165025
_cell_length_c 6.369898
_cell_angle_alpha 69.960959
_cell_angle_beta 122.570801
_cell_angle_gamma 130.359448
_cell_volume 617.784672
_symmetry_space_group_name_H-M "P -1"
_symmetry_group_IT_number 2
_symmetry_cell_setting 'triclinic'
loop_
_space_group_symop_operation_xyz
x,y,z
-x,-y,-z
loop_
_atom_site_type_symbol
_atom_site_label
_atom_site_fract_x
_atom_site_fract_y
_atom_site_fract_z
Si Si1 0.379752 0.306183 0.712944
Si Si2 0.785165 0.025386 0.017951
Si Si3 0.374201 0.582907 0.886780
Si Si4 0.849621 0.549722 0.797081
Si Si5 0.218320 0.244279 0.147139
Si Si6 0.362318 0.836075 0.438295
Si Si7 0.011328 0.575858 0.707081
O O1 0.388226 0.483878 0.748736
O O2 0.321941 0.268755 0.423339
O O3 0.301620 0.136547 0.855178
O O4 0.504943 0.337990 0.859518
O O5 0.837274 0.943740 0.976487
O O6 0.711951 0.076596 0.744671
O O7 0.883837 0.206630 0.199890
O O8 0.362521 0.746550 0.705717
O O9 0.270354 0.417880 0.968521
O O10 0.855773 0.728752 0.800010
O O11 0.716538 0.354402 0.726937
O O12 0.891069 0.550611 0.618869
O O13 0.948392 0.541115 0.055751
O O14 0.500000 0.000000 0.500000
O O15 0.000000 0.500000 0.500000
#
# Coordination Sequence:
#
# PCOD9104922 Si02
#       7
#     2   2   2   2   2   2   2
#     4  10  20  39  62  96 143 184 221 275 327 403
#     4  10  24  42  68 106 134 175 234 281 338 399
#     4  10  21  37  65  94 142 191 222 264 337 404
#     4  10  24  43  68  98 136 179 223 276 347 406
#     4  11  23  41  65 100 143 179 223 275 343 414
#     4  11  21  42  67  99 141 179 229 282 322 405
#     4  10  24  47  72  95 130 176 227 290 340 400
#
# _framework density 22.661619000000002
#
# number of rings (size 3 to 8) (size 9 to 14) (size 15 to 20)
#    0.000    1.714    2.857    0.429    2.000    5.143 
#    2.571    2.857    0.000    0.000    0.000    0.000 
#    0.000    0.000    0.000    0.000    0.000    0.000 
#
# Total GULP energy -78139.961752 kJ/mol
# GULP energy per Si atom -5581.425839 kJ/mol
# Density = 2.261004 g / cm^3
# Si number density = 22.661619 Si / 1000 Ang^3
#
#
#
# Elastic Constant Matrix: (Units=GPa)
#
#
# Indices 1 2 3 4 5 6 
#
# 1 98.2416 61.3082 33.3964 18.5414 -1.1237 -15.6994
# 2 61.3082 102.0236 39.1784 1.4664 6.6310 -15.8323
# 3 33.3964 39.1784 114.8079 -7.9417 3.1106 -10.4691
# 4 18.5414 1.4664 -7.9417 43.8418 -7.5247 -3.8380
# 5 -1.1237 6.6310 3.1106 -7.5247 27.1939 10.3760
# 6 -15.6994 -15.8323 -10.4691 -3.8380 10.3760 28.0034
#
#
#
# Elastic Compliance Matrix: (Units=1/GPa)
#
#
# Indices 1 2 3 4 5 6 
#
# 1 0.019294 -0.010075 -0.002452 -0.007972 0.000165 0.003050
# 2 -0.010075 0.018105 -0.002304 0.002725 -0.006263 0.006421
# 3 -0.002452 -0.002304 0.010620 0.003099 -0.000643 0.001956
# 4 -0.007972 0.002725 0.003099 0.027728 0.006463 -0.000364
# 5 0.000165 -0.006263 -0.000643 0.006463 0.048029 -0.020599
# 6 0.003050 0.006421 0.001956 -0.000364 -0.020599 0.049364
#
#
# Mechanical properties :
#
#
# Convention : Reuss Voigt Hill
#
# Bulk Modulus (GPa) = 54.47692 64.75990 59.61841
# Shear Modulus (GPa) = 23.93255 31.88716 27.90986
#
# Velocity S-wave (km/s) = 3.25327 3.75520 3.51321
# Velocity P-wave (km/s) = 6.18087 6.88774 6.54386
#
# Compressibility (1/GPa) = 0.01835640
#
# Stress axis : x y z
#
# Youngs Moduli (GPa) = 51.83002 55.23288 94.16378
#
# Poissons Ratio (x) = 0.55649 0.23088
# Poissons Ratio (y) = 0.52221 0.21695
# Poissons Ratio (z) = 0.12708 0.12725
#
# Static dielectric constant tensor:
#      x y z
#    x 1.907350 0.023730 -0.059900 
#    y 0.023730 1.854130 -0.014890 
#    z -0.059900 -0.014890 1.918180 
# 
# From -- ./inp_files/97358.got.cif
#   From: 2010.05.17/outbox.cif.g08.bks.cpg/sg2_49_cif.got.tgz:97358.got - 2010.06.03 11:33:40.
