data_PCOD9104225
_publ_section_title
;
Structure prediction by ZEFSAII (Michael W. Deem and Ramdas Pophale) SiO2 
 PCOD9104225
Probable space group: P -1
;
_chemical_formula_sum "Si O2"
_cell_formula_units_Z 16
_cell_length_a 5.294735
_cell_length_b 26.269356
_cell_length_c 6.707069
_cell_angle_alpha 45.146732
_cell_angle_beta 85.472427
_cell_angle_gamma 66.399336
_cell_volume 575.537050
_symmetry_space_group_name_H-M "P -1"
_symmetry_group_IT_number 2
_symmetry_cell_setting 'triclinic'
loop_
_space_group_symop_operation_xyz
x,y,z
-x,-y,-z
loop_
_atom_site_type_symbol
_atom_site_label
_atom_site_fract_x
_atom_site_fract_y
_atom_site_fract_z
Si Si1 0.897500 0.849038 0.229908
Si Si2 0.339995 0.239009 0.030609
Si Si3 0.201608 0.033446 0.795502
Si Si4 0.346746 0.710764 0.379438
Si Si5 0.859090 0.395254 0.364378
Si Si6 0.327950 0.908709 0.857107
Si Si7 0.712187 0.528806 0.310073
Si Si8 0.733615 0.680219 0.789021
O O1 0.569151 0.881880 0.090926
O O2 0.047485 0.757832 0.384706
O O3 0.073057 0.887656 0.988003
O O4 0.935150 0.870912 0.394129
O O5 0.614263 0.252794 0.926503
O O6 0.074779 0.317468 0.713204
O O7 0.475521 0.145463 0.193449
O O8 0.263881 0.260362 0.206104
O O9 0.209690 0.006843 0.636588
O O10 0.500000 0.000000 0.000000
O O11 0.000000 0.000000 0.000000
O O12 0.418304 0.618718 0.592494
O O13 0.539544 0.725908 0.485521
O O14 0.803751 0.477619 0.241655
O O15 0.974937 0.385817 0.158064
O O16 0.500000 0.500000 0.500000
O O17 0.591088 0.625808 0.028314
O O18 0.000000 0.500000 0.500000
#
# Coordination Sequence:
#
# PCOD9104225 Si02
#       8
#     2   2   2   2   2   2   2   2
#     4   9  16  30  51  80 117 151 195 246 292 345
#     4  10  20  39  59  86 123 158 202 249 300 355
#     4   8  14  24  45  78 111 147 195 240 286 344
#     4  10  22  37  61  88 120 161 201 251 300 355
#     4  11  23  41  65  88 123 157 201 247 301 360
#     4   9  16  29  52  81 113 155 196 242 292 348
#     4  12  27  46  70  91 122 162 198 247 306 359
#     4  11  25  41  63  92 120 159 202 248 302 362
#
# _framework density 27.800124
#
# number of rings (size 3 to 8) (size 9 to 14) (size 15 to 20)
#    0.000    2.000    2.500    1.125    3.500    1.500 
#    0.000    0.000    0.000    0.750    0.000    0.875 
#    0.000    0.000    0.000    0.000    0.000    0.125 
#
# Total GULP energy -89197.378972 kJ/mol
# GULP energy per Si atom -5574.836186 kJ/mol
# Density = 2.773685 g / cm^3
# Si number density = 27.800124 Si / 1000 Ang^3
#
#
#
# Elastic Constant Matrix: (Units=GPa)
#
#
# Indices 1 2 3 4 5 6 
#
# 1 125.1965 23.8857 26.8617 4.4589 -17.3042 18.5372
# 2 23.8857 227.5727 36.9959 40.1293 -15.1745 45.7647
# 3 26.8617 36.9959 75.5275 20.6908 2.6633 -1.5902
# 4 4.4589 40.1293 20.6908 42.6909 -6.6554 -2.8643
# 5 -17.3042 -15.1745 2.6633 -6.6554 21.1140 2.1972
# 6 18.5372 45.7647 -1.5902 -2.8643 2.1972 49.2590
#
#
#
# Elastic Compliance Matrix: (Units=1/GPa)
#
#
# Indices 1 2 3 4 5 6 
#
# 1 0.011612 0.001604 -0.005965 0.001703 0.012637 -0.006517
# 2 0.001604 0.007944 -0.003353 -0.005565 0.006599 -0.008710
# 3 -0.005965 -0.003353 0.019576 -0.007281 -0.012701 0.006135
# 4 0.001703 -0.005565 -0.007281 0.033699 0.008325 0.005883
# 5 0.012637 0.006599 -0.012701 0.008325 0.068129 -0.013851
# 6 -0.006517 -0.008710 0.006135 0.005883 -0.013851 0.032004
#
#
# Mechanical properties :
#
#
# Convention : Reuss Voigt Hill
#
# Bulk Modulus (GPa) = 42.18787 67.08704 54.63745
# Shear Modulus (GPa) = 25.47201 45.31634 35.39417
#
# Velocity S-wave (km/s) = 3.03025 4.04180 3.57202
# Velocity P-wave (km/s) = 5.23943 6.77981 6.05877
#
# Compressibility (1/GPa) = 0.02370350
#
# Stress axis : x y z
#
# Youngs Moduli (GPa) = 86.11595 125.88183 51.08308
#
# Poissons Ratio (x) = -0.20188 0.30471
# Poissons Ratio (y) = -0.13811 0.17128
# Poissons Ratio (z) = 0.51369 0.42209
#
# Static dielectric constant tensor:
#      x y z
#    x 2.331470 -0.236180 0.111110 
#    y -0.236180 2.348060 -0.073860 
#    z 0.111110 -0.073860 2.169030 
# 
# From -- ./inp_files/10729.got.cif
#   From: 2010.05.17/outbox.cif.g08.bks.cpg/sg2_6_cif.got.tgz:10729.got - 2010.06.03 11:33:40.
