data_PCOD9104338
_publ_section_title
;
Structure prediction by ZEFSAII (Michael W. Deem and Ramdas Pophale) SiO2 
 PCOD9104338
Probable space group: P -1
;
_chemical_formula_sum "Si O2"
_cell_formula_units_Z 16
_cell_length_a 12.532788
_cell_length_b 16.470524
_cell_length_c 8.346980
_cell_angle_alpha 48.711880
_cell_angle_beta 33.814270
_cell_angle_gamma 47.442902
_cell_volume 685.845263
_symmetry_space_group_name_H-M "P -1"
_symmetry_group_IT_number 2
_symmetry_cell_setting 'triclinic'
loop_
_space_group_symop_operation_xyz
x,y,z
-x,-y,-z
loop_
_atom_site_type_symbol
_atom_site_label
_atom_site_fract_x
_atom_site_fract_y
_atom_site_fract_z
Si Si1 0.062189 0.389932 0.175665
Si Si2 0.741515 0.129923 0.131465
Si Si3 0.462161 0.482548 0.884058
Si Si4 0.849564 0.881859 0.219896
Si Si5 0.310717 0.224365 0.681149
Si Si6 0.782683 0.263216 0.607699
Si Si7 0.507884 0.696121 0.354196
Si Si8 0.132029 0.361311 0.456714
O O1 0.978646 0.403383 0.444781
O O2 0.987002 0.295497 0.302784
O O3 0.302991 0.357137 0.928931
O O4 0.000000 0.500000 0.000000
O O5 0.519053 0.209137 0.342775
O O6 0.748504 0.999433 0.281299
O O7 0.805265 0.163828 0.835297
O O8 0.910655 0.142380 0.028254
O O9 0.629397 0.377774 0.728177
O O10 0.459453 0.595829 0.644539
O O11 0.500000 0.500000 0.000000
O O12 0.257776 0.449109 0.176936
O O13 0.771055 0.877774 0.141816
O O14 0.797315 0.774198 0.502538
O O15 0.395836 0.233662 0.736624
O O16 0.138685 0.332882 0.677605
O O17 0.684931 0.242806 0.590668
#
# Coordination Sequence:
#
# PCOD9104338 Si02
#       8
#     2   2   2   2   2   2   2   2
#     4  12  23  38  60  85 122 160 194 238 295 352
#     4  11  19  39  69  88 111 155 198 251 302 339
#     4  12  20  38  61  86 117 154 195 243 287 343
#     4   9  21  37  65  91 115 145 204 252 291 349
#     4  10  21  39  61  87 121 152 198 246 291 344
#     4  12  22  38  62  87 119 156 201 236 300 354
#     4  12  24  40  58  86 127 161 192 241 291 359
#     4  10  20  39  60  87 120 149 202 246 281 352
#
# _framework density 23.328876999999999
#
# number of rings (size 3 to 8) (size 9 to 14) (size 15 to 20)
#    0.750    0.250    6.250    1.500    0.000    1.000 
#    0.000    4.375    0.000    2.250    0.000    0.000 
#    0.000    0.000    0.000    0.000    0.000    0.000 
#
# Total GULP energy -89140.480388 kJ/mol
# GULP energy per Si atom -5571.280024 kJ/mol
# Density = 2.327578 g / cm^3
# Si number density = 23.328877 Si / 1000 Ang^3
#
#
#
# Elastic Constant Matrix: (Units=GPa)
#
#
# Indices 1 2 3 4 5 6 
#
# 1 198.4828 17.2263 29.7031 -11.0761 -22.6388 28.0446
# 2 17.2263 39.7538 17.1679 -15.2151 -1.7018 5.8808
# 3 29.7031 17.1679 60.6356 -13.3059 -9.3834 6.3665
# 4 -11.0761 -15.2151 -13.3059 18.8606 -0.0266 -3.9728
# 5 -22.6388 -1.7018 -9.3834 -0.0266 37.5212 -6.6299
# 6 28.0446 5.8808 6.3665 -3.9728 -6.6299 29.7352
#
#
#
# Elastic Compliance Matrix: (Units=1/GPa)
#
#
# Indices 1 2 3 4 5 6 
#
# 1 0.006395 -0.000876 -0.001826 0.000752 0.002513 -0.004807
# 2 -0.000876 0.037858 -0.004269 0.026538 -0.000260 -0.002259
# 3 -0.001826 -0.004269 0.021570 0.010774 0.004162 0.000316
# 4 0.000752 0.026538 0.010774 0.083323 0.005119 0.004010
# 5 0.002513 -0.000260 0.004162 0.005119 0.029934 0.004148
# 6 -0.004807 -0.002259 0.000316 0.004010 0.004148 0.040003
#
#
# Mechanical properties :
#
#
# Convention : Reuss Voigt Hill
#
# Bulk Modulus (GPa) = 19.27489 47.45187 33.36338
# Shear Modulus (GPa) = 19.97434 32.87507 26.42470
#
# Velocity S-wave (km/s) = 2.92928 3.75800 3.36922
# Velocity P-wave (km/s) = 4.44084 6.26216 5.42843
#
# Compressibility (1/GPa) = 0.05188097
#
# Stress axis : x y z
#
# Youngs Moduli (GPa) = 156.36400 26.41425 46.35986
#
# Poissons Ratio (x) = 0.02315 0.08466
# Poissons Ratio (y) = 0.13703 0.19791
# Poissons Ratio (z) = 0.28555 0.11276
#
# Static dielectric constant tensor:
#      x y z
#    x 1.957060 0.023350 0.019240 
#    y 0.023350 1.936740 0.086610 
#    z 0.019240 0.086610 1.936460 
# 
# From -- ./inp_files/276192.got.cif
#   From: 2010.05.17/outbox.cif.g08.bks.cpg/sg2_139_cif.got.tgz:276192.got - 2010.06.03 11:33:40.
