data_PCOD9104478
_publ_section_title
;
Structure prediction by ZEFSAII (Michael W. Deem and Ramdas Pophale) SiO2 
 PCOD9104478
Probable space group: P -1
;
_chemical_formula_sum "Si O2"
_cell_formula_units_Z 16
_cell_length_a 12.628537
_cell_length_b 22.301096
_cell_length_c 15.165747
_cell_angle_alpha 153.917589
_cell_angle_beta 42.403819
_cell_angle_gamma 153.177753
_cell_volume 803.304894
_symmetry_space_group_name_H-M "P -1"
_symmetry_group_IT_number 2
_symmetry_cell_setting 'triclinic'
loop_
_space_group_symop_operation_xyz
x,y,z
-x,-y,-z
loop_
_atom_site_type_symbol
_atom_site_label
_atom_site_fract_x
_atom_site_fract_y
_atom_site_fract_z
Si Si1 0.491221 0.211594 0.826545
Si Si2 0.090793 0.403356 0.811159
Si Si3 0.885011 0.268559 0.573890
Si Si4 0.963828 0.139661 0.700984
Si Si5 0.890577 0.505916 0.448880
Si Si6 0.974194 0.696340 0.819899
Si Si7 0.636424 0.951614 0.824994
Si Si8 0.517770 0.551069 0.956477
O O1 0.698212 0.259697 0.712958
O O2 0.286944 0.970775 0.668181
O O3 0.627699 0.392278 0.056693
O O4 0.371654 0.231014 0.853514
O O5 0.048546 0.335556 0.646316
O O6 0.936752 0.197912 0.699827
O O7 0.000000 0.500000 0.000000
O O8 0.038965 0.425775 0.604951
O O9 0.233532 0.372942 0.869712
O O10 0.764612 0.044672 0.772923
O O11 0.000000 0.000000 0.500000
O O12 0.018489 0.697541 0.691115
O O13 0.591477 0.306551 0.377850
O O14 0.987319 0.422796 0.312258
O O15 0.691689 0.554147 0.811873
O O16 0.150026 0.917681 0.059018
O O17 0.500000 0.000000 0.000000
O O18 0.500000 0.500000 0.000000
#
# Coordination Sequence:
#
# PCOD9104478 Si02
#       8
#     2   2   2   2   2   2   2   2
#     4   9  21  37  55  92 114 152 205 248 300 362
#     4   9  21  37  59  90 122 159 204 254 308 366
#     4  10  20  39  61  84 122 155 202 254 300 357
#     4  11  23  39  63  99 127 156 212 267 310 365
#     4  10  22  39  60  89 125 155 208 250 297 375
#     4  10  21  39  57  92 119 161 200 246 313 362
#     4  10  22  38  59  90 126 165 204 251 308 375
#     4  11  20  35  64  84 123 152 196 257 308 355
#
# _framework density 19.917718000000001
#
# number of rings (size 3 to 8) (size 9 to 14) (size 15 to 20)
#    0.000    2.000    1.250    1.500   10.500    1.000 
#   20.250    0.625    0.000    9.000    0.000    0.000 
#    0.000    0.000    0.000    0.000    0.000    0.000 
#
# Total GULP energy -89082.883462 kJ/mol
# GULP energy per Si atom -5567.680216 kJ/mol
# Density = 1.987238 g / cm^3
# Si number density = 19.917718 Si / 1000 Ang^3
#
#
#
# Elastic Constant Matrix: (Units=GPa)
#
#
# Indices 1 2 3 4 5 6 
#
# 1 96.0412 40.8705 26.3363 -0.0038 10.3417 -27.8780
# 2 40.8705 101.6471 25.7336 4.9362 8.0425 -12.5206
# 3 26.3363 25.7336 64.6096 5.5999 8.3411 -16.7975
# 4 -0.0038 4.9362 5.5999 21.6509 2.3379 1.3038
# 5 10.3417 8.0425 8.3411 2.3379 26.3831 -6.9835
# 6 -27.8780 -12.5206 -16.7975 1.3038 -6.9835 25.3790
#
#
#
# Elastic Compliance Matrix: (Units=1/GPa)
#
#
# Indices 1 2 3 4 5 6 
#
# 1 0.017401 -0.004742 -0.001014 0.000491 -0.000908 0.015828
# 2 -0.004742 0.012551 -0.003089 -0.001860 -0.001166 -0.001287
# 3 -0.001014 -0.003089 0.020594 -0.005066 -0.001881 0.010735
# 4 0.000491 -0.001860 -0.005066 0.048835 -0.004318 -0.007428
# 5 -0.000908 -0.001166 -0.001881 -0.004318 0.041961 0.008950
# 6 0.015828 -0.001287 0.010735 -0.007428 0.008950 0.066104
#
#
# Mechanical properties :
#
#
# Convention : Reuss Voigt Hill
#
# Bulk Modulus (GPa) = 30.43661 49.79765 40.11713
# Shear Modulus (GPa) = 21.17859 25.97311 23.57585
#
# Velocity S-wave (km/s) = 3.26437 3.61504 3.44417
# Velocity P-wave (km/s) = 5.43346 6.51772 6.00013
#
# Compressibility (1/GPa) = 0.03285517
#
# Stress axis : x y z
#
# Youngs Moduli (GPa) = 57.46947 79.67688 48.55735
#
# Poissons Ratio (x) = 0.37783 0.04926
# Poissons Ratio (y) = 0.27252 0.14998
# Poissons Ratio (z) = 0.05830 0.24610
#
# Static dielectric constant tensor:
#      x y z
#    x 1.826500 0.008110 -0.013050 
#    y 0.008110 1.672100 0.003780 
#    z -0.013050 0.003780 1.765450 
# 
# From -- ./inp_files/424940.got.cif
#   From: 2010.05.17/outbox.cif.g08.bks.cpg/sg2_213_cif.got.tgz:424940.got - 2010.06.03 11:33:40.
