data_PCOD9104129
_publ_section_title
;
Structure prediction by ZEFSAII (Michael W. Deem and Ramdas Pophale) SiO2 
 PCOD9104129
Probable space group: P -1
;
_chemical_formula_sum "Si O2"
_cell_formula_units_Z 16
_cell_length_a 11.982636
_cell_length_b 17.460672
_cell_length_c 5.101704
_cell_angle_alpha 92.212453
_cell_angle_beta 69.981762
_cell_angle_gamma 49.048803
_cell_volume 703.542876
_symmetry_space_group_name_H-M "P -1"
_symmetry_group_IT_number 2
_symmetry_cell_setting 'triclinic'
loop_
_space_group_symop_operation_xyz
x,y,z
-x,-y,-z
loop_
_atom_site_type_symbol
_atom_site_label
_atom_site_fract_x
_atom_site_fract_y
_atom_site_fract_z
Si Si1 0.163969 0.356433 0.070930
Si Si2 0.785291 0.184935 0.683171
Si Si3 0.122155 0.713578 0.133725
Si Si4 0.947301 0.887265 0.912741
Si Si5 0.049295 0.579757 0.241542
Si Si6 0.256882 0.092830 0.313481
Si Si7 0.472700 0.141259 0.074518
Si Si8 0.705432 0.125935 0.258131
O O1 0.029160 0.387055 0.399776
O O2 0.150812 0.454553 0.099456
O O3 0.103732 0.354360 0.837258
O O4 0.343968 0.246391 0.011700
O O5 0.680434 0.189234 0.543430
O O6 0.757975 0.287187 0.790441
O O7 0.973277 0.102885 0.394822
O O8 0.768604 0.149116 0.966147
O O9 0.152693 0.609732 0.110099
O O10 0.922954 0.813965 0.391591
O O11 0.102185 0.766143 0.881326
O O12 0.804675 0.892937 0.934687
O O13 0.852325 0.995216 0.169926
O O14 0.374440 0.964334 0.236364
O O15 0.371191 0.114205 0.258082
O O16 0.547115 0.155812 0.256148
#
# Coordination Sequence:
#
# PCOD9104129 Si02
#       8
#     2   2   2   2   2   2   2   2
#     4  10  21  41  61  90 117 156 190 245 292 355
#     4  11  23  38  55  84 114 160 207 243 283 336
#     4  11  21  36  63  87 122 153 198 255 293 336
#     4  10  21  35  59  82 117 157 199 252 286 339
#     4  10  22  38  65  89 117 146 203 244 296 343
#     4   9  20  36  54  93 120 160 190 232 304 364
#     4  10  20  39  58  83 131 158 190 235 295 370
#     4  11  24  36  55  82 120 161 203 231 286 357
#
# _framework density 22.742038999999998
#
# number of rings (size 3 to 8) (size 9 to 14) (size 15 to 20)
#    0.000    1.750    2.500    1.500    7.000    1.000 
#    4.500    2.500    0.000    1.500    0.000    0.000 
#    0.000    0.000    0.000    0.000    0.000    0.000 
#
# Total GULP energy -89313.948148 kJ/mol
# GULP energy per Si atom -5582.121759 kJ/mol
# Density = 2.269028 g / cm^3
# Si number density = 22.742039 Si / 1000 Ang^3
#
#
#
# Elastic Constant Matrix: (Units=GPa)
#
#
# Indices 1 2 3 4 5 6 
#
# 1 147.8466 38.3240 10.7759 -12.2797 17.0549 27.9797
# 2 38.3240 96.0030 9.6915 -16.3607 23.6204 15.2444
# 3 10.7759 9.6915 61.6507 -19.7771 4.2895 13.4311
# 4 -12.2797 -16.3607 -19.7771 23.1794 -3.5699 -3.7552
# 5 17.0549 23.6204 4.2895 -3.5699 24.1082 0.3246
# 6 27.9797 15.2444 13.4311 -3.7552 0.3246 36.0894
#
#
#
# Elastic Compliance Matrix: (Units=1/GPa)
#
#
# Indices 1 2 3 4 5 6 
#
# 1 0.009062 -0.000749 0.001584 0.003692 -0.005320 -0.006867
# 2 -0.000749 0.017026 0.003559 0.011269 -0.015027 -0.006628
# 3 0.001584 0.003559 0.025029 0.022271 -0.005633 -0.009679
# 4 0.003692 0.011269 0.022271 0.069550 -0.007201 -0.008610
# 5 -0.005320 -0.015027 -0.005633 -0.007201 0.059750 0.011282
# 6 -0.006867 -0.006628 -0.009679 -0.008610 0.011282 0.038437
#
#
# Mechanical properties :
#
#
# Convention : Reuss Voigt Hill
#
# Bulk Modulus (GPa) = 16.69272 47.00922 31.85097
# Shear Modulus (GPa) = 21.73581 33.12267 27.42924
#
# Velocity S-wave (km/s) = 3.09488 3.82049 3.47667
# Velocity P-wave (km/s) = 4.48631 6.33853 5.49108
#
# Compressibility (1/GPa) = 0.05990637
#
# Stress axis : x y z
#
# Youngs Moduli (GPa) = 110.34606 58.73266 39.95392
#
# Poissons Ratio (x) = 0.04399 -0.06330
# Poissons Ratio (y) = 0.08265 -0.14220
# Poissons Ratio (z) = -0.17483 -0.20903
#
# Static dielectric constant tensor:
#      x y z
#    x 1.889750 0.025230 -0.004940 
#    y 0.025230 1.857860 -0.056500 
#    z -0.004940 -0.056500 1.974880 
# 
# From -- ./inp_files/80568.got.cif
#   From: 2010.05.17/outbox.cif.g08.bks.cpg/sg2_41_cif.got.tgz:80568.got - 2010.06.03 11:33:40.
