data_PCOD9104873
_publ_section_title
;
Structure prediction by ZEFSAII (Michael W. Deem and Ramdas Pophale) SiO2 
 PCOD9104873
Probable space group: P -1
;
_chemical_formula_sum "Si O2"
_cell_formula_units_Z 16
_cell_length_a 7.847381
_cell_length_b 18.308168
_cell_length_c 8.343353
_cell_angle_alpha 120.482031
_cell_angle_beta 141.738347
_cell_angle_gamma 52.355694
_cell_volume 586.826257
_symmetry_space_group_name_H-M "P -1"
_symmetry_group_IT_number 2
_symmetry_cell_setting 'triclinic'
loop_
_space_group_symop_operation_xyz
x,y,z
-x,-y,-z
loop_
_atom_site_type_symbol
_atom_site_label
_atom_site_fract_x
_atom_site_fract_y
_atom_site_fract_z
Si Si1 0.921425 0.321024 0.609659
Si Si2 0.567546 0.750435 0.591418
Si Si3 0.594901 0.101209 0.749394
Si Si4 0.043565 0.937636 0.305466
Si Si5 0.421631 0.441429 0.606185
Si Si6 0.676670 0.842956 0.061819
Si Si7 0.833740 0.539688 0.090149
Si Si8 0.980221 0.216519 0.237407
O O1 0.634845 0.401376 0.563032
O O2 0.046135 0.233668 0.723500
O O3 0.187177 0.356170 0.814798
O O4 0.834395 0.294389 0.346862
O O5 0.320086 0.840967 0.434276
O O6 0.543737 0.657485 0.408038
O O7 0.892226 0.743732 0.768726
O O8 0.547182 0.778910 0.796036
O O9 0.837863 0.027605 0.726876
O O10 0.519353 0.089712 0.866764
O O11 0.276256 0.144246 0.469904
O O12 0.759557 0.170998 0.970050
O O13 0.768161 0.904792 0.071856
O O14 0.000000 0.000000 0.500000
O O15 0.079713 0.493094 0.358211
O O16 0.564170 0.505827 0.867781
O O17 0.000000 0.500000 0.000000
#
# Coordination Sequence:
#
# PCOD9104873 Si02
#       8
#     2   2   2   2   2   2   2   2
#     4  10  20  39  62  93 125 170 221 262 320 386
#     4  11  22  41  67  92 129 175 221 263 331 394
#     4  10  23  42  65 100 130 167 221 264 324 393
#     4  11  25  45  66  98 136 169 214 278 329 386
#     4  11  21  35  61  90 124 168 218 264 318 387
#     4  11  22  41  71  94 129 177 221 260 328 392
#     4  10  21  34  56  92 127 161 215 272 314 373
#     4  10  22  39  64  93 132 170 214 275 317 384
#
# _framework density 27.265308999999998
#
# number of rings (size 3 to 8) (size 9 to 14) (size 15 to 20)
#    0.000    1.500    2.500    3.750    1.750    5.000 
#    0.000    1.875    0.000    0.000    0.000    0.875 
#    0.000    0.000    0.000    0.000    0.000    0.000 
#
# Total GULP energy -89483.580215 kJ/mol
# GULP energy per Si atom -5592.723763 kJ/mol
# Density = 2.720325 g / cm^3
# Si number density = 27.265309 Si / 1000 Ang^3
#
#
#
# Elastic Constant Matrix: (Units=GPa)
#
#
# Indices 1 2 3 4 5 6 
#
# 1 132.8986 19.2797 20.8663 16.4430 -6.2861 -3.3679
# 2 19.2797 68.4154 26.0347 -11.4550 23.2223 17.6422
# 3 20.8663 26.0347 157.5159 17.5795 20.3102 8.1965
# 4 16.4430 -11.4550 17.5795 49.2284 4.5983 10.5151
# 5 -6.2861 23.2223 20.3102 4.5983 44.2744 15.8224
# 6 -3.3679 17.6422 8.1965 10.5151 15.8224 28.5843
#
#
#
# Elastic Compliance Matrix: (Units=1/GPa)
#
#
# Indices 1 2 3 4 5 6 
#
# 1 0.009470 -0.006035 -0.000310 -0.005888 0.003401 0.005213
# 2 -0.006035 0.027291 -0.003214 0.013934 -0.009185 -0.016675
# 3 -0.000310 -0.003214 0.007493 -0.003618 -0.002273 0.002388
# 4 -0.005888 0.013934 -0.003618 0.030925 -0.003342 -0.017783
# 5 0.003401 -0.009185 -0.002273 -0.003342 0.032954 -0.010291
# 6 0.005213 -0.016675 0.002388 -0.017783 -0.010291 0.057443
#
#
# Mechanical properties :
#
#
# Convention : Reuss Voigt Hill
#
# Bulk Modulus (GPa) = 39.78338 54.57679 47.18008
# Shear Modulus (GPa) = 25.89670 43.92737 34.91203
#
# Velocity S-wave (km/s) = 3.08523 4.01822 3.58223
# Velocity P-wave (km/s) = 5.22632 6.44891 5.86954
#
# Compressibility (1/GPa) = 0.02513613
#
# Stress axis : x y z
#
# Youngs Moduli (GPa) = 105.59426 36.64189 133.44907
#
# Poissons Ratio (x) = 0.22115 0.04131
# Poissons Ratio (y) = 0.63731 0.42895
# Poissons Ratio (z) = 0.03269 0.11778
#
# Static dielectric constant tensor:
#      x y z
#    x 2.302180 0.004500 0.040650 
#    y 0.004500 2.184660 -0.052060 
#    z 0.040650 -0.052060 2.178660 
# 
# From -- ./inp_files/53580.got.cif
#   From: 2010.05.17/outbox.cif.g08.bks.cpg/sg2_27_cif.got.tgz:53580.got - 2010.06.03 11:33:40.
