data_PCOD9104399
_publ_section_title
;
Structure prediction by ZEFSAII (Michael W. Deem and Ramdas Pophale) SiO2 
 PCOD9104399
Probable space group: P -1
;
_chemical_formula_sum "Si O2"
_cell_formula_units_Z 16
_cell_length_a 14.675120
_cell_length_b 5.104946
_cell_length_c 9.852770
_cell_angle_alpha 62.578599
_cell_angle_beta 100.373484
_cell_angle_gamma 78.940539
_cell_volume 611.744575
_symmetry_space_group_name_H-M "P -1"
_symmetry_group_IT_number 2
_symmetry_cell_setting 'triclinic'
loop_
_space_group_symop_operation_xyz
x,y,z
-x,-y,-z
loop_
_atom_site_type_symbol
_atom_site_label
_atom_site_fract_x
_atom_site_fract_y
_atom_site_fract_z
Si Si1 0.053171 0.484209 0.871465
Si Si2 0.238705 0.062608 0.101069
Si Si3 0.908465 0.438978 0.417092
Si Si4 0.106156 0.692825 0.269826
Si Si5 0.618538 0.434148 0.265814
Si Si6 0.715839 0.840640 0.620575
Si Si7 0.706636 0.977697 0.169979
Si Si8 0.456183 0.371143 0.392262
O O1 0.056698 0.705204 0.688048
O O2 0.002066 0.265333 0.824572
O O3 0.165353 0.402819 0.965348
O O4 0.000000 0.500000 0.000000
O O5 0.299625 0.077797 0.245179
O O6 0.157656 0.899046 0.152337
O O7 0.293589 0.943556 0.006719
O O8 0.878740 0.259715 0.577745
O O9 0.816217 0.753676 0.292713
O O10 0.000000 0.500000 0.500000
O O11 0.171827 0.341059 0.337348
O O12 0.642066 0.747645 0.230244
O O13 0.504820 0.475962 0.249939
O O14 0.675801 0.150511 0.448582
O O15 0.662467 0.288911 0.169433
O O16 0.657395 0.593966 0.635051
O O17 0.500000 0.500000 0.500000
O O18 0.500000 0.000000 0.500000
#
# Coordination Sequence:
#
# PCOD9104399 Si02
#       8
#     2   2   2   2   2   2   2   2
#     4  10  20  39  60  91 134 176 215 270 333 394
#     4  11  25  39  63  95 133 178 221 270 333 404
#     4   9  20  38  61  94 129 169 225 272 320 387
#     4  11  21  40  64  90 133 170 224 268 328 389
#     4  11  23  44  69  95 131 174 225 276 334 399
#     4  11  23  39  69  97 127 168 223 279 330 399
#     4  11  24  43  66  95 135 180 218 270 339 396
#     4  10  23  41  68 102 131 168 220 283 341 393
#
# _framework density 26.154706000000001
#
# number of rings (size 3 to 8) (size 9 to 14) (size 15 to 20)
#    0.000    1.500    2.500    2.625    5.250    0.000 
#    0.000    2.500    0.000    0.000    0.000    0.000 
#    0.000    0.000    0.000    0.000    0.000    0.000 
#
# Total GULP energy -89388.745125 kJ/mol
# GULP energy per Si atom -5586.796570 kJ/mol
# Density = 2.609518 g / cm^3
# Si number density = 26.154706 Si / 1000 Ang^3
#
#
#
# Elastic Constant Matrix: (Units=GPa)
#
#
# Indices 1 2 3 4 5 6 
#
# 1 98.4762 10.6261 14.8659 1.9369 -7.0200 7.3559
# 2 10.6261 70.2023 11.9908 14.2444 11.1034 2.5887
# 3 14.8659 11.9908 171.8958 42.8792 -24.8909 -6.2929
# 4 1.9369 14.2444 42.8792 42.8704 -6.0857 -7.4747
# 5 -7.0200 11.1034 -24.8909 -6.0857 39.6322 3.7620
# 6 7.3559 2.5887 -6.2929 -7.4747 3.7620 51.0947
#
#
#
# Elastic Compliance Matrix: (Units=1/GPa)
#
#
# Indices 1 2 3 4 5 6 
#
# 1 0.010746 -0.002002 -0.000764 0.000996 0.002286 -0.001562
# 2 -0.002002 0.016888 -0.000395 -0.006189 -0.006184 -0.001066
# 3 -0.000764 -0.000395 0.008422 -0.007721 0.004104 -0.000264
# 4 0.000996 -0.006189 -0.007721 0.034038 0.001903 0.004059
# 5 0.002286 -0.006184 0.004104 0.001903 0.030378 -0.001469
# 6 -0.001562 -0.001066 -0.000264 0.004059 -0.001469 0.020520
#
#
# Mechanical properties :
#
#
# Convention : Reuss Voigt Hill
#
# Bulk Modulus (GPa) = 33.63358 46.17111 39.90234
# Shear Modulus (GPa) = 36.43592 46.92555 41.68073
#
# Velocity S-wave (km/s) = 3.73646 4.24034 3.99635
# Velocity P-wave (km/s) = 5.61269 6.45487 6.04846
#
# Compressibility (1/GPa) = 0.02973219
#
# Stress axis : x y z
#
# Youngs Moduli (GPa) = 93.05609 59.21264 118.73949
#
# Poissons Ratio (x) = 0.11855 0.09078
# Poissons Ratio (y) = 0.18630 0.04696
# Poissons Ratio (z) = 0.07114 0.02342
#
# Static dielectric constant tensor:
#      x y z
#    x 2.120770 -0.083300 -0.029820 
#    y -0.083300 2.106090 -0.064210 
#    z -0.029820 -0.064210 2.108980 
# 
# From -- ./inp_files/52268.got.cif
#   From: 2010.05.17/outbox.cif.g08.bks.cpg/sg2_27_cif.got.tgz:52268.got - 2010.06.03 11:33:40.
