data_PCOD9104069
_publ_section_title
;
Structure prediction by ZEFSAII (Michael W. Deem and Ramdas Pophale) SiO2 
 PCOD9104069
Probable space group: P -1
;
_chemical_formula_sum "Si O2"
_cell_formula_units_Z 14
_cell_length_a 14.409647
_cell_length_b 9.214681
_cell_length_c 9.354390
_cell_angle_alpha 136.130280
_cell_angle_beta 37.210899
_cell_angle_gamma 127.494349
_cell_volume 518.790995
_symmetry_space_group_name_H-M "P -1"
_symmetry_group_IT_number 2
_symmetry_cell_setting 'triclinic'
loop_
_space_group_symop_operation_xyz
x,y,z
-x,-y,-z
loop_
_atom_site_type_symbol
_atom_site_label
_atom_site_fract_x
_atom_site_fract_y
_atom_site_fract_z
Si Si1 0.619339 0.279337 0.351649
Si Si2 0.161763 0.898611 0.741861
Si Si3 0.235872 0.101194 0.190071
Si Si4 0.601528 0.757990 0.653364
Si Si5 0.604724 0.743821 0.150328
Si Si6 0.297287 0.687629 0.157165
Si Si7 0.019112 0.453542 0.614753
O O1 0.648891 0.521500 0.448635
O O2 0.461872 0.213945 0.407402
O O3 0.558345 0.248635 0.566869
O O4 0.754099 0.136683 0.041593
O O5 0.232622 0.845351 0.462858
O O6 0.112923 0.666371 0.705490
O O7 0.271181 0.081037 0.812446
O O8 0.000000 0.000000 0.000000
O O9 0.264316 0.111469 0.331534
O O10 0.104714 0.246699 0.403051
O O11 0.384596 0.210469 0.998205
O O12 0.442941 0.771998 0.946411
O O13 0.656463 0.515443 0.956604
O O14 0.158049 0.595335 0.160028
O O15 0.000000 0.500000 0.500000
#
# Coordination Sequence:
#
# PCOD9104069 Si02
#       7
#     2   2   2   2   2   2   2
#     4  10  24  42  62  91 128 167 209 251 312 367
#     4  11  19  33  58  87 127 162 194 245 320 364
#     4  12  22  38  65  95 127 158 209 260 310 370
#     4  10  24  44  65  87 129 170 207 254 306 372
#     4  11  21  36  62  97 127 153 208 260 308 367
#     4  10  20  40  60  89 128 166 200 253 317 364
#     4  10  20  39  56  93 132 158 196 259 318 365
#
# _framework density 26.985817999999998
#
# number of rings (size 3 to 8) (size 9 to 14) (size 15 to 20)
#    0.000    1.429    4.286    2.571    2.000    2.286 
#    0.000    0.714    0.000    9.429    0.000    0.000 
#    0.000    0.000    0.000    0.000    0.000    0.000 
#
# Total GULP energy -78390.136987 kJ/mol
# GULP energy per Si atom -5599.295499 kJ/mol
# Density = 2.692440 g / cm^3
# Si number density = 26.985818 Si / 1000 Ang^3
#
#
#
# Elastic Constant Matrix: (Units=GPa)
#
#
# Indices 1 2 3 4 5 6 
#
# 1 97.9621 27.5770 25.1940 15.9002 3.1058 9.4223
# 2 27.5770 83.8242 23.8899 19.5746 -5.7074 2.9760
# 3 25.1940 23.8899 125.5347 36.5328 -18.2212 -1.4803
# 4 15.9002 19.5746 36.5328 53.0341 -13.5174 -0.3866
# 5 3.1058 -5.7074 -18.2212 -13.5174 43.7706 11.1333
# 6 9.4223 2.9760 -1.4803 -0.3866 11.1333 58.4154
#
#
#
# Elastic Compliance Matrix: (Units=1/GPa)
#
#
# Indices 1 2 3 4 5 6 
#
# 1 0.012018 -0.003153 -0.001586 -0.001905 -0.002151 -0.001421
# 2 -0.003153 0.014101 -0.000957 -0.003423 0.000707 -0.000391
# 3 -0.001586 -0.000957 0.010517 -0.005759 0.002577 0.000042
# 4 -0.001905 -0.003423 -0.005759 0.026048 0.005472 -0.000535
# 5 -0.002151 0.000707 0.002577 0.005472 0.027061 -0.004745
# 6 -0.001421 -0.000391 0.000042 -0.000535 -0.004745 0.018270
#
#
# Mechanical properties :
#
#
# Convention : Reuss Voigt Hill
#
# Bulk Modulus (GPa) = 39.61353 51.18253 45.39803
# Shear Modulus (GPa) = 39.11758 46.42135 42.76947
#
# Velocity S-wave (km/s) = 3.81144 4.15204 3.98538
# Velocity P-wave (km/s) = 5.83787 6.48025 6.16743
#
# Compressibility (1/GPa) = 0.02524390
#
# Stress axis : x y z
#
# Youngs Moduli (GPa) = 83.21132 70.91738 95.08631
#
# Poissons Ratio (x) = 0.22358 0.15085
# Poissons Ratio (y) = 0.26233 0.09096
# Poissons Ratio (z) = 0.13201 0.06784
#
# Static dielectric constant tensor:
#      x y z
#    x 2.179630 0.014460 0.032660 
#    y 0.014460 2.182090 0.003510 
#    z 0.032660 0.003510 2.115350 
# 
# From -- ./inp_files/296573.got.cif
#   From: 2010.05.17/outbox.cif.g08.bks.cpg/sg2_149_cif.got.tgz:296573.got - 2010.06.03 11:33:40.
