data_PCOD9104627
_publ_section_title
;
Structure prediction by ZEFSAII (Michael W. Deem and Ramdas Pophale) SiO2 
 PCOD9104627
Probable space group: P -1
;
_chemical_formula_sum "Si O2"
_cell_formula_units_Z 16
_cell_length_a 20.888139
_cell_length_b 20.730567
_cell_length_c 9.011641
_cell_angle_alpha 147.171711
_cell_angle_beta 43.392495
_cell_angle_gamma 160.275786
_cell_volume 668.375901
_symmetry_space_group_name_H-M "P -1"
_symmetry_group_IT_number 2
_symmetry_cell_setting 'triclinic'
loop_
_space_group_symop_operation_xyz
x,y,z
-x,-y,-z
loop_
_atom_site_type_symbol
_atom_site_label
_atom_site_fract_x
_atom_site_fract_y
_atom_site_fract_z
Si Si1 0.425138 0.191210 0.127542
Si Si2 0.271252 0.131883 0.011651
Si Si3 0.724398 0.204940 0.541648
Si Si4 0.377994 0.028986 0.450955
Si Si5 0.147584 0.396527 0.932091
Si Si6 0.246364 0.034428 0.428340
Si Si7 0.239688 0.260036 0.066624
Si Si8 0.802195 0.575544 0.761695
O O1 0.401581 0.178098 0.315429
O O2 0.338527 0.205236 0.209825
O O3 0.649855 0.411653 0.124778
O O4 0.277290 0.916840 0.786731
O O5 0.396113 0.168626 0.792219
O O6 0.313583 0.303444 0.189486
O O7 0.035229 0.822664 0.793173
O O8 0.858382 0.466760 0.772061
O O9 0.500000 0.000000 0.500000
O O10 0.734168 0.188170 0.668871
O O11 0.251611 0.928809 0.328242
O O12 0.615596 0.268394 0.480788
O O13 0.157369 0.349810 0.988234
O O14 0.957911 0.160812 0.690512
O O15 0.292632 0.204035 0.772481
O O16 0.283524 0.421695 0.200698
O O17 0.000000 0.000000 0.000000
#
# Coordination Sequence:
#
# PCOD9104627 Si02
#       8
#     2   2   2   2   2   2   2   2
#     4  10  20  39  61  92 123 153 206 251 290 360
#     4   9  18  37  59  88 114 152 203 242 285 363
#     4   9  18  39  65  85 120 163 201 241 293 366
#     4  10  21  39  61  89 121 155 202 250 289 365
#     4  11  22  39  63  89 125 161 196 250 304 350
#     4  11  24  39  60  93 127 150 200 260 299 345
#     4   9  22  40  63  88 120 160 203 246 300 362
#     4  11  19  38  67  83 114 169 201 235 305 359
#
# _framework density 23.938624999999998
#
# number of rings (size 3 to 8) (size 9 to 14) (size 15 to 20)
#    0.000    2.000    5.000    0.000    0.000    6.500 
#    0.000    4.375    2.750    0.000    0.000    0.000 
#    0.000    0.000    0.000    0.000    0.000    0.000 
#
# Total GULP energy -89246.960156 kJ/mol
# GULP energy per Si atom -5577.935010 kJ/mol
# Density = 2.388414 g / cm^3
# Si number density = 23.938625 Si / 1000 Ang^3
#
#
#
# Elastic Constant Matrix: (Units=GPa)
#
#
# Indices 1 2 3 4 5 6 
#
# 1 168.3972 31.6759 23.5695 -17.8714 34.3248 -6.2234
# 2 31.6759 122.1977 20.6172 -3.7133 7.7387 -2.5400
# 3 23.5695 20.6172 39.0958 -2.4939 10.9168 -1.9693
# 4 -17.8714 -3.7133 -2.4939 22.7947 -1.0427 18.8808
# 5 34.3248 7.7387 10.9168 -1.0427 36.2452 1.6065
# 6 -6.2234 -2.5400 -1.9693 18.8808 1.6065 31.8004
#
#
#
# Elastic Compliance Matrix: (Units=1/GPa)
#
#
# Indices 1 2 3 4 5 6 
#
# 1 0.008719 -0.001239 -0.002283 0.008985 -0.006890 -0.003521
# 2 -0.001239 0.009189 -0.004224 -0.000169 0.000465 0.000307
# 3 -0.002283 -0.004224 0.031005 -0.001156 -0.006402 0.002146
# 4 0.008985 -0.000169 -0.001156 0.096655 -0.002881 -0.055568
# 5 -0.006890 0.000465 -0.006402 -0.002881 0.035942 -0.001813
# 6 -0.003521 0.000307 0.002146 -0.055568 -0.001813 0.063998
#
#
# Mechanical properties :
#
#
# Convention : Reuss Voigt Hill
#
# Bulk Modulus (GPa) = 29.92230 53.49066 41.70648
# Shear Modulus (GPa) = 18.37290 35.08993 26.73142
#
# Velocity S-wave (km/s) = 2.77338 3.83277 3.34528
# Velocity P-wave (km/s) = 4.77308 6.47922 5.69045
#
# Compressibility (1/GPa) = 0.03341989
#
# Stress axis : x y z
#
# Youngs Moduli (GPa) = 114.69482 108.82523 32.25338
#
# Poissons Ratio (x) = 0.13479 0.07364
# Poissons Ratio (y) = 0.14206 0.13625
# Poissons Ratio (z) = 0.26188 0.45971
#
# Static dielectric constant tensor:
#      x y z
#    x 1.933750 -0.038520 -0.020960 
#    y -0.038520 1.993900 0.071330 
#    z -0.020960 0.071330 1.974070 
# 
# From -- ./inp_files/338144.got.cif
#   From: 2010.05.17/outbox.cif.g08.bks.cpg/sg2_170_cif.got.tgz:338144.got - 2010.06.03 11:33:40.
