data_PCOD9104563
_publ_section_title
;
Structure prediction by ZEFSAII (Michael W. Deem and Ramdas Pophale) SiO2 
 PCOD9104563
Probable space group: P -1
;
_chemical_formula_sum "Si O2"
_cell_formula_units_Z 13
_cell_length_a 5.238544
_cell_length_b 5.035322
_cell_length_c 19.956569
_cell_angle_alpha 74.062715
_cell_angle_beta 114.759128
_cell_angle_gamma 90.906505
_cell_volume 456.671805
_symmetry_space_group_name_H-M "P -1"
_symmetry_group_IT_number 2
_symmetry_cell_setting 'triclinic'
loop_
_space_group_symop_operation_xyz
x,y,z
-x,-y,-z
loop_
_atom_site_type_symbol
_atom_site_label
_atom_site_fract_x
_atom_site_fract_y
_atom_site_fract_z
Si Si1 0.410440 0.883125 0.069115
Si Si2 0.284446 0.667786 0.883184
Si Si3 0.278371 0.008116 0.256380
Si Si4 0.147805 0.719402 0.380050
Si Si5 0.642684 0.431438 0.308583
Si Si6 0.660956 0.246495 0.469205
Si Si7 0.000000 0.500000 0.000000
O O1 0.640456 0.618237 0.128869
O O2 0.126855 0.738142 0.046632
O O3 0.436746 0.157153 0.098762
O O4 0.500000 0.000000 0.000000
O O5 0.012765 0.866043 0.816439
O O6 0.200604 0.589659 0.954495
O O7 0.208312 0.995102 0.329200
O O8 0.400729 0.696704 0.270229
O O9 0.520813 0.212824 0.261324
O O10 0.438186 0.520748 0.426551
O O11 0.083935 0.740456 0.450609
O O12 0.920184 0.584542 0.320145
O O13 0.729703 0.252125 0.398226
O O14 0.500000 0.000000 0.500000
#
# Coordination Sequence:
#
# PCOD9104563 Si02
#       7
#     2   2   2   2   2   2   1
#     4  10  22  40  64  94 121 156 197 250 300 357
#     4  11  24  41  63  91 127 160 201 249 303 359
#     4  11  25  42  59  91 125 161 206 249 298 369
#     4  10  23  39  60  88 124 161 203 259 306 357
#     4  11  24  40  64  89 121 164 208 247 306 361
#     4  10  20  39  61  89 121 158 206 258 304 360
#     4  10  22  40  66  92 120 154 202 246 296 358
#
# _framework density 28.466832
#
# number of rings (size 3 to 8) (size 9 to 14) (size 15 to 20)
#    0.000    1.538    1.538    3.231    2.154    8.615 
#    0.000    0.000    0.000    0.000    0.000    0.000 
#    0.000    0.000    0.000    0.000    0.000    0.000 
#
# Total GULP energy -72585.881741 kJ/mol
# GULP energy per Si atom -5583.529365 kJ/mol
# Density = 2.840204 g / cm^3
# Si number density = 28.466832 Si / 1000 Ang^3
#
#
#
# Elastic Constant Matrix: (Units=GPa)
#
#
# Indices 1 2 3 4 5 6 
#
# 1 62.6125 35.9116 31.5875 -12.5360 17.1068 29.2919
# 2 35.9116 203.5503 50.8306 -4.7857 17.4586 19.1718
# 3 31.5875 50.8306 114.2555 -17.9823 11.6667 0.7496
# 4 -12.5360 -4.7857 -17.9823 48.2287 0.8122 24.1606
# 5 17.1068 17.4586 11.6667 0.8122 30.9241 0.7871
# 6 29.2919 19.1718 0.7496 24.1606 0.7871 64.5731
#
#
#
# Elastic Compliance Matrix: (Units=1/GPa)
#
#
# Indices 1 2 3 4 5 6 
#
# 1 0.042024 -0.001297 -0.005212 0.022641 -0.020460 -0.026840
# 2 -0.001297 0.005926 -0.002070 0.000090 -0.001820 -0.001158
# 3 -0.005212 -0.002070 0.011378 0.001550 -0.000339 0.002271
# 4 0.022641 0.000090 0.001550 0.040021 -0.013572 -0.025124
# 5 -0.020460 -0.001820 -0.000339 -0.013572 0.044802 0.014357
# 6 -0.026840 -0.001158 0.002271 -0.025124 0.014357 0.037204
#
#
# Mechanical properties :
#
#
# Convention : Reuss Voigt Hill
#
# Bulk Modulus (GPa) = 23.71441 68.56420 46.13930
# Shear Modulus (GPa) = 23.52153 46.21776 34.86964
#
# Velocity S-wave (km/s) = 2.87762 4.03372 3.50369
# Velocity P-wave (km/s) = 4.40336 6.76997 5.71061
#
# Compressibility (1/GPa) = 0.04216845
#
# Stress axis : x y z
#
# Youngs Moduli (GPa) = 23.79572 168.75001 87.88918
#
# Poissons Ratio (x) = 0.21895 0.45811
# Poissons Ratio (y) = 0.03087 0.18194
# Poissons Ratio (z) = 0.12403 0.34933
#
# Static dielectric constant tensor:
#      x y z
#    x 2.018170 0.037630 -0.204700 
#    y 0.037630 2.141600 0.146600 
#    z -0.204700 0.146600 1.981510 
# 
# From -- ./inp_files/6102.got.cif
#   From: 2010.05.17/outbox.cif.g08.bks.cpg/sg2_4_cif.got.tgz:6102.got - 2010.06.03 11:33:40.
