data_PCOD9104333
_publ_section_title
;
Structure prediction by ZEFSAII (Michael W. Deem and Ramdas Pophale) SiO2 
 PCOD9104333
Probable space group: P -1
;
_chemical_formula_sum "Si O2"
_cell_formula_units_Z 14
_cell_length_a 9.311527
_cell_length_b 8.744740
_cell_length_c 14.479304
_cell_angle_alpha 137.113955
_cell_angle_beta 75.905211
_cell_angle_gamma 96.623151
_cell_volume 774.643156
_symmetry_space_group_name_H-M "P -1"
_symmetry_group_IT_number 2
_symmetry_cell_setting 'triclinic'
loop_
_space_group_symop_operation_xyz
x,y,z
-x,-y,-z
loop_
_atom_site_type_symbol
_atom_site_label
_atom_site_fract_x
_atom_site_fract_y
_atom_site_fract_z
Si Si1 0.456884 0.290834 0.034576
Si Si2 0.228063 0.946008 0.597010
Si Si3 0.451617 0.220910 0.788576
Si Si4 0.713090 0.856807 0.518961
Si Si5 0.329869 0.143906 0.163680
Si Si6 0.068400 0.244262 0.390249
Si Si7 0.522284 0.465340 0.590656
O O1 0.422255 0.254929 0.916854
O O2 0.596582 0.111321 0.957329
O O3 0.499534 0.543928 0.152990
O O4 0.327166 0.233598 0.099107
O O5 0.335908 0.713568 0.489168
O O6 0.067468 0.907645 0.644064
O O7 0.310830 0.132277 0.721355
O O8 0.222865 0.018602 0.523028
O O9 0.588080 0.030655 0.664347
O O10 0.833352 0.776208 0.541044
O O11 0.622843 0.651227 0.406578
O O12 0.177831 0.174503 0.257427
O O13 0.443856 0.300553 0.265682
O O14 0.000000 0.500000 0.500000
O O15 0.500000 0.500000 0.500000
#
# Coordination Sequence:
#
# PCOD9104333 Si02
#       7
#     2   2   2   2   2   2   2
#     4  10  21  36  63  81 114 154 199 238 270 340
#     4  11  22  36  58  88 121 151 188 243 299 345
#     4  10  20  39  60  87 110 152 201 237 281 334
#     4  11  21  37  60  89 117 152 192 246 291 342
#     4  11  20  37  57  89 115 152 193 235 289 340
#     4  12  23  38  56  89 125 150 184 239 308 353
#     4  11  18  35  61  89 116 146 193 249 285 332
#
# _framework density 18.072837
#
# number of rings (size 3 to 8) (size 9 to 14) (size 15 to 20)
#    0.000    1.143    4.286    4.714    0.000    0.000 
#    0.000    1.429    0.000    0.000    0.000    0.000 
#    0.000    0.000    0.000    0.000    0.000    0.000 
#
# Total GULP energy -78204.164799 kJ/mol
# GULP energy per Si atom -5586.011771 kJ/mol
# Density = 1.803170 g / cm^3
# Si number density = 18.072837 Si / 1000 Ang^3
#
#
#
# Elastic Constant Matrix: (Units=GPa)
#
#
# Indices 1 2 3 4 5 6 
#
# 1 110.8182 58.0189 39.6903 -3.9469 -6.6655 8.5483
# 2 58.0189 134.2922 35.2031 -15.1947 -11.7434 -0.1607
# 3 39.6903 35.2031 58.2808 -0.5016 2.7708 -1.4787
# 4 -3.9469 -15.1947 -0.5016 39.2721 5.6055 -2.3360
# 5 -6.6655 -11.7434 2.7708 5.6055 22.8560 -1.9798
# 6 8.5483 -0.1607 -1.4787 -2.3360 -1.9798 25.6583
#
#
#
# Elastic Compliance Matrix: (Units=1/GPa)
#
#
# Indices 1 2 3 4 5 6 
#
# 1 0.014436 -0.004105 -0.007624 -0.000942 0.002810 -0.005143
# 2 -0.004105 0.011016 -0.003988 0.003295 0.004297 0.001838
# 3 -0.007624 -0.003988 0.025162 -0.000812 -0.006832 0.003364
# 4 -0.000942 0.003295 -0.000812 0.027492 -0.005018 0.002403
# 5 0.002810 0.004297 -0.006832 -0.005018 0.049014 0.002022
# 6 -0.005143 0.001838 0.003364 0.002403 0.002022 0.041268
#
#
# Mechanical properties :
#
#
# Convention : Reuss Voigt Hill
#
# Bulk Modulus (GPa) = 52.13508 63.24618 57.69063
# Shear Modulus (GPa) = 24.24666 28.92253 26.58460
#
# Velocity S-wave (km/s) = 3.66677 4.00475 3.83948
# Velocity P-wave (km/s) = 6.84374 7.51367 7.18651
#
# Compressibility (1/GPa) = 0.01918094
#
# Stress axis : x y z
#
# Youngs Moduli (GPa) = 69.27222 90.77567 39.74277
#
# Poissons Ratio (x) = 0.37266 0.30298
# Poissons Ratio (y) = 0.28439 0.15848
# Poissons Ratio (z) = 0.52810 0.36197
#
# Static dielectric constant tensor:
#      x y z
#    x 1.587950 0.001350 0.010350 
#    y 0.001350 1.657200 -0.009140 
#    z 0.010350 -0.009140 1.610770 
# 
# From -- ./inp_files/154229.got.cif
#   From: 2010.05.17/outbox.cif.g08.bks.cpg/sg2_78_cif.got.tgz:154229.got - 2010.06.03 11:33:40.
