data_PCOD9104140
_publ_section_title
;
Structure prediction by ZEFSAII (Michael W. Deem and Ramdas Pophale) SiO2 
 PCOD9104140
Probable space group: P -1
;
_chemical_formula_sum "Si O2"
_cell_formula_units_Z 16
_cell_length_a 15.303632
_cell_length_b 8.784728
_cell_length_c 11.258626
_cell_angle_alpha 68.806288
_cell_angle_beta 127.400158
_cell_angle_gamma 140.534025
_cell_volume 746.799403
_symmetry_space_group_name_H-M "P -1"
_symmetry_group_IT_number 2
_symmetry_cell_setting 'triclinic'
loop_
_space_group_symop_operation_xyz
x,y,z
-x,-y,-z
loop_
_atom_site_type_symbol
_atom_site_label
_atom_site_fract_x
_atom_site_fract_y
_atom_site_fract_z
Si Si1 0.520498 0.824925 0.211901
Si Si2 0.052299 0.932714 0.678173
Si Si3 0.684198 0.168369 0.558545
Si Si4 0.743827 0.362717 0.132235
Si Si5 0.015172 0.574207 0.858866
Si Si6 0.499558 0.310354 0.516893
Si Si7 0.275819 0.285179 0.584015
Si Si8 0.097329 0.442249 0.560261
O O1 0.445598 0.736967 0.309576
O O2 0.795248 0.791226 0.319228
O O3 0.631687 0.100220 0.181028
O O4 0.376212 0.659597 0.041222
O O5 0.083409 0.834357 0.830799
O O6 0.005081 0.769010 0.566630
O O7 0.109844 0.138994 0.411995
O O8 0.830041 0.367886 0.712517
O O9 0.739268 0.320656 0.442360
O O10 0.500000 0.000000 0.500000
O O11 0.674911 0.964087 0.580708
O O12 0.847669 0.565448 0.264420
O O13 0.867709 0.407628 0.131728
O O14 0.000000 0.500000 0.000000
O O15 0.364422 0.208369 0.676077
O O16 0.605882 0.444253 0.446259
O O17 0.500000 0.500000 0.500000
O O18 0.000000 0.500000 0.500000
#
# Coordination Sequence:
#
# PCOD9104140 Si02
#       8
#     2   2   2   2   2   2   2   2
#     4  10  21  36  57  92 119 161 205 253 316 373
#     4  10  21  37  65  86 115 165 208 254 312 380
#     4  11  23  38  62  99 128 161 217 263 313 377
#     4  11  21  36  63  88 126 154 207 267 319 368
#     4  11  24  39  64  96 130 159 207 274 330 365
#     4  10  21  35  63  86 123 166 205 255 301 381
#     4  10  20  39  58  85 122 159 212 240 309 389
#     4  11  19  37  63  89 120 156 213 264 309 367
#
# _framework density 21.424764
#
# number of rings (size 3 to 8) (size 9 to 14) (size 15 to 20)
#    0.000    1.500    5.000    1.500    5.250    0.000 
#    0.000    0.625   11.000    3.750    0.000    0.000 
#    0.000    0.000    0.000    0.000    0.000    0.000 
#
# Total GULP energy -89071.578672 kJ/mol
# GULP energy per Si atom -5566.973667 kJ/mol
# Density = 2.137600 g / cm^3
# Si number density = 21.424764 Si / 1000 Ang^3
#
#
#
# Elastic Constant Matrix: (Units=GPa)
#
#
# Indices 1 2 3 4 5 6 
#
# 1 91.7837 13.6946 33.4618 -4.6843 9.2245 12.2472
# 2 13.6946 113.1749 31.4261 -34.9648 -8.5961 15.9812
# 3 33.4618 31.4261 124.7011 -28.5264 -9.6338 16.9882
# 4 -4.6843 -34.9648 -28.5264 43.5969 3.9285 -0.4028
# 5 9.2245 -8.5961 -9.6338 3.9285 24.7806 1.5901
# 6 12.2472 15.9812 16.9882 -0.4028 1.5901 27.2057
#
#
#
# Elastic Compliance Matrix: (Units=1/GPa)
#
#
# Indices 1 2 3 4 5 6 
#
# 1 0.013360 -0.001103 -0.003748 -0.001347 -0.006428 -0.002670
# 2 -0.001103 0.013543 0.000771 0.010794 0.004212 -0.008027
# 3 -0.003748 0.000771 0.011811 0.007390 0.005490 -0.006352
# 4 -0.001347 0.010794 0.007390 0.036009 0.002048 -0.009936
# 5 -0.006428 0.004212 0.005490 0.002048 0.046383 -0.005690
# 6 -0.002670 -0.008027 -0.006352 -0.009936 -0.005690 0.046826
#
#
# Mechanical properties :
#
#
# Convention : Reuss Voigt Hill
#
# Bulk Modulus (GPa) = 32.72908 54.09163 43.41035
# Shear Modulus (GPa) = 26.84179 35.85511 31.34845
#
# Velocity S-wave (km/s) = 3.54339 4.09533 3.82931
# Velocity P-wave (km/s) = 5.66129 6.90393 6.31326
#
# Compressibility (1/GPa) = 0.03055387
#
# Stress axis : x y z
#
# Youngs Moduli (GPa) = 74.85193 73.83619 84.66938
#
# Poissons Ratio (x) = 0.08146 0.31733
# Poissons Ratio (y) = 0.08258 -0.06529
# Poissons Ratio (z) = 0.28054 -0.05694
#
# Static dielectric constant tensor:
#      x y z
#    x 2.039070 -0.025320 -0.028450 
#    y -0.025320 1.872800 0.003980 
#    z -0.028450 0.003980 1.776330 
# 
# From -- ./inp_files/462953.got.cif
#   From: 2010.05.17/outbox.cif.g08.bks.cpg/sg2_232_cif.got.tgz:462953.got - 2010.06.03 11:33:40.
