data_PCOD9104551
_publ_section_title
;
Structure prediction by ZEFSAII (Michael W. Deem and Ramdas Pophale) SiO2 
 PCOD9104551
Probable space group: P -1
;
_chemical_formula_sum "Si O2"
_cell_formula_units_Z 14
_cell_length_a 6.793437
_cell_length_b 7.620020
_cell_length_c 20.535999
_cell_angle_alpha 141.546931
_cell_angle_beta 112.195587
_cell_angle_gamma 61.439748
_cell_volume 580.637941
_symmetry_space_group_name_H-M "P -1"
_symmetry_group_IT_number 2
_symmetry_cell_setting 'triclinic'
loop_
_space_group_symop_operation_xyz
x,y,z
-x,-y,-z
loop_
_atom_site_type_symbol
_atom_site_label
_atom_site_fract_x
_atom_site_fract_y
_atom_site_fract_z
Si Si1 0.890987 0.868763 0.736723
Si Si2 0.761141 0.211534 0.683612
Si Si3 0.398011 0.843539 0.996324
Si Si4 0.180736 0.245336 0.894705
Si Si5 0.018185 0.612746 0.864667
Si Si6 0.499298 0.696876 0.706434
Si Si7 0.187272 0.381616 0.543502
O O1 0.707185 0.772613 0.724414
O O2 0.072780 0.562279 0.645586
O O3 0.780931 0.062862 0.714461
O O4 0.016376 0.068403 0.849438
O O5 0.558585 0.505013 0.725035
O O6 0.967921 0.342974 0.743253
O O7 0.756270 0.969603 0.558484
O O8 0.619148 0.691643 0.022499
O O9 0.259176 0.645524 0.890390
O O10 0.196529 0.090389 0.081206
O O11 0.500000 0.000000 0.000000
O O12 0.030495 0.527446 0.918369
O O13 0.314959 0.007455 0.788694
O O14 0.395715 0.499721 0.590185
O O15 0.000000 0.500000 0.500000
#
# Coordination Sequence:
#
# PCOD9104551 Si02
#       7
#     2   2   2   2   2   2   2
#     4   9  22  38  62  93 124 168 205 249 312 359
#     4  10  20  39  61  88 127 159 208 257 295 369
#     4  11  24  40  65  92 117 159 207 250 317 378
#     4  10  22  42  61  91 128 157 206 257 301 374
#     4  10  23  42  60  89 126 158 200 262 308 359
#     4  11  21  39  65  88 126 170 201 253 310 360
#     4   9  20  39  57  91 130 159 209 257 295 367
#
# _framework density 24.111414
#
# number of rings (size 3 to 8) (size 9 to 14) (size 15 to 20)
#    0.000    2.000    1.429    1.714    2.000    5.714 
#    0.000    8.571    0.000    0.000    0.000    0.000 
#    0.000    0.000    0.000    0.000    0.000    0.000 
#
# Total GULP energy -78134.627507 kJ/mol
# GULP energy per Si atom -5581.044822 kJ/mol
# Density = 2.405653 g / cm^3
# Si number density = 24.111414 Si / 1000 Ang^3
#
#
#
# Elastic Constant Matrix: (Units=GPa)
#
#
# Indices 1 2 3 4 5 6 
#
# 1 134.2757 22.7928 75.4262 -4.1880 46.0090 -9.4885
# 2 22.7928 104.7843 20.4954 -2.5152 8.1187 -15.3750
# 3 75.4262 20.4954 103.0359 -1.8387 32.8388 5.5245
# 4 -4.1880 -2.5152 -1.8387 31.6423 -13.5958 6.1545
# 5 46.0090 8.1187 32.8388 -13.5958 46.9527 -0.1470
# 6 -9.4885 -15.3750 5.5245 6.1545 -0.1470 26.4836
#
#
#
# Elastic Compliance Matrix: (Units=1/GPa)
#
#
# Indices 1 2 3 4 5 6 
#
# 1 0.017341 0.000291 -0.009595 -0.005159 -0.011796 0.009517
# 2 0.000291 0.011092 -0.002636 -0.000911 -0.000601 0.007302
# 3 -0.009595 -0.002636 0.018793 -0.000095 -0.003341 -0.008885
# 4 -0.005159 -0.000911 -0.000095 0.040386 0.016937 -0.011649
# 5 -0.011796 -0.000601 -0.003341 0.016937 0.040179 -0.007591
# 6 0.009517 0.007302 -0.008885 -0.011649 -0.007591 0.049926
#
#
# Mechanical properties :
#
#
# Convention : Reuss Voigt Hill
#
# Bulk Modulus (GPa) = 42.83222 64.39163 53.61192
# Shear Modulus (GPa) = 23.88020 35.90781 29.89400
#
# Velocity S-wave (km/s) = 3.15049 3.86326 3.52494
# Velocity P-wave (km/s) = 5.57109 6.83107 6.23300
#
# Compressibility (1/GPa) = 0.02334691
#
# Stress axis : x y z
#
# Youngs Moduli (GPa) = 57.66568 90.15754 53.21056
#
# Poissons Ratio (x) = -0.02626 0.51056
# Poissons Ratio (y) = -0.01680 0.14025
# Poissons Ratio (z) = 0.55331 0.23763
#
# Static dielectric constant tensor:
#      x y z
#    x 1.905470 -0.003510 0.010840 
#    y -0.003510 1.993680 -0.021970 
#    z 0.010840 -0.021970 2.046930 
# 
# From -- ./inp_files/37558.got.cif
#   From: 2010.05.17/outbox.cif.g08.bks.cpg/sg2_19_cif.got.tgz:37558.got - 2010.06.03 11:33:40.
