data_PCOD9104867
_publ_section_title
;
Structure prediction by ZEFSAII (Michael W. Deem and Ramdas Pophale) SiO2 
 PCOD9104867
Probable space group: P -1
;
_chemical_formula_sum "Si O2"
_cell_formula_units_Z 12
_cell_length_a 8.249970
_cell_length_b 5.299938
_cell_length_c 13.955448
_cell_angle_alpha 65.083136
_cell_angle_beta 74.024251
_cell_angle_gamma 56.921509
_cell_volume 462.879335
_symmetry_space_group_name_H-M "P -1"
_symmetry_group_IT_number 2
_symmetry_cell_setting 'triclinic'
loop_
_space_group_symop_operation_xyz
x,y,z
-x,-y,-z
loop_
_atom_site_type_symbol
_atom_site_label
_atom_site_fract_x
_atom_site_fract_y
_atom_site_fract_z
Si Si1 0.197382 0.717966 0.807098
Si Si2 0.686609 0.102386 0.510551
Si Si3 0.037173 0.877665 0.375678
Si Si4 0.096700 0.788472 0.111915
Si Si5 0.436720 0.370797 0.335379
Si Si6 0.718253 0.782312 0.964206
O O1 0.419357 0.612840 0.766814
O O2 0.186692 0.468120 0.921829
O O3 0.075002 0.787158 0.717810
O O4 0.092972 0.077357 0.811531
O O5 0.566661 0.959266 0.604975
O O6 0.853058 0.850029 0.448297
O O7 0.829130 0.134124 0.556210
O O8 0.536667 0.376125 0.419885
O O9 0.208760 0.615161 0.324216
O O10 0.234204 0.434111 0.105176
O O11 0.210102 0.964928 0.103661
O O12 0.000000 0.000000 0.000000
O O13 0.500000 0.000000 0.000000
#
# Coordination Sequence:
#
# PCOD9104867 Si02
#       6
#     2   2   2   2   2   2
#     4  10  23  41  61 101 135 172 229 285 332 406
#     4   9  20  39  63  89 129 180 216 276 335 400
#     4  10  20  39  62  92 134 172 225 273 338 394
#     4  10  22  47  70  96 140 181 223 284 348 408
#     4  10  20  39  62  95 129 173 229 268 333 405
#     4  11  24  47  75  98 136 188 228 280 349 413
#
# _framework density 25.924683000000002
#
# number of rings (size 3 to 8) (size 9 to 14) (size 15 to 20)
#    0.000    2.000    0.000    3.500    2.333    0.000 
#   18.000    0.000    0.000    0.000    0.000    0.000 
#    0.000    0.000    0.000    0.000    0.000    0.000 
#
# Total GULP energy -66906.341911 kJ/mol
# GULP energy per Si atom -5575.528493 kJ/mol
# Density = 2.586568 g / cm^3
# Si number density = 25.924683 Si / 1000 Ang^3
#
#
#
# Elastic Constant Matrix: (Units=GPa)
#
#
# Indices 1 2 3 4 5 6 
#
# 1 95.0749 48.2469 23.3863 1.5544 -17.3814 -13.6056
# 2 48.2469 133.9607 22.2223 12.7001 0.9071 -12.7439
# 3 23.3863 22.2223 68.3316 -10.0505 -28.5849 -6.2063
# 4 1.5544 12.7001 -10.0505 38.5003 -13.0584 2.9114
# 5 -17.3814 0.9071 -28.5849 -13.0584 44.2823 -5.2865
# 6 -13.6056 -12.7439 -6.2063 2.9114 -5.2865 57.7276
#
#
#
# Elastic Compliance Matrix: (Units=1/GPa)
#
#
# Indices 1 2 3 4 5 6 
#
# 1 0.015053 -0.005773 0.001082 0.004174 0.008307 0.002940
# 2 -0.005773 0.011627 -0.007157 -0.008763 -0.009709 -0.000011
# 3 0.001082 -0.007157 0.030790 0.019077 0.026483 0.003448
# 4 0.004174 -0.008763 0.019077 0.042689 0.026889 0.001410
# 5 0.008307 -0.009709 0.026483 0.026889 0.051789 0.006048
# 6 0.002940 -0.000011 0.003448 0.001410 0.006048 0.018867
#
#
# Mechanical properties :
#
#
# Convention : Reuss Voigt Hill
#
# Bulk Modulus (GPa) = 29.61010 53.89756 41.75383
# Shear Modulus (GPa) = 24.29919 41.66948 32.98433
#
# Velocity S-wave (km/s) = 3.06486 4.01350 3.57082
# Velocity P-wave (km/s) = 4.89600 6.50483 5.75689
#
# Compressibility (1/GPa) = 0.03377227
#
# Stress axis : x y z
#
# Youngs Moduli (GPa) = 66.43354 86.00788 32.47844
#
# Poissons Ratio (x) = 0.49653 -0.03513
# Poissons Ratio (y) = 0.38352 0.23245
# Poissons Ratio (z) = -0.07185 0.61556
#
# Static dielectric constant tensor:
#      x y z
#    x 2.004300 -0.049090 0.067830 
#    y -0.049090 2.129170 0.153340 
#    z 0.067830 0.153340 2.213840 
# 
# From -- ./inp_files/487669.got.cif
#   From: 2010.05.17/outbox.cif.g08.bks.cpg/sg2_244_cif.got.tgz:487669.got - 2010.06.03 11:33:40.
