data_PCOD9104836
_publ_section_title
;
Structure prediction by ZEFSAII (Michael W. Deem and Ramdas Pophale) SiO2 
 PCOD9104836
Probable space group: P -1
;
_chemical_formula_sum "Si O2"
_cell_formula_units_Z 14
_cell_length_a 15.365608
_cell_length_b 8.005665
_cell_length_c 7.138257
_cell_angle_alpha 53.481224
_cell_angle_beta 111.202473
_cell_angle_gamma 81.320019
_cell_volume 574.015421
_symmetry_space_group_name_H-M "P -1"
_symmetry_group_IT_number 2
_symmetry_cell_setting 'triclinic'
loop_
_space_group_symop_operation_xyz
x,y,z
-x,-y,-z
loop_
_atom_site_type_symbol
_atom_site_label
_atom_site_fract_x
_atom_site_fract_y
_atom_site_fract_z
Si Si1 0.601936 0.318563 0.581490
Si Si2 0.689757 0.389138 0.268493
Si Si3 0.030206 0.726541 0.722383
Si Si4 0.769564 0.275856 0.997978
Si Si5 0.165877 0.255321 0.503746
Si Si6 0.919607 0.254419 0.663593
Si Si7 0.619633 0.877825 0.096484
O O1 0.500000 0.500000 0.500000
O O2 0.611487 0.319346 0.365382
O O3 0.695476 0.367847 0.698737
O O4 0.626400 0.064612 0.839385
O O5 0.695876 0.359398 0.070592
O O6 0.814520 0.238049 0.529576
O O7 0.649120 0.653143 0.137704
O O8 0.145098 0.630240 0.975987
O O9 0.045938 0.664609 0.555889
O O10 0.927730 0.715920 0.732054
O O11 0.000000 0.000000 0.500000
O O12 0.821976 0.987219 0.223095
O O13 0.115874 0.510262 0.396949
O O14 0.291057 0.177786 0.635314
O O15 0.000000 0.000000 0.000000
O O16 0.500000 0.000000 0.000000
#
# Coordination Sequence:
#
# PCOD9104836 Si02
#       7
#     2   2   2   2   2   2   2
#     4  11  22  40  70  90 118 172 209 252 324 364
#     4  10  22  42  61  92 128 161 209 257 313 371
#     4   9  18  36  58  84 120 158 196 247 314 362
#     4   9  21  40  63  91 129 158 203 266 305 373
#     4   9  19  37  63  83 122 168 198 245 323 363
#     4  10  21  34  60  90 120 161 203 255 303 370
#     4  10  20  39  62  91 127 163 208 262 304 366
#
# _framework density 24.389586999999999
#
# number of rings (size 3 to 8) (size 9 to 14) (size 15 to 20)
#    0.000    2.286    1.429    0.429    6.000    0.571 
#    0.000   11.429    3.143    0.000    0.000    0.000 
#    0.000    0.000    0.000    0.000    0.000    0.000 
#
# Total GULP energy -77989.282053 kJ/mol
# GULP energy per Si atom -5570.663004 kJ/mol
# Density = 2.433408 g / cm^3
# Si number density = 24.389587 Si / 1000 Ang^3
#
#
#
# Elastic Constant Matrix: (Units=GPa)
#
#
# Indices 1 2 3 4 5 6 
#
# 1 133.0077 29.4747 21.7507 6.7683 8.1481 -0.2226
# 2 29.4747 99.0912 27.9914 -11.2008 -3.0135 -14.1697
# 3 21.7507 27.9914 77.2823 -11.4337 9.7016 -2.4894
# 4 6.7683 -11.2008 -11.4337 34.5496 -1.7396 -5.6813
# 5 8.1481 -3.0135 9.7016 -1.7396 44.2430 2.9642
# 6 -0.2226 -14.1697 -2.4894 -5.6813 2.9642 45.7313
#
#
#
# Elastic Compliance Matrix: (Units=1/GPa)
#
#
# Indices 1 2 3 4 5 6 
#
# 1 0.008672 -0.002666 -0.001845 -0.003446 -0.001428 -0.001220
# 2 -0.002666 0.013021 -0.003430 0.004409 0.002018 0.004252
# 3 -0.001845 -0.003430 0.015773 0.004396 -0.003216 0.000541
# 4 -0.003446 0.004409 0.004396 0.033484 0.000906 0.005690
# 5 -0.001428 0.002018 -0.003216 0.000906 0.023810 -0.000987
# 6 -0.001220 0.004252 0.000541 0.005690 -0.000987 0.023979
#
#
# Mechanical properties :
#
#
# Convention : Reuss Voigt Hill
#
# Bulk Modulus (GPa) = 46.33002 51.97945 49.15474
# Shear Modulus (GPa) = 35.25726 40.24908 37.75317
#
# Velocity S-wave (km/s) = 3.80621 4.06674 3.93863
# Velocity P-wave (km/s) = 6.19301 6.58860 6.39386
#
# Compressibility (1/GPa) = 0.02158428
#
# Stress axis : x y z
#
# Youngs Moduli (GPa) = 115.31990 76.79715 63.40032
#
# Poissons Ratio (x) = 0.20470 0.11697
# Poissons Ratio (y) = 0.30739 0.21747
# Poissons Ratio (z) = 0.21276 0.26343
#
# Static dielectric constant tensor:
#      x y z
#    x 2.058340 -0.019930 0.009130 
#    y -0.019930 2.015990 0.057990 
#    z 0.009130 0.057990 2.020240 
# 
# From -- ./inp_files/214611.got.cif
#   From: 2010.05.17/outbox.cif.g08.bks.cpg/sg2_108_cif.got.tgz:214611.got - 2010.06.03 11:33:40.
