data_PCOD9104894
_publ_section_title
;
Structure prediction by ZEFSAII (Michael W. Deem and Ramdas Pophale) SiO2 
 PCOD9104894
Probable space group: P -1
;
_chemical_formula_sum "Si O2"
_cell_formula_units_Z 16
_cell_length_a 9.057007
_cell_length_b 15.933155
_cell_length_c 8.634108
_cell_angle_alpha 110.303036
_cell_angle_beta 73.193583
_cell_angle_gamma 55.174130
_cell_volume 742.650674
_symmetry_space_group_name_H-M "P -1"
_symmetry_group_IT_number 2
_symmetry_cell_setting 'triclinic'
loop_
_space_group_symop_operation_xyz
x,y,z
-x,-y,-z
loop_
_atom_site_type_symbol
_atom_site_label
_atom_site_fract_x
_atom_site_fract_y
_atom_site_fract_z
Si Si1 0.685698 0.860708 0.445879
Si Si2 0.345513 0.876701 0.638691
Si Si3 0.960593 0.387146 0.388231
Si Si4 0.634909 0.228977 0.740164
Si Si5 0.145417 0.936081 0.133572
Si Si6 0.961279 0.208926 0.465851
Si Si7 0.860729 0.629240 0.015365
Si Si8 0.617069 0.680829 0.660666
O O1 0.513980 0.884172 0.631373
O O2 0.880098 0.825419 0.462958
O O3 0.795987 0.741117 0.217127
O O4 0.500000 0.000000 0.500000
O O5 0.326472 0.868062 0.456244
O O6 0.502696 0.725714 0.553774
O O7 0.080274 0.005769 0.847349
O O8 0.949721 0.290579 0.390676
O O9 0.161152 0.351135 0.403166
O O10 0.715514 0.542737 0.593144
O O11 0.023619 0.382869 0.186056
O O12 0.807521 0.138180 0.770864
O O13 0.370437 0.326825 0.933911
O O14 0.716009 0.283067 0.661451
O O15 0.077859 0.067778 0.273612
O O16 0.391499 0.819192 0.900860
O O17 0.000000 0.500000 0.000000
#
# Coordination Sequence:
#
# PCOD9104894 Si02
#       8
#     2   2   2   2   2   2   2   2
#     4  11  22  38  64  98 128 164 217 275 320 381
#     4  10  20  39  62  94 128 173 215 260 327 395
#     4  11  24  43  66  96 131 174 223 272 321 385
#     4  10  21  42  66  95 133 174 212 266 334 391
#     4  11  22  41  68  96 134 175 213 266 334 392
#     4  11  23  41  67 102 133 164 216 283 327 374
#     4  11  24  45  71  90 127 181 222 257 330 405
#     4  11  23  41  66  91 130 177 220 257 330 396
#
# _framework density 21.544450999999999
#
# number of rings (size 3 to 8) (size 9 to 14) (size 15 to 20)
#    0.000    1.250    2.500    5.625    1.750    1.500 
#    0.000   11.875    0.000    0.000    0.000    0.000 
#    0.000    0.000    0.000    0.000    0.000    0.000 
#
# Total GULP energy -89174.732527 kJ/mol
# GULP energy per Si atom -5573.420783 kJ/mol
# Density = 2.149541 g / cm^3
# Si number density = 21.544451 Si / 1000 Ang^3
#
#
#
# Elastic Constant Matrix: (Units=GPa)
#
#
# Indices 1 2 3 4 5 6 
#
# 1 90.1806 36.0811 18.1363 0.7357 -7.1129 3.5166
# 2 36.0811 170.3681 44.1038 9.5262 -9.6412 8.5870
# 3 18.1363 44.1038 67.4123 2.5647 -1.4278 10.8441
# 4 0.7357 9.5262 2.5647 37.7267 3.6810 -6.7332
# 5 -7.1129 -9.6412 -1.4278 3.6810 24.3518 -1.2299
# 6 3.5166 8.5870 10.8441 -6.7332 -1.2299 41.5524
#
#
#
# Elastic Compliance Matrix: (Units=1/GPa)
#
#
# Indices 1 2 3 4 5 6 
#
# 1 0.012500 -0.001977 -0.002012 0.000122 0.002731 -0.000024
# 2 -0.001977 0.007671 -0.004272 -0.001947 0.002476 -0.000545
# 3 -0.002012 -0.004272 0.018819 -0.000755 -0.001265 -0.004018
# 4 0.000122 -0.001947 -0.000755 0.028419 -0.004820 0.005051
# 5 0.002731 0.002476 -0.001265 -0.004820 0.043502 0.000094
# 6 -0.000024 -0.000545 -0.004018 0.005051 0.000094 0.026050
#
#
# Mechanical properties :
#
#
# Convention : Reuss Voigt Hill
#
# Bulk Modulus (GPa) = 44.51254 58.28926 51.40090
# Shear Modulus (GPa) = 31.06104 36.03551 33.54827
#
# Velocity S-wave (km/s) = 3.80112 4.09419 3.95037
# Velocity P-wave (km/s) = 6.32221 7.03306 6.68709
#
# Compressibility (1/GPa) = 0.02246558
#
# Stress axis : x y z
#
# Youngs Moduli (GPa) = 79.99989 130.36328 53.13820
#
# Poissons Ratio (x) = 0.25779 0.10693
# Poissons Ratio (y) = 0.15820 0.22703
# Poissons Ratio (z) = 0.16098 0.55696
#
# Static dielectric constant tensor:
#      x y z
#    x 1.847780 0.189340 -0.059110 
#    y 0.189340 2.313110 -0.176860 
#    z -0.059110 -0.176860 1.914530 
# 
# From -- ./inp_files/207657.got.cif
#   From: 2010.05.17/outbox.cif.g08.bks.cpg/sg2_104_cif.got.tgz:207657.got - 2010.06.03 11:33:40.
