data_PCOD9104717
_publ_section_title
;
Structure prediction by ZEFSAII (Michael W. Deem and Ramdas Pophale) SiO2 
 PCOD9104717
Probable space group: P -1
;
_chemical_formula_sum "Si O2"
_cell_formula_units_Z 10
_cell_length_a 13.903944
_cell_length_b 18.157136
_cell_length_c 4.900154
_cell_angle_alpha 104.280025
_cell_angle_beta 75.276684
_cell_angle_gamma 160.173106
_cell_volume 405.703905
_symmetry_space_group_name_H-M "P -1"
_symmetry_group_IT_number 2
_symmetry_cell_setting 'triclinic'
loop_
_space_group_symop_operation_xyz
x,y,z
-x,-y,-z
loop_
_atom_site_type_symbol
_atom_site_label
_atom_site_fract_x
_atom_site_fract_y
_atom_site_fract_z
Si Si1 0.100711 0.675670 0.665719
Si Si2 0.589810 0.942912 0.238772
Si Si3 0.287725 0.609021 0.824961
Si Si4 0.144698 0.272558 0.354855
Si Si5 0.445344 0.559442 0.896359
O O1 0.676505 0.222457 0.535953
O O2 0.837837 0.493332 0.477314
O O3 0.984543 0.571409 0.948574
O O4 0.252939 0.865704 0.764832
O O5 0.492218 0.825449 0.940252
O O6 0.818638 0.055218 0.332545
O O7 0.425551 0.630916 0.870077
O O8 0.229518 0.357009 0.674595
O O9 0.252348 0.264813 0.206337
O O10 0.333258 0.461734 0.191104
#
# Coordination Sequence:
#
# PCOD9104717 Si02
#       5
#     2   2   2   2   2
#     4  11  26  42  60  95 129 159 203 258 301 363
#     4  11  24  41  67  90 125 167 205 246 312 367
#     4  12  23  42  65  92 125 162 205 255 303 363
#     4  10  21  39  61  88 120 162 198 251 308 355
#     4  10  20  39  62  86 124 155 201 257 300 353
#
# _framework density 24.648520999999999
#
# number of rings (size 3 to 8) (size 9 to 14) (size 15 to 20)
#    0.000    1.200    4.000    1.200    0.000    8.800 
#    0.000    0.000    0.000    9.600    0.000    0.000 
#    0.000    0.000    0.000    0.000    0.000    0.000 
#
# Total GULP energy -56063.747542 kJ/mol
# GULP energy per Si atom -5606.374754 kJ/mol
# Density = 2.459242 g / cm^3
# Si number density = 24.648521 Si / 1000 Ang^3
#
#
#
# Elastic Constant Matrix: (Units=GPa)
#
#
# Indices 1 2 3 4 5 6 
#
# 1 183.0467 53.6358 27.3019 11.4645 -21.0583 14.5289
# 2 53.6358 51.9385 26.0503 20.0299 -20.7554 -8.1872
# 3 27.3019 26.0503 87.7994 5.4072 1.1193 -9.9388
# 4 11.4645 20.0299 5.4072 25.1386 -5.0043 -9.9685
# 5 -21.0583 -20.7554 1.1193 -5.0043 43.0361 -2.9559
# 6 14.5289 -8.1872 -9.9388 -9.9685 -2.9559 46.2174
#
#
#
# Elastic Compliance Matrix: (Units=1/GPa)
#
#
# Indices 1 2 3 4 5 6 
#
# 1 0.008822 -0.011464 0.000000 0.003230 -0.001124 -0.004179
# 2 -0.011464 0.057675 -0.011161 -0.032261 0.019135 0.005686
# 3 0.000000 -0.011161 0.014654 0.005565 -0.004975 0.002056
# 4 0.003230 -0.032261 0.005565 0.064809 -0.006033 0.008059
# 5 -0.001124 0.019135 -0.004975 -0.006033 0.031576 0.003391
# 6 -0.004179 0.005686 0.002056 0.008059 0.003391 0.026355
#
#
# Mechanical properties :
#
#
# Convention : Reuss Voigt Hill
#
# Bulk Modulus (GPa) = 27.85356 59.64008 43.74682
# Shear Modulus (GPa) = 19.14909 37.26484 28.20697
#
# Velocity S-wave (km/s) = 2.79029 3.89247 3.38652
# Velocity P-wave (km/s) = 4.65895 6.66712 5.75136
#
# Compressibility (1/GPa) = 0.03590206
#
# Stress axis : x y z
#
# Youngs Moduli (GPa) = 113.34691 17.33857 68.23912
#
# Poissons Ratio (x) = 0.19878 -0.00003
# Poissons Ratio (y) = 1.29946 0.76160
# Poissons Ratio (z) = -0.00005 0.19351
#
# Static dielectric constant tensor:
#      x y z
#    x 1.995450 0.002180 -0.023380 
#    y 0.002180 1.953780 -0.009540 
#    z -0.023380 -0.009540 1.880010 
# 
# From -- ./inp_files/99196.got.cif
#   From: 2010.05.17/outbox.cif.g08.bks.cpg/sg2_50_cif.got.tgz:99196.got - 2010.06.03 11:33:40.
