data_PCOD9104244
_publ_section_title
;
Structure prediction by ZEFSAII (Michael W. Deem and Ramdas Pophale) SiO2 
 PCOD9104244
Probable space group: P -1
;
_chemical_formula_sum "Si O2"
_cell_formula_units_Z 16
_cell_length_a 18.438125
_cell_length_b 9.086306
_cell_length_c 10.544605
_cell_angle_alpha 95.691488
_cell_angle_beta 140.745510
_cell_angle_gamma 54.712147
_cell_volume 673.999221
_symmetry_space_group_name_H-M "P -1"
_symmetry_group_IT_number 2
_symmetry_cell_setting 'triclinic'
loop_
_space_group_symop_operation_xyz
x,y,z
-x,-y,-z
loop_
_atom_site_type_symbol
_atom_site_label
_atom_site_fract_x
_atom_site_fract_y
_atom_site_fract_z
Si Si1 0.965739 0.552277 0.310600
Si Si2 0.448843 0.976327 0.132259
Si Si3 0.322084 0.000936 0.699714
Si Si4 0.777819 0.288138 0.891725
Si Si5 0.598893 0.265286 0.439052
Si Si6 0.795411 0.531688 0.746346
Si Si7 0.334067 0.055911 0.309781
Si Si8 0.954958 0.842245 0.170551
O O1 0.030771 0.650515 0.362049
O O2 0.000000 0.500000 0.500000
O O3 0.108665 0.285418 0.421239
O O4 0.735892 0.778620 0.017011
O O5 0.541881 0.015966 0.183243
O O6 0.608381 0.739438 0.419152
O O7 0.375035 0.944011 0.916293
O O8 0.352413 0.817652 0.647646
O O9 0.732215 0.236066 0.699430
O O10 0.608588 0.467192 0.779870
O O11 0.785895 0.438615 0.849490
O O12 0.944096 0.030117 0.168515
O O13 0.617393 0.084954 0.511911
O O14 0.831585 0.658368 0.859707
O O15 0.946252 0.306125 0.838319
O O16 0.500000 0.000000 0.500000
O O17 0.261661 0.996550 0.119057
#
# Coordination Sequence:
#
# PCOD9104244 Si02
#       8
#     2   2   2   2   2   2   2   2
#     4  10  21  38  63  94 123 155 206 265 313 363
#     4  10  21  35  66  94 122 160 202 267 318 360
#     4  10  20  40  61  97 121 159 213 265 310 367
#     4  10  24  37  60  86 130 176 205 251 321 373
#     4  10  20  39  59  88 126 164 217 256 305 380
#     4  12  21  40  60  92 126 162 215 260 313 378
#     4  11  20  34  58  90 117 155 210 258 314 362
#     4  11  23  38  59  92 127 166 206 262 313 379
#
# _framework density 23.738900999999998
#
# number of rings (size 3 to 8) (size 9 to 14) (size 15 to 20)
#    0.000    1.500    3.750    1.500    3.500    1.000 
#    0.000    1.875    0.000    0.750    0.000    0.000 
#    0.000    0.000    0.000    0.000    0.000    0.000 
#
# Total GULP energy -89127.579347 kJ/mol
# GULP energy per Si atom -5570.473709 kJ/mol
# Density = 2.368487 g / cm^3
# Si number density = 23.738901 Si / 1000 Ang^3
#
#
#
# Elastic Constant Matrix: (Units=GPa)
#
#
# Indices 1 2 3 4 5 6 
#
# 1 75.7603 28.4718 19.9318 -15.5909 0.9283 -6.4515
# 2 28.4718 136.3588 26.2366 -19.0741 -8.9223 -11.9807
# 3 19.9318 26.2366 69.5470 -7.9748 -5.0161 0.8278
# 4 -15.5909 -19.0741 -7.9748 37.8786 -4.8713 -4.6212
# 5 0.9283 -8.9223 -5.0161 -4.8713 41.6441 -9.1962
# 6 -6.4515 -11.9807 0.8278 -4.6212 -9.1962 42.3277
#
#
#
# Elastic Compliance Matrix: (Units=1/GPa)
#
#
# Indices 1 2 3 4 5 6 
#
# 1 0.016058 -0.001719 -0.003364 0.005366 0.000077 0.002629
# 2 -0.001719 0.009246 -0.002329 0.004276 0.003017 0.003523
# 3 -0.003364 -0.002329 0.016447 0.000958 0.001431 -0.001078
# 4 0.005366 0.004276 0.000958 0.032614 0.006257 0.006929
# 5 0.000077 0.003017 0.001431 0.006257 0.027203 0.007431
# 6 0.002629 0.003523 -0.001078 0.006929 0.007431 0.027415
#
#
# Mechanical properties :
#
#
# Convention : Reuss Voigt Hill
#
# Bulk Modulus (GPa) = 37.13836 47.88295 42.51066
# Shear Modulus (GPa) = 32.72624 38.17181 35.44902
#
# Velocity S-wave (km/s) = 3.71697 4.01432 3.86850
# Velocity P-wave (km/s) = 5.83949 6.45762 6.15631
#
# Compressibility (1/GPa) = 0.02692634
#
# Stress axis : x y z
#
# Youngs Moduli (GPa) = 62.27472 108.15882 60.79953
#
# Poissons Ratio (x) = 0.18592 0.20453
# Poissons Ratio (y) = 0.10705 0.14162
# Poissons Ratio (z) = 0.20950 0.25194
#
# Static dielectric constant tensor:
#      x y z
#    x 2.022150 -0.042210 0.010850 
#    y -0.042210 1.976970 -0.030530 
#    z 0.010850 -0.030530 2.057300 
# 
# From -- ./inp_files/465147.got.cif
#   From: 2010.05.17/outbox.cif.g08.bks.cpg/sg2_233_cif.got.tgz:465147.got - 2010.06.03 11:33:40.
