data_PCOD9104979
_publ_section_title
;
Structure prediction by ZEFSAII (Michael W. Deem and Ramdas Pophale) SiO2 
 PCOD9104979
Probable space group: P -1
;
_chemical_formula_sum "Si O2"
_cell_formula_units_Z 16
_cell_length_a 10.532458
_cell_length_b 8.386068
_cell_length_c 11.774208
_cell_angle_alpha 40.052601
_cell_angle_beta 97.759175
_cell_angle_gamma 97.283854
_cell_volume 662.634029
_symmetry_space_group_name_H-M "P -1"
_symmetry_group_IT_number 2
_symmetry_cell_setting 'triclinic'
loop_
_space_group_symop_operation_xyz
x,y,z
-x,-y,-z
loop_
_atom_site_type_symbol
_atom_site_label
_atom_site_fract_x
_atom_site_fract_y
_atom_site_fract_z
Si Si1 0.879868 0.166900 0.928452
Si Si2 0.517067 0.985059 0.700321
Si Si3 0.219265 0.713601 0.386347
Si Si4 0.745806 0.658398 0.218381
Si Si5 0.651469 0.729419 0.642967
Si Si6 0.474103 0.752950 0.058729
Si Si7 0.081054 0.505788 0.873605
Si Si8 0.104481 0.144167 0.270288
O O1 0.835348 0.303917 0.735892
O O2 0.943766 0.358266 0.919198
O O3 0.778103 0.951577 0.068925
O O4 0.000000 0.000000 0.000000
O O5 0.570398 0.824410 0.690294
O O6 0.642300 0.141148 0.675551
O O7 0.413171 0.161944 0.536100
O O8 0.463678 0.824746 0.886627
O O9 0.237210 0.461566 0.592268
O O10 0.122609 0.882569 0.354409
O O11 0.604606 0.609884 0.177790
O O12 0.838925 0.526545 0.212615
O O13 0.638154 0.432546 0.810068
O O14 0.794282 0.832495 0.628239
O O15 0.500000 0.000000 0.000000
O O16 0.036539 0.778055 0.751310
O O17 0.145856 0.346948 0.066683
#
# Coordination Sequence:
#
# PCOD9104979 Si02
#       8
#     2   2   2   2   2   2   2   2
#     4  10  20  39  63  86 121 173 203 255 306 366
#     4  10  21  42  66  92 127 171 207 255 327 377
#     4  11  20  39  68  90 127 162 211 258 308 382
#     4  11  22  40  66  91 122 167 209 248 319 374
#     4  10  22  41  68  94 126 169 208 259 316 388
#     4  12  25  41  66  97 128 165 211 266 316 380
#     4  10  22  41  67  88 128 169 207 260 311 370
#     4  10  21  41  63  96 125 164 209 262 311 359
#
# _framework density 24.146059999999999
#
# number of rings (size 3 to 8) (size 9 to 14) (size 15 to 20)
#    0.000    1.500    5.000    1.125    1.750    3.000 
#    2.250    0.000    0.000    0.000    0.000    0.000 
#    0.000    0.000    0.000    0.000    0.000    0.000 
#
# Total GULP energy -89550.875619 kJ/mol
# GULP energy per Si atom -5596.929726 kJ/mol
# Density = 2.409110 g / cm^3
# Si number density = 24.146060 Si / 1000 Ang^3
#
#
#
# Elastic Constant Matrix: (Units=GPa)
#
#
# Indices 1 2 3 4 5 6 
#
# 1 52.8487 7.8109 19.1058 11.5333 8.7013 -0.8225
# 2 7.8109 51.4728 21.1179 12.5819 4.8533 -0.5174
# 3 19.1058 21.1179 155.4737 29.6077 20.0753 -3.2890
# 4 11.5333 12.5819 29.6077 30.8920 10.8604 10.2739
# 5 8.7013 4.8533 20.0753 10.8604 25.9021 3.2295
# 6 -0.8225 -0.5174 -3.2890 10.2739 3.2295 29.8857
#
#
#
# Elastic Compliance Matrix: (Units=1/GPa)
#
#
# Indices 1 2 3 4 5 6 
#
# 1 0.021477 -0.000951 -0.000642 -0.006627 -0.004163 0.003232
# 2 -0.000951 0.022197 -0.001221 -0.008697 0.000357 0.003175
# 3 -0.000642 -0.001221 0.008673 -0.007625 -0.003569 0.003922
# 4 -0.006627 -0.008697 -0.007625 0.056079 -0.011351 -0.019224
# 5 -0.004163 0.000357 -0.003569 -0.011351 0.047683 -0.001752
# 6 0.003232 0.003175 0.003922 -0.019224 -0.001752 0.040834
#
#
# Mechanical properties :
#
#
# Convention : Reuss Voigt Hill
#
# Bulk Modulus (GPa) = 21.40482 39.54047 30.47264
# Shear Modulus (GPa) = 22.92084 31.45335 27.18709
#
# Velocity S-wave (km/s) = 3.08435 3.61311 3.35915
# Velocity P-wave (km/s) = 4.64416 5.81525 5.26239
#
# Compressibility (1/GPa) = 0.04671845
#
# Stress axis : x y z
#
# Youngs Moduli (GPa) = 46.56249 45.05107 115.30595
#
# Poissons Ratio (x) = 0.04283 0.07405
# Poissons Ratio (y) = 0.04427 0.14078
# Poissons Ratio (z) = 0.02990 0.05500
#
# Static dielectric constant tensor:
#      x y z
#    x 1.952830 -0.031800 0.008330 
#    y -0.031800 1.927630 -0.059150 
#    z 0.008330 -0.059150 1.911020 
# 
# From -- ./inp_files/306352.got.cif
#   From: 2010.05.17/outbox.cif.g08.bks.cpg/sg2_154_cif.got.tgz:306352.got - 2010.06.03 11:33:40.
