data_PCOD9104490
_publ_section_title
;
Structure prediction by ZEFSAII (Michael W. Deem and Ramdas Pophale) SiO2 
 PCOD9104490
Probable space group: P -1
;
_chemical_formula_sum "Si O2"
_cell_formula_units_Z 16
_cell_length_a 6.993013
_cell_length_b 22.516724
_cell_length_c 27.301084
_cell_angle_alpha 11.388770
_cell_angle_beta 128.136377
_cell_angle_gamma 131.573193
_cell_volume 619.022112
_symmetry_space_group_name_H-M "P -1"
_symmetry_group_IT_number 2
_symmetry_cell_setting 'triclinic'
loop_
_space_group_symop_operation_xyz
x,y,z
-x,-y,-z
loop_
_atom_site_type_symbol
_atom_site_label
_atom_site_fract_x
_atom_site_fract_y
_atom_site_fract_z
Si Si1 0.936540 0.001225 0.431964
Si Si2 0.268323 0.653399 0.730584
Si Si3 0.633387 0.343118 0.063602
Si Si4 0.546189 0.285555 0.886889
Si Si5 0.220903 0.227546 0.975229
Si Si6 0.224736 0.844881 0.111273
Si Si7 0.296560 0.254352 0.629060
Si Si8 0.493902 0.140285 0.647333
O O1 0.681723 0.094040 0.309955
O O2 0.001159 0.701263 0.663302
O O3 0.142904 0.301161 0.190903
O O4 0.000000 0.000000 0.500000
O O5 0.261123 0.525345 0.777562
O O6 0.500000 0.000000 0.500000
O O7 0.358519 0.393966 0.984088
O O8 0.654396 0.198165 0.130431
O O9 0.463477 0.330729 0.892213
O O10 0.572514 0.605490 0.602385
O O11 0.292249 0.029991 0.023939
O O12 0.751310 0.098146 0.070102
O O13 0.978047 0.118106 0.989023
O O14 0.229480 0.909508 0.262126
O O15 0.127598 0.461109 0.417813
O O16 0.500000 0.000000 0.000000
O O17 0.500000 0.500000 0.500000
O O18 0.424483 0.217036 0.628042
#
# Coordination Sequence:
#
# PCOD9104490 Si02
#       8
#     2   2   2   2   2   2   2   2
#     4  10  21  38  64  95 123 163 208 260 324 381
#     4   9  20  41  64  88 128 166 203 265 318 373
#     4   9  21  39  61  91 126 162 209 259 315 379
#     4  10  21  40  61  85 120 168 206 255 316 376
#     4  10  23  40  60  90 122 160 217 254 314 386
#     4  11  21  39  61  90 126 162 202 267 316 369
#     4   9  20  36  57  86 119 156 203 251 308 362
#     4  10  20  39  61  85 121 167 207 255 309 375
#
# _framework density 25.847218999999999
#
# number of rings (size 3 to 8) (size 9 to 14) (size 15 to 20)
#    0.000    2.250    1.250    0.375    1.750    5.000 
#    6.750    7.500    0.000    0.000    0.000    0.000 
#    0.000    0.000    0.000    0.000    0.000    0.000 
#
# Total GULP energy -89201.666951 kJ/mol
# GULP energy per Si atom -5575.104184 kJ/mol
# Density = 2.578839 g / cm^3
# Si number density = 25.847219 Si / 1000 Ang^3
#
#
#
# Elastic Constant Matrix: (Units=GPa)
#
#
# Indices 1 2 3 4 5 6 
#
# 1 81.1528 32.2598 36.9790 6.0224 5.7639 -16.0179
# 2 32.2598 118.9259 52.7299 25.5413 19.9440 -17.3538
# 3 36.9790 52.7299 154.3453 15.7158 20.6593 -2.2859
# 4 6.0224 25.5413 15.7158 66.2267 -0.5438 16.1860
# 5 5.7639 19.9440 20.6593 -0.5438 36.3578 -2.7584
# 6 -16.0179 -17.3538 -2.2859 16.1860 -2.7584 51.0569
#
#
#
# Elastic Compliance Matrix: (Units=1/GPa)
#
#
# Indices 1 2 3 4 5 6 
#
# 1 0.015363 -0.002196 -0.002870 -0.000907 0.000710 0.004271
# 2 -0.002196 0.012877 -0.002585 -0.005422 -0.004947 0.005024
# 3 -0.002870 -0.002585 0.008482 -0.000431 -0.003062 -0.001428
# 4 -0.000907 -0.005422 -0.000431 0.019387 0.003036 -0.008129
# 5 0.000710 -0.004947 -0.003062 0.003036 0.031827 -0.000839
# 6 0.004271 0.005024 -0.001428 -0.008129 -0.000839 0.025101
#
#
# Mechanical properties :
#
#
# Convention : Reuss Voigt Hill
#
# Bulk Modulus (GPa) = 46.68237 66.48460 56.58349
# Shear Modulus (GPa) = 36.90600 46.22529 41.56565
#
# Velocity S-wave (km/s) = 3.78279 4.23354 4.01450
# Velocity P-wave (km/s) = 6.09750 7.04806 6.58994
#
# Compressibility (1/GPa) = 0.02142136
#
# Stress axis : x y z
#
# Youngs Moduli (GPa) = 65.09150 77.65568 117.89432
#
# Poissons Ratio (x) = 0.17053 0.33836
# Poissons Ratio (y) = 0.14294 0.30471
# Poissons Ratio (z) = 0.18681 0.20071
#
# Static dielectric constant tensor:
#      x y z
#    x 2.137280 0.122800 0.008370 
#    y 0.122800 2.110440 0.013620 
#    z 0.008370 0.013620 2.116710 
# 
# From -- ./inp_files/622739.got.cif
#   From: 2010.05.17/outbox.cif.g08.bks.cpg/sg2_312_cif.got.tgz:622739.got - 2010.06.03 11:33:40.
