data_PCOD9104285
_publ_section_title
;
Structure prediction by ZEFSAII (Michael W. Deem and Ramdas Pophale) SiO2 
 PCOD9104285
Probable space group: P -1
;
_chemical_formula_sum "Si O2"
_cell_formula_units_Z 16
_cell_length_a 22.638007
_cell_length_b 19.919599
_cell_length_c 13.002848
_cell_angle_alpha 142.592543
_cell_angle_beta 35.940637
_cell_angle_gamma 167.999378
_cell_volume 715.439249
_symmetry_space_group_name_H-M "P -1"
_symmetry_group_IT_number 2
_symmetry_cell_setting 'triclinic'
loop_
_space_group_symop_operation_xyz
x,y,z
-x,-y,-z
loop_
_atom_site_type_symbol
_atom_site_label
_atom_site_fract_x
_atom_site_fract_y
_atom_site_fract_z
Si Si1 0.981620 0.323305 0.321048
Si Si2 0.723164 0.379798 0.524940
Si Si3 0.130292 0.013594 0.451166
Si Si4 0.106735 0.014868 0.943861
Si Si5 0.247215 0.362467 0.287202
Si Si6 0.900144 0.381090 0.114804
Si Si7 0.255350 0.623230 0.085514
Si Si8 0.221192 0.365933 0.714047
O O1 0.896576 0.503528 0.746464
O O2 0.145287 0.531447 0.446762
O O3 0.631060 0.980368 0.406081
O O4 0.049741 0.260899 0.146935
O O5 0.851686 0.637321 0.644835
O O6 0.817697 0.408039 0.325974
O O7 0.179997 0.197029 0.600865
O O8 0.439042 0.278612 0.371307
O O9 0.861890 0.715303 0.542683
O O10 0.021176 0.863802 0.311247
O O11 0.412776 0.295142 0.802209
O O12 0.141354 0.127854 0.132526
O O13 0.000000 0.000000 0.000000
O O14 0.131879 0.560569 0.083116
O O15 0.599750 0.001489 0.071989
O O16 0.000000 0.500000 0.000000
O O17 0.193545 0.430947 0.916772
#
# Coordination Sequence:
#
# PCOD9104285 Si02
#       8
#     2   2   2   2   2   2   2   2
#     4  11  24  44  71 105 136 174 226 275 341 417
#     4  11  25  43  69 100 133 179 230 280 338 394
#     4  10  22  40  63  97 136 175 224 266 326 413
#     4  10  20  39  60 101 139 172 221 261 341 401
#     4  10  22  37  63  94 134 182 211 279 328 403
#     4  12  29  50  70 101 132 179 235 290 345 403
#     4  12  26  47  73  99 136 181 221 295 343 394
#     4  10  23  41  63  98 132 175 223 269 335 402
#
# _framework density 22.363883999999999
#
# number of rings (size 3 to 8) (size 9 to 14) (size 15 to 20)
#    0.000    1.250    1.250    3.375    5.250    3.000 
#    4.500    0.000    0.000    0.000    0.000    0.000 
#    0.000    0.000    0.000    0.000    0.000    0.000 
#
# Total GULP energy -89313.922054 kJ/mol
# GULP energy per Si atom -5582.120128 kJ/mol
# Density = 2.231298 g / cm^3
# Si number density = 22.363884 Si / 1000 Ang^3
#
#
#
# Elastic Constant Matrix: (Units=GPa)
#
#
# Indices 1 2 3 4 5 6 
#
# 1 98.8319 15.4099 56.6628 2.8028 20.8788 9.0207
# 2 15.4099 -8.8637 85.0857 45.9054 31.0167 35.2269
# 3 56.6628 85.0857 68.3916 -31.9230 -4.4570 -24.5252
# 4 2.8028 45.9054 -31.9230 2.7364 -19.8341 -9.7026
# 5 20.8788 31.0167 -4.4570 -19.8341 35.1129 -13.1124
# 6 9.0207 35.2269 -24.5252 -9.7026 -13.1124 23.4487
#
#
#
# Elastic Compliance Matrix: (Units=1/GPa)
#
#
# Indices 1 2 3 4 5 6 
#
# 1 0.013552 -0.004975 -0.003766 0.004055 -0.002339 -0.001308
# 2 -0.004975 0.005774 0.003729 0.010195 0.005811 0.004608
# 3 -0.003766 0.003729 0.008240 -0.008196 -0.005355 -0.001921
# 4 0.004055 0.010195 -0.008196 0.028420 -0.001916 -0.014760
# 5 -0.002339 0.005811 -0.005355 -0.001916 0.022325 -0.001740
# 6 -0.001308 0.004608 -0.001921 -0.014760 -0.001740 0.027137
#
#
# Mechanical properties :
#
#
# Convention : Reuss Voigt Hill
#
# Bulk Modulus (GPa) = 57.01443 52.51963 54.76703
# Shear Modulus (GPa) = 41.21310 12.33971 26.77641
#
# Velocity S-wave (km/s) = 4.29749 2.35153 3.46396
# Velocity P-wave (km/s) = 7.08335 5.55950 6.36718
#
# Compressibility (1/GPa) = 0.01753942
#
# Stress axis : x y z
#
# Youngs Moduli (GPa) = 73.79057 173.19414 121.36181
#
# Poissons Ratio (x) = 0.86172 0.45710
# Poissons Ratio (y) = 0.36714 -0.45254
# Poissons Ratio (z) = 0.27793 -0.64581
#
# Static dielectric constant tensor:
#      x y z
#    x 1.887860 -0.001980 -0.052770 
#    y -0.001980 1.806410 0.059960 
#    z -0.052770 0.059960 1.942710 
# 
# From -- ./inp_files/76424.got.cif
#   From: 2010.05.17/outbox.cif.g08.bks.cpg/sg2_39_cif.got.tgz:76424.got - 2010.06.03 11:33:40.
