data_PCOD9104504
_publ_section_title
;
Structure prediction by ZEFSAII (Michael W. Deem and Ramdas Pophale) SiO2 
 PCOD9104504
Probable space group: P -1
;
_chemical_formula_sum "Si O2"
_cell_formula_units_Z 16
_cell_length_a 11.849905
_cell_length_b 15.117664
_cell_length_c 15.174373
_cell_angle_alpha 155.020487
_cell_angle_beta 135.801468
_cell_angle_gamma 38.428731
_cell_volume 713.260360
_symmetry_space_group_name_H-M "P -1"
_symmetry_group_IT_number 2
_symmetry_cell_setting 'triclinic'
loop_
_space_group_symop_operation_xyz
x,y,z
-x,-y,-z
loop_
_atom_site_type_symbol
_atom_site_label
_atom_site_fract_x
_atom_site_fract_y
_atom_site_fract_z
Si Si1 0.978487 0.429425 0.664957
Si Si2 0.233541 0.087383 0.754139
Si Si3 0.853962 0.774555 0.595826
Si Si4 0.237869 0.444751 0.964793
Si Si5 0.570395 0.615306 0.566996
Si Si6 0.419073 0.708767 0.072663
Si Si7 0.102554 0.938767 0.369932
Si Si8 0.738367 0.440051 0.319063
O O1 0.766001 0.591890 0.683283
O O2 0.092148 0.406502 0.619779
O O3 0.062633 0.493826 0.853386
O O4 0.016731 0.159943 0.457641
O O5 0.418177 0.881212 0.707514
O O6 0.189659 0.010600 0.565097
O O7 0.235288 0.333543 0.957376
O O8 0.063656 0.108807 0.734530
O O9 0.753663 0.679904 0.522787
O O10 0.050253 0.740738 0.707888
O O11 0.725670 0.044145 0.746172
O O12 0.410707 0.260487 0.841950
O O13 0.250137 0.687417 0.193210
O O14 0.500000 0.500000 0.500000
O O15 0.617925 0.481786 0.377776
O O16 0.500000 0.500000 0.000000
O O17 0.334423 0.642556 0.880241
#
# Coordination Sequence:
#
# PCOD9104504 Si02
#       8
#     2   2   2   2   2   2   2   2
#     4  10  22  40  63  92 124 164 205 258 312 370
#     4  10  21  38  62  85 119 165 209 253 309 361
#     4  10  22  42  66  91 126 163 206 256 311 371
#     4  11  23  38  59  91 125 160 209 253 310 371
#     4  11  21  41  66  89 124 167 210 254 312 367
#     4  12  24  39  64  97 126 161 208 258 314 372
#     4  10  20  39  61  86 123 164 203 257 307 365
#     4  10  23  42  66  92 125 167 206 256 314 368
#
# _framework density 22.432202
#
# number of rings (size 3 to 8) (size 9 to 14) (size 15 to 20)
#    0.000    1.500    1.250    3.750    0.000    4.000 
#    2.250    9.375    0.000    0.000    0.000    0.000 
#    0.000    0.000    0.000    0.000    0.000    0.000 
#
# Total GULP energy -89407.715833 kJ/mol
# GULP energy per Si atom -5587.982240 kJ/mol
# Density = 2.238115 g / cm^3
# Si number density = 22.432202 Si / 1000 Ang^3
#
#
#
# Elastic Constant Matrix: (Units=GPa)
#
#
# Indices 1 2 3 4 5 6 
#
# 1 108.2559 18.6931 9.2356 1.1936 -4.5522 8.1934
# 2 18.6931 125.3763 22.3416 13.5284 -4.7893 -9.8005
# 3 9.2356 22.3416 46.9087 2.2234 -7.0147 -5.5193
# 4 1.1936 13.5284 2.2234 31.3310 0.8972 -3.4418
# 5 -4.5522 -4.7893 -7.0147 0.8972 20.6804 2.9760
# 6 8.1934 -9.8005 -5.5193 -3.4418 2.9760 33.2313
#
#
#
# Elastic Compliance Matrix: (Units=1/GPa)
#
#
# Indices 1 2 3 4 5 6 
#
# 1 0.009925 -0.001408 -0.001385 -0.000084 0.001863 -0.003268
# 2 -0.001408 0.009412 -0.003723 -0.003529 0.000458 0.002098
# 3 -0.001385 -0.003723 0.024705 0.000013 0.006818 0.002738
# 4 -0.000084 -0.003529 0.000013 0.033820 -0.002691 0.002726
# 5 0.001863 0.000458 0.006818 -0.002691 0.051893 -0.004118
# 6 -0.003268 0.002098 0.002738 0.002726 -0.004118 0.032622
#
#
# Mechanical properties :
#
#
# Convention : Reuss Voigt Hill
#
# Bulk Modulus (GPa) = 32.24852 42.34239 37.29545
# Shear Modulus (GPa) = 26.91850 32.39991 29.65920
#
# Velocity S-wave (km/s) = 3.46785 3.80458 3.64011
# Velocity P-wave (km/s) = 5.51741 6.18195 5.85911
#
# Compressibility (1/GPa) = 0.03100918
#
# Stress axis : x y z
#
# Youngs Moduli (GPa) = 100.75235 106.25238 40.47783
#
# Poissons Ratio (x) = 0.14962 0.05608
# Poissons Ratio (y) = 0.14188 0.15068
# Poissons Ratio (z) = 0.13959 0.39554
#
# Static dielectric constant tensor:
#      x y z
#    x 1.859390 0.028750 -0.005410 
#    y 0.028750 1.823390 -0.010870 
#    z -0.005410 -0.010870 1.819290 
# 
# From -- ./inp_files/273258.got.cif
#   From: 2010.05.17/outbox.cif.g08.bks.cpg/sg2_137_cif.got.tgz:273258.got - 2010.06.03 11:33:40.
