data_PCOD9104997
_publ_section_title
;
Structure prediction by ZEFSAII (Michael W. Deem and Ramdas Pophale) SiO2 
 PCOD9104997
Probable space group: P -1
;
_chemical_formula_sum "Si O2"
_cell_formula_units_Z 14
_cell_length_a 12.771740
_cell_length_b 8.883937
_cell_length_c 8.240875
_cell_angle_alpha 88.038861
_cell_angle_beta 146.063582
_cell_angle_gamma 83.254884
_cell_volume 503.561121
_symmetry_space_group_name_H-M "P -1"
_symmetry_group_IT_number 2
_symmetry_cell_setting 'triclinic'
loop_
_space_group_symop_operation_xyz
x,y,z
-x,-y,-z
loop_
_atom_site_type_symbol
_atom_site_label
_atom_site_fract_x
_atom_site_fract_y
_atom_site_fract_z
Si Si1 0.547778 0.160940 0.605287
Si Si2 0.021105 0.527928 0.275577
Si Si3 0.135194 0.267384 0.219471
Si Si4 0.621008 0.434597 0.821152
Si Si5 0.911279 0.007099 0.624437
Si Si6 0.554430 0.261674 0.265516
Si Si7 0.862727 0.812571 0.256924
O O1 0.326579 0.249077 0.362293
O O2 0.646035 0.248198 0.866622
O O3 0.633498 0.210251 0.549240
O O4 0.500000 0.000000 0.500000
O O5 0.010413 0.646267 0.406313
O O6 0.165852 0.365205 0.415934
O O7 0.023040 0.631186 0.111271
O O8 0.825551 0.472088 0.051201
O O9 0.097183 0.106484 0.233046
O O10 0.500000 0.500000 0.500000
O O11 0.511751 0.549452 0.820714
O O12 0.904986 0.898165 0.466701
O O13 0.720212 0.154863 0.371124
O O14 0.100253 0.073624 0.844856
O O15 0.353114 0.208574 0.004370
#
# Coordination Sequence:
#
# PCOD9104997 Si02
#       7
#     2   2   2   2   2   2   2
#     4  11  20  36  59  95 125 147 204 257 307 364
#     4  10  22  40  61  86 126 160 205 253 308 363
#     4  11  22  38  59  94 117 162 203 254 308 361
#     4   9  18  35  58  85 120 160 192 247 312 358
#     4  11  24  39  64  91 124 165 207 252 311 354
#     4  10  20  39  63  87 120 167 201 250 302 370
#     4  10  23  43  61  90 125 165 208 250 303 373
#
# _framework density 27.801988999999999
#
# number of rings (size 3 to 8) (size 9 to 14) (size 15 to 20)
#    0.000    1.714    5.714    0.429    2.000    3.429 
#    0.000    0.000    0.000    1.714    0.000    0.000 
#    0.000    0.000    0.000    0.000    0.000    0.000 
#
# Total GULP energy -78181.295922 kJ/mol
# GULP energy per Si atom -5584.378280 kJ/mol
# Density = 2.773871 g / cm^3
# Si number density = 27.801989 Si / 1000 Ang^3
#
#
#
# Elastic Constant Matrix: (Units=GPa)
#
#
# Indices 1 2 3 4 5 6 
#
# 1 101.9034 66.6877 47.1164 9.4572 2.9355 -6.4492
# 2 66.6877 246.1349 47.3973 42.0716 14.5960 -27.6254
# 3 47.1164 47.3973 71.4459 27.8967 12.4050 3.5722
# 4 9.4572 42.0716 27.8967 44.3706 4.4089 -0.7620
# 5 2.9355 14.5960 12.4050 4.4089 37.1901 8.5766
# 6 -6.4492 -27.6254 3.5722 -0.7620 8.5766 78.1005
#
#
#
# Elastic Compliance Matrix: (Units=1/GPa)
#
#
# Indices 1 2 3 4 5 6 
#
# 1 0.017152 -0.003664 -0.012283 0.007227 0.003233 0.000398
# 2 -0.003664 0.006188 0.000634 -0.005231 -0.002203 0.002048
# 3 -0.012283 0.000634 0.029008 -0.015575 -0.006756 -0.001527
# 4 0.007227 -0.005231 -0.015575 0.035485 0.002581 -0.000478
# 5 0.003233 -0.002203 -0.006756 0.002581 0.030253 -0.003500
# 6 0.000398 0.002048 -0.001527 -0.000478 -0.003500 0.014011
#
#
# Mechanical properties :
#
#
# Convention : Reuss Voigt Hill
#
# Bulk Modulus (GPa) = 46.04021 82.43187 64.23604
# Shear Modulus (GPa) = 29.41802 49.15109 39.28455
#
# Velocity S-wave (km/s) = 3.25641 4.20920 3.76308
# Velocity P-wave (km/s) = 5.54391 7.30323 6.48352
#
# Compressibility (1/GPa) = 0.02172014
#
# Stress axis : x y z
#
# Youngs Moduli (GPa) = 58.30304 161.59833 34.47369
#
# Poissons Ratio (x) = 0.59212 0.42345
# Poissons Ratio (y) = 0.21363 -0.02185
# Poissons Ratio (z) = 0.71615 -0.10240
#
# Static dielectric constant tensor:
#      x y z
#    x 2.146750 0.009470 -0.074000 
#    y 0.009470 2.347910 -0.065510 
#    z -0.074000 -0.065510 2.258270 
# 
# From -- ./inp_files/244828.got.cif
#   From: 2010.05.17/outbox.cif.g08.bks.cpg/sg2_123_cif.got.tgz:244828.got - 2010.06.03 11:33:40.
