data_PCOD9104401
_publ_section_title
;
Structure prediction by ZEFSAII (Michael W. Deem and Ramdas Pophale) SiO2 
 PCOD9104401
Probable space group: P -1
;
_chemical_formula_sum "Si O2"
_cell_formula_units_Z 16
_cell_length_a 18.967289
_cell_length_b 10.982061
_cell_length_c 8.165245
_cell_angle_alpha 40.283435
_cell_angle_beta 136.966377
_cell_angle_gamma 134.371997
_cell_volume 710.711068
_symmetry_space_group_name_H-M "P -1"
_symmetry_group_IT_number 2
_symmetry_cell_setting 'triclinic'
loop_
_space_group_symop_operation_xyz
x,y,z
-x,-y,-z
loop_
_atom_site_type_symbol
_atom_site_label
_atom_site_fract_x
_atom_site_fract_y
_atom_site_fract_z
Si Si1 0.938909 0.248654 0.544133
Si Si2 0.081499 0.173391 0.162750
Si Si3 0.380329 0.271506 0.852820
Si Si4 0.267289 0.844609 0.108509
Si Si5 0.243480 0.604550 0.975858
Si Si6 0.947135 0.382232 0.871616
Si Si7 0.461280 0.705615 0.593919
Si Si8 0.495262 0.772381 0.218773
O O1 0.831617 0.304103 0.358848
O O2 0.010690 0.446316 0.368797
O O3 0.903986 0.041168 0.597074
O O4 0.013825 0.204456 0.856865
O O5 0.188248 0.368324 0.146467
O O6 0.001910 0.208619 0.129011
O O7 0.369824 0.487839 0.642217
O O8 0.432789 0.263534 0.770830
O O9 0.463245 0.274711 0.140861
O O10 0.275808 0.075623 0.885640
O O11 0.181124 0.719320 0.221135
O O12 0.391689 0.853411 0.340715
O O13 0.239798 0.726161 0.012046
O O14 0.368618 0.652027 0.092175
O O15 0.000000 0.500000 0.000000
O O16 0.522386 0.730144 0.496227
O O17 0.500000 0.000000 0.000000
#
# Coordination Sequence:
#
# PCOD9104401 Si02
#       8
#     2   2   2   2   2   2   2   2
#     4  10  22  41  61  87 126 160 196 252 303 364
#     4  10  22  41  60  89 123 161 199 246 307 364
#     4  11  23  44  64  90 132 163 204 261 309 366
#     4  11  22  39  62  91 122 160 204 250 305 363
#     4  10  20  39  60  92 118 158 205 246 301 365
#     4  11  21  39  60  89 118 155 202 247 301 355
#     4  10  24  42  63  93 127 164 207 258 308 370
#     4  11  22  41  66  92 122 169 206 251 317 363
#
# _framework density 22.512664000000001
#
# number of rings (size 3 to 8) (size 9 to 14) (size 15 to 20)
#    0.000    1.500    5.000    2.250    0.000    5.500 
#    2.250    2.500    0.000    0.000    0.000    0.000 
#    0.000    0.000    0.000    0.000    0.000    0.000 
#
# Total GULP energy -89275.852219 kJ/mol
# GULP energy per Si atom -5579.740764 kJ/mol
# Density = 2.246142 g / cm^3
# Si number density = 22.512664 Si / 1000 Ang^3
#
#
#
# Elastic Constant Matrix: (Units=GPa)
#
#
# Indices 1 2 3 4 5 6 
#
# 1 76.4511 22.3393 15.0806 0.4938 -3.8192 4.7335
# 2 22.3393 144.5139 13.5075 -22.7885 5.0284 -11.8317
# 3 15.0806 13.5075 60.1182 -3.6876 2.1050 -4.3124
# 4 0.4938 -22.7885 -3.6876 42.8290 -8.2280 7.7831
# 5 -3.8192 5.0284 2.1050 -8.2280 14.9027 -3.9901
# 6 4.7335 -11.8317 -4.3124 7.7831 -3.9901 36.0997
#
#
#
# Elastic Compliance Matrix: (Units=1/GPa)
#
#
# Indices 1 2 3 4 5 6 
#
# 1 0.014852 -0.002397 -0.003548 -0.000483 0.004155 -0.002594
# 2 -0.002397 0.008154 -0.000832 0.003815 -0.000607 0.001998
# 3 -0.003548 -0.000832 0.017959 0.000309 -0.002460 0.002000
# 4 -0.000483 0.003815 0.000309 0.028599 0.013444 -0.003329
# 5 0.004155 -0.000607 -0.002460 0.013444 0.077377 0.004617
# 6 -0.002594 0.001998 0.002000 -0.003329 0.004617 0.030163
#
#
# Mechanical properties :
#
#
# Convention : Reuss Voigt Hill
#
# Bulk Modulus (GPa) = 36.48229 42.54865 39.51547
# Shear Modulus (GPa) = 25.02545 34.11001 29.56773
#
# Velocity S-wave (km/s) = 3.33771 3.89671 3.62799
# Velocity P-wave (km/s) = 5.57621 6.25993 5.92794
#
# Compressibility (1/GPa) = 0.02741056
#
# Stress axis : x y z
#
# Youngs Moduli (GPa) = 67.33135 122.63308 55.68116
#
# Poissons Ratio (x) = 0.29398 0.19756
# Poissons Ratio (y) = 0.16141 0.04634
# Poissons Ratio (z) = 0.23890 0.10206
#
# Static dielectric constant tensor:
#      x y z
#    x 1.846180 -0.013440 -0.044700 
#    y -0.013440 1.850490 0.022650 
#    z -0.044700 0.022650 1.883890 
# 
# From -- ./inp_files/345902.got.cif
#   From: 2010.05.17/outbox.cif.g08.bks.cpg/sg2_173_cif.got.tgz:345902.got - 2010.06.03 11:33:40.
