data_PCOD9104086
_publ_section_title
;
Structure prediction by ZEFSAII (Michael W. Deem and Ramdas Pophale) SiO2 
 PCOD9104086
Probable space group: P -1
;
_chemical_formula_sum "Si O2"
_cell_formula_units_Z 16
_cell_length_a 12.860751
_cell_length_b 12.767006
_cell_length_c 5.023224
_cell_angle_alpha 94.778629
_cell_angle_beta 92.043039
_cell_angle_gamma 98.638097
_cell_volume 811.618034
_symmetry_space_group_name_H-M "P -1"
_symmetry_group_IT_number 2
_symmetry_cell_setting 'triclinic'
loop_
_space_group_symop_operation_xyz
x,y,z
-x,-y,-z
loop_
_atom_site_type_symbol
_atom_site_label
_atom_site_fract_x
_atom_site_fract_y
_atom_site_fract_z
Si Si1 0.735029 0.626379 0.930228
Si Si2 0.850845 0.372754 0.463263
Si Si3 0.361333 0.951479 0.212307
Si Si4 0.435300 0.566550 0.206190
Si Si5 0.369222 0.303781 0.545459
Si Si6 0.280734 0.713126 0.058565
Si Si7 0.393376 0.076735 0.741323
Si Si8 0.049637 0.424495 0.201982
O O1 0.672863 0.514668 0.781944
O O2 0.690992 0.706938 0.740965
O O3 0.859384 0.629811 0.934257
O O4 0.696829 0.642593 0.227839
O O5 0.803740 0.320830 0.720919
O O6 0.887721 0.496521 0.557495
O O7 0.957630 0.346829 0.327138
O O8 0.762727 0.343343 0.227729
O O9 0.299892 0.840084 0.082192
O O10 0.483472 0.934827 0.235937
O O11 0.336498 0.988916 0.511516
O O12 0.351352 0.045049 0.023420
O O13 0.518279 0.617513 0.448056
O O14 0.390229 0.669431 0.112434
O O15 0.500000 0.500000 0.000000
O O16 0.384690 0.191584 0.647955
O O17 0.000000 0.500000 0.000000
#
# Coordination Sequence:
#
# PCOD9104086 Si02
#       8
#     2   2   2   2   2   2   2   2
#     4  11  24  36  59  84 121 160 199 225 292 354
#     4  11  24  35  61  82 120 149 196 245 293 339
#     4  10  21  36  61  84 115 155 198 251 289 338
#     4  10  22  36  53  82 129 165 190 226 267 358
#     4  11  23  38  56  87 119 165 194 232 281 363
#     4  12  22  39  57  92 116 161 196 237 297 350
#     4  10  20  39  57  85 117 154 200 246 292 331
#     4  11  23  41  60  86 120 159 194 257 288 339
#
# _framework density 19.713705999999998
#
# number of rings (size 3 to 8) (size 9 to 14) (size 15 to 20)
#    0.000    1.250    3.750    1.875    7.000    2.000 
#    0.000    0.000    0.000    0.000    0.000   17.500 
#    0.000    0.000    0.000    0.000    0.000    0.000 
#
# Total GULP energy -89261.946496 kJ/mol
# GULP energy per Si atom -5578.871656 kJ/mol
# Density = 1.966884 g / cm^3
# Si number density = 19.713706 Si / 1000 Ang^3
#
#
#
# Elastic Constant Matrix: (Units=GPa)
#
#
# Indices 1 2 3 4 5 6 
#
# 1 56.8562 13.1237 1.6392 3.2205 -0.4011 -1.1770
# 2 13.1237 69.7676 8.8796 -12.2566 2.7869 -1.6292
# 3 1.6392 8.8796 83.9422 0.4285 3.4940 7.0032
# 4 3.2205 -12.2566 0.4285 27.8259 3.5597 0.7579
# 5 -0.4011 2.7869 3.4940 3.5597 25.3220 -0.6559
# 6 -1.1770 -1.6292 7.0032 0.7579 -0.6559 14.8955
#
#
#
# Elastic Compliance Matrix: (Units=1/GPa)
#
#
# Indices 1 2 3 4 5 6 
#
# 1 0.018869 -0.004324 -0.000059 -0.004306 0.001423 0.001328
# 2 -0.004324 0.016991 -0.001789 0.008323 -0.002815 0.001811
# 3 -0.000059 -0.001789 0.012692 -0.000599 -0.001632 -0.006209
# 4 -0.004306 0.008323 -0.000599 0.041011 -0.006707 -0.001530
# 5 0.001423 -0.002815 -0.001632 -0.006707 0.041062 0.002721
# 6 0.001328 0.001811 -0.006209 -0.001530 0.002721 0.070554
#
#
# Mechanical properties :
#
#
# Convention : Reuss Voigt Hill
#
# Bulk Modulus (GPa) = 27.61817 28.65011 28.13414
# Shear Modulus (GPa) = 22.16361 26.07025 24.11693
#
# Velocity S-wave (km/s) = 3.35666 3.64049 3.50145
# Velocity P-wave (km/s) = 5.39100 5.67763 5.53617
#
# Compressibility (1/GPa) = 0.03620805
#
# Stress axis : x y z
#
# Youngs Moduli (GPa) = 52.99571 58.85361 78.78732
#
# Poissons Ratio (x) = 0.25449 0.00465
# Poissons Ratio (y) = 0.22916 0.14097
# Poissons Ratio (z) = 0.00313 0.10531
#
# Static dielectric constant tensor:
#      x y z
#    x 1.724290 -0.003530 -0.002430 
#    y -0.003530 1.714430 -0.018480 
#    z -0.002430 -0.018480 1.729730 
# 
# From -- ./inp_files/66866.got.cif
#   From: 2010.05.17/outbox.cif.g08.bks.cpg/sg2_34_cif.got.tgz:66866.got - 2010.06.03 11:33:40.
