data_PCOD9104946
_publ_section_title
;
Structure prediction by ZEFSAII (Michael W. Deem and Ramdas Pophale) SiO2 
 PCOD9104946
Probable space group: P -1
;
_chemical_formula_sum "Si O2"
_cell_formula_units_Z 14
_cell_length_a 5.452481
_cell_length_b 21.465395
_cell_length_c 15.956101
_cell_angle_alpha 20.940073
_cell_angle_beta 127.732340
_cell_angle_gamma 119.947508
_cell_volume 510.268665
_symmetry_space_group_name_H-M "P -1"
_symmetry_group_IT_number 2
_symmetry_cell_setting 'triclinic'
loop_
_space_group_symop_operation_xyz
x,y,z
-x,-y,-z
loop_
_atom_site_type_symbol
_atom_site_label
_atom_site_fract_x
_atom_site_fract_y
_atom_site_fract_z
Si Si1 0.699649 0.702850 0.891318
Si Si2 0.474975 0.973242 0.640990
Si Si3 0.865375 0.066268 0.093842
Si Si4 0.341695 0.440035 0.192965
Si Si5 0.083974 0.832343 0.293369
Si Si6 0.632697 0.363156 0.870991
Si Si7 0.803070 0.710352 0.245795
O O1 0.454137 0.852564 0.706512
O O2 0.021531 0.653636 0.074750
O O3 0.739300 0.823665 0.668169
O O4 0.571720 0.529798 0.072081
O O5 0.388322 0.840792 0.857415
O O6 0.833729 0.992066 0.707746
O O7 0.531648 0.160393 0.948229
O O8 0.861066 0.895572 0.248108
O O9 0.998055 0.195930 0.894596
O O10 0.550971 0.235039 0.511296
O O11 0.337503 0.529717 0.172116
O O12 0.000000 0.500000 0.000000
O O13 0.004419 0.675024 0.418289
O O14 0.000000 0.000000 0.000000
O O15 0.340145 0.429959 0.661901
#
# Coordination Sequence:
#
# PCOD9104946 Si02
#       7
#     2   2   2   2   2   2   2
#     4  10  20  39  63 100 136 187 229 299 353 431
#     4   9  19  35  66 100 137 182 241 280 361 425
#     4  10  20  39  69 104 140 183 242 298 345 425
#     4  11  27  47  66 105 147 189 237 302 369 426
#     4  10  24  47  70  99 143 195 243 291 358 437
#     4  10  21  41  69 100 144 180 240 297 362 426
#     4  10  21  42  72 104 134 184 245 299 353 424
#
# _framework density 27.436526000000001
#
# number of rings (size 3 to 8) (size 9 to 14) (size 15 to 20)
#    0.000    2.000    1.429    0.857    2.000    3.429 
#   12.857    0.714    0.000    0.000    0.000    0.000 
#    0.000    0.000    0.000    0.000    0.000    0.000 
#
# Total GULP energy -78143.932098 kJ/mol
# GULP energy per Si atom -5581.709436 kJ/mol
# Density = 2.737408 g / cm^3
# Si number density = 27.436526 Si / 1000 Ang^3
#
#
#
# Elastic Constant Matrix: (Units=GPa)
#
#
# Indices 1 2 3 4 5 6 
#
# 1 84.6218 25.8435 37.0459 5.0461 1.6988 4.4956
# 2 25.8435 164.7735 30.9875 33.2512 12.9394 -9.3005
# 3 37.0459 30.9875 150.4774 23.5816 -3.1098 11.8209
# 4 5.0461 33.2512 23.5816 44.5050 8.7239 17.9011
# 5 1.6988 12.9394 -3.1098 8.7239 28.3068 -0.7063
# 6 4.4956 -9.3005 11.8209 17.9011 -0.7063 63.4041
#
#
#
# Elastic Compliance Matrix: (Units=1/GPa)
#
#
# Indices 1 2 3 4 5 6 
#
# 1 0.013825 -0.002042 -0.003282 0.002454 -0.001047 -0.001372
# 2 -0.002042 0.008106 -0.000417 -0.006622 -0.001506 0.003264
# 3 -0.003282 -0.000417 0.008251 -0.004120 0.002559 -0.000175
# 4 0.002454 -0.006622 -0.004120 0.035214 -0.008685 -0.010416
# 5 -0.001047 -0.001506 0.002559 -0.008685 0.039093 0.002264
# 6 -0.001372 0.003264 -0.000175 -0.010416 0.002264 0.019347
#
#
# Mechanical properties :
#
#
# Convention : Reuss Voigt Hill
#
# Bulk Modulus (GPa) = 53.46594 65.29184 59.37889
# Shear Modulus (GPa) = 35.32308 47.64290 41.48299
#
# Velocity S-wave (km/s) = 3.59199 4.17163 3.89261
# Velocity P-wave (km/s) = 6.06075 6.85947 6.47244
#
# Compressibility (1/GPa) = 0.01870350
#
# Stress axis : x y z
#
# Youngs Moduli (GPa) = 72.33267 123.35980 121.19031
#
# Poissons Ratio (x) = 0.25186 0.39769
# Poissons Ratio (y) = 0.14768 0.05048
# Poissons Ratio (z) = 0.23736 0.05138
#
# Static dielectric constant tensor:
#      x y z
#    x 2.231490 -0.052190 0.001550 
#    y -0.052190 2.286300 -0.001900 
#    z 0.001550 -0.001900 2.270350 
# 
# From -- ./inp_files/551246.got.cif
#   From: 2010.05.17/outbox.cif.g08.bks.cpg/sg2_276_cif.got.tgz:551246.got - 2010.06.03 11:33:40.
