data_PCOD9104023
_publ_section_title
;
Structure prediction by ZEFSAII (Michael W. Deem and Ramdas Pophale) SiO2 
 PCOD9104023
Probable space group: P -1
;
_chemical_formula_sum "Si O2"
_cell_formula_units_Z 15
_cell_length_a 15.152151
_cell_length_b 12.098599
_cell_length_c 9.061515
_cell_angle_alpha 50.455218
_cell_angle_beta 147.541685
_cell_angle_gamma 137.340405
_cell_volume 603.532241
_symmetry_space_group_name_H-M "P -1"
_symmetry_group_IT_number 2
_symmetry_cell_setting 'triclinic'
loop_
_space_group_symop_operation_xyz
x,y,z
-x,-y,-z
loop_
_atom_site_type_symbol
_atom_site_label
_atom_site_fract_x
_atom_site_fract_y
_atom_site_fract_z
Si Si1 0.130943 0.937970 0.818708
Si Si2 0.871168 0.652671 0.518876
Si Si3 0.483124 0.388183 0.796610
Si Si4 0.875713 0.585697 0.270168
Si Si5 0.065164 0.881536 0.117654
Si Si6 0.478001 0.002733 0.643801
Si Si7 0.595143 0.340187 0.687096
Si Si8 0.000000 0.500000 0.000000
O O1 0.037551 0.746596 0.795493
O O2 0.098924 0.928863 0.954449
O O3 0.353628 0.026249 0.029184
O O4 0.000000 0.000000 0.500000
O O5 0.703119 0.682381 0.307501
O O6 0.927744 0.698223 0.393644
O O7 0.848504 0.475675 0.669941
O O8 0.512685 0.298996 0.772651
O O9 0.481123 0.546547 0.589295
O O10 0.661565 0.450557 0.099511
O O11 0.000000 0.500000 0.500000
O O12 0.904735 0.699482 0.075001
O O13 0.255663 0.894508 0.445404
O O14 0.000000 0.000000 0.000000
O O15 0.526667 0.176756 0.634554
O O16 0.500000 0.000000 0.500000
O O17 0.820515 0.446413 0.911808
#
# Coordination Sequence:
#
# PCOD9104023 Si02
#       8
#     2   2   2   2   2   2   2   1
#     4  11  25  45  71 104 142 191 243 291 364 443
#     4  11  24  42  68  99 138 181 230 297 361 429
#     4  10  24  39  69 102 142 182 233 299 365 437
#     4  12  27  44  69 108 142 183 247 301 367 435
#     4  11  26  47  74 102 147 196 240 301 366 438
#     4  10  23  42  70 102 144 192 240 294 363 443
#     4  10  20  39  68 105 135 183 242 288 362 436
#     4  10  20  38  72  96 136 176 224 298 360 410
#
# _framework density 24.853684000000001
#
# number of rings (size 3 to 8) (size 9 to 14) (size 15 to 20)
#    0.000    1.333    1.333    2.800    9.333    3.200 
#    0.000    4.000    0.000    0.000    0.000    0.000 
#    0.000    0.000    0.000    0.000    0.000    0.000 
#
# Total GULP energy -83653.808809 kJ/mol
# GULP energy per Si atom -5576.920587 kJ/mol
# Density = 2.479712 g / cm^3
# Si number density = 24.853684 Si / 1000 Ang^3
#
#
#
# Elastic Constant Matrix: (Units=GPa)
#
#
# Indices 1 2 3 4 5 6 
#
# 1 167.3854 46.3731 63.0006 3.4681 19.0683 -19.3087
# 2 46.3731 56.7738 26.8745 -0.3302 3.2507 -15.7919
# 3 63.0006 26.8745 154.9551 4.7533 41.7911 -4.2625
# 4 3.4681 -0.3302 4.7533 39.2786 4.2513 2.4238
# 5 19.0683 3.2507 41.7911 4.2513 48.4821 6.0833
# 6 -19.3087 -15.7919 -4.2625 2.4238 6.0833 39.3166
#
#
#
# Elastic Compliance Matrix: (Units=1/GPa)
#
#
# Indices 1 2 3 4 5 6 
#
# 1 0.008700 -0.005428 -0.002133 -0.000531 -0.001438 0.002116
# 2 -0.005428 0.024990 -0.002390 0.000380 0.001628 0.006837
# 3 -0.002133 -0.002390 0.009746 -0.000222 -0.007408 0.000209
# 4 -0.000531 0.000380 -0.000222 0.025811 -0.001706 -0.001459
# 5 -0.001438 0.001628 -0.007408 -0.001706 0.028261 -0.005123
# 6 0.002116 0.006837 0.000209 -0.001459 -0.005123 0.030125
#
#
# Mechanical properties :
#
#
# Convention : Reuss Voigt Hill
#
# Bulk Modulus (GPa) = 42.49478 72.40119 57.44798
# Shear Modulus (GPa) = 32.17925 41.60652 36.89288
#
# Velocity S-wave (km/s) = 3.60216 4.09596 3.85697
# Velocity P-wave (km/s) = 5.86821 7.18077 6.55741
#
# Compressibility (1/GPa) = 0.02353230
#
# Stress axis : x y z
#
# Youngs Moduli (GPa) = 114.94188 40.01657 102.60713
#
# Poissons Ratio (x) = 0.21723 0.21891
# Poissons Ratio (y) = 0.62396 0.24520
# Poissons Ratio (z) = 0.24523 0.09563
#
# Static dielectric constant tensor:
#      x y z
#    x 2.009870 0.018220 -0.022070 
#    y 0.018220 1.794840 0.093360 
#    z -0.022070 0.093360 1.977530 
# 
# From -- ./inp_files/306867.got.cif
#   From: 2010.05.17/outbox.cif.g08.bks.cpg/sg2_154_cif.got.tgz:306867.got - 2010.06.03 11:33:40.
