data_PCOD9104199
_publ_section_title
;
Structure prediction by ZEFSAII (Michael W. Deem and Ramdas Pophale) SiO2 
 PCOD9104199
Probable space group: P -1
;
_chemical_formula_sum "Si O2"
_cell_formula_units_Z 14
_cell_length_a 11.331598
_cell_length_b 8.394366
_cell_length_c 9.363753
_cell_angle_alpha 118.471170
_cell_angle_beta 67.592001
_cell_angle_gamma 137.218562
_cell_volume 531.065322
_symmetry_space_group_name_H-M "P -1"
_symmetry_group_IT_number 2
_symmetry_cell_setting 'triclinic'
loop_
_space_group_symop_operation_xyz
x,y,z
-x,-y,-z
loop_
_atom_site_type_symbol
_atom_site_label
_atom_site_fract_x
_atom_site_fract_y
_atom_site_fract_z
Si Si1 0.641204 0.413478 0.009058
Si Si2 0.944546 0.951926 0.167497
Si Si3 0.652335 0.319819 0.258977
Si Si4 0.974485 0.172139 0.658838
Si Si5 0.337325 0.968310 0.434611
Si Si6 0.495778 0.473021 0.712670
Si Si7 0.202631 0.472263 0.329630
O O1 0.662019 0.283336 0.067686
O O2 0.464251 0.351890 0.089839
O O3 0.746812 0.691374 0.146847
O O4 0.720272 0.455872 0.838358
O O5 0.007485 0.207786 0.303426
O O6 0.033650 0.884116 0.194107
O O7 0.000000 0.000000 0.000000
O O8 0.849364 0.537316 0.314164
O O9 0.512090 0.075472 0.311700
O O10 0.558375 0.426964 0.335974
O O11 0.000000 0.000000 0.500000
O O12 0.806775 0.104389 0.642863
O O13 0.392737 0.184940 0.604064
O O14 0.249305 0.719472 0.454572
O O15 0.687472 0.567899 0.651349
#
# Coordination Sequence:
#
# PCOD9104199 Si02
#       7
#     2   2   2   2   2   2   2
#     4   8  19  39  61  83 111 161 210 234 290 372
#     4   9  19  39  61  84 117 158 207 243 290 373
#     4   9  21  38  64  82 118 158 212 240 290 371
#     4  11  21  40  65  88 117 167 209 243 296 371
#     4  12  23  38  59  97 124 153 198 261 307 348
#     4  10  20  39  59  84 117 162 208 237 292 371
#     4  11  22  36  61  90 124 155 196 258 314 344
#
# _framework density 26.362107000000002
#
# number of rings (size 3 to 8) (size 9 to 14) (size 15 to 20)
#    0.857    1.143    1.429    2.143    2.000    0.571 
#    2.571    7.857    0.000    0.000    0.000    0.000 
#    0.000    0.000    0.000    0.000    0.000    0.000 
#
# Total GULP energy -78015.500421 kJ/mol
# GULP energy per Si atom -5572.535744 kJ/mol
# Density = 2.630211 g / cm^3
# Si number density = 26.362107 Si / 1000 Ang^3
#
#
#
# Elastic Constant Matrix: (Units=GPa)
#
#
# Indices 1 2 3 4 5 6 
#
# 1 55.4201 -12.3837 9.7709 -5.8637 20.7120 -1.6307
# 2 -12.3837 128.9745 18.0284 16.7364 8.5992 -5.8436
# 3 9.7709 18.0284 57.0665 -18.7836 14.8017 2.9347
# 4 -5.8637 16.7364 -18.7836 54.7028 -3.0783 8.2772
# 5 20.7120 8.5992 14.8017 -3.0783 27.5993 1.9034
# 6 -1.6307 -5.8436 2.9347 8.2772 1.9034 25.3285
#
#
#
# Elastic Compliance Matrix: (Units=1/GPa)
#
#
# Indices 1 2 3 4 5 6 
#
# 1 0.027499 0.004549 -0.000936 -0.000731 -0.021966 0.004818
# 2 0.004549 0.010105 -0.004687 -0.005293 -0.005002 0.005273
# 3 -0.000936 -0.004687 0.025567 0.010588 -0.009898 -0.006820
# 4 -0.000731 -0.005293 0.010588 0.025078 0.000054 -0.010694
# 5 -0.021966 -0.005002 -0.009898 0.000054 0.060000 -0.005948
# 6 0.004818 0.005273 -0.006820 -0.010694 -0.005948 0.045740
#
#
# Mechanical properties :
#
#
# Convention : Reuss Voigt Hill
#
# Bulk Modulus (GPa) = 16.38735 30.25471 23.32103
# Shear Modulus (GPa) = 23.09692 36.59581 29.84637
#
# Velocity S-wave (km/s) = 2.96318 3.72989 3.36842
# Velocity P-wave (km/s) = 4.23521 5.48188 4.89837
#
# Compressibility (1/GPa) = 0.06102266
#
# Stress axis : x y z
#
# Youngs Moduli (GPa) = 36.36466 98.96489 39.11239
#
# Poissons Ratio (x) = -0.45018 0.03662
# Poissons Ratio (y) = -0.16542 0.18331
# Poissons Ratio (z) = 0.03405 0.46383
#
# Static dielectric constant tensor:
#      x y z
#    x 2.244780 0.285180 -0.153460 
#    y 0.285180 2.407200 -0.269960 
#    z -0.153460 -0.269960 2.455320 
# 
# From -- ./inp_files/415618.got.cif
#   From: 2010.05.17/outbox.cif.g08.bks.cpg/sg2_208_cif.got.tgz:415618.got - 2010.06.03 11:33:40.
