data_PCOD9104687
_publ_section_title
;
Structure prediction by ZEFSAII (Michael W. Deem and Ramdas Pophale) SiO2 
 PCOD9104687
Probable space group: P -1
;
_chemical_formula_sum "Si O2"
_cell_formula_units_Z 16
_cell_length_a 8.470717
_cell_length_b 8.870612
_cell_length_c 11.110016
_cell_angle_alpha 125.242105
_cell_angle_beta 88.295845
_cell_angle_gamma 81.855332
_cell_volume 668.483069
_symmetry_space_group_name_H-M "P -1"
_symmetry_group_IT_number 2
_symmetry_cell_setting 'triclinic'
loop_
_space_group_symop_operation_xyz
x,y,z
-x,-y,-z
loop_
_atom_site_type_symbol
_atom_site_label
_atom_site_fract_x
_atom_site_fract_y
_atom_site_fract_z
Si Si1 0.112522 0.852406 0.257541
Si Si2 0.642139 0.959040 0.075846
Si Si3 0.320736 0.461750 0.152828
Si Si4 0.043003 0.904750 0.818067
Si Si5 0.661353 0.267415 0.385107
Si Si6 0.945695 0.530109 0.653244
Si Si7 0.168209 0.166605 0.589075
Si Si8 0.564226 0.602723 0.348889
O O1 0.219129 0.643827 0.171898
O O2 0.925123 0.853185 0.294633
O O3 0.172339 0.989940 0.418164
O O4 0.100699 0.946882 0.169577
O O5 0.819487 0.014487 0.074464
O O6 0.580889 0.107843 0.251013
O O7 0.673096 0.738369 0.002212
O O8 0.500000 0.000000 0.000000
O O9 0.235033 0.445720 0.278981
O O10 0.499653 0.493915 0.191489
O O11 0.150374 0.810912 0.658330
O O12 0.996990 0.719187 0.788405
O O13 0.636638 0.450872 0.382169
O O14 0.591365 0.287798 0.527625
O O15 0.000000 0.500000 0.500000
O O16 0.043217 0.342848 0.621092
O O17 0.329898 0.249212 0.625948
#
# Coordination Sequence:
#
# PCOD9104687 Si02
#       8
#     2   2   2   2   2   2   2   2
#     4  10  23  38  56  91 124 163 192 248 304 366
#     4  10  21  41  61  88 123 160 199 253 299 353
#     4  11  24  38  62  91 126 157 204 244 301 365
#     4  10  20  39  62  83 126 160 197 247 309 348
#     4   9  21  34  63  92 118 151 200 257 296 348
#     4  11  20  35  64  95 119 154 203 257 293 349
#     4  10  21  36  60  89 128 154 200 247 306 355
#     4  11  20  37  64  94 118 156 202 254 304 349
#
# _framework density 23.934788000000001
#
# number of rings (size 3 to 8) (size 9 to 14) (size 15 to 20)
#    0.750    1.000    3.750    0.750    5.250    1.500 
#    0.000    0.000    0.000    3.000    0.000    0.000 
#    0.000    0.000    0.000    0.000    0.000    0.000 
#
# Total GULP energy -89188.357236 kJ/mol
# GULP energy per Si atom -5574.272327 kJ/mol
# Density = 2.388031 g / cm^3
# Si number density = 23.934788 Si / 1000 Ang^3
#
#
#
# Elastic Constant Matrix: (Units=GPa)
#
#
# Indices 1 2 3 4 5 6 
#
# 1 68.2144 17.6990 21.2102 21.9319 35.0368 12.1922
# 2 17.6990 92.6297 22.2474 32.1266 2.0231 -11.7299
# 3 21.2102 22.2474 86.6913 34.3550 25.5961 13.9160
# 4 21.9319 32.1266 34.3550 40.3198 10.3797 5.3471
# 5 35.0368 2.0231 25.5961 10.3797 39.3106 10.5825
# 6 12.1922 -11.7299 13.9160 5.3471 10.5825 32.0988
#
#
#
# Elastic Compliance Matrix: (Units=1/GPa)
#
#
# Indices 1 2 3 4 5 6 
#
# 1 0.034095 -0.003619 0.007875 -0.013878 -0.030207 -0.005416
# 2 -0.003619 0.017387 -0.000935 -0.013323 0.004028 0.009025
# 3 0.007875 -0.000935 0.022291 -0.017906 -0.015431 -0.004927
# 4 -0.013878 -0.013323 -0.017906 0.055974 0.011244 -0.004865
# 5 -0.030207 0.004028 -0.015431 0.011244 0.059754 -0.001938
# 6 -0.005416 0.009025 -0.004927 -0.004865 -0.001938 0.040095
#
#
# Mechanical properties :
#
#
# Convention : Reuss Voigt Hill
#
# Bulk Modulus (GPa) = 12.43537 41.09431 26.76484
# Shear Modulus (GPa) = 20.01916 34.77110 27.39513
#
# Velocity S-wave (km/s) = 2.89520 3.81562 3.38683
# Velocity P-wave (km/s) = 4.04760 6.05132 5.14789
#
# Compressibility (1/GPa) = 0.08041580
#
# Stress axis : x y z
#
# Youngs Moduli (GPa) = 29.32942 57.51325 44.86024
#
# Poissons Ratio (x) = 0.20814 -0.35326
# Poissons Ratio (y) = 0.10614 0.04194
# Poissons Ratio (z) = -0.23096 0.05377
#
# Static dielectric constant tensor:
#      x y z
#    x 2.008780 0.101040 -0.010670 
#    y 0.101040 2.083540 -0.038730 
#    z -0.010670 -0.038730 2.042820 
# 
# From -- ./inp_files/491605.got.cif
#   From: 2010.05.17/outbox.cif.g08.bks.cpg/sg2_246_cif.got.tgz:491605.got - 2010.06.03 11:33:40.
