data_PCOD9104552
_publ_section_title
;
Structure prediction by ZEFSAII (Michael W. Deem and Ramdas Pophale) SiO2 
 PCOD9104552
Probable space group: P -1
;
_chemical_formula_sum "Si O2"
_cell_formula_units_Z 16
_cell_length_a 17.341272
_cell_length_b 8.268871
_cell_length_c 8.150875
_cell_angle_alpha 73.073361
_cell_angle_beta 139.606994
_cell_angle_gamma 114.598288
_cell_volume 687.998960
_symmetry_space_group_name_H-M "P -1"
_symmetry_group_IT_number 2
_symmetry_cell_setting 'triclinic'
loop_
_space_group_symop_operation_xyz
x,y,z
-x,-y,-z
loop_
_atom_site_type_symbol
_atom_site_label
_atom_site_fract_x
_atom_site_fract_y
_atom_site_fract_z
Si Si1 0.153454 0.737832 0.626809
Si Si2 0.602936 0.473450 0.795233
Si Si3 0.098016 0.262651 0.224180
Si Si4 0.570608 0.066708 0.923802
Si Si5 0.181368 0.577835 0.030969
Si Si6 0.639865 0.203242 0.486768
Si Si7 0.726357 0.524095 0.294502
Si Si8 0.145510 0.934537 0.255108
O O1 0.196990 0.589235 0.643110
O O2 0.085874 0.822745 0.357629
O O3 0.281322 0.896762 0.829509
O O4 0.104622 0.648992 0.749419
O O5 0.500000 0.500000 0.500000
O O6 0.560619 0.262276 0.822303
O O7 0.735971 0.522522 0.903532
O O8 0.634274 0.563290 0.998498
O O9 0.109132 0.447295 0.094157
O O10 0.175589 0.314076 0.501393
O O11 0.157507 0.136345 0.252609
O O12 0.952008 0.149125 0.023471
O O13 0.499896 0.927597 0.712586
O O14 0.500000 0.000000 0.000000
O O15 0.289730 0.737200 0.246034
O O16 0.651348 0.384912 0.352654
O O17 0.726130 0.102727 0.564006
#
# Coordination Sequence:
#
# PCOD9104552 Si02
#       8
#     2   2   2   2   2   2   2   2
#     4   9  19  35  56  80 110 141 180 221 267 327
#     4  10  21  35  54  85 114 143 175 219 281 323
#     4  10  21  38  56  80 108 140 186 233 267 319
#     4  10  16  33  57  77 109 144 179 219 262 320
#     4   9  21  37  53  82 113 138 182 224 269 326
#     4  10  18  35  59  80 106 149 186 218 262 326
#     4   8  17  36  55  75 108 141 181 219 259 327
#     4  10  21  36  58  81 104 143 189 226 271 318
#
# _framework density 23.255848
#
# number of rings (size 3 to 8) (size 9 to 14) (size 15 to 20)
#    0.000    2.750    3.750    0.000    1.750    7.000 
#    4.500    2.500    0.000    7.500    0.000    0.000 
#    0.000    0.000    0.000    0.000    0.000    0.000 
#
# Total GULP energy -89279.793172 kJ/mol
# GULP energy per Si atom -5579.987073 kJ/mol
# Density = 2.320292 g / cm^3
# Si number density = 23.255848 Si / 1000 Ang^3
#
#
#
# Elastic Constant Matrix: (Units=GPa)
#
#
# Indices 1 2 3 4 5 6 
#
# 1 34.7152 6.2527 13.6848 -3.1314 -4.8897 1.8876
# 2 6.2527 63.8345 48.2175 16.7840 -8.1269 -4.2520
# 3 13.6848 48.2175 161.0516 24.9332 -20.3274 -1.4716
# 4 -3.1314 16.7840 24.9332 54.8124 -0.1778 -10.1802
# 5 -4.8897 -8.1269 -20.3274 -0.1778 35.2183 -2.3008
# 6 1.8876 -4.2520 -1.4716 -10.1802 -2.3008 11.6589
#
#
#
# Elastic Compliance Matrix: (Units=1/GPa)
#
#
# Indices 1 2 3 4 5 6 
#
# 1 0.030779 -0.002011 -0.002176 0.002800 0.002366 -0.003080
# 2 -0.002011 0.021404 -0.005458 -0.003260 0.001817 0.004954
# 3 -0.002176 -0.005458 0.008889 -0.002932 0.003397 -0.002406
# 4 0.002800 -0.003260 -0.002932 0.024271 -0.000689 0.019044
# 5 0.002366 0.001817 0.003397 -0.000689 0.031513 0.006325
# 6 -0.003080 0.004954 -0.002406 0.019044 0.006325 0.105650
#
#
# Mechanical properties :
#
#
# Convention : Reuss Voigt Hill
#
# Bulk Modulus (GPa) = 23.93415 43.99014 33.96214
# Shear Modulus (GPa) = 19.55241 33.10100 26.32671
#
# Velocity S-wave (km/s) = 2.90272 3.77681 3.36824
# Velocity P-wave (km/s) = 4.64202 6.16246 5.45547
#
# Compressibility (1/GPa) = 0.04178131
#
# Stress axis : x y z
#
# Youngs Moduli (GPa) = 32.48949 46.72107 112.50007
#
# Poissons Ratio (x) = 0.09396 0.24482
# Poissons Ratio (y) = 0.06534 0.61401
# Poissons Ratio (z) = 0.07070 0.25500
#
# Static dielectric constant tensor:
#      x y z
#    x 1.931320 0.025670 -0.033830 
#    y 0.025670 1.868270 -0.003990 
#    z -0.033830 -0.003990 1.941310 
# 
# From -- ./inp_files/341770.got.cif
#   From: 2010.05.17/outbox.cif.g08.bks.cpg/sg2_171_cif.got.tgz:341770.got - 2010.06.03 11:33:40.
