data_PCOD9104804
_publ_section_title
;
Structure prediction by ZEFSAII (Michael W. Deem and Ramdas Pophale) SiO2 
 PCOD9104804
Probable space group: P -1
;
_chemical_formula_sum "Si O2"
_cell_formula_units_Z 16
_cell_length_a 5.227736
_cell_length_b 24.323217
_cell_length_c 17.812009
_cell_angle_alpha 161.481854
_cell_angle_beta 84.249271
_cell_angle_gamma 101.146092
_cell_volume 680.212876
_symmetry_space_group_name_H-M "P -1"
_symmetry_group_IT_number 2
_symmetry_cell_setting 'triclinic'
loop_
_space_group_symop_operation_xyz
x,y,z
-x,-y,-z
loop_
_atom_site_type_symbol
_atom_site_label
_atom_site_fract_x
_atom_site_fract_y
_atom_site_fract_z
Si Si1 0.759219 0.628451 0.989199
Si Si2 0.269134 0.939137 0.365933
Si Si3 0.231335 0.862617 0.866816
Si Si4 0.956464 0.158418 0.306649
Si Si5 0.436520 0.889716 0.050950
Si Si6 0.880231 0.911246 0.574608
Si Si7 0.411995 0.238592 0.973230
Si Si8 0.167693 0.427900 0.771220
O O1 0.459422 0.574726 0.962284
O O2 0.917790 0.499963 0.853019
O O3 0.706259 0.627689 0.898986
O O4 0.964466 0.829668 0.259197
O O5 0.281918 0.089353 0.497294
O O6 0.500000 0.000000 0.500000
O O7 0.340155 0.782607 0.110334
O O8 0.310350 0.789031 0.847083
O O9 0.691372 0.061678 0.239444
O O10 0.094142 0.751641 0.653801
O O11 0.500000 0.000000 0.000000
O O12 0.174690 0.303584 0.537282
O O13 0.055048 0.988599 0.061734
O O14 0.511818 0.753598 0.931344
O O15 0.243475 0.984086 0.223320
O O16 0.883034 0.714764 0.344665
O O17 0.181007 0.042996 0.722442
#
# Coordination Sequence:
#
# PCOD9104804 Si02
#       8
#     2   2   2   2   2   2   2   2
#     4  11  25  40  63  93 128 165 203 249 321 377
#     4  10  23  46  68  91 123 164 210 254 305 376
#     4   9  18  29  49  90 123 157 209 258 309 345
#     4  10  19  31  54  89 125 164 197 267 307 356
#     4  10  16  33  58  89 120 153 218 259 295 354
#     4  10  21  34  67  94 116 165 210 256 303 364
#     4  10  20  40  63  93 116 167 211 251 303 369
#     4  12  22  40  62  95 131 159 207 256 315 371
#
# _framework density 23.522046
#
# number of rings (size 3 to 8) (size 9 to 14) (size 15 to 20)
#    0.000    1.750    3.750    0.750    3.500    2.000 
#    0.000    1.250    0.000    1.500    0.000    0.000 
#    0.000    0.000    0.000    0.000    0.000    0.000 
#
# Total GULP energy -89293.254075 kJ/mol
# GULP energy per Si atom -5580.828380 kJ/mol
# Density = 2.346851 g / cm^3
# Si number density = 23.522046 Si / 1000 Ang^3
#
#
#
# Elastic Constant Matrix: (Units=GPa)
#
#
# Indices 1 2 3 4 5 6 
#
# 1 83.6201 36.5692 1.3292 12.3488 7.3824 -10.0824
# 2 36.5692 155.6415 3.1662 -1.8719 -8.2985 -48.0705
# 3 1.3292 3.1662 27.9230 5.3376 5.3972 -4.3493
# 4 12.3488 -1.8719 5.3376 39.9908 -7.3753 -3.3528
# 5 7.3824 -8.2985 5.3972 -7.3753 27.0318 3.8201
# 6 -10.0824 -48.0705 -4.3493 -3.3528 3.8201 55.1771
#
#
#
# Elastic Compliance Matrix: (Units=1/GPa)
#
#
# Indices 1 2 3 4 5 6 
#
# 1 0.015453 -0.004389 0.002469 -0.006806 -0.007822 -0.000678
# 2 -0.004389 0.010194 -0.001234 0.003471 0.004407 0.007888
# 3 0.002469 -0.001234 0.040078 -0.008081 -0.011663 0.002852
# 4 -0.006806 0.003471 -0.008081 0.030862 0.012656 0.002143
# 5 -0.007822 0.004407 -0.011663 0.012656 0.046399 -0.000953
# 6 -0.000678 0.007888 0.002852 0.002143 -0.000953 0.025293
#
#
# Mechanical properties :
#
#
# Convention : Reuss Voigt Hill
#
# Bulk Modulus (GPa) = 16.82969 38.81267 27.82118
# Shear Modulus (GPa) = 25.72112 39.51461 32.61786
#
# Velocity S-wave (km/s) = 3.31038 4.10310 3.72787
# Velocity P-wave (km/s) = 4.66711 6.24369 5.51206
#
# Compressibility (1/GPa) = 0.05941879
#
# Stress axis : x y z
#
# Youngs Moduli (GPa) = 64.71187 98.09368 24.95108
#
# Poissons Ratio (x) = 0.43056 -0.06162
# Poissons Ratio (y) = 0.28404 0.03078
# Poissons Ratio (z) = -0.15981 0.12102
#
# Static dielectric constant tensor:
#      x y z
#    x 2.517340 0.308530 0.002760 
#    y 0.308530 2.187470 -0.008330 
#    z 0.002760 -0.008330 1.905440 
# 
# From -- ./inp_files/584497.got.cif
#   From: 2010.05.17/outbox.cif.g08.bks.cpg/sg2_293_cif.got.tgz:584497.got - 2010.06.03 11:33:40.
