data_PCOD9104653
_publ_section_title
;
Structure prediction by ZEFSAII (Michael W. Deem and Ramdas Pophale) SiO2 
 PCOD9104653
Probable space group: P -1
;
_chemical_formula_sum "Si O2"
_cell_formula_units_Z 14
_cell_length_a 17.355763
_cell_length_b 11.736274
_cell_length_c 8.980558
_cell_angle_alpha 127.849311
_cell_angle_beta 38.069609
_cell_angle_gamma 149.202551
_cell_volume 566.032703
_symmetry_space_group_name_H-M "P -1"
_symmetry_group_IT_number 2
_symmetry_cell_setting 'triclinic'
loop_
_space_group_symop_operation_xyz
x,y,z
-x,-y,-z
loop_
_atom_site_type_symbol
_atom_site_label
_atom_site_fract_x
_atom_site_fract_y
_atom_site_fract_z
Si Si1 0.228743 0.189109 0.254496
Si Si2 0.310413 0.754586 0.240002
Si Si3 0.157660 0.522923 0.963931
Si Si4 0.095560 0.299771 0.332576
Si Si5 0.247751 0.906797 0.089765
Si Si6 0.155063 0.913600 0.737073
Si Si7 0.526671 0.437480 0.564450
O O1 0.231488 0.301742 0.203766
O O2 0.371076 0.370189 0.314515
O O3 0.275478 0.062977 0.058256
O O4 0.000000 0.000000 0.500000
O O5 0.214837 0.553417 0.334998
O O6 0.257898 0.866530 0.465185
O O7 0.214186 0.631994 0.130080
O O8 0.541398 0.933241 0.028853
O O9 0.320353 0.556640 0.688436
O O10 0.169508 0.680763 0.977388
O O11 0.962432 0.256074 0.079493
O O12 0.909675 0.170679 0.616133
O O13 0.007420 0.177005 0.208301
O O14 0.321524 0.181382 0.717257
O O15 0.500000 0.500000 0.500000
#
# Coordination Sequence:
#
# PCOD9104653 Si02
#       7
#     2   2   2   2   2   2   2
#     4  10  24  44  65  90 134 176 205 256 330 383
#     4  11  19  34  69  99 122 165 217 265 309 377
#     4  11  21  37  68  99 123 162 217 268 311 368
#     4  10  20  39  61  95 131 164 210 258 316 384
#     4  11  19  37  66  93 121 170 214 253 309 383
#     4  11  21  39  71  98 124 163 217 270 313 367
#     4  12  25  42  65  99 132 163 213 274 314 372
#
# _framework density 24.733552
#
# number of rings (size 3 to 8) (size 9 to 14) (size 15 to 20)
#    0.000    1.143    4.286    4.714    0.000    1.143 
#    0.000    9.286    0.000    0.000    0.000    0.000 
#    0.000    0.000    0.000    0.000    0.000    0.000 
#
# Total GULP energy -78429.176599 kJ/mol
# GULP energy per Si atom -5602.084043 kJ/mol
# Density = 2.467726 g / cm^3
# Si number density = 24.733552 Si / 1000 Ang^3
#
#
#
# Elastic Constant Matrix: (Units=GPa)
#
#
# Indices 1 2 3 4 5 6 
#
# 1 165.9274 100.1719 32.6713 27.1244 -18.1444 -18.1195
# 2 100.1719 215.8738 35.1909 -7.0135 -0.2253 5.0981
# 3 32.6713 35.1909 69.8358 5.7555 -20.9708 0.1278
# 4 27.1244 -7.0135 5.7555 39.1441 -1.6431 -1.6710
# 5 -18.1444 -0.2253 -20.9708 -1.6431 19.1344 9.4812
# 6 -18.1195 5.0981 0.1278 -1.6710 9.4812 47.4397
#
#
#
# Elastic Compliance Matrix: (Units=1/GPa)
#
#
# Indices 1 2 3 4 5 6 
#
# 1 0.012888 -0.006610 0.001566 -0.009734 0.011549 0.002978
# 2 -0.006610 0.008738 -0.005002 0.006391 -0.010545 -0.001118
# 3 0.001566 -0.005002 0.026308 -0.004720 0.032641 -0.005625
# 4 -0.009734 0.006391 -0.004720 0.033628 -0.010933 -0.001022
# 5 0.011549 -0.010545 0.032641 -0.010933 0.105898 -0.016093
# 6 0.002978 -0.001118 -0.005625 -0.001022 -0.016093 0.025532
#
#
# Mechanical properties :
#
#
# Convention : Reuss Voigt Hill
#
# Bulk Modulus (GPa) = 35.91637 87.52280 61.71958
# Shear Modulus (GPa) = 20.62995 40.05050 30.34022
#
# Velocity S-wave (km/s) = 2.89119 4.02839 3.50620
# Velocity P-wave (km/s) = 5.06933 7.55648 6.43422
#
# Compressibility (1/GPa) = 0.02784246
#
# Stress axis : x y z
#
# Youngs Moduli (GPa) = 77.58970 114.44061 38.01125
#
# Poissons Ratio (x) = 0.75650 -0.05953
# Poissons Ratio (y) = 0.51290 0.19012
# Poissons Ratio (z) = -0.12152 0.57241
#
# Static dielectric constant tensor:
#      x y z
#    x 2.000550 -0.057480 0.036370 
#    y -0.057480 1.992900 -0.032280 
#    z 0.036370 -0.032280 1.933560 
# 
# From -- ./inp_files/175276.got.cif
#   From: 2010.05.17/outbox.cif.g08.bks.cpg/sg2_88_cif.got.tgz:175276.got - 2010.06.03 11:33:40.
