data_PCOD9104157
_publ_section_title
;
Structure prediction by ZEFSAII (Michael W. Deem and Ramdas Pophale) SiO2 
 PCOD9104157
Probable space group: P -1
;
_chemical_formula_sum "Si O2"
_cell_formula_units_Z 16
_cell_length_a 11.059082
_cell_length_b 13.402726
_cell_length_c 5.074397
_cell_angle_alpha 83.591494
_cell_angle_beta 80.061306
_cell_angle_gamma 67.910205
_cell_volume 685.567975
_symmetry_space_group_name_H-M "P -1"
_symmetry_group_IT_number 2
_symmetry_cell_setting 'triclinic'
loop_
_space_group_symop_operation_xyz
x,y,z
-x,-y,-z
loop_
_atom_site_type_symbol
_atom_site_label
_atom_site_fract_x
_atom_site_fract_y
_atom_site_fract_z
Si Si1 0.615885 0.439172 0.174767
Si Si2 0.130727 0.246560 0.317060
Si Si3 0.859096 0.983891 0.551891
Si Si4 0.672577 0.030937 0.123172
Si Si5 0.438193 0.353261 0.498426
Si Si6 0.104693 0.584185 0.909564
Si Si7 0.168440 0.439990 0.407984
Si Si8 0.403156 0.168243 0.920975
O O1 0.579269 0.341836 0.338282
O O2 0.599440 0.537709 0.348818
O O3 0.766628 0.393435 0.045341
O O4 0.500000 0.500000 0.000000
O O5 0.377260 0.070825 0.804153
O O6 0.128349 0.337154 0.503017
O O7 0.272202 0.212487 0.133792
O O8 0.017418 0.307825 0.132164
O O9 0.751895 0.042801 0.348046
O O10 0.890269 0.856801 0.530832
O O11 0.777657 0.010940 0.849670
O O12 0.000000 0.000000 0.500000
O O13 0.535544 0.124302 0.061792
O O14 0.324586 0.389260 0.310529
O O15 0.421519 0.257090 0.695542
O O16 0.140101 0.521445 0.635774
O O17 0.097224 0.500356 0.156819
#
# Coordination Sequence:
#
# PCOD9104157 Si02
#       8
#     2   2   2   2   2   2   2   2
#     4  10  20  39  58  87 133 172 213 264 317 387
#     4  11  24  42  67  98 131 174 225 278 335 403
#     4  11  25  47  71 100 137 178 219 280 346 409
#     4  10  24  47  71 100 137 169 226 287 343 399
#     4  10  21  37  63  91 123 175 219 264 323 390
#     4  11  24  40  63  96 134 177 218 272 331 394
#     4  11  22  40  63  94 134 171 220 273 331 389
#     4  10  23  43  70 101 129 178 228 286 338 395
#
# _framework density 23.338315000000001
#
# number of rings (size 3 to 8) (size 9 to 14) (size 15 to 20)
#    0.000    1.500    1.250    3.375    0.000   10.500 
#    2.250    0.000    0.000    0.000    0.000    0.000 
#    0.000    0.000    0.000    0.000    0.000    0.000 
#
# Total GULP energy -89392.674491 kJ/mol
# GULP energy per Si atom -5587.042156 kJ/mol
# Density = 2.328520 g / cm^3
# Si number density = 23.338315 Si / 1000 Ang^3
#
#
#
# Elastic Constant Matrix: (Units=GPa)
#
#
# Indices 1 2 3 4 5 6 
#
# 1 195.4199 44.6252 40.1959 -32.2208 4.9240 7.1413
# 2 44.6252 57.2688 26.2650 -22.1456 -0.1057 -1.0642
# 3 40.1959 26.2650 89.6472 -16.9657 7.9676 10.4786
# 4 -32.2208 -22.1456 -16.9657 34.5885 8.9511 0.2766
# 5 4.9240 -0.1057 7.9676 8.9511 47.8481 -5.5535
# 6 7.1413 -1.0642 10.4786 0.2766 -5.5535 32.0583
#
#
#
# Elastic Compliance Matrix: (Units=1/GPa)
#
#
# Indices 1 2 3 4 5 6 
#
# 1 0.006865 -0.003303 -0.000991 0.004201 -0.001522 -0.001615
# 2 -0.003303 0.026754 -0.004314 0.012128 -0.000828 0.002786
# 3 -0.000991 -0.004314 0.014703 0.004563 -0.003840 -0.005433
# 4 0.004201 0.012128 0.004563 0.045491 -0.010160 -0.004177
# 5 -0.001522 -0.000828 -0.003840 -0.010160 0.024275 0.005860
# 6 -0.001615 0.002786 -0.005433 -0.004177 0.005860 0.034472
#
#
# Mechanical properties :
#
#
# Convention : Reuss Voigt Hill
#
# Bulk Modulus (GPa) = 32.14882 62.72310 47.43596
# Shear Modulus (GPa) = 27.75499 38.31562 33.03531
#
# Velocity S-wave (km/s) = 3.45229 4.05624 3.76639
# Velocity P-wave (km/s) = 5.44941 6.99081 6.26767
#
# Compressibility (1/GPa) = 0.03110534
#
# Stress axis : x y z
#
# Youngs Moduli (GPa) = 145.65641 37.37698 68.01177
#
# Poissons Ratio (x) = 0.12347 0.06743
# Poissons Ratio (y) = 0.48115 0.29341
# Poissons Ratio (z) = 0.14441 0.16125
#
# Static dielectric constant tensor:
#      x y z
#    x 1.991150 0.018340 -0.007620 
#    y 0.018340 1.912260 0.020110 
#    z -0.007620 0.020110 1.904350 
# 
# From -- ./inp_files/79586.got.cif
#   From: 2010.05.17/outbox.cif.g08.bks.cpg/sg2_40_cif.got.tgz:79586.got - 2010.06.03 11:33:40.
