data_PCOD9104352
_publ_section_title
;
Structure prediction by ZEFSAII (Michael W. Deem and Ramdas Pophale) SiO2 
 PCOD9104352
Probable space group: P -1
;
_chemical_formula_sum "Si O2"
_cell_formula_units_Z 14
_cell_length_a 19.571504
_cell_length_b 7.551670
_cell_length_c 11.000134
_cell_angle_alpha 123.665246
_cell_angle_beta 35.072978
_cell_angle_gamma 141.466169
_cell_volume 565.003017
_symmetry_space_group_name_H-M "P -1"
_symmetry_group_IT_number 2
_symmetry_cell_setting 'triclinic'
loop_
_space_group_symop_operation_xyz
x,y,z
-x,-y,-z
loop_
_atom_site_type_symbol
_atom_site_label
_atom_site_fract_x
_atom_site_fract_y
_atom_site_fract_z
Si Si1 0.063830 0.936510 0.227594
Si Si2 0.957180 0.644429 0.701233
Si Si3 0.728144 0.417466 0.589871
Si Si4 0.426247 0.510366 0.351731
Si Si5 0.268170 0.936897 0.757184
Si Si6 0.352865 0.591462 0.045985
Si Si7 0.160046 0.071930 0.755634
O O1 0.921755 0.699166 0.435684
O O2 0.237078 0.250593 0.132769
O O3 0.993920 0.059223 0.305900
O O4 0.114267 0.798242 0.017017
O O5 0.000000 0.500000 0.500000
O O6 0.758847 0.429616 0.901783
O O7 0.072599 0.767983 0.697561
O O8 0.635955 0.503919 0.695887
O O9 0.639378 0.258191 0.786046
O O10 0.726004 0.250929 0.415845
O O11 0.571266 0.842335 0.311436
O O12 0.281861 0.348726 0.598107
O O13 0.489750 0.344385 0.199647
O O14 0.258973 0.125319 0.750248
O O15 0.000000 0.000000 0.000000
#
# Coordination Sequence:
#
# PCOD9104352 Si02
#       7
#     2   2   2   2   2   2   2
#     4   9  20  38  60  85 122 152 195 250 289 339
#     4  10  20  39  60  88 119 151 202 247 291 352
#     4  12  20  38  63  87 118 162 200 235 294 356
#     4  11  22  41  59  83 126 159 191 249 297 346
#     4  11  23  37  59  92 120 156 199 245 290 355
#     4   9  21  38  59  86 118 158 195 244 296 345
#     4  12  21  41  64  86 115 160 195 246 303 350
#
# _framework density 24.778628999999999
#
# number of rings (size 3 to 8) (size 9 to 14) (size 15 to 20)
#    0.857    0.571    2.857    3.000    0.000    0.000 
#    0.000    4.286    0.000    0.000    0.000    0.000 
#    0.000    0.000    0.000    0.000    0.000    0.000 
#
# Total GULP energy -78052.344672 kJ/mol
# GULP energy per Si atom -5575.167477 kJ/mol
# Density = 2.472223 g / cm^3
# Si number density = 24.778629 Si / 1000 Ang^3
#
#
#
# Elastic Constant Matrix: (Units=GPa)
#
#
# Indices 1 2 3 4 5 6 
#
# 1 55.5677 -5.4479 -24.1007 -9.5880 -8.3054 11.7206
# 2 -5.4479 53.7476 21.7277 11.5162 -8.7564 15.0004
# 3 -24.1007 21.7277 97.5775 26.0037 -3.1980 3.8210
# 4 -9.5880 11.5162 26.0037 29.7785 3.9801 2.6997
# 5 -8.3054 -8.7564 -3.1980 3.9801 34.3529 6.5444
# 6 11.7206 15.0004 3.8210 2.6997 6.5444 30.4006
#
#
#
# Elastic Compliance Matrix: (Units=1/GPa)
#
#
# Indices 1 2 3 4 5 6 
#
# 1 0.026766 0.006871 0.005951 0.000717 0.011950 -0.017094
# 2 0.006871 0.029083 -0.001519 -0.007783 0.013457 -0.019014
# 3 0.005951 -0.001519 0.015304 -0.011141 0.004421 -0.003431
# 4 0.000717 -0.007783 -0.011141 0.047493 -0.008856 0.002653
# 5 0.011950 0.013457 0.004421 -0.008856 0.040632 -0.019763
# 6 -0.017094 -0.019014 -0.003431 0.002653 -0.019763 0.053317
#
#
# Mechanical properties :
#
#
# Convention : Reuss Voigt Hill
#
# Bulk Modulus (GPa) = 10.66553 21.25011 15.95782
# Shear Modulus (GPa) = 22.59976 33.22065 27.91021
#
# Velocity S-wave (km/s) = 3.02332 3.66553 3.35980
# Velocity P-wave (km/s) = 4.06214 5.14873 4.63737
#
# Compressibility (1/GPa) = 0.09375997
#
# Stress axis : x y z
#
# Youngs Moduli (GPa) = 37.36073 34.38476 65.34039
#
# Poissons Ratio (x) = -0.23627 -0.38884
# Poissons Ratio (y) = -0.25672 0.09925
# Poissons Ratio (z) = -0.22233 0.05223
#
# Static dielectric constant tensor:
#      x y z
#    x 1.976390 0.053650 0.025340 
#    y 0.053650 2.068780 0.090600 
#    z 0.025340 0.090600 2.080170 
# 
# From -- ./inp_files/470112.got.cif
#   From: 2010.05.17/outbox.cif.g08.bks.cpg/sg2_236_cif.got.tgz:470112.got - 2010.06.03 11:33:40.
