data_PCOD9104533
_publ_section_title
;
Structure prediction by ZEFSAII (Michael W. Deem and Ramdas Pophale) SiO2 
 PCOD9104533
Probable space group: P -1
;
_chemical_formula_sum "Si O2"
_cell_formula_units_Z 14
_cell_length_a 11.798876
_cell_length_b 6.352308
_cell_length_c 10.973753
_cell_angle_alpha 80.284899
_cell_angle_beta 79.047170
_cell_angle_gamma 47.988117
_cell_volume 599.002740
_symmetry_space_group_name_H-M "P -1"
_symmetry_group_IT_number 2
_symmetry_cell_setting 'triclinic'
loop_
_space_group_symop_operation_xyz
x,y,z
-x,-y,-z
loop_
_atom_site_type_symbol
_atom_site_label
_atom_site_fract_x
_atom_site_fract_y
_atom_site_fract_z
Si Si1 0.005493 0.745448 0.509656
Si Si2 0.671053 0.808933 0.161301
Si Si3 0.757306 0.034474 0.320968
Si Si4 0.217011 0.266616 0.344428
Si Si5 0.621990 0.572347 0.864885
Si Si6 0.476206 0.640174 0.299866
Si Si7 0.840556 0.257045 0.068019
O O1 0.934397 0.699727 0.641626
O O2 0.168285 0.474156 0.448492
O O3 0.881919 0.857978 0.416351
O O4 0.000000 0.000000 0.500000
O O5 0.576829 0.708182 0.215774
O O6 0.814279 0.538014 0.084097
O O7 0.720297 0.865523 0.269833
O O8 0.544919 0.123223 0.099161
O O9 0.598055 0.335475 0.368653
O O10 0.822634 0.122761 0.199876
O O11 0.274553 0.360591 0.220262
O O12 0.349596 0.930738 0.368028
O O13 0.599578 0.417357 0.782652
O O14 0.708177 0.378974 0.983226
O O15 0.000000 0.000000 0.000000
#
# Coordination Sequence:
#
# PCOD9104533 Si02
#       7
#     2   2   2   2   2   2   2
#     4  11  24  42  62  85 118 155 194 243 296 351
#     4   9  21  39  59  86 120 158 195 238 291 346
#     4  10  23  41  60  87 118 152 197 244 293 345
#     4  10  22  38  62  88 114 155 195 237 291 348
#     4  10  20  39  61  88 120 156 198 235 288 347
#     4   9  20  39  63  88 118 153 197 245 285 343
#     4  11  23  36  59  90 122 156 193 242 288 344
#
# _framework density 23.37218
#
# number of rings (size 3 to 8) (size 9 to 14) (size 15 to 20)
#    0.000    2.000    0.000    2.143    0.000   14.286 
#    0.000    7.143    0.000    0.000    0.000    0.000 
#    0.000    0.000    0.000    0.000    0.000    0.000 
#
# Total GULP energy -78116.562508 kJ/mol
# GULP energy per Si atom -5579.754465 kJ/mol
# Density = 2.331898 g / cm^3
# Si number density = 23.372180 Si / 1000 Ang^3
#
#
#
# Elastic Constant Matrix: (Units=GPa)
#
#
# Indices 1 2 3 4 5 6 
#
# 1 67.5582 42.6010 16.3761 10.4581 5.0352 13.8455
# 2 42.6010 174.3438 45.3945 51.9263 5.8515 -1.0579
# 3 16.3761 45.3945 61.1154 5.6740 -10.8976 -11.0797
# 4 10.4581 51.9263 5.6740 49.0541 -11.4407 -1.0791
# 5 5.0352 5.8515 -10.8976 -11.4407 36.6267 -7.2093
# 6 13.8455 -1.0579 -11.0797 -1.0791 -7.2093 45.4171
#
#
#
# Elastic Compliance Matrix: (Units=1/GPa)
#
#
# Indices 1 2 3 4 5 6 
#
# 1 0.020711 -0.002197 -0.006584 -0.003227 -0.007275 -0.009203
# 2 -0.002197 0.014356 -0.011273 -0.016109 -0.011145 -0.003898
# 3 -0.006584 -0.011273 0.030806 0.014450 0.018865 0.012598
# 4 -0.003227 -0.016109 0.014450 0.041792 0.022069 0.008630
# 5 -0.007275 -0.011145 0.018865 0.022069 0.045403 0.014292
# 6 -0.009203 -0.003898 0.012598 0.008630 0.014292 0.030280
#
#
# Mechanical properties :
#
#
# Convention : Reuss Voigt Hill
#
# Bulk Modulus (GPa) = 38.81056 56.86228 47.83642
# Shear Modulus (GPa) = 21.54773 39.46263 30.50518
#
# Velocity S-wave (km/s) = 3.03964 4.11353 3.61666
# Velocity P-wave (km/s) = 5.38152 6.85152 6.16052
#
# Compressibility (1/GPa) = 0.02576618
#
# Stress axis : x y z
#
# Youngs Moduli (GPa) = 48.28336 69.65626 32.46140
#
# Poissons Ratio (x) = 0.15304 0.21371
# Poissons Ratio (y) = 0.10608 0.36593
# Poissons Ratio (z) = 0.31788 0.78523
#
# Static dielectric constant tensor:
#      x y z
#    x 1.915170 -0.013160 -0.051310 
#    y -0.013160 1.961010 0.055840 
#    z -0.051310 0.055840 1.939300 
# 
# From -- ./inp_files/39629.got.cif
#   From: 2010.05.17/outbox.cif.g08.bks.cpg/sg2_20_cif.got.tgz:39629.got - 2010.06.03 11:33:40.
