data_PCOD9104721
_publ_section_title
;
Structure prediction by ZEFSAII (Michael W. Deem and Ramdas Pophale) SiO2 
 PCOD9104721
Probable space group: P -1
;
_chemical_formula_sum "Si O2"
_cell_formula_units_Z 16
_cell_length_a 8.008355
_cell_length_b 10.323708
_cell_length_c 14.002479
_cell_angle_alpha 45.511765
_cell_angle_beta 84.005890
_cell_angle_gamma 58.090872
_cell_volume 629.835738
_symmetry_space_group_name_H-M "P -1"
_symmetry_group_IT_number 2
_symmetry_cell_setting 'triclinic'
loop_
_space_group_symop_operation_xyz
x,y,z
-x,-y,-z
loop_
_atom_site_type_symbol
_atom_site_label
_atom_site_fract_x
_atom_site_fract_y
_atom_site_fract_z
Si Si1 0.096619 0.520640 0.627229
Si Si2 0.108874 0.686197 0.338679
Si Si3 0.494620 0.547205 0.813922
Si Si4 0.190090 0.248116 0.030588
Si Si5 0.936595 0.126342 0.232486
Si Si6 0.214751 0.013135 0.462976
Si Si7 0.418667 0.771165 0.173413
Si Si8 0.737485 0.700805 0.804007
O O1 0.170522 0.528008 0.511287
O O2 0.325326 0.381793 0.740502
O O3 0.988414 0.394623 0.687510
O O4 0.921972 0.776802 0.557703
O O5 0.295305 0.695225 0.281368
O O6 0.937101 0.942781 0.265803
O O7 0.306993 0.646685 0.849361
O O8 0.594822 0.295745 0.897291
O O9 0.671553 0.558847 0.837041
O O10 0.366678 0.753198 0.633154
O O11 0.330189 0.233859 0.115750
O O12 0.058999 0.187493 0.130174
O O13 0.310899 0.041541 0.054531
O O14 0.003717 0.517265 0.870792
O O15 0.066969 0.031326 0.375957
O O16 0.355302 0.067849 0.370283
#
# Coordination Sequence:
#
# PCOD9104721 Si02
#       8
#     2   2   2   2   2   2   2   2
#     4  11  21  36  60  89 131 164 202 255 318 372
#     4  10  22  36  56  90 129 163 204 253 309 376
#     4  12  22  36  65  97 120 161 203 254 323 373
#     4   9  23  45  62  85 124 167 210 258 300 364
#     4  10  20  39  62  86 125 162 199 256 310 370
#     4  11  21  39  61  92 132 156 197 262 317 374
#     4  11  23  39  62  93 123 166 208 255 317 366
#     4  10  23  41  66  87 122 166 213 252 308 370
#
# _framework density 25.403449999999999
#
# number of rings (size 3 to 8) (size 9 to 14) (size 15 to 20)
#    0.000    1.500    2.500    2.625    1.750    3.000 
#    0.000    0.625    0.000    0.000    0.000    0.000 
#    0.000    0.000    0.000    0.000    0.000    0.000 
#
# Total GULP energy -89473.498613 kJ/mol
# GULP energy per Si atom -5592.093663 kJ/mol
# Density = 2.534563 g / cm^3
# Si number density = 25.403450 Si / 1000 Ang^3
#
#
#
# Elastic Constant Matrix: (Units=GPa)
#
#
# Indices 1 2 3 4 5 6 
#
# 1 97.3585 50.5051 23.9702 5.3662 -0.9679 21.8961
# 2 50.5051 174.1433 17.3586 -28.0088 -6.9427 23.6879
# 3 23.9702 17.3586 62.8893 3.9159 -14.9133 8.7486
# 4 5.3662 -28.0088 3.9159 29.4654 5.4971 -11.1533
# 5 -0.9679 -6.9427 -14.9133 5.4971 23.9506 1.0942
# 6 21.8961 23.6879 8.7486 -11.1533 1.0942 46.3082
#
#
#
# Elastic Compliance Matrix: (Units=1/GPa)
#
#
# Indices 1 2 3 4 5 6 
#
# 1 0.015544 -0.004830 -0.003159 -0.009429 -0.000276 -0.006547
# 2 -0.004830 0.008756 -0.001428 0.009704 -0.000793 0.000431
# 3 -0.003159 -0.001428 0.022274 -0.008262 0.015422 -0.004338
# 4 -0.009429 0.009704 -0.008262 0.054443 -0.015873 0.014543
# 5 -0.000276 -0.000793 0.015422 -0.015873 0.055100 -0.007502
# 6 -0.006547 0.000431 -0.004338 0.014543 -0.007502 0.028969
#
#
# Mechanical properties :
#
#
# Convention : Reuss Voigt Hill
#
# Bulk Modulus (GPa) = 36.04883 57.56209 46.80546
# Shear Modulus (GPa) = 23.45562 36.11532 29.78547
#
# Velocity S-wave (km/s) = 3.04192 3.77459 3.42789
# Velocity P-wave (km/s) = 5.15355 6.45795 5.84227
#
# Compressibility (1/GPa) = 0.02774015
#
# Stress axis : x y z
#
# Youngs Moduli (GPa) = 64.33299 114.20532 44.89501
#
# Poissons Ratio (x) = 0.55164 0.14182
# Poissons Ratio (y) = 0.31075 0.06411
# Poissons Ratio (z) = 0.20322 0.16308
#
# Static dielectric constant tensor:
#      x y z
#    x 2.021350 0.000800 -0.027610 
#    y 0.000800 2.014050 0.054020 
#    z -0.027610 0.054020 2.039710 
# 
# From -- ./inp_files/186916.got.cif
#   From: 2010.05.17/outbox.cif.g08.bks.cpg/sg2_94_cif.got.tgz:186916.got - 2010.06.03 11:33:40.
