data_PCOD9104497
_publ_section_title
;
Structure prediction by ZEFSAII (Michael W. Deem and Ramdas Pophale) SiO2 
 PCOD9104497
Probable space group: P -1
;
_chemical_formula_sum "Si O2"
_cell_formula_units_Z 16
_cell_length_a 6.899847
_cell_length_b 18.846430
_cell_length_c 17.328528
_cell_angle_alpha 156.214008
_cell_angle_beta 64.228678
_cell_angle_gamma 128.473071
_cell_volume 643.724040
_symmetry_space_group_name_H-M "P -1"
_symmetry_group_IT_number 2
_symmetry_cell_setting 'triclinic'
loop_
_space_group_symop_operation_xyz
x,y,z
-x,-y,-z
loop_
_atom_site_type_symbol
_atom_site_label
_atom_site_fract_x
_atom_site_fract_y
_atom_site_fract_z
Si Si1 0.355084 0.598398 0.299637
Si Si2 0.458115 0.722528 0.652284
Si Si3 0.686439 0.803185 0.149494
Si Si4 0.997454 0.664682 0.769244
Si Si5 0.861972 0.277805 0.856721
Si Si6 0.355966 0.093729 0.579539
Si Si7 0.586143 0.010482 0.776662
Si Si8 0.025160 0.948342 0.793102
O O1 0.076329 0.455310 0.253952
O O2 0.406638 0.703811 0.312106
O O3 0.545347 0.815020 0.536460
O O4 0.416979 0.425181 0.101669
O O5 0.239952 0.516083 0.429315
O O6 0.279869 0.728165 0.753552
O O7 0.595935 0.946727 0.799006
O O8 0.713023 0.730324 0.642766
O O9 0.453422 0.826403 0.197375
O O10 0.720783 0.814672 0.246505
O O11 0.940189 0.003254 0.256922
O O12 0.967506 0.859832 0.974255
O O13 0.847632 0.235741 0.911354
O O14 0.882687 0.111926 0.636317
O O15 0.000000 0.500000 0.000000
O O16 0.500000 0.000000 0.500000
O O17 0.294020 0.969849 0.787872
#
# Coordination Sequence:
#
# PCOD9104497 Si02
#       8
#     2   2   2   2   2   2   2   2
#     4   9  17  35  57  75 117 152 183 245 298 331
#     4  10  20  40  63  88 118 159 200 243 306 356
#     4   9  18  34  55  82 110 155 194 239 291 357
#     4   9  20  38  61  88 121 151 199 256 288 360
#     4   9  18  36  54  78 120 155 188 248 294 336
#     4   9  17  32  53  78 110 149 191 232 287 349
#     4   9  20  38  59  86 122 156 198 249 291 355
#     4  10  20  39  61  85 126 156 195 249 301 345
#
# _framework density 24.855370000000001
#
# number of rings (size 3 to 8) (size 9 to 14) (size 15 to 20)
#    0.000    2.750    0.000    1.500    0.000    0.500 
#   20.250   10.625    0.000    0.000    0.000    0.000 
#    0.000    0.000    0.000    0.000    0.000    0.000 
#
# Total GULP energy -89126.046519 kJ/mol
# GULP energy per Si atom -5570.377907 kJ/mol
# Density = 2.479880 g / cm^3
# Si number density = 24.855370 Si / 1000 Ang^3
#
#
#
# Elastic Constant Matrix: (Units=GPa)
#
#
# Indices 1 2 3 4 5 6 
#
# 1 60.8964 15.2968 8.7259 -11.7452 -1.1975 19.9918
# 2 15.2968 137.8920 32.4997 -17.9541 0.6329 13.0639
# 3 8.7259 32.4997 98.3308 -17.5898 -4.5767 13.7370
# 4 -11.7452 -17.9541 -17.5898 44.9294 4.7846 0.4469
# 5 -1.1975 0.6329 -4.5767 4.7846 23.0943 -0.7390
# 6 19.9918 13.0639 13.7370 0.4469 -0.7390 37.6504
#
#
#
# Elastic Compliance Matrix: (Units=1/GPa)
#
#
# Indices 1 2 3 4 5 6 
#
# 1 0.021367 -0.000754 0.000991 0.005813 -0.000248 -0.011519
# 2 -0.000754 0.008316 -0.002046 0.002475 -0.001243 -0.001792
# 3 0.000991 -0.002046 0.012156 0.004079 0.001535 -0.004269
# 4 0.005813 0.002475 0.004079 0.026924 -0.004723 -0.005846
# 5 -0.000248 -0.001243 0.001535 -0.004723 0.044634 0.000935
# 6 -0.011519 -0.001792 -0.004269 -0.005846 0.000935 0.034944
#
#
# Mechanical properties :
#
#
# Convention : Reuss Voigt Hill
#
# Bulk Modulus (GPa) = 26.16547 45.57378 35.86962
# Shear Modulus (GPa) = 30.35828 37.17463 33.76645
#
# Velocity S-wave (km/s) = 3.49864 3.87154 3.68981
# Velocity P-wave (km/s) = 5.18369 6.19359 5.71100
#
# Compressibility (1/GPa) = 0.03821831
#
# Stress axis : x y z
#
# Youngs Moduli (GPa) = 46.80162 120.25374 82.26552
#
# Poissons Ratio (x) = 0.09073 -0.08151
# Poissons Ratio (y) = 0.03531 0.16834
# Poissons Ratio (z) = -0.04637 0.24608
#
# Static dielectric constant tensor:
#      x y z
#    x 2.104990 -0.128070 0.030100 
#    y -0.128070 2.085670 0.071300 
#    z 0.030100 0.071300 2.112290 
# 
# From -- ./inp_files/211887.got.cif
#   From: 2010.05.17/outbox.cif.g08.bks.cpg/sg2_106_cif.got.tgz:211887.got - 2010.06.03 11:33:40.
