data_PCOD9104555
_publ_section_title
;
Structure prediction by ZEFSAII (Michael W. Deem and Ramdas Pophale) SiO2 
 PCOD9104555
Probable space group: P -1
;
_chemical_formula_sum "Si O2"
_cell_formula_units_Z 16
_cell_length_a 10.550872
_cell_length_b 12.507286
_cell_length_c 13.950748
_cell_angle_alpha 149.865732
_cell_angle_beta 52.432052
_cell_angle_gamma 118.333107
_cell_volume 726.113874
_symmetry_space_group_name_H-M "P -1"
_symmetry_group_IT_number 2
_symmetry_cell_setting 'triclinic'
loop_
_space_group_symop_operation_xyz
x,y,z
-x,-y,-z
loop_
_atom_site_type_symbol
_atom_site_label
_atom_site_fract_x
_atom_site_fract_y
_atom_site_fract_z
Si Si1 0.469684 0.026228 0.145798
Si Si2 0.129983 0.675194 0.736042
Si Si3 0.009678 0.747475 0.316968
Si Si4 0.316021 0.438591 0.636433
Si Si5 0.096661 0.656573 0.423906
Si Si6 0.687481 0.330995 0.995011
Si Si7 0.825910 0.010453 0.205736
Si Si8 0.618787 0.723491 0.995368
O O1 0.434815 0.262677 0.388118
O O2 0.311489 0.913077 0.157235
O O3 0.500000 0.000000 0.000000
O O4 0.608253 0.878609 0.026680
O O5 0.243075 0.614972 0.728836
O O6 0.201697 0.798052 0.711377
O O7 0.060919 0.457519 0.564486
O O8 0.974420 0.836572 0.968219
O O9 0.081404 0.694320 0.347582
O O10 0.138335 0.632800 0.092866
O O11 0.836196 0.669184 0.337773
O O12 0.000000 0.000000 0.500000
O O13 0.383045 0.532562 0.774971
O O14 0.120613 0.874206 0.635301
O O15 0.250916 0.481756 0.236819
O O16 0.559562 0.346032 0.978179
O O17 0.674694 0.874756 0.170533
#
# Coordination Sequence:
#
# PCOD9104555 Si02
#       8
#     2   2   2   2   2   2   2   2
#     4  10  24  41  61  95 133 164 210 256 308 380
#     4   9  22  36  59  96 121 161 218 252 314 376
#     4  11  22  45  66  93 122 161 221 273 314 364
#     4  11  23  40  69  93 124 172 207 264 326 358
#     4  10  22  39  64  87 125 166 208 264 315 366
#     4  10  24  41  64  91 129 167 215 260 310 377
#     4  10  20  39  61  88 130 166 206 257 313 379
#     4   9  23  40  58  92 127 165 209 249 309 383
#
# _framework density 22.035112000000002
#
# number of rings (size 3 to 8) (size 9 to 14) (size 15 to 20)
#    0.750    1.250    1.250    0.750    7.000    1.000 
#    4.500    0.625    0.000    0.000    0.000    0.000 
#    0.000    0.000    0.000    0.000    0.000    0.000 
#
# Total GULP energy -89291.070787 kJ/mol
# GULP energy per Si atom -5580.691924 kJ/mol
# Density = 2.198496 g / cm^3
# Si number density = 22.035112 Si / 1000 Ang^3
#
#
#
# Elastic Constant Matrix: (Units=GPa)
#
#
# Indices 1 2 3 4 5 6 
#
# 1 68.8120 19.3514 23.4076 10.1295 6.2688 8.2953
# 2 19.3514 48.2956 3.7455 1.4079 -4.1037 7.3083
# 3 23.4076 3.7455 109.5756 2.2952 22.4915 5.5192
# 4 10.1295 1.4079 2.2952 17.2646 -0.0923 -4.3308
# 5 6.2688 -4.1037 22.4915 -0.0923 32.6191 10.5588
# 6 8.2953 7.3083 5.5192 -4.3308 10.5588 36.7112
#
#
#
# Elastic Compliance Matrix: (Units=1/GPa)
#
#
# Indices 1 2 3 4 5 6 
#
# 1 0.019862 -0.006924 -0.003323 -0.011560 -0.001260 -0.003611
# 2 -0.006924 0.024795 -0.000444 0.000870 0.006391 -0.005040
# 3 -0.003323 -0.000444 0.011343 0.000799 -0.007704 0.001444
# 4 -0.011560 0.000870 0.000799 0.067197 -0.001485 0.010673
# 5 -0.001260 0.006391 -0.007704 -0.001485 0.040812 -0.011743
# 6 -0.003611 -0.005040 0.001444 0.010673 -0.011743 0.033478
#
#
# Mechanical properties :
#
#
# Convention : Reuss Voigt Hill
#
# Bulk Modulus (GPa) = 28.88877 35.52136 32.20507
# Shear Modulus (GPa) = 21.70045 29.33088 25.51567
#
# Velocity S-wave (km/s) = 3.14158 3.65238 3.40657
# Velocity P-wave (km/s) = 5.12817 5.82596 5.48817
#
# Compressibility (1/GPa) = 0.03461553
#
# Stress axis : x y z
#
# Youngs Moduli (GPa) = 50.34750 40.33053 88.15974
#
# Poissons Ratio (x) = 0.27926 0.29300
# Poissons Ratio (y) = 0.34862 0.03918
# Poissons Ratio (z) = 0.16733 0.01792
#
# Static dielectric constant tensor:
#      x y z
#    x 1.835160 0.049250 0.025020 
#    y 0.049250 1.840830 0.034630 
#    z 0.025020 0.034630 1.793690 
# 
# From -- ./inp_files/429214.got.cif
#   From: 2010.05.17/outbox.cif.g08.bks.cpg/sg2_215_cif.got.tgz:429214.got - 2010.06.03 11:33:40.
