data_PCOD9104075
_publ_section_title
;
Structure prediction by ZEFSAII (Michael W. Deem and Ramdas Pophale) SiO2 
 PCOD9104075
Probable space group: P -1
;
_chemical_formula_sum "Si O2"
_cell_formula_units_Z 14
_cell_length_a 8.856077
_cell_length_b 5.300899
_cell_length_c 28.607919
_cell_angle_alpha 99.429452
_cell_angle_beta 29.080188
_cell_angle_gamma 103.168913
_cell_volume 633.811347
_symmetry_space_group_name_H-M "P -1"
_symmetry_group_IT_number 2
_symmetry_cell_setting 'triclinic'
loop_
_space_group_symop_operation_xyz
x,y,z
-x,-y,-z
loop_
_atom_site_type_symbol
_atom_site_label
_atom_site_fract_x
_atom_site_fract_y
_atom_site_fract_z
Si Si1 0.735165 0.366994 0.811356
Si Si2 0.167984 0.697294 0.313507
Si Si3 0.497051 0.488540 0.289311
Si Si4 0.326396 0.795560 0.914920
Si Si5 0.891863 0.964460 0.107992
Si Si6 0.847638 0.593114 0.888658
Si Si7 0.210933 0.968786 0.397760
O O1 0.961298 0.348496 0.704896
O O2 0.496026 0.548672 0.861849
O O3 0.857559 0.517267 0.829518
O O4 0.569589 0.072981 0.860091
O O5 0.249593 0.448107 0.311628
O O6 0.526628 0.858309 0.214531
O O7 0.021504 0.854862 0.398166
O O8 0.423555 0.747379 0.341630
O O9 0.854010 0.523416 0.176059
O O10 0.418977 0.242282 0.336179
O O11 0.129714 0.828610 0.922280
O O12 0.104850 0.783810 0.019898
O O13 0.061285 0.108390 0.111286
O O14 0.500000 0.500000 0.000000
O O15 0.000000 0.000000 0.500000
#
# Coordination Sequence:
#
# PCOD9104075 Si02
#       7
#     2   2   2   2   2   2   2
#     4  11  24  36  56  84 122 161 206 241 300 347
#     4   9  22  37  64  84 120 153 205 254 301 348
#     4  10  22  40  61  93 123 153 200 252 299 362
#     4  10  23  38  55  80 113 169 213 249 277 344
#     4  10  20  39  57  80 122 162 213 248 290 336
#     4  12  23  38  58  91 132 173 199 239 294 361
#     4  10  21  40  71  93 110 146 207 264 309 353
#
# _framework density 22.08859
#
# number of rings (size 3 to 8) (size 9 to 14) (size 15 to 20)
#    0.857    0.857    2.857    1.286    4.000    8.000 
#    0.000    0.000    0.000    1.714    0.000    0.000 
#    0.000    0.000    0.000    0.000    0.000    0.000 
#
# Total GULP energy -78027.902724 kJ/mol
# GULP energy per Si atom -5573.421623 kJ/mol
# Density = 2.203832 g / cm^3
# Si number density = 22.088590 Si / 1000 Ang^3
#
#
#
# Elastic Constant Matrix: (Units=GPa)
#
#
# Indices 1 2 3 4 5 6 
#
# 1 73.7359 21.0099 19.6265 6.9028 29.1416 35.8819
# 2 21.0099 120.3401 33.7757 6.3371 16.1330 0.7654
# 3 19.6265 33.7757 71.5137 22.4854 33.6801 7.5971
# 4 6.9028 6.3371 22.4854 34.7241 11.7781 9.2780
# 5 29.1416 16.1330 33.6801 11.7781 32.1088 13.4971
# 6 35.8819 0.7654 7.5971 9.2780 13.4971 44.1129
#
#
#
# Elastic Compliance Matrix: (Units=1/GPa)
#
#
# Indices 1 2 3 4 5 6 
#
# 1 0.034276 -0.004157 0.007090 0.004963 -0.029420 -0.021071
# 2 -0.004157 0.010157 -0.005646 0.000783 0.003004 0.003094
# 3 0.007090 -0.005646 0.035977 -0.011336 -0.038091 0.002174
# 4 0.004963 0.000783 -0.011336 0.038586 -0.003290 -0.009207
# 5 -0.029420 0.003004 -0.038091 -0.003290 0.096871 0.001491
# 6 -0.021071 0.003094 0.002174 -0.009207 0.001491 0.040861
#
#
# Mechanical properties :
#
#
# Convention : Reuss Voigt Hill
#
# Bulk Modulus (GPa) = 13.33630 46.04601 29.69115
# Shear Modulus (GPa) = 17.41269 34.93433 26.17351
#
# Velocity S-wave (km/s) = 2.81073 3.98119 3.44602
# Velocity P-wave (km/s) = 4.07239 6.48263 5.41336
#
# Compressibility (1/GPa) = 0.07498332
#
# Stress axis : x y z
#
# Youngs Moduli (GPa) = 29.17520 98.45906 27.79572
#
# Poissons Ratio (x) = 0.40934 -0.19708
# Poissons Ratio (y) = 0.12129 0.15693
# Poissons Ratio (z) = -0.20686 0.55587
#
# Static dielectric constant tensor:
#      x y z
#    x 1.939560 0.002420 0.035720 
#    y 0.002420 1.863260 -0.003630 
#    z 0.035720 -0.003630 1.820550 
# 
# From -- ./inp_files/622223.got.cif
#   From: 2010.05.17/outbox.cif.g08.bks.cpg/sg2_312_cif.got.tgz:622223.got - 2010.06.03 11:33:40.
