data_PCOD9104039
_publ_section_title
;
Structure prediction by ZEFSAII (Michael W. Deem and Ramdas Pophale) SiO2 
 PCOD9104039
Probable space group: P -1
;
_chemical_formula_sum "Si O2"
_cell_formula_units_Z 15
_cell_length_a 7.077130
_cell_length_b 11.102220
_cell_length_c 13.969618
_cell_angle_alpha 72.226625
_cell_angle_beta 140.063300
_cell_angle_gamma 103.499470
_cell_volume 670.976132
_symmetry_space_group_name_H-M "P -1"
_symmetry_group_IT_number 2
_symmetry_cell_setting 'triclinic'
loop_
_space_group_symop_operation_xyz
x,y,z
-x,-y,-z
loop_
_atom_site_type_symbol
_atom_site_label
_atom_site_fract_x
_atom_site_fract_y
_atom_site_fract_z
Si Si1 0.449713 0.129368 0.391420
Si Si2 0.521325 0.586380 0.893001
Si Si3 0.888340 0.825068 0.394903
Si Si4 0.576944 0.017573 0.916190
Si Si5 0.331656 0.448306 0.658398
Si Si6 0.500000 0.500000 0.500000
Si Si7 0.069367 0.265711 0.362936
Si Si8 0.140985 0.177559 0.062045
O O1 0.207779 0.208430 0.335949
O O2 0.329484 0.124209 0.238185
O O3 0.773303 0.191178 0.500856
O O4 0.500000 0.000000 0.500000
O O5 0.452837 0.506068 0.790465
O O6 0.810683 0.672620 0.968609
O O7 0.265850 0.691519 0.781087
O O8 0.500000 0.500000 0.000000
O O9 0.712815 0.702530 0.319080
O O10 0.882525 0.827720 0.506591
O O11 0.726626 0.947792 0.262449
O O12 0.263528 0.105395 0.034193
O O13 0.810685 0.130178 0.962250
O O14 0.500000 0.000000 0.000000
O O15 0.519642 0.489987 0.629582
O O16 0.000000 0.500000 0.500000
O O17 0.252577 0.389967 0.431446
#
# Coordination Sequence:
#
# PCOD9104039 Si02
#       8
#     2   2   2   2   2   1   2   2
#     4  12  25  42  75 106 137 181 242 301 365 426
#     4  12  27  45  73 106 156 199 242 304 373 442
#     4  11  24  43  72 103 137 183 242 297 354 438
#     4  11  27  47  73 100 142 192 235 303 377 438
#     4  11  21  45  67 104 142 182 242 297 353 434
#     4  10  20  38  74  96 134 190 232 290 360 406
#     4  11  24  42  69 103 140 184 233 299 348 429
#     4  11  26  49  67 104 148 183 244 297 363 452
#
# _framework density 22.355488999999999
#
# number of rings (size 3 to 8) (size 9 to 14) (size 15 to 20)
#    0.000    0.800    4.000    3.200    5.600    4.267 
#    0.000    2.000    0.000    0.000    0.000    0.000 
#    0.000    0.000    0.000    0.000    0.000    0.000 
#
# Total GULP energy -83684.321624 kJ/mol
# GULP energy per Si atom -5578.954775 kJ/mol
# Density = 2.230461 g / cm^3
# Si number density = 22.355489 Si / 1000 Ang^3
#
#
#
# Elastic Constant Matrix: (Units=GPa)
#
#
# Indices 1 2 3 4 5 6 
#
# 1 128.5913 23.9452 34.7308 17.6585 -33.8286 -8.7209
# 2 23.9452 64.6319 12.6928 26.6249 -10.8374 12.8440
# 3 34.7308 12.6928 84.4144 6.5926 -20.7973 1.1015
# 4 17.6585 26.6249 6.5926 27.9023 -2.8311 -0.0619
# 5 -33.8286 -10.8374 -20.7973 -2.8311 41.2708 -3.9783
# 6 -8.7209 12.8440 1.1015 -0.0619 -3.9783 31.6747
#
#
#
# Elastic Compliance Matrix: (Units=1/GPa)
#
#
# Indices 1 2 3 4 5 6 
#
# 1 0.011855 -0.001719 -0.002293 -0.004468 0.008293 0.005074
# 2 -0.001719 0.030719 -0.000808 -0.027743 0.003136 -0.012562
# 3 -0.002293 -0.000808 0.014195 -0.000624 0.005002 -0.000170
# 4 -0.004468 -0.027743 -0.000624 0.064708 -0.005914 0.009425
# 5 0.008293 0.003136 0.005002 -0.005914 0.034463 0.005155
# 6 0.005074 -0.012562 -0.000170 0.009425 0.005155 0.038733
#
#
# Mechanical properties :
#
#
# Convention : Reuss Voigt Hill
#
# Bulk Modulus (GPa) = 21.21910 46.70834 33.96372
# Shear Modulus (GPa) = 22.72476 33.92082 28.32279
#
# Velocity S-wave (km/s) = 3.19175 3.89953 3.56325
# Velocity P-wave (km/s) = 4.80575 6.41981 5.67050
#
# Compressibility (1/GPa) = 0.04712736
#
# Stress axis : x y z
#
# Youngs Moduli (GPa) = 84.34983 32.55331 70.44907
#
# Poissons Ratio (x) = 0.05596 0.16156
# Poissons Ratio (y) = 0.14500 0.05696
# Poissons Ratio (z) = 0.19344 0.02632
#
# Static dielectric constant tensor:
#      x y z
#    x 1.815120 0.031950 0.003310 
#    y 0.031950 1.859660 0.004410 
#    z 0.003310 0.004410 1.804220 
# 
# From -- ./inp_files/364181.got.cif
#   From: 2010.05.17/outbox.cif.g08.bks.cpg/sg2_183_cif.got.tgz:364181.got - 2010.06.03 11:33:40.
