data_PCOD9104499
_publ_section_title
;
Structure prediction by ZEFSAII (Michael W. Deem and Ramdas Pophale) SiO2 
 PCOD9104499
Probable space group: P -1
;
_chemical_formula_sum "Si O2"
_cell_formula_units_Z 16
_cell_length_a 15.031539
_cell_length_b 25.674944
_cell_length_c 17.145192
_cell_angle_alpha 159.435285
_cell_angle_beta 31.987530
_cell_angle_gamma 159.784112
_cell_volume 777.520157
_symmetry_space_group_name_H-M "P -1"
_symmetry_group_IT_number 2
_symmetry_cell_setting 'triclinic'
loop_
_space_group_symop_operation_xyz
x,y,z
-x,-y,-z
loop_
_atom_site_type_symbol
_atom_site_label
_atom_site_fract_x
_atom_site_fract_y
_atom_site_fract_z
Si Si1 0.645163 0.631959 0.838290
Si Si2 0.442958 0.781589 0.110417
Si Si3 0.902977 0.315369 0.088950
Si Si4 0.726270 0.876418 0.567009
Si Si5 0.868878 0.388468 0.048194
Si Si6 0.497289 0.618237 0.097768
Si Si7 0.107519 0.729194 0.600406
Si Si8 0.427479 0.095659 0.431880
O O1 0.417047 0.351987 0.600861
O O2 0.919696 0.739804 0.765911
O O3 0.570430 0.724559 0.974146
O O4 0.651725 0.678085 0.989753
O O5 0.171033 0.639506 0.157683
O O6 0.667265 0.063098 0.337910
O O7 0.333690 0.679467 0.959377
O O8 0.202880 0.455734 0.057563
O O9 0.935033 0.464443 0.338979
O O10 0.817082 0.350440 0.125614
O O11 0.745944 0.051015 0.839358
O O12 0.558557 0.790643 0.493310
O O13 0.000000 0.000000 0.500000
O O14 0.827181 0.184206 0.776438
O O15 0.592674 0.828705 0.367412
O O16 0.500000 0.500000 0.000000
O O17 0.304540 0.817986 0.647958
#
# Coordination Sequence:
#
# PCOD9104499 Si02
#       8
#     2   2   2   2   2   2   2   2
#     4  12  22  37  61  88 123 156 190 238 304 344
#     4  10  20  39  61  86 117 157 201 237 289 341
#     4  10  20  39  61  87 116 150 201 244 291 341
#     4  11  19  36  66  85 115 149 197 250 288 337
#     4   9  18  37  65  84 110 154 203 246 286 331
#     4  11  19  35  59  90 114 150 198 243 286 348
#     4  10  24  38  58  85 126 158 190 237 291 358
#     4   9  19  37  58  86 115 150 195 243 287 345
#
# _framework density 20.578244000000002
#
# number of rings (size 3 to 8) (size 9 to 14) (size 15 to 20)
#    0.000    1.750    3.750    1.125    0.000    1.500 
#    4.500    0.625   19.250    0.000    0.000    0.000 
#    0.000    0.000    0.000    0.000    0.000    0.000 
#
# Total GULP energy -89090.367372 kJ/mol
# GULP energy per Si atom -5568.147961 kJ/mol
# Density = 2.053141 g / cm^3
# Si number density = 20.578244 Si / 1000 Ang^3
#
#
#
# Elastic Constant Matrix: (Units=GPa)
#
#
# Indices 1 2 3 4 5 6 
#
# 1 100.9751 2.3422 10.5164 -9.4676 -25.4669 14.2457
# 2 2.3422 40.7184 15.5406 -1.9840 -4.9641 10.3817
# 3 10.5164 15.5406 71.2514 2.6014 -5.3355 1.2456
# 4 -9.4676 -1.9840 2.6014 22.9971 5.0167 -7.2457
# 5 -25.4669 -4.9641 -5.3355 5.0167 34.0435 -0.6391
# 6 14.2457 10.3817 1.2456 -7.2457 -0.6391 16.1612
#
#
#
# Elastic Compliance Matrix: (Units=1/GPa)
#
#
# Indices 1 2 3 4 5 6 
#
# 1 0.015252 0.005667 -0.002289 -0.000819 0.011682 -0.016814
# 2 0.005667 0.035107 -0.007190 -0.004722 0.008387 -0.028779
# 3 -0.002289 -0.007190 0.015942 -0.001962 0.000112 0.004532
# 4 -0.000819 -0.004722 -0.001962 0.053615 -0.008992 0.027589
# 5 0.011682 0.008387 0.000112 -0.008992 0.040339 -0.018130
# 6 -0.016814 -0.028779 0.004532 0.027589 -0.018130 0.106487
#
#
# Mechanical properties :
#
#
# Convention : Reuss Voigt Hill
#
# Bulk Modulus (GPa) = 17.04216 29.97149 23.50682
# Shear Modulus (GPa) = 17.01120 26.94339 21.97729
#
# Velocity S-wave (km/s) = 2.87829 3.62237 3.27155
# Velocity P-wave (km/s) = 4.39837 5.66495 5.07136
#
# Compressibility (1/GPa) = 0.05867801
#
# Stress axis : x y z
#
# Youngs Moduli (GPa) = 65.56506 28.48423 62.72872
#
# Poissons Ratio (x) = -0.16143 0.14356
# Poissons Ratio (y) = -0.37158 0.45103
# Poissons Ratio (z) = 0.15005 0.20481
#
# Static dielectric constant tensor:
#      x y z
#    x 1.775590 -0.021150 0.001580 
#    y -0.021150 1.783740 0.015270 
#    z 0.001580 0.015270 1.766140 
# 
# From -- ./inp_files/226338.got.cif
#   From: 2010.05.17/outbox.cif.g08.bks.cpg/sg2_114_cif.got.tgz:226338.got - 2010.06.03 11:33:40.
