data_PCOD9104036
_publ_section_title
;
Structure prediction by ZEFSAII (Michael W. Deem and Ramdas Pophale) SiO2 
 PCOD9104036
Probable space group: P -1
;
_chemical_formula_sum "Si O2"
_cell_formula_units_Z 15
_cell_length_a 17.569602
_cell_length_b 8.304531
_cell_length_c 11.310038
_cell_angle_alpha 93.250241
_cell_angle_beta 140.247619
_cell_angle_gamma 120.455149
_cell_volume 533.737047
_symmetry_space_group_name_H-M "P -1"
_symmetry_group_IT_number 2
_symmetry_cell_setting 'triclinic'
loop_
_space_group_symop_operation_xyz
x,y,z
-x,-y,-z
loop_
_atom_site_type_symbol
_atom_site_label
_atom_site_fract_x
_atom_site_fract_y
_atom_site_fract_z
Si Si1 0.176857 0.078020 0.771130
Si Si2 0.681874 0.919078 0.291207
Si Si3 0.681710 0.684398 0.495057
Si Si4 0.896261 0.581565 0.779044
Si Si5 0.953618 0.367803 0.272439
Si Si6 0.313954 0.638867 0.248922
Si Si7 0.417829 0.829010 0.127327
Si Si8 0.500000 0.500000 0.500000
O O1 0.328775 0.189249 0.847230
O O2 0.007874 0.749287 0.615140
O O3 0.389475 0.348364 0.132791
O O4 0.000000 0.000000 0.500000
O O5 0.854128 0.268837 0.483909
O O6 0.755187 0.881011 0.481145
O O7 0.454482 0.741520 0.066071
O O8 0.797883 0.643560 0.623415
O O9 0.716935 0.796039 0.673183
O O10 0.900914 0.580212 0.927440
O O11 0.077330 0.723508 0.904423
O O12 0.674711 0.198148 0.478095
O O13 0.733714 0.188642 0.070028
O O14 0.286222 0.596295 0.073000
O O15 0.418062 0.591041 0.410908
O O16 0.500000 0.000000 0.500000
#
# Coordination Sequence:
#
# PCOD9104036 Si02
#       8
#     2   2   2   2   2   2   2   1
#     4  12  27  46  70 100 140 185 237 293 350 418
#     4  11  25  42  69  99 138 185 229 285 347 426
#     4  11  22  46  70 100 139 184 229 289 356 415
#     4   9  20  40  66  95 134 181 226 280 351 419
#     4  11  24  44  66 102 137 180 237 293 345 423
#     4   9  18  35  65  99 136 184 232 286 352 423
#     4  10  20  41  65  96 139 178 227 286 350 414
#     4  10  20  38  74 104 136 186 238 286 356 432
#
# _framework density 28.103724
#
# number of rings (size 3 to 8) (size 9 to 14) (size 15 to 20)
#    0.000    1.600    2.667    1.600    1.867    1.067 
#    0.000    1.333    0.000    4.000    0.000    0.000 
#    0.000    0.000    0.000    0.000    0.000    0.000 
#
# Total GULP energy -83724.437281 kJ/mol
# GULP energy per Si atom -5581.629152 kJ/mol
# Density = 2.803976 g / cm^3
# Si number density = 28.103724 Si / 1000 Ang^3
#
#
#
# Elastic Constant Matrix: (Units=GPa)
#
#
# Indices 1 2 3 4 5 6 
#
# 1 154.5793 7.6767 12.9058 -4.3519 35.0118 12.9883
# 2 7.6767 187.7587 22.5190 -10.5182 10.7014 7.6121
# 3 12.9058 22.5190 93.9012 -10.5831 9.3140 -6.4160
# 4 -4.3519 -10.5182 -10.5831 35.5394 -5.3060 17.6556
# 5 35.0118 10.7014 9.3140 -5.3060 24.4957 9.4252
# 6 12.9883 7.6121 -6.4160 17.6556 9.4252 48.9856
#
#
#
# Elastic Compliance Matrix: (Units=1/GPa)
#
#
# Indices 1 2 3 4 5 6 
#
# 1 0.009630 0.000345 -0.000075 -0.001165 -0.014356 0.000565
# 2 0.000345 0.005707 -0.001151 0.001912 -0.001550 -0.001520
# 3 -0.000075 -0.001151 0.011665 0.001484 -0.004279 0.002015
# 4 -0.001165 0.001912 0.001484 0.039822 0.015481 -0.017125
# 5 -0.014356 -0.001550 -0.004279 0.015481 0.073226 -0.016182
# 6 0.000565 -0.001520 0.002015 -0.017125 -0.016182 0.030050
#
#
# Mechanical properties :
#
#
# Convention : Reuss Voigt Hill
#
# Bulk Modulus (GPa) = 39.61830 58.04913 48.83372
# Shear Modulus (GPa) = 27.73544 48.01332 37.87438
#
# Velocity S-wave (km/s) = 3.14490 4.13780 3.67504
# Velocity P-wave (km/s) = 5.22637 6.59763 5.95162
#
# Compressibility (1/GPa) = 0.02524086
#
# Stress axis : x y z
#
# Youngs Moduli (GPa) = 103.84739 175.22394 85.72531
#
# Poissons Ratio (x) = -0.06051 0.00643
# Poissons Ratio (y) = -0.03586 0.09864
# Poissons Ratio (z) = 0.00779 0.20162
#
# Static dielectric constant tensor:
#      x y z
#    x 2.223850 0.050170 -0.075560 
#    y 0.050170 2.230580 -0.002580 
#    z -0.075560 -0.002580 2.275170 
# 
# From -- ./inp_files/462168.got.cif
#   From: 2010.05.17/outbox.cif.g08.bks.cpg/sg2_232_cif.got.tgz:462168.got - 2010.06.03 11:33:40.
