data_PCOD9104029
_publ_section_title
;
Structure prediction by ZEFSAII (Michael W. Deem and Ramdas Pophale) SiO2 
 PCOD9104029
Probable space group: P -1
;
_chemical_formula_sum "Si O2"
_cell_formula_units_Z 16
_cell_length_a 11.324362
_cell_length_b 14.978836
_cell_length_c 9.196076
_cell_angle_alpha 108.063998
_cell_angle_beta 39.535752
_cell_angle_gamma 126.159166
_cell_volume 769.146258
_symmetry_space_group_name_H-M "P -1"
_symmetry_group_IT_number 2
_symmetry_cell_setting 'triclinic'
loop_
_space_group_symop_operation_xyz
x,y,z
-x,-y,-z
loop_
_atom_site_type_symbol
_atom_site_label
_atom_site_fract_x
_atom_site_fract_y
_atom_site_fract_z
Si Si1 0.158477 0.858373 0.186957
Si Si2 0.578288 0.740180 0.452995
Si Si3 0.211853 0.122830 0.418778
Si Si4 0.150105 0.641555 0.005666
Si Si5 0.692532 0.313390 0.614545
Si Si6 0.293561 0.427959 0.769810
Si Si7 0.803782 0.482581 0.838763
Si Si8 0.505193 0.897026 0.093899
O O1 0.309188 0.904191 0.213428
O O2 0.898568 0.806104 0.445612
O O3 0.183746 0.762372 0.055709
O O4 0.279243 0.970074 0.022930
O O5 0.715640 0.861200 0.472722
O O6 0.369014 0.664720 0.726773
O O7 0.454476 0.723667 0.410821
O O8 0.730823 0.692027 0.258930
O O9 0.407237 0.152383 0.135865
O O10 0.000000 0.000000 0.500000
O O11 0.124498 0.583163 0.155740
O O12 0.924798 0.579815 0.088934
O O13 0.675245 0.397971 0.782425
O O14 0.601803 0.194636 0.722981
O O15 0.963119 0.395586 0.364997
O O16 0.500000 0.500000 0.500000
O O17 0.340475 0.488331 0.911594
#
# Coordination Sequence:
#
# PCOD9104029 Si02
#       8
#     2   2   2   2   2   2   2   2
#     4  10  20  38  73  91 116 167 227 266 318 379
#     4  12  23  40  64  95 130 172 212 272 320 387
#     4  10  21  40  68  96 123 163 228 271 310 379
#     4  12  21  42  68  94 125 167 229 269 309 383
#     4  11  24  41  62  93 143 172 205 264 335 393
#     4  12  24  39  68  97 125 171 229 269 313 375
#     4  11  23  42  64  95 134 177 213 266 323 384
#     4  10  21  42  65  94 126 169 214 273 325 382
#
# _framework density 20.802285999999999
#
# number of rings (size 3 to 8) (size 9 to 14) (size 15 to 20)
#    0.000    1.000    6.250    1.125    0.000    0.500 
#    2.250    3.125    0.000    0.000    0.000    0.000 
#    0.000    0.000    0.000    0.000    0.000    0.000 
#
# Total GULP energy -89164.180868 kJ/mol
# GULP energy per Si atom -5572.761304 kJ/mol
# Density = 2.075494 g / cm^3
# Si number density = 20.802286 Si / 1000 Ang^3
#
#
#
# Elastic Constant Matrix: (Units=GPa)
#
#
# Indices 1 2 3 4 5 6 
#
# 1 70.0809 16.7084 16.6172 -4.4715 9.0601 17.7915
# 2 16.7084 107.1412 30.8370 -1.3678 20.9932 9.1756
# 3 16.6172 30.8370 85.7971 8.7655 7.6177 -6.4192
# 4 -4.4715 -1.3678 8.7655 37.1363 -4.5716 2.9588
# 5 9.0601 20.9932 7.6177 -4.5716 37.5249 7.2602
# 6 17.7915 9.1756 -6.4192 2.9588 7.2602 37.9727
#
#
#
# Elastic Compliance Matrix: (Units=1/GPa)
#
#
# Indices 1 2 3 4 5 6 
#
# 1 0.018122 -0.000568 -0.004297 0.003792 -0.000944 -0.009195
# 2 -0.000568 0.011760 -0.003926 0.000851 -0.005090 -0.002332
# 3 -0.004297 -0.003926 0.015004 -0.004894 -0.001605 0.006187
# 4 0.003792 0.000851 -0.004894 0.029581 0.004357 -0.005947
# 5 -0.000944 -0.005090 -0.001605 0.004357 0.031543 -0.004969
# 6 -0.009195 -0.002332 0.006187 -0.005947 -0.004969 0.033666
#
#
# Mechanical properties :
#
#
# Convention : Reuss Voigt Hill
#
# Bulk Modulus (GPa) = 36.62618 43.48272 40.05445
# Shear Modulus (GPa) = 30.05536 35.78387 32.91961
#
# Velocity S-wave (km/s) = 3.80519 4.15202 3.98238
# Velocity P-wave (km/s) = 6.07873 6.62826 6.35944
#
# Compressibility (1/GPa) = 0.02730288
#
# Stress axis : x y z
#
# Youngs Moduli (GPa) = 55.18184 85.03364 66.64810
#
# Poissons Ratio (x) = 0.04834 0.28639
# Poissons Ratio (y) = 0.03137 0.26167
# Poissons Ratio (z) = 0.23712 0.33385
#
# Static dielectric constant tensor:
#      x y z
#    x 1.796540 0.050840 -0.031210 
#    y 0.050840 1.861120 0.005750 
#    z -0.031210 0.005750 1.763200 
# 
# From -- ./inp_files/273302.got.cif
#   From: 2010.05.17/outbox.cif.g08.bks.cpg/sg2_137_cif.got.tgz:273302.got - 2010.06.03 11:33:40.
