data_PCOD9104557
_publ_section_title
;
Structure prediction by ZEFSAII (Michael W. Deem and Ramdas Pophale) SiO2 
 PCOD9104557
Probable space group: P -1
;
_chemical_formula_sum "Si O2"
_cell_formula_units_Z 16
_cell_length_a 7.464267
_cell_length_b 15.873608
_cell_length_c 12.978083
_cell_angle_alpha 125.726625
_cell_angle_beta 146.401194
_cell_angle_gamma 57.424042
_cell_volume 686.140114
_symmetry_space_group_name_H-M "P -1"
_symmetry_group_IT_number 2
_symmetry_cell_setting 'triclinic'
loop_
_space_group_symop_operation_xyz
x,y,z
-x,-y,-z
loop_
_atom_site_type_symbol
_atom_site_label
_atom_site_fract_x
_atom_site_fract_y
_atom_site_fract_z
Si Si1 0.818482 0.131370 0.272090
Si Si2 0.832180 0.517567 0.544864
Si Si3 0.710589 0.319412 0.066405
Si Si4 0.309118 0.248405 0.985800
Si Si5 0.804594 0.863204 0.760492
Si Si6 0.585064 0.311739 0.635229
Si Si7 0.702770 0.973398 0.268939
Si Si8 0.858379 0.683552 0.371335
O O1 0.769626 0.024570 0.227342
O O2 0.012228 0.118074 0.246551
O O3 0.010374 0.204424 0.489050
O O4 0.471429 0.198191 0.130237
O O5 0.498526 0.588892 0.408009
O O6 0.000000 0.500000 0.500000
O O7 0.060203 0.589873 0.768300
O O8 0.851889 0.409856 0.539408
O O9 0.942281 0.209185 0.098023
O O10 0.556933 0.322503 0.110076
O O11 0.400587 0.329843 0.851236
O O12 0.944791 0.301124 0.845540
O O13 0.309703 0.148505 0.838896
O O14 0.516774 0.790461 0.545050
O O15 0.629793 0.967479 0.802045
O O16 0.345543 0.319325 0.623151
O O17 0.000000 0.000000 0.500000
#
# Coordination Sequence:
#
# PCOD9104557 Si02
#       8
#     2   2   2   2   2   2   2   2
#     4  10  24  41  59  89 126 161 203 249 302 362
#     4   9  18  38  64  86 120 159 195 244 309 366
#     4  10  21  37  63  88 122 155 201 247 297 364
#     4  11  22  40  57  89 122 159 199 252 302 355
#     4   9  21  41  59  87 123 162 201 250 303 356
#     4   9  19  37  60  84 122 157 196 252 303 353
#     4  12  23  39  64  89 123 160 206 254 299 358
#     4  10  20  39  61  89 116 163 199 246 302 364
#
# _framework density 23.318852
#
# number of rings (size 3 to 8) (size 9 to 14) (size 15 to 20)
#    0.000    2.000    1.250    3.750    1.750    2.500 
#    2.250    6.250    0.000    0.000    0.000    0.000 
#    0.000    0.000    0.000    0.000    0.000    0.000 
#
# Total GULP energy -89442.523905 kJ/mol
# GULP energy per Si atom -5590.157744 kJ/mol
# Density = 2.326578 g / cm^3
# Si number density = 23.318852 Si / 1000 Ang^3
#
#
#
# Elastic Constant Matrix: (Units=GPa)
#
#
# Indices 1 2 3 4 5 6 
#
# 1 63.2036 26.4519 -7.7755 -0.9236 6.9013 2.5814
# 2 26.4519 67.8995 4.8180 -3.5982 2.5952 -2.0854
# 3 -7.7755 4.8180 86.7115 -17.4797 -3.7438 -8.4356
# 4 -0.9236 -3.5982 -17.4797 32.7428 -2.0598 5.8595
# 5 6.9013 2.5952 -3.7438 -2.0598 33.5225 -7.5293
# 6 2.5814 -2.0854 -8.4356 5.8595 -7.5293 18.1947
#
#
#
# Elastic Compliance Matrix: (Units=1/GPa)
#
#
# Indices 1 2 3 4 5 6 
#
# 1 0.020041 -0.007856 0.001808 0.001312 -0.004391 -0.005145
# 2 -0.007856 0.017968 -0.001284 0.000635 0.000723 0.002674
# 3 0.001808 -0.001284 0.013681 0.006494 0.002776 0.004997
# 4 0.001312 0.000635 0.006494 0.035642 0.000737 -0.008276
# 5 -0.004391 0.000723 0.002776 0.000737 0.034649 0.016094
# 6 -0.005145 0.002674 0.004997 -0.008276 0.016094 0.067639
#
#
# Mechanical properties :
#
#
# Convention : Reuss Voigt Hill
#
# Bulk Modulus (GPa) = 27.00849 29.42259 28.21554
# Shear Modulus (GPa) = 23.08127 29.84669 26.46398
#
# Velocity S-wave (km/s) = 3.14954 3.58150 3.37245
# Velocity P-wave (km/s) = 4.98333 5.45415 5.22405
#
# Compressibility (1/GPa) = 0.03702539
#
# Stress axis : x y z
#
# Youngs Moduli (GPa) = 49.89738 55.65595 73.09396
#
# Poissons Ratio (x) = 0.43726 -0.13215
# Poissons Ratio (y) = 0.39202 0.09382
# Poissons Ratio (z) = -0.09021 0.07144
#
# Static dielectric constant tensor:
#      x y z
#    x 1.886740 -0.025730 -0.008430 
#    y -0.025730 1.868240 -0.001750 
#    z -0.008430 -0.001750 1.887650 
# 
# From -- ./inp_files/178674.got.cif
#   From: 2010.05.17/outbox.cif.g08.bks.cpg/sg2_90_cif.got.tgz:178674.got - 2010.06.03 11:33:40.
