data_PCOD9104441
_publ_section_title
;
Structure prediction by ZEFSAII (Michael W. Deem and Ramdas Pophale) SiO2 
 PCOD9104441
Probable space group: P -1
;
_chemical_formula_sum "Si O2"
_cell_formula_units_Z 16
_cell_length_a 9.599268
_cell_length_b 15.017910
_cell_length_c 13.467876
_cell_angle_alpha 37.963034
_cell_angle_beta 118.933588
_cell_angle_gamma 140.262482
_cell_volume 725.537231
_symmetry_space_group_name_H-M "P -1"
_symmetry_group_IT_number 2
_symmetry_cell_setting 'triclinic'
loop_
_space_group_symop_operation_xyz
x,y,z
-x,-y,-z
loop_
_atom_site_type_symbol
_atom_site_label
_atom_site_fract_x
_atom_site_fract_y
_atom_site_fract_z
Si Si1 0.765972 0.311730 0.182235
Si Si2 0.741592 0.105436 0.615199
Si Si3 0.838768 0.493871 0.236530
Si Si4 0.238587 0.531207 0.160598
Si Si5 0.508858 0.834215 0.173273
Si Si6 0.805368 0.283267 0.680264
Si Si7 0.062560 0.086475 0.794815
Si Si8 0.675165 0.642498 0.160949
O O1 0.845575 0.497884 0.116703
O O2 0.966581 0.324681 0.254745
O O3 0.513037 0.108864 0.311110
O O4 0.751844 0.342897 0.034595
O O5 0.795636 0.298714 0.421585
O O6 0.731602 0.115980 0.723268
O O7 0.944194 0.124587 0.647209
O O8 0.661029 0.483055 0.237487
O O9 0.067510 0.690844 0.200643
O O10 0.339151 0.652501 0.192926
O O11 0.419843 0.532239 0.186047
O O12 0.400289 0.754638 0.315905
O O13 0.748098 0.903738 0.187313
O O14 0.500000 0.000000 0.000000
O O15 0.000000 0.500000 0.500000
O O16 0.195516 0.265713 0.768627
O O17 0.842848 0.857018 0.965784
#
# Coordination Sequence:
#
# PCOD9104441 Si02
#       8
#     2   2   2   2   2   2   2   2
#     4  11  22  40  60  91 126 171 204 258 313 376
#     4  11  22  42  62  92 126 170 204 258 317 380
#     4  11  22  39  65  87 126 167 216 245 315 386
#     4  10  22  38  62  89 132 162 206 261 318 369
#     4  11  21  37  65  99 123 160 214 270 312 370
#     4  10  21  39  62  89 125 163 208 251 315 377
#     4  10  21  36  65  93 130 153 212 269 316 361
#     4  10  20  39  60  97 121 166 207 268 313 367
#
# _framework density 22.052622
#
# number of rings (size 3 to 8) (size 9 to 14) (size 15 to 20)
#    0.000    1.500    3.750    1.875    1.750    0.500 
#    0.000    5.625    0.000    0.000    0.000    0.000 
#    0.000    0.000    0.000    0.000    0.000    0.000 
#
# Total GULP energy -89238.436170 kJ/mol
# GULP energy per Si atom -5577.402261 kJ/mol
# Density = 2.200243 g / cm^3
# Si number density = 22.052622 Si / 1000 Ang^3
#
#
#
# Elastic Constant Matrix: (Units=GPa)
#
#
# Indices 1 2 3 4 5 6 
#
# 1 185.7636 43.0952 34.8701 5.5696 7.3206 27.5321
# 2 43.0952 88.9519 8.8342 7.9922 3.2824 20.9926
# 3 34.8701 8.8342 56.6831 0.9900 10.1942 9.1774
# 4 5.5696 7.9922 0.9900 11.3401 -1.2564 -1.2882
# 5 7.3206 3.2824 10.1942 -1.2564 29.5999 8.3380
# 6 27.5321 20.9926 9.1774 -1.2882 8.3380 40.7507
#
#
#
# Elastic Compliance Matrix: (Units=1/GPa)
#
#
# Indices 1 2 3 4 5 6 
#
# 1 0.007042 -0.002204 -0.003561 -0.001879 0.000489 -0.002980
# 2 -0.002204 0.014714 0.000249 -0.010023 0.000237 -0.006512
# 3 -0.003561 0.000249 0.021116 -0.001091 -0.006110 -0.001262
# 4 -0.001879 -0.010023 -0.001091 0.097684 0.003552 0.009039
# 5 0.000489 0.000237 -0.006110 0.003552 0.037777 -0.006693
# 6 -0.002980 -0.006512 -0.001262 0.009039 -0.006693 0.031847
#
#
# Mechanical properties :
#
#
# Convention : Reuss Voigt Hill
#
# Bulk Modulus (GPa) = 31.40670 56.11084 43.75877
# Shear Modulus (GPa) = 21.56811 32.64475 27.10643
#
# Velocity S-wave (km/s) = 3.13074 3.85166 3.50976
# Velocity P-wave (km/s) = 5.22889 6.72901 6.02582
#
# Compressibility (1/GPa) = 0.03184034
#
# Stress axis : x y z
#
# Youngs Moduli (GPa) = 142.01367 67.96413 47.35747
#
# Poissons Ratio (x) = 0.14979 0.16864
# Poissons Ratio (y) = 0.31298 -0.01182
# Poissons Ratio (z) = 0.50571 -0.01696
#
# Static dielectric constant tensor:
#      x y z
#    x 1.898720 0.017470 -0.042820 
#    y 0.017470 1.851690 0.043110 
#    z -0.042820 0.043110 1.881380 
# 
# From -- ./inp_files/278364.got.cif
#   From: 2010.05.17/outbox.cif.g08.bks.cpg/sg2_140_cif.got.tgz:278364.got - 2010.06.03 11:33:40.
