data_PCOD9104003
_publ_section_title
;
Structure prediction by ZEFSAII (Michael W. Deem and Ramdas Pophale) SiO2 
 PCOD9104003
Probable space group: P -1
;
_chemical_formula_sum "Si O2"
_cell_formula_units_Z 14
_cell_length_a 20.583309
_cell_length_b 14.376312
_cell_length_c 5.201869
_cell_angle_alpha 79.966886
_cell_angle_beta 93.702033
_cell_angle_gamma 159.069447
_cell_volume 519.976958
_symmetry_space_group_name_H-M "P -1"
_symmetry_group_IT_number 2
_symmetry_cell_setting 'triclinic'
loop_
_space_group_symop_operation_xyz
x,y,z
-x,-y,-z
loop_
_atom_site_type_symbol
_atom_site_label
_atom_site_fract_x
_atom_site_fract_y
_atom_site_fract_z
Si Si1 0.000000 0.500000 0.500000
Si Si2 0.622573 0.288850 0.088646
Si Si3 0.728264 0.810542 0.796960
Si Si4 0.595960 0.955851 0.330738
Si Si5 0.000000 0.500000 0.000000
Si Si6 0.688242 0.875205 0.248378
Si Si7 0.959900 0.644837 0.211857
Si Si8 0.127087 0.188331 0.190865
O O1 0.857666 0.311908 0.817088
O O2 0.173118 0.722312 0.715876
O O3 0.502434 0.115271 0.880307
O O4 0.774503 0.576487 0.909979
O O5 0.504899 0.163155 0.366800
O O6 0.750173 0.376367 0.186963
O O7 0.680841 0.798356 0.528566
O O8 0.359768 0.255196 0.948517
O O9 0.721917 0.690382 0.837023
O O10 0.951572 0.139430 0.753495
O O11 0.579209 0.822897 0.305944
O O12 0.989191 0.364880 0.566854
O O13 0.908430 0.204878 0.074470
O O14 0.000000 0.000000 0.500000
O O15 0.000000 0.000000 0.000000
#
# Coordination Sequence:
#
# PCOD9104003 Si02
#       8
#     1   2   2   2   1   2   2   2
#     4  12  24  42  82 102 126 200 242 292 346 482
#     4  12  27  43  70 114 147 177 241 324 348 404
#     4  10  20  38  71  98 129 200 243 270 329 463
#     4  12  26  47  72 103 147 188 237 311 367 416
#     4  12  24  50  74  94 136 202 242 272 384 450
#     4  10  21  42  70  93 141 196 235 276 360 443
#     4  10  24  42  73 101 144 180 251 281 367 431
#     4  12  22  42  69 107 152 193 233 283 375 437
#
# _framework density 26.92427
#
# number of rings (size 3 to 8) (size 9 to 14) (size 15 to 20)
#    0.857    0.000    2.857    5.143    2.000    0.000 
#    0.000    8.571    0.000    0.000    0.000    0.000 
#    0.000    0.000    0.000    0.000    0.000    0.000 
#
# Total GULP energy -78121.256089 kJ/mol
# GULP energy per Si atom -5580.089721 kJ/mol
# Density = 2.686299 g / cm^3
# Si number density = 26.924270 Si / 1000 Ang^3
#
#
#
# Elastic Constant Matrix: (Units=GPa)
#
#
# Indices 1 2 3 4 5 6 
#
# 1 148.2436 26.2516 45.5448 -0.8232 22.5260 25.8275
# 2 26.2516 121.1769 48.3441 1.4872 1.1813 18.0979
# 3 45.5448 48.3441 263.5654 7.0984 7.4745 21.0469
# 4 -0.8232 1.4872 7.0984 48.5078 -0.5800 -3.2043
# 5 22.5260 1.1813 7.4745 -0.5800 47.3150 4.1387
# 6 25.8275 18.0979 21.0469 -3.2043 4.1387 42.2796
#
#
#
# Elastic Compliance Matrix: (Units=1/GPa)
#
#
# Indices 1 2 3 4 5 6 
#
# 1 0.008388 -0.000837 -0.000878 -0.000009 -0.003485 -0.003988
# 2 -0.000837 0.009410 -0.001358 -0.000290 0.000630 -0.002924
# 3 -0.000878 -0.001358 0.004302 -0.000675 -0.000143 -0.001061
# 4 -0.000009 -0.000290 -0.000675 0.020859 0.000196 0.002027
# 5 -0.003485 0.000630 -0.000143 0.000196 0.022829 -0.000290
# 6 -0.003988 -0.002924 -0.001061 0.002027 -0.000290 0.028050
#
#
# Mechanical properties :
#
#
# Convention : Reuss Voigt Hill
#
# Bulk Modulus (GPa) = 62.68439 85.91854 74.30146
# Shear Modulus (GPa) = 47.48271 55.14350 51.31310
#
# Velocity S-wave (km/s) = 4.20404 4.53050 4.37032
# Velocity P-wave (km/s) = 6.84818 7.70375 7.28853
#
# Compressibility (1/GPa) = 0.01595294
#
# Stress axis : x y z
#
# Youngs Moduli (GPa) = 119.21681 106.27443 232.45463
#
# Poissons Ratio (x) = 0.08896 0.20419
# Poissons Ratio (y) = 0.09979 0.31564
# Poissons Ratio (z) = 0.10472 0.14431
#
# Static dielectric constant tensor:
#      x y z
#    x 1.921610 0.138820 -0.051560 
#    y 0.138820 2.179320 0.055380 
#    z -0.051560 0.055380 2.218130 
# 
# From -- ./inp_files/119476.got.cif
#   From: 2010.05.17/outbox.cif.g08.bks.cpg/sg2_60_cif.got.tgz:119476.got - 2010.06.03 11:33:40.
