data_PCOD9104226
_publ_section_title
;
Structure prediction by ZEFSAII (Michael W. Deem and Ramdas Pophale) SiO2 
 PCOD9104226
Probable space group: P -1
;
_chemical_formula_sum "Si O2"
_cell_formula_units_Z 16
_cell_length_a 8.748692
_cell_length_b 10.109593
_cell_length_c 11.789128
_cell_angle_alpha 57.148465
_cell_angle_beta 83.488225
_cell_angle_gamma 56.763106
_cell_volume 707.110343
_symmetry_space_group_name_H-M "P -1"
_symmetry_group_IT_number 2
_symmetry_cell_setting 'triclinic'
loop_
_space_group_symop_operation_xyz
x,y,z
-x,-y,-z
loop_
_atom_site_type_symbol
_atom_site_label
_atom_site_fract_x
_atom_site_fract_y
_atom_site_fract_z
Si Si1 0.785151 0.577392 0.961005
Si Si2 0.304178 0.276234 0.336432
Si Si3 0.766455 0.051168 0.902861
Si Si4 0.056493 0.949492 0.342174
Si Si5 0.117225 0.697741 0.104635
Si Si6 0.315283 0.788128 0.612337
Si Si7 0.018962 0.617834 0.540272
Si Si8 0.639539 0.606821 0.208838
O O1 0.704751 0.738248 0.792736
O O2 0.793256 0.404381 0.976616
O O3 0.684852 0.625260 0.066813
O O4 0.000000 0.500000 0.000000
O O5 0.187515 0.509158 0.259132
O O6 0.515639 0.190021 0.394413
O O7 0.175142 0.238947 0.438656
O O8 0.872470 0.009171 0.794758
O O9 0.805882 0.183811 0.912494
O O10 0.543693 0.181944 0.840921
O O11 0.889041 0.842175 0.049643
O O12 0.199595 0.896220 0.458163
O O13 0.065860 0.756403 0.414464
O O14 0.845097 0.119315 0.319873
O O15 0.397552 0.560539 0.704661
O O16 0.000000 0.500000 0.500000
O O17 0.182739 0.479375 0.681949
#
# Coordination Sequence:
#
# PCOD9104226 Si02
#       8
#     2   2   2   2   2   2   2   2
#     4  10  20  39  59  86 124 161 201 246 301 368
#     4  10  21  40  64  90 120 164 203 249 307 365
#     4  11  21  38  61  97 124 156 202 261 311 356
#     4  10  24  40  62  91 128 158 206 262 298 365
#     4   9  21  37  61  89 128 150 201 260 301 355
#     4  10  22  41  64  93 118 161 214 254 304 356
#     4  11  24  39  62  89 131 165 202 248 312 372
#     4  11  21  38  67  92 118 167 205 249 315 360
#
# _framework density 22.627303000000001
#
# number of rings (size 3 to 8) (size 9 to 14) (size 15 to 20)
#    0.750    1.000    2.500    1.500    1.750    5.500 
#    0.000    3.750    0.000    0.000    0.000    0.000 
#    0.000    0.000    0.000    0.000    0.000    0.000 
#
# Total GULP energy -89374.749613 kJ/mol
# GULP energy per Si atom -5585.921851 kJ/mol
# Density = 2.257580 g / cm^3
# Si number density = 22.627303 Si / 1000 Ang^3
#
#
#
# Elastic Constant Matrix: (Units=GPa)
#
#
# Indices 1 2 3 4 5 6 
#
# 1 75.8300 10.5969 14.1828 3.5506 24.6576 -21.4552
# 2 10.5969 91.1305 25.6770 -5.5717 13.6389 -17.6016
# 3 14.1828 25.6770 41.2001 9.0132 4.3127 -11.6493
# 4 3.5506 -5.5717 9.0132 40.2486 -2.4665 9.6997
# 5 24.6576 13.6389 4.3127 -2.4665 28.1614 -2.8318
# 6 -21.4552 -17.6016 -11.6493 9.6997 -2.8318 43.9425
#
#
#
# Elastic Compliance Matrix: (Units=1/GPa)
#
#
# Indices 1 2 3 4 5 6 
#
# 1 0.023868 0.003421 -0.003722 -0.004934 -0.021235 0.011758
# 2 0.003421 0.015401 -0.009172 0.002320 -0.008408 0.004354
# 3 -0.003722 -0.009172 0.035014 -0.010141 0.002070 0.006163
# 4 -0.004934 0.002320 -0.010141 0.030808 0.006386 -0.010557
# 5 -0.021235 -0.008408 0.002070 0.006386 0.057321 -0.010903
# 6 0.011758 0.004354 0.006163 -0.010557 -0.010903 0.033503
#
#
# Mechanical properties :
#
#
# Convention : Reuss Voigt Hill
#
# Bulk Modulus (GPa) = 18.07130 34.34155 26.20643
# Shear Modulus (GPa) = 21.43099 32.98409 27.20754
#
# Velocity S-wave (km/s) = 3.08089 3.82214 3.47136
# Velocity P-wave (km/s) = 4.54529 5.88968 5.26061
#
# Compressibility (1/GPa) = 0.05533636
#
# Stress axis : x y z
#
# Youngs Moduli (GPa) = 41.89679 64.93061 28.56033
#
# Poissons Ratio (x) = -0.22211 0.10629
# Poissons Ratio (y) = -0.14331 0.26196
# Poissons Ratio (z) = 0.15593 0.59556
#
# Static dielectric constant tensor:
#      x y z
#    x 1.864990 0.011890 -0.011230 
#    y 0.011890 1.849870 -0.030270 
#    z -0.011230 -0.030270 1.849820 
# 
# From -- ./inp_files/389405.got.cif
#   From: 2010.05.17/outbox.cif.g08.bks.cpg/sg2_195_cif.got.tgz:389405.got - 2010.06.03 11:33:40.
