data_PCOD9104580
_publ_section_title
;
Structure prediction by ZEFSAII (Michael W. Deem and Ramdas Pophale) SiO2 
 PCOD9104580
Probable space group: P -1
;
_chemical_formula_sum "Si O2"
_cell_formula_units_Z 14
_cell_length_a 8.248609
_cell_length_b 8.429557
_cell_length_c 20.496728
_cell_angle_alpha 143.089107
_cell_angle_beta 47.655120
_cell_angle_gamma 131.221578
_cell_volume 608.905268
_symmetry_space_group_name_H-M "P -1"
_symmetry_group_IT_number 2
_symmetry_cell_setting 'triclinic'
loop_
_space_group_symop_operation_xyz
x,y,z
-x,-y,-z
loop_
_atom_site_type_symbol
_atom_site_label
_atom_site_fract_x
_atom_site_fract_y
_atom_site_fract_z
Si Si1 0.370095 0.812031 0.240714
Si Si2 0.527235 0.819306 0.793458
Si Si3 0.653800 0.390261 0.015419
Si Si4 0.535946 0.248714 0.449670
Si Si5 0.992204 0.179837 0.354084
Si Si6 0.885667 0.536199 0.140630
Si Si7 0.921356 0.912652 0.418534
O O1 0.467003 0.556318 0.117275
O O2 0.096016 0.736795 0.293687
O O3 0.451312 0.035199 0.234794
O O4 0.469126 0.973311 0.333039
O O5 0.287153 0.611775 0.805788
O O6 0.746110 0.695483 0.697487
O O7 0.561954 0.072219 0.917805
O O8 0.758762 0.434401 0.073610
O O9 0.865305 0.513601 0.949365
O O10 0.500000 0.500000 0.500000
O O11 0.348920 0.211500 0.545225
O O12 0.792796 0.294806 0.418252
O O13 0.932931 0.863122 0.241610
O O14 0.971286 0.148287 0.427661
O O15 0.000000 0.000000 0.500000
#
# Coordination Sequence:
#
# PCOD9104580 Si02
#       7
#     2   2   2   2   2   2   2
#     4  10  21  41  58  87 126 158 200 256 301 358
#     4  10  22  38  63  95 119 159 205 244 308 377
#     4  10  20  39  61  89 129 156 197 251 308 364
#     4  11  23  40  61  91 119 160 212 255 303 362
#     4  10  21  42  64  87 127 162 198 260 309 356
#     4  10  21  37  63  93 120 158 202 246 308 376
#     4   9  21  41  62  86 121 162 204 251 310 356
#
# _framework density 22.992082
#
# number of rings (size 3 to 8) (size 9 to 14) (size 15 to 20)
#    0.000    2.000    1.429    1.286    2.000    1.714 
#    5.143    3.571    0.000    0.000    0.000    0.000 
#    0.000    0.000    0.000    0.000    0.000    0.000 
#
# Total GULP energy -78293.293389 kJ/mol
# GULP energy per Si atom -5592.378099 kJ/mol
# Density = 2.293975 g / cm^3
# Si number density = 22.992082 Si / 1000 Ang^3
#
#
#
# Elastic Constant Matrix: (Units=GPa)
#
#
# Indices 1 2 3 4 5 6 
#
# 1 110.2698 11.7868 62.2312 1.6794 -25.2180 4.1084
# 2 11.7868 65.5538 51.4353 -19.5480 -13.2472 25.8902
# 3 62.2312 51.4353 157.6132 -13.8650 -30.5101 10.4870
# 4 1.6794 -19.5480 -13.8650 29.5513 1.5737 -1.1270
# 5 -25.2180 -13.2472 -30.5101 1.5737 60.4116 -3.3107
# 6 4.1084 25.8902 10.4870 -1.1270 -3.3107 28.2624
#
#
#
# Elastic Compliance Matrix: (Units=1/GPa)
#
#
# Indices 1 2 3 4 5 6 
#
# 1 0.012573 0.003024 -0.005319 -0.001465 0.003137 -0.002315
# 2 0.003024 0.045140 -0.010878 0.023030 0.003068 -0.036476
# 3 -0.005319 -0.010878 0.011791 -0.001205 0.001738 0.006518
# 4 -0.001465 0.023030 -0.001205 0.047808 0.001579 -0.018345
# 5 0.003137 0.003068 0.001738 0.001579 0.019285 -0.001589
# 6 -0.002315 -0.036476 0.006518 -0.018345 -0.001589 0.065798
#
#
# Mechanical properties :
#
#
# Convention : Reuss Voigt Hill
#
# Bulk Modulus (GPa) = 23.17044 64.92703 44.04874
# Shear Modulus (GPa) = 20.56548 37.51063 29.03806
#
# Velocity S-wave (km/s) = 2.99400 4.04351 3.55767
# Velocity P-wave (km/s) = 4.69590 7.07815 6.00632
#
# Compressibility (1/GPa) = 0.04315843
#
# Stress axis : x y z
#
# Youngs Moduli (GPa) = 79.53565 22.15341 84.80826
#
# Poissons Ratio (x) = -0.06699 0.45107
# Poissons Ratio (y) = -0.24051 0.92255
# Poissons Ratio (z) = 0.42303 0.24099
#
# Static dielectric constant tensor:
#      x y z
#    x 1.877930 0.014440 0.033930 
#    y 0.014440 1.840970 -0.007640 
#    z 0.033930 -0.007640 1.884420 
# 
# From -- ./inp_files/177207.got.cif
#   From: 2010.05.17/outbox.cif.g08.bks.cpg/sg2_89_cif.got.tgz:177207.got - 2010.06.03 11:33:40.
