data_PCOD9104723
_publ_section_title
;
Structure prediction by ZEFSAII (Michael W. Deem and Ramdas Pophale) SiO2 
 PCOD9104723
Probable space group: P -1
;
_chemical_formula_sum "Si O2"
_cell_formula_units_Z 16
_cell_length_a 9.654520
_cell_length_b 12.473358
_cell_length_c 12.046900
_cell_angle_alpha 115.337099
_cell_angle_beta 144.760644
_cell_angle_gamma 49.665932
_cell_volume 621.136578
_symmetry_space_group_name_H-M "P -1"
_symmetry_group_IT_number 2
_symmetry_cell_setting 'triclinic'
loop_
_space_group_symop_operation_xyz
x,y,z
-x,-y,-z
loop_
_atom_site_type_symbol
_atom_site_label
_atom_site_fract_x
_atom_site_fract_y
_atom_site_fract_z
Si Si1 0.651751 0.853004 0.230798
Si Si2 0.736786 0.910432 0.776586
Si Si3 0.136073 0.338479 0.939617
Si Si4 0.857377 0.001028 0.681838
Si Si5 0.032214 0.418745 0.212159
Si Si6 0.710003 0.596774 0.281391
Si Si7 0.335274 0.940708 0.797339
Si Si8 0.396557 0.664819 0.322401
O O1 0.686685 0.743363 0.301201
O O2 0.748595 0.745414 0.141790
O O3 0.329359 0.997984 0.114148
O O4 0.807811 0.936315 0.337680
O O5 0.920246 0.920496 0.804241
O O6 0.862443 0.745110 0.802007
O O7 0.408079 0.994620 0.548791
O O8 0.056661 0.494517 0.922655
O O9 0.850123 0.346290 0.789705
O O10 0.417118 0.224136 0.148175
O O11 0.120584 0.938045 0.740670
O O12 0.725342 0.167844 0.686671
O O13 0.308542 0.413345 0.444661
O O14 0.771995 0.507242 0.170283
O O15 0.469646 0.618310 0.220650
O O16 0.000000 0.500000 0.500000
O O17 0.500000 0.000000 0.000000
#
# Coordination Sequence:
#
# PCOD9104723 Si02
#       8
#     2   2   2   2   2   2   2   2
#     4  10  19  34  56  85 110 149 189 229 276 339
#     4  10  21  36  58  84 119 147 185 231 288 343
#     4  10  20  37  58  81 116 145 195 237 277 327
#     4  10  19  35  57  84 115 148 183 236 285 331
#     4   9  20  35  54  84 114 147 184 237 288 329
#     4   9  18  32  54  82 115 138 188 234 279 330
#     4  10  20  37  56  82 115 151 191 236 275 327
#     4  10  16  33  58  83 108 143 185 240 284 319
#
# _framework density 25.759229000000001
#
# number of rings (size 3 to 8) (size 9 to 14) (size 15 to 20)
#    0.000    2.250    3.750    0.375    1.750    0.500 
#    0.000    9.375    0.000    0.000    0.000    0.000 
#    0.000    0.000    0.000    0.000    0.000    0.000 
#
# Total GULP energy -89388.267472 kJ/mol
# GULP energy per Si atom -5586.766717 kJ/mol
# Density = 2.570060 g / cm^3
# Si number density = 25.759229 Si / 1000 Ang^3
#
#
#
# Elastic Constant Matrix: (Units=GPa)
#
#
# Indices 1 2 3 4 5 6 
#
# 1 207.3656 59.4463 49.6448 4.5283 16.5969 16.8313
# 2 59.4463 150.5120 19.9920 -19.3806 -0.9706 14.7336
# 3 49.6448 19.9920 74.9990 2.8148 15.2561 -4.1305
# 4 4.5283 -19.3806 2.8148 32.4323 2.3258 -6.4318
# 5 16.5969 -0.9706 15.2561 2.3258 42.8060 -6.0361
# 6 16.8313 14.7336 -4.1305 -6.4318 -6.0361 45.1328
#
#
#
# Elastic Compliance Matrix: (Units=1/GPa)
#
#
# Indices 1 2 3 4 5 6 
#
# 1 0.006717 -0.002233 -0.003577 -0.002373 -0.001626 -0.002659
# 2 -0.002233 0.008482 -0.001257 0.005181 0.001060 -0.001171
# 3 -0.003577 -0.001257 0.017092 -0.000910 -0.004317 0.002602
# 4 -0.002373 0.005181 -0.000910 0.035155 0.000033 0.004125
# 5 -0.001626 0.001060 -0.004317 0.000033 0.026025 0.003351
# 6 -0.002659 -0.001171 0.002602 0.004125 0.003351 0.024805
#
#
# Mechanical properties :
#
#
# Convention : Reuss Voigt Hill
#
# Bulk Modulus (GPa) = 55.08137 76.78251 65.93194
# Shear Modulus (GPa) = 36.11072 44.32711 40.21892
#
# Velocity S-wave (km/s) = 3.74820 4.15278 3.95567
# Velocity P-wave (km/s) = 6.33732 7.27094 6.82012
#
# Compressibility (1/GPa) = 0.01815496
#
# Stress axis : x y z
#
# Youngs Moduli (GPa) = 148.87822 117.90124 58.50623
#
# Poissons Ratio (x) = 0.26333 0.20930
# Poissons Ratio (y) = 0.33251 0.07354
# Poissons Ratio (z) = 0.53261 0.14820
#
# Static dielectric constant tensor:
#      x y z
#    x 2.180420 -0.069260 -0.118140 
#    y -0.069260 2.062370 0.002530 
#    z -0.118140 0.002530 2.196900 
# 
# From -- ./inp_files/345213.got.cif
#   From: 2010.05.17/outbox.cif.g08.bks.cpg/sg2_173_cif.got.tgz:345213.got - 2010.06.03 11:33:40.
