data_PCOD9104527
_publ_section_title
;
Structure prediction by ZEFSAII (Michael W. Deem and Ramdas Pophale) SiO2 
 PCOD9104527
Probable space group: P -1
;
_chemical_formula_sum "Si O2"
_cell_formula_units_Z 14
_cell_length_a 15.925671
_cell_length_b 15.755446
_cell_length_c 10.392475
_cell_angle_alpha 33.181195
_cell_angle_beta 24.680741
_cell_angle_gamma 33.172956
_cell_volume 561.502215
_symmetry_space_group_name_H-M "P -1"
_symmetry_group_IT_number 2
_symmetry_cell_setting 'triclinic'
loop_
_space_group_symop_operation_xyz
x,y,z
-x,-y,-z
loop_
_atom_site_type_symbol
_atom_site_label
_atom_site_fract_x
_atom_site_fract_y
_atom_site_fract_z
Si Si1 0.103782 0.511523 0.703707
Si Si2 0.773138 0.906730 0.051893
Si Si3 0.806702 0.343450 0.264536
Si Si4 0.209307 0.337639 0.423304
Si Si5 0.701944 0.976132 0.485857
Si Si6 0.501162 0.471356 0.312948
Si Si7 0.889006 0.129455 0.806571
O O1 0.351265 0.402120 0.521272
O O2 0.126330 0.684252 0.422382
O O3 0.000000 0.500000 0.000000
O O4 0.929400 0.475276 0.903622
O O5 0.768388 0.773274 0.338523
O O6 0.549840 0.968602 0.210904
O O7 0.990232 0.816890 0.786113
O O8 0.801588 0.056996 0.900444
O O9 0.679835 0.337502 0.318651
O O10 0.644118 0.410734 0.522349
O O11 0.228785 0.202491 0.455614
O O12 0.000000 0.500000 0.500000
O O13 0.394996 0.417098 0.053314
O O14 0.859532 0.964462 0.399477
O O15 0.761351 0.095793 0.149541
#
# Coordination Sequence:
#
# PCOD9104527 Si02
#       7
#     2   2   2   2   2   2   2
#     4  10  21  39  63  90 122 168 215 253 309 377
#     4  11  22  40  63  97 127 162 210 264 317 377
#     4  10  22  38  62  93 125 164 215 252 312 381
#     4  11  20  37  66  96 121 165 218 262 305 377
#     4  10  22  39  63  90 136 166 200 261 330 370
#     4  10  20  39  61  87 130 164 201 266 315 356
#     4  10  21  39  63  89 130 170 204 257 324 376
#
# _framework density 24.933115999999998
#
# number of rings (size 3 to 8) (size 9 to 14) (size 15 to 20)
#    0.000    1.714    1.429    4.286    0.000    1.143 
#    2.571    7.857    0.000   12.000    0.000    0.000 
#    0.000    0.000    0.000    0.000    0.000    0.000 
#
# Total GULP energy -78269.358336 kJ/mol
# GULP energy per Si atom -5590.668453 kJ/mol
# Density = 2.487637 g / cm^3
# Si number density = 24.933116 Si / 1000 Ang^3
#
#
#
# Elastic Constant Matrix: (Units=GPa)
#
#
# Indices 1 2 3 4 5 6 
#
# 1 51.5649 10.4241 24.1530 15.1587 -16.3804 -23.1889
# 2 10.4241 107.9592 30.6079 10.4551 -10.0995 -12.9239
# 3 24.1530 30.6079 103.2470 11.6344 -29.2600 -16.9873
# 4 15.1587 10.4551 11.6344 39.6336 -14.3960 -9.0263
# 5 -16.3804 -10.0995 -29.2600 -14.3960 36.2492 11.1989
# 6 -23.1889 -12.9239 -16.9873 -9.0263 11.1989 30.3616
#
#
#
# Elastic Compliance Matrix: (Units=1/GPa)
#
#
# Indices 1 2 3 4 5 6 
#
# 1 0.032809 0.001038 -0.002730 -0.005773 0.004225 0.020698
# 2 0.001038 0.010468 -0.002755 -0.001794 -0.000600 0.003395
# 3 -0.002730 -0.002755 0.013859 0.001416 0.009287 0.001492
# 4 -0.005773 -0.001794 0.001416 0.031463 0.010150 0.001230
# 5 0.004225 -0.000600 0.009287 0.010150 0.042210 -0.004385
# 6 0.020698 0.003395 0.001492 0.001230 -0.004385 0.053007
#
#
# Mechanical properties :
#
#
# Convention : Reuss Voigt Hill
#
# Bulk Modulus (GPa) = 20.72906 43.68234 32.20570
# Shear Modulus (GPa) = 23.94746 34.42128 29.18437
#
# Velocity S-wave (km/s) = 3.10250 3.71960 3.42498
# Velocity P-wave (km/s) = 4.60065 6.00042 5.34654
#
# Compressibility (1/GPa) = 0.04824146
#
# Stress axis : x y z
#
# Youngs Moduli (GPa) = 30.47967 95.53171 72.15710
#
# Poissons Ratio (x) = -0.09917 0.19696
# Poissons Ratio (y) = -0.03164 0.19881
# Poissons Ratio (z) = 0.08320 0.26322
#
# Static dielectric constant tensor:
#      x y z
#    x 2.048570 -0.015360 -0.020850 
#    y -0.015360 2.065710 0.029540 
#    z -0.020850 0.029540 1.943930 
# 
# From -- ./inp_files/242566.got.cif
#   From: 2010.05.17/outbox.cif.g08.bks.cpg/sg2_122_cif.got.tgz:242566.got - 2010.06.03 11:33:40.
