data_PCOD9104807
_publ_section_title
;
Structure prediction by ZEFSAII (Michael W. Deem and Ramdas Pophale) SiO2 
 PCOD9104807
Probable space group: P -1
;
_chemical_formula_sum "Si O2"
_cell_formula_units_Z 14
_cell_length_a 18.904152
_cell_length_b 5.983833
_cell_length_c 12.172049
_cell_angle_alpha 59.785294
_cell_angle_beta 153.451825
_cell_angle_gamma 122.199364
_cell_volume 519.467461
_symmetry_space_group_name_H-M "P -1"
_symmetry_group_IT_number 2
_symmetry_cell_setting 'triclinic'
loop_
_space_group_symop_operation_xyz
x,y,z
-x,-y,-z
loop_
_atom_site_type_symbol
_atom_site_label
_atom_site_fract_x
_atom_site_fract_y
_atom_site_fract_z
Si Si1 0.827956 0.463680 0.402626
Si Si2 0.650194 0.370160 0.591653
Si Si3 0.086199 0.959646 0.014017
Si Si4 0.739336 0.908705 0.483412
Si Si5 0.175207 0.346682 0.873115
Si Si6 0.376622 0.998927 0.160884
Si Si7 0.618657 0.786962 0.110893
O O1 0.750902 0.453124 0.174282
O O2 0.794935 0.725462 0.345422
O O3 0.010859 0.445200 0.641542
O O4 0.757776 0.221378 0.446802
O O5 0.804424 0.258505 0.787430
O O6 0.673302 0.682903 0.534767
O O7 0.502011 0.230568 0.342039
O O8 0.620387 0.258670 0.700791
O O9 0.926706 0.885156 0.733779
O O10 0.197131 0.236266 0.054428
O O11 0.000000 0.000000 0.000000
O O12 0.632168 0.859168 0.237766
O O13 0.203529 0.077830 0.919745
O O14 0.412079 0.018013 0.076750
O O15 0.500000 0.500000 0.000000
#
# Coordination Sequence:
#
# PCOD9104807 Si02
#       7
#     2   2   2   2   2   2   2
#     4   9  20  39  61  87 127 152 201 256 297 357
#     4  10  20  39  62  90 124 162 204 247 303 369
#     4  10  22  39  64  89 124 163 205 253 304 357
#     4  11  23  38  64  98 115 162 210 246 309 363
#     4   8  17  38  59  85 117 166 195 247 305 351
#     4   9  19  38  64  85 126 165 195 251 308 356
#     4  11  22  40  64  93 124 160 201 254 310 357
#
# _framework density 26.950679000000001
#
# number of rings (size 3 to 8) (size 9 to 14) (size 15 to 20)
#    0.000    2.286    1.429    0.429    4.000    0.571 
#    2.571   24.286    0.000    3.429    0.000    0.000 
#    0.000    0.000    0.000    0.000    0.000    0.000 
#
# Total GULP energy -78016.544957 kJ/mol
# GULP energy per Si atom -5572.610354 kJ/mol
# Density = 2.688934 g / cm^3
# Si number density = 26.950679 Si / 1000 Ang^3
#
#
#
# Elastic Constant Matrix: (Units=GPa)
#
#
# Indices 1 2 3 4 5 6 
#
# 1 138.2413 8.5965 49.3848 -22.5663 -18.9081 18.9041
# 2 8.5965 46.0785 33.7727 -29.3203 -14.3786 26.3579
# 3 49.3848 33.7727 118.3442 -25.2146 -7.8142 -1.4210
# 4 -22.5663 -29.3203 -25.2146 57.6817 3.9190 -13.1476
# 5 -18.9081 -14.3786 -7.8142 3.9190 62.1761 -19.0537
# 6 18.9041 26.3579 -1.4210 -13.1476 -19.0537 30.7560
#
#
#
# Elastic Compliance Matrix: (Units=1/GPa)
#
#
# Indices 1 2 3 4 5 6 
#
# 1 0.018265 0.039640 -0.017354 0.010133 -0.001071 -0.042331
# 2 0.039640 0.180373 -0.061574 0.042353 -0.008395 -0.168885
# 3 -0.017354 -0.061574 0.032244 -0.009810 0.004647 0.063611
# 4 0.010133 0.042353 -0.009810 0.031912 0.000792 -0.028846
# 5 -0.001071 -0.008395 0.004647 0.000792 0.020893 0.021350
# 6 -0.042331 -0.168885 0.063611 -0.028846 0.021350 0.207102
#
#
# Mechanical properties :
#
#
# Convention : Reuss Voigt Hill
#
# Bulk Modulus (GPa) = 6.56577 54.01912 30.29244
# Shear Modulus (GPa) = 8.06277 44.18343 26.12310
#
# Velocity S-wave (km/s) = 1.73152 4.05337 3.11672
# Velocity P-wave (km/s) = 2.53753 6.48024 4.92101
#
# Compressibility (1/GPa) = 0.15230514
#
# Stress axis : x y z
#
# Youngs Moduli (GPa) = 54.75083 5.54406 31.01338
#
# Poissons Ratio (x) = -0.21977 0.53821
# Poissons Ratio (y) = -2.17033 1.90962
# Poissons Ratio (z) = 0.95015 0.34137
#
# Static dielectric constant tensor:
#      x y z
#    x 2.188070 0.062660 0.028340 
#    y 0.062660 2.107600 0.054190 
#    z 0.028340 0.054190 2.212800 
# 
# From -- ./inp_files/468265.got.cif
#   From: 2010.05.17/outbox.cif.g08.bks.cpg/sg2_235_cif.got.tgz:468265.got - 2010.06.03 11:33:40.
