data_PCOD9104764
_publ_section_title
;
Structure prediction by ZEFSAII (Michael W. Deem and Ramdas Pophale) SiO2 
 PCOD9104764
Probable space group: P -1
;
_chemical_formula_sum "Si O2"
_cell_formula_units_Z 16
_cell_length_a 12.049094
_cell_length_b 19.715221
_cell_length_c 9.143146
_cell_angle_alpha 51.636492
_cell_angle_beta 49.060027
_cell_angle_gamma 28.646249
_cell_volume 780.290557
_symmetry_space_group_name_H-M "P -1"
_symmetry_group_IT_number 2
_symmetry_cell_setting 'triclinic'
loop_
_space_group_symop_operation_xyz
x,y,z
-x,-y,-z
loop_
_atom_site_type_symbol
_atom_site_label
_atom_site_fract_x
_atom_site_fract_y
_atom_site_fract_z
Si Si1 0.791680 0.008266 0.045930
Si Si2 0.992930 0.419764 0.215640
Si Si3 0.773360 0.640333 0.601233
Si Si4 0.537587 0.381351 0.635586
Si Si5 0.231154 0.864471 0.392949
Si Si6 0.533938 0.858804 0.286116
Si Si7 0.662254 0.232949 0.036106
Si Si8 0.333232 0.126336 0.159218
O O1 0.717004 0.106797 0.111695
O O2 0.585881 0.034061 0.148912
O O3 0.075212 0.851413 0.030146
O O4 0.776920 0.078235 0.826293
O O5 0.131807 0.376866 0.299650
O O6 0.120047 0.277361 0.221690
O O7 0.711080 0.538238 0.322232
O O8 0.000000 0.500000 0.000000
O O9 0.686064 0.765620 0.421447
O O10 0.551390 0.677286 0.779499
O O11 0.000000 0.500000 0.500000
O O12 0.500000 0.500000 0.500000
O O13 0.739878 0.247172 0.533163
O O14 0.576408 0.325852 0.841031
O O15 0.445359 0.806489 0.379211
O O16 0.000000 0.000000 0.500000
O O17 0.330473 0.024058 0.285819
O O18 0.657309 0.842621 0.057673
#
# Coordination Sequence:
#
# PCOD9104764 Si02
#       8
#     2   2   2   2   2   2   2   2
#     4   9  18  37  63  88 123 166 214 263 334 382
#     4  12  22  42  67  89 135 180 220 267 335 402
#     4  12  23  38  65  96 126 179 224 265 325 408
#     4  11  25  41  64  99 130 172 223 272 334 400
#     4  10  20  39  62  88 127 169 208 262 331 395
#     4  10  23  38  62  96 124 163 225 268 328 388
#     4  10  20  39  62  92 129 170 214 275 327 397
#     4  10  21  41  63  94 129 170 215 283 326 390
#
# _framework density 20.505182999999999
#
# number of rings (size 3 to 8) (size 9 to 14) (size 15 to 20)
#    0.000    1.500    2.500    3.750    1.750    1.500 
#    0.000    0.000    0.000    4.500    0.000    0.000 
#    0.000    0.000    0.000    0.000    0.000    0.000 
#
# Total GULP energy -89212.696389 kJ/mol
# GULP energy per Si atom -5575.793524 kJ/mol
# Density = 2.045851 g / cm^3
# Si number density = 20.505183 Si / 1000 Ang^3
#
#
#
# Elastic Constant Matrix: (Units=GPa)
#
#
# Indices 1 2 3 4 5 6 
#
# 1 61.9402 24.5350 25.9210 -10.7865 12.7513 -7.5065
# 2 24.5350 122.7429 43.9678 5.3733 5.2179 17.5549
# 3 25.9210 43.9678 57.7620 -9.4059 10.8894 4.4099
# 4 -10.7865 5.3733 -9.4059 37.6007 -4.7004 0.8865
# 5 12.7513 5.2179 10.8894 -4.7004 32.2130 -4.1704
# 6 -7.5065 17.5549 4.4099 0.8865 -4.1704 47.9922
#
#
#
# Elastic Compliance Matrix: (Units=1/GPa)
#
#
# Indices 1 2 3 4 5 6 
#
# 1 0.022348 -0.002722 -0.006663 0.004410 -0.004914 0.004595
# 2 -0.002722 0.012678 -0.009040 -0.004649 0.000874 -0.004071
# 3 -0.006663 -0.009040 0.029191 0.006080 -0.005004 -0.000965
# 4 0.004410 -0.004649 0.006080 0.030205 0.001542 0.001408
# 5 -0.004914 0.000874 -0.005004 0.001542 0.035073 0.002391
# 6 0.004595 -0.004071 -0.000965 0.001408 0.002391 0.023315
#
#
# Mechanical properties :
#
#
# Convention : Reuss Voigt Hill
#
# Bulk Modulus (GPa) = 36.54059 47.92141 42.23100
# Shear Modulus (GPa) = 25.15339 33.42927 29.29133
#
# Velocity S-wave (km/s) = 3.50620 4.04206 3.78363
# Velocity P-wave (km/s) = 5.85236 6.72350 6.30300
#
# Compressibility (1/GPa) = 0.02736683
#
# Stress axis : x y z
#
# Youngs Moduli (GPa) = 44.74749 78.87782 34.25760
#
# Poissons Ratio (x) = 0.21467 0.22826
# Poissons Ratio (y) = 0.12178 0.30969
# Poissons Ratio (z) = 0.29816 0.71305
#
# Static dielectric constant tensor:
#      x y z
#    x 1.786280 -0.010690 -0.007850 
#    y -0.010690 1.786340 0.024490 
#    z -0.007850 0.024490 1.706380 
# 
# From -- ./inp_files/278969.got.cif
#   From: 2010.05.17/outbox.cif.g08.bks.cpg/sg2_140_cif.got.tgz:278969.got - 2010.06.03 11:33:40.
