data_PCOD9104095
_publ_section_title
;
Structure prediction by ZEFSAII (Michael W. Deem and Ramdas Pophale) SiO2 
 PCOD9104095
Probable space group: P -1
;
_chemical_formula_sum "Si O2"
_cell_formula_units_Z 12
_cell_length_a 9.342429
_cell_length_b 11.854531
_cell_length_c 5.591020
_cell_angle_alpha 103.336244
_cell_angle_beta 71.404840
_cell_angle_gamma 132.029883
_cell_volume 435.802791
_symmetry_space_group_name_H-M "P -1"
_symmetry_group_IT_number 2
_symmetry_cell_setting 'triclinic'
loop_
_space_group_symop_operation_xyz
x,y,z
-x,-y,-z
loop_
_atom_site_type_symbol
_atom_site_label
_atom_site_fract_x
_atom_site_fract_y
_atom_site_fract_z
Si Si1 0.901940 0.536364 0.877797
Si Si2 0.350557 0.027152 0.339787
Si Si3 0.184968 0.741171 0.434815
Si Si4 0.215500 0.052535 0.920086
Si Si5 0.482920 0.311173 0.599861
Si Si6 0.216433 0.369521 0.623389
O O1 0.800200 0.388937 0.691938
O O2 0.079395 0.689495 0.723420
O O3 0.762523 0.558506 0.094122
O O4 0.000000 0.500000 0.000000
O O5 0.377631 0.902797 0.304669
O O6 0.226819 0.987272 0.631968
O O7 0.520087 0.207607 0.388221
O O8 0.256931 0.009747 0.126447
O O9 0.008854 0.715032 0.362434
O O10 0.387312 0.232901 0.867495
O O11 0.000000 0.000000 0.000000
O O12 0.291821 0.276567 0.549943
O O13 0.647387 0.489772 0.561113
#
# Coordination Sequence:
#
# PCOD9104095 Si02
#       6
#     2   2   2   2   2   2
#     4   9  21  37  59  84 116 152 205 247 300 344
#     4  10  23  36  61  87 119 152 204 246 296 351
#     4  10  21  36  62  88 110 159 203 253 287 356
#     4  10  21  36  57  88 120 156 199 244 296 352
#     4   9  23  35  58  92 124 159 192 240 306 360
#     4  10  20  39  57  87 124 157 192 245 299 362
#
# _framework density 27.535388999999999
#
# number of rings (size 3 to 8) (size 9 to 14) (size 15 to 20)
#    1.000    1.333    0.000    1.500    9.333    1.333 
#    0.000    4.167    0.000   10.000    0.000    0.000 
#    0.000    0.000    0.000    0.000    0.000    0.000 
#
# Total GULP energy -67031.935939 kJ/mol
# GULP energy per Si atom -5585.994662 kJ/mol
# Density = 2.747272 g / cm^3
# Si number density = 27.535389 Si / 1000 Ang^3
#
#
#
# Elastic Constant Matrix: (Units=GPa)
#
#
# Indices 1 2 3 4 5 6 
#
# 1 83.7777 37.1806 41.8740 -23.5921 -1.8903 1.0286
# 2 37.1806 148.9573 50.6412 -40.5105 15.5380 -18.4078
# 3 41.8740 50.6412 157.1422 -24.8742 24.3474 -3.2940
# 4 -23.5921 -40.5105 -24.8742 53.3336 -7.0846 11.9170
# 5 -1.8903 15.5380 24.3474 -7.0846 46.2955 -10.7378
# 6 1.0286 -18.4078 -3.2940 11.9170 -10.7378 47.7839
#
#
#
# Elastic Compliance Matrix: (Units=1/GPa)
#
#
# Indices 1 2 3 4 5 6 
#
# 1 0.016022 -0.002137 -0.003406 0.004740 0.003469 -0.001806
# 2 -0.002137 0.009476 -0.001464 0.004937 -0.001260 0.002081
# 3 -0.003406 -0.001464 0.008543 0.001052 -0.004238 -0.001117
# 4 0.004740 0.004937 0.001052 0.026209 0.000962 -0.004448
# 5 0.003469 -0.001260 -0.004238 0.000962 0.025623 0.004666
# 6 -0.001806 0.002081 -0.001117 -0.004448 0.004666 0.023849
#
#
# Mechanical properties :
#
#
# Convention : Reuss Voigt Hill
#
# Bulk Modulus (GPa) = 49.93302 72.14099 61.03700
# Shear Modulus (GPa) = 38.34005 46.82802 42.58403
#
# Velocity S-wave (km/s) = 3.73552 4.12837 3.93685
# Velocity P-wave (km/s) = 6.06457 6.99863 6.54827
#
# Compressibility (1/GPa) = 0.02002683
#
# Stress axis : x y z
#
# Youngs Moduli (GPa) = 62.41247 105.53283 117.05697
#
# Poissons Ratio (x) = 0.22556 0.39868
# Poissons Ratio (y) = 0.13340 0.17136
# Poissons Ratio (z) = 0.21257 0.15449
#
# Static dielectric constant tensor:
#      x y z
#    x 2.218100 0.156980 0.077940 
#    y 0.156980 2.570800 0.218780 
#    z 0.077940 0.218780 2.125250 
# 
# From -- ./inp_files/71129.got.cif
#   From: 2010.05.17/outbox.cif.g08.bks.cpg/sg2_36_cif.got.tgz:71129.got - 2010.06.03 11:33:40.
