data_PCOD9104735
_publ_section_title
;
Structure prediction by ZEFSAII (Michael W. Deem and Ramdas Pophale) SiO2 
 PCOD9104735
Probable space group: P -1
;
_chemical_formula_sum "Si O2"
_cell_formula_units_Z 14
_cell_length_a 14.579874
_cell_length_b 24.833826
_cell_length_c 15.485015
_cell_angle_alpha 19.738668
_cell_angle_beta 150.996856
_cell_angle_gamma 160.680917
_cell_volume 621.752658
_symmetry_space_group_name_H-M "P -1"
_symmetry_group_IT_number 2
_symmetry_cell_setting 'triclinic'
loop_
_space_group_symop_operation_xyz
x,y,z
-x,-y,-z
loop_
_atom_site_type_symbol
_atom_site_label
_atom_site_fract_x
_atom_site_fract_y
_atom_site_fract_z
Si Si1 0.982761 0.218768 0.909712
Si Si2 0.930706 0.609592 0.550552
Si Si3 0.319985 0.054689 0.099417
Si Si4 0.863281 0.264310 0.289887
Si Si5 0.632681 0.577352 0.608467
Si Si6 0.724980 0.345025 0.613205
Si Si7 0.137610 0.068910 0.601598
O O1 0.233767 0.464820 0.694801
O O2 0.816248 0.259305 0.756960
O O3 0.791602 0.025446 0.968749
O O4 0.034268 0.124979 0.170681
O O5 0.615644 0.447085 0.570288
O O6 0.914056 0.480633 0.650314
O O7 0.127218 0.689050 0.671881
O O8 0.058424 0.849762 0.253308
O O9 0.555021 0.064154 0.298740
O O10 0.469201 0.311106 0.860924
O O11 0.086122 0.260855 0.462104
O O12 0.000000 0.500000 0.000000
O O13 0.755052 0.697489 0.621851
O O14 0.414569 0.139192 0.703571
O O15 0.000000 0.000000 0.500000
#
# Coordination Sequence:
#
# PCOD9104735 Si02
#       7
#     2   2   2   2   2   2   2
#     4  10  22  41  65  89 122 162 207 250 307 364
#     4  10  20  39  62  87 121 160 202 245 308 360
#     4  10  22  38  62  90 120 162 199 250 303 363
#     4  10  22  34  57  88 123 155 198 247 297 359
#     4  10  23  39  58  91 123 155 200 251 303 361
#     4   9  22  42  64  89 119 163 208 253 297 364
#     4  11  25  40  63  91 123 162 205 251 312 366
#
# _framework density 22.516991000000001
#
# number of rings (size 3 to 8) (size 9 to 14) (size 15 to 20)
#    0.000    2.000    0.000    1.714   12.000    2.857 
#    0.000    1.429    0.000    0.000    0.000    0.000 
#    0.000    0.000    0.000    0.000    0.000    0.000 
#
# Total GULP energy -78070.599218 kJ/mol
# GULP energy per Si atom -5576.471373 kJ/mol
# Density = 2.246574 g / cm^3
# Si number density = 22.516991 Si / 1000 Ang^3
#
#
#
# Elastic Constant Matrix: (Units=GPa)
#
#
# Indices 1 2 3 4 5 6 
#
# 1 81.2850 18.9444 32.3283 7.0789 -13.1992 -22.4805
# 2 18.9444 76.7126 20.2752 10.8711 -9.0058 -30.5494
# 3 32.3283 20.2752 80.4794 -8.2995 -13.8532 -24.7649
# 4 7.0789 10.8711 -8.2995 22.5795 -6.1066 -8.9688
# 5 -13.1992 -9.0058 -13.8532 -6.1066 39.5762 1.8692
# 6 -22.4805 -30.5494 -24.7649 -8.9688 1.8692 61.7021
#
#
#
# Elastic Compliance Matrix: (Units=1/GPa)
#
#
# Indices 1 2 3 4 5 6 
#
# 1 0.016257 -0.000440 -0.005792 -0.005375 0.002345 0.002528
# 2 -0.000440 0.017494 -0.002577 -0.006192 0.001669 0.006516
# 3 -0.005792 -0.002577 0.020090 0.014832 0.006489 0.006637
# 4 -0.005375 -0.006192 0.014832 0.061142 0.010976 0.009484
# 5 0.002345 0.001669 0.006489 0.010976 0.030160 0.004967
# 6 0.002528 0.006516 0.006637 0.009484 0.004967 0.024246
#
#
# Mechanical properties :
#
#
# Convention : Reuss Voigt Hill
#
# Bulk Modulus (GPa) = 27.60648 42.39698 35.00173
# Shear Modulus (GPa) = 25.11543 35.90014 30.50779
#
# Velocity S-wave (km/s) = 3.34338 3.99727 3.68486
# Velocity P-wave (km/s) = 5.21452 6.33830 5.80367
#
# Compressibility (1/GPa) = 0.03622337
#
# Stress axis : x y z
#
# Youngs Moduli (GPa) = 61.51316 57.16345 49.77532
#
# Poissons Ratio (x) = 0.02515 0.28831
# Poissons Ratio (y) = 0.02706 0.12825
# Poissons Ratio (z) = 0.35629 0.14728
#
# Static dielectric constant tensor:
#      x y z
#    x 1.846360 0.012700 0.015660 
#    y 0.012700 1.869730 0.032390 
#    z 0.015660 0.032390 1.915270 
# 
# From -- ./inp_files/260467.got.cif
#   From: 2010.05.17/outbox.cif.g08.bks.cpg/sg2_131_cif.got.tgz:260467.got - 2010.06.03 11:33:40.
