data_PCOD9104336
_publ_section_title
;
Structure prediction by ZEFSAII (Michael W. Deem and Ramdas Pophale) SiO2 
 PCOD9104336
Probable space group: P -1
;
_chemical_formula_sum "Si O2"
_cell_formula_units_Z 14
_cell_length_a 19.206080
_cell_length_b 12.283724
_cell_length_c 9.640411
_cell_angle_alpha 36.849700
_cell_angle_beta 41.061629
_cell_angle_gamma 37.209300
_cell_volume 780.981189
_symmetry_space_group_name_H-M "P -1"
_symmetry_group_IT_number 2
_symmetry_cell_setting 'triclinic'
loop_
_space_group_symop_operation_xyz
x,y,z
-x,-y,-z
loop_
_atom_site_type_symbol
_atom_site_label
_atom_site_fract_x
_atom_site_fract_y
_atom_site_fract_z
Si Si1 0.861667 0.606094 0.651654
Si Si2 0.266451 0.959719 0.078993
Si Si3 0.529255 0.615407 0.961369
Si Si4 0.728485 0.704806 0.472863
Si Si5 0.764380 0.290442 0.100319
Si Si6 0.843493 0.936207 0.558591
Si Si7 0.125286 0.792921 0.271115
O O1 0.779584 0.734294 0.512941
O O2 0.845416 0.746628 0.664738
O O3 0.000000 0.500000 0.500000
O O4 0.822722 0.432042 0.916557
O O5 0.185870 0.878140 0.201918
O O6 0.214492 0.031441 0.236676
O O7 0.404926 0.773050 0.061407
O O8 0.264887 0.146514 0.802856
O O9 0.595700 0.733521 0.672685
O O10 0.500000 0.500000 0.000000
O O11 0.629982 0.444773 0.086239
O O12 0.810839 0.459452 0.560934
O O13 0.771296 0.139111 0.364480
O O14 0.843214 0.165469 0.974419
O O15 0.982300 0.889867 0.407295
#
# Coordination Sequence:
#
# PCOD9104336 Si02
#       7
#     2   2   2   2   2   2   2
#     4  10  20  39  60  87 118 158 201 235 289 362
#     4  12  24  38  62  92 123 156 194 253 303 342
#     4  10  20  44  65  85 112 158 214 241 286 357
#     4  10  22  39  66  87 114 160 206 241 289 359
#     4  10  22  39  66  84 117 162 205 243 284 356
#     4  12  24  37  60  96 125 154 192 247 310 348
#     4  10  21  40  60  93 118 158 204 235 295 361
#
# _framework density 17.926167
#
# number of rings (size 3 to 8) (size 9 to 14) (size 15 to 20)
#    0.000    1.714    5.714    2.143    2.000    2.286 
#    0.000    2.857    0.000    0.000    0.000    0.000 
#    0.000    0.000    0.000    0.000    0.000    0.000 
#
# Total GULP energy -78188.875006 kJ/mol
# GULP energy per Si atom -5584.919643 kJ/mol
# Density = 1.788537 g / cm^3
# Si number density = 17.926167 Si / 1000 Ang^3
#
#
#
# Elastic Constant Matrix: (Units=GPa)
#
#
# Indices 1 2 3 4 5 6 
#
# 1 132.5404 66.3558 63.3582 20.9680 -18.2975 20.1109
# 2 66.3558 74.5721 56.1389 13.1605 9.6633 16.1582
# 3 63.3582 56.1389 56.1786 31.0101 -0.1905 19.9729
# 4 20.9680 13.1605 31.0101 16.2083 11.2093 0.2385
# 5 -18.2975 9.6633 -0.1905 11.2093 23.1894 7.7706
# 6 20.1109 16.1582 19.9729 0.2385 7.7706 28.2682
#
#
#
# Elastic Compliance Matrix: (Units=1/GPa)
#
#
# Indices 1 2 3 4 5 6 
#
# 1 0.023740 -0.006659 -0.023694 0.007487 0.018162 -0.001398
# 2 -0.006659 0.019719 0.009791 -0.030194 0.006197 -0.014900
# 3 -0.023694 0.009791 0.010040 0.034080 -0.044572 0.016131
# 4 0.007487 -0.030194 0.034080 -0.009110 0.029979 -0.020311
# 5 0.018162 0.006197 -0.044572 0.029979 0.038620 0.004160
# 6 -0.001398 -0.014900 0.016131 -0.020311 0.004160 0.032518
#
#
# Mechanical properties :
#
#
# Convention : Reuss Voigt Hill
#
# Bulk Modulus (GPa) = 80.80890 70.55520 75.68205
# Shear Modulus (GPa) = 31.09916 18.69572 24.89744
#
# Velocity S-wave (km/s) = 4.16967 3.23295 3.73082
# Velocity P-wave (km/s) = 8.26790 7.30617 7.80187
#
# Compressibility (1/GPa) = 0.01237487
#
# Stress axis : x y z
#
# Youngs Moduli (GPa) = 42.12304 50.71219 99.60072
#
# Poissons Ratio (x) = 0.33771 2.35989
# Poissons Ratio (y) = 0.28051 -0.97517
# Poissons Ratio (z) = 0.99804 -0.49651
#
# Static dielectric constant tensor:
#      x y z
#    x 1.608390 -0.011770 -0.014320 
#    y -0.011770 1.616320 -0.016320 
#    z -0.014320 -0.016320 1.598450 
# 
# From -- ./inp_files/255692.got.cif
#   From: 2010.05.17/outbox.cif.g08.bks.cpg/sg2_128_cif.got.tgz:255692.got - 2010.06.03 11:33:40.
