data_PCOD9104439
_publ_section_title
;
Structure prediction by ZEFSAII (Michael W. Deem and Ramdas Pophale) SiO2 
 PCOD9104439
Probable space group: P -1
;
_chemical_formula_sum "Si O2"
_cell_formula_units_Z 16
_cell_length_a 15.888351
_cell_length_b 9.061698
_cell_length_c 18.571227
_cell_angle_alpha 28.271785
_cell_angle_beta 30.652637
_cell_angle_gamma 33.801994
_cell_volume 615.206015
_symmetry_space_group_name_H-M "P -1"
_symmetry_group_IT_number 2
_symmetry_cell_setting 'triclinic'
loop_
_space_group_symop_operation_xyz
x,y,z
-x,-y,-z
loop_
_atom_site_type_symbol
_atom_site_label
_atom_site_fract_x
_atom_site_fract_y
_atom_site_fract_z
Si Si1 0.259844 0.405703 0.064303
Si Si2 0.915933 0.223949 0.205332
Si Si3 0.182201 0.839826 0.066009
Si Si4 0.102469 0.877749 0.351791
Si Si5 0.741536 0.591887 0.456892
Si Si6 0.393345 0.493174 0.189593
Si Si7 0.608003 0.744937 0.337299
Si Si8 0.631379 0.338598 0.266970
O O1 0.171445 0.127128 0.240508
O O2 0.157597 0.696240 0.068034
O O3 0.455680 0.338706 0.978901
O O4 0.278153 0.497111 0.928695
O O5 0.717222 0.333628 0.282905
O O6 0.955180 0.081103 0.317906
O O7 0.000000 0.500000 0.000000
O O8 0.014354 0.953604 0.190294
O O9 0.270481 0.127731 0.862193
O O10 0.315908 0.574262 0.132208
O O11 0.090806 0.622700 0.531621
O O12 0.242339 0.654919 0.287911
O O13 0.733732 0.584434 0.380200
O O14 0.572277 0.492262 0.650373
O O15 0.680906 0.968858 0.362089
O O16 0.477931 0.102904 0.304108
O O17 0.500000 0.500000 0.500000
#
# Coordination Sequence:
#
# PCOD9104439 Si02
#       8
#     2   2   2   2   2   2   2   2
#     4  11  19  37  63  96 123 168 216 266 312 372
#     4  11  25  44  66  96 125 173 222 266 325 377
#     4  10  24  41  63  96 133 168 216 271 325 378
#     4  11  23  38  67  97 126 169 218 265 316 386
#     4  11  23  40  65  97 130 166 217 261 326 386
#     4  10  20  39  60  96 131 167 222 264 318 368
#     4  11  23  37  62 100 136 172 201 271 331 378
#     4  11  22  42  66  92 130 169 216 271 315 383
#
# _framework density 26.007548
#
# number of rings (size 3 to 8) (size 9 to 14) (size 15 to 20)
#    0.000    1.250    5.000    2.625    5.250    1.000 
#    0.000    0.000    0.000    1.500    0.000    0.000 
#    0.000    0.000    0.000    0.000    0.000    0.000 
#
# Total GULP energy -89518.962946 kJ/mol
# GULP energy per Si atom -5594.935184 kJ/mol
# Density = 2.594835 g / cm^3
# Si number density = 26.007548 Si / 1000 Ang^3
#
#
#
# Elastic Constant Matrix: (Units=GPa)
#
#
# Indices 1 2 3 4 5 6 
#
# 1 150.2055 40.7414 38.6798 -14.7729 22.0287 -9.8766
# 2 40.7414 67.6958 15.6955 7.0237 6.8010 27.5033
# 3 38.6798 15.6955 90.6147 -12.2003 9.2990 11.1935
# 4 -14.7729 7.0237 -12.2003 28.5781 4.0067 4.2950
# 5 22.0287 6.8010 9.2990 4.0067 52.1324 -14.7876
# 6 -9.8766 27.5033 11.1935 4.2950 -14.7876 37.1657
#
#
#
# Elastic Compliance Matrix: (Units=1/GPa)
#
#
# Indices 1 2 3 4 5 6 
#
# 1 0.012560 -0.012756 -0.004095 0.005777 0.000483 0.013535
# 2 -0.012756 0.037764 0.003146 -0.007928 -0.009452 -0.035128
# 3 -0.004095 0.003146 0.014760 0.005628 -0.004689 -0.010378
# 4 0.005777 -0.007928 0.005628 0.043480 -0.006266 -0.001811
# 5 0.000483 -0.009452 -0.004689 -0.006266 0.027229 0.020093
# 6 0.013535 -0.035128 -0.010378 -0.001811 0.020093 0.067829
#
#
# Mechanical properties :
#
#
# Convention : Reuss Voigt Hill
#
# Bulk Modulus (GPa) = 26.54518 55.41659 40.98088
# Shear Modulus (GPa) = 20.52643 37.80185 29.16414
#
# Velocity S-wave (km/s) = 2.81241 3.81661 3.35232
# Velocity P-wave (km/s) = 4.55796 6.38562 5.54758
#
# Compressibility (1/GPa) = 0.03767163
#
# Stress axis : x y z
#
# Youngs Moduli (GPa) = 79.62096 26.48059 67.75140
#
# Poissons Ratio (x) = 0.33779 0.27747
# Poissons Ratio (y) = 1.01567 -0.21315
# Poissons Ratio (z) = 0.32608 -0.08331
#
# Static dielectric constant tensor:
#      x y z
#    x 2.029570 -0.008690 -0.002510 
#    y -0.008690 2.111440 -0.008580 
#    z -0.002510 -0.008580 2.051700 
# 
# From -- ./inp_files/406544.got.cif
#   From: 2010.05.17/outbox.cif.g08.bks.cpg/sg2_204_cif.got.tgz:406544.got - 2010.06.03 11:33:40.
