data_PCOD9104289
_publ_section_title
;
Structure prediction by ZEFSAII (Michael W. Deem and Ramdas Pophale) SiO2 
 PCOD9104289
Probable space group: P -1
;
_chemical_formula_sum "Si O2"
_cell_formula_units_Z 14
_cell_length_a 7.252592
_cell_length_b 12.159084
_cell_length_c 11.928312
_cell_angle_alpha 35.408662
_cell_angle_beta 74.125942
_cell_angle_gamma 93.683665
_cell_volume 502.406558
_symmetry_space_group_name_H-M "P -1"
_symmetry_group_IT_number 2
_symmetry_cell_setting 'triclinic'
loop_
_space_group_symop_operation_xyz
x,y,z
-x,-y,-z
loop_
_atom_site_type_symbol
_atom_site_label
_atom_site_fract_x
_atom_site_fract_y
_atom_site_fract_z
Si Si1 0.804526 0.332665 0.753677
Si Si2 0.146417 0.214537 0.398251
Si Si3 0.499396 0.484458 0.304866
Si Si4 0.296359 0.138215 0.789859
Si Si5 0.059718 0.245196 0.934433
Si Si6 0.678786 0.030084 0.561997
Si Si7 0.262062 0.610199 0.896113
O O1 0.600739 0.372011 0.746156
O O2 0.000000 0.500000 0.500000
O O3 0.931283 0.372680 0.819790
O O4 0.711311 0.069736 0.976351
O O5 0.319688 0.357021 0.346487
O O6 0.191665 0.020784 0.515889
O O7 0.244533 0.391311 0.131950
O O8 0.882112 0.120230 0.543064
O O9 0.504496 0.327282 0.532038
O O10 0.754522 0.649117 0.090707
O O11 0.189319 0.238389 0.806045
O O12 0.127089 0.010662 0.818753
O O13 0.434047 0.806379 0.794395
O O14 0.643343 0.228222 0.363854
O O15 0.000000 0.500000 0.000000
#
# Coordination Sequence:
#
# PCOD9104289 Si02
#       7
#     2   2   2   2   2   2   2
#     4  10  20  39  60  81 111 157 199 232 287 343
#     4  10  22  35  58  88 112 153 188 230 300 335
#     4  12  22  38  57  87 121 148 193 244 287 341
#     4   9  20  39  56  83 114 148 196 236 279 345
#     4   9  20  40  55  82 114 150 199 236 279 344
#     4   9  19  40  60  80 117 149 190 234 279 354
#     4   9  18  37  61  85 106 145 194 231 278 349
#
# _framework density 27.865879
#
# number of rings (size 3 to 8) (size 9 to 14) (size 15 to 20)
#    0.857    1.429    1.429    0.857    0.000    2.857 
#   10.286    0.000    0.000    0.000    0.000    0.000 
#    0.000    0.000    0.000    0.000    0.000    0.000 
#
# Total GULP energy -77996.261344 kJ/mol
# GULP energy per Si atom -5571.161525 kJ/mol
# Density = 2.780246 g / cm^3
# Si number density = 27.865879 Si / 1000 Ang^3
#
#
#
# Elastic Constant Matrix: (Units=GPa)
#
#
# Indices 1 2 3 4 5 6 
#
# 1 154.6943 24.2664 52.4710 -4.7095 -22.6098 34.6803
# 2 24.2664 56.6856 50.6220 -12.7193 -2.8936 10.1132
# 3 52.4710 50.6220 175.9964 -13.0280 -4.3990 10.8010
# 4 -4.7095 -12.7193 -13.0280 47.1604 13.6885 -15.7636
# 5 -22.6098 -2.8936 -4.3990 13.6885 50.4999 -18.1389
# 6 34.6803 10.1132 10.8010 -15.7636 -18.1389 45.4061
#
#
#
# Elastic Compliance Matrix: (Units=1/GPa)
#
#
# Indices 1 2 3 4 5 6 
#
# 1 0.009009 -0.001447 -0.002042 -0.002772 0.002332 -0.006103
# 2 -0.001447 0.025340 -0.006423 0.004739 -0.001787 -0.002079
# 3 -0.002042 -0.006423 0.008116 0.000811 -0.000366 0.001195
# 4 -0.002772 0.004739 0.000811 0.026631 -0.005236 0.008022
# 5 0.002332 -0.001787 -0.000366 -0.005236 0.024533 0.006687
# 6 -0.006103 -0.002079 0.001195 0.008022 0.006687 0.032320
#
#
# Mechanical properties :
#
#
# Convention : Reuss Voigt Hill
#
# Bulk Modulus (GPa) = 44.16989 71.34391 57.75690
# Shear Modulus (GPa) = 32.61163 45.94774 39.27969
#
# Velocity S-wave (km/s) = 3.42469 4.06506 3.75853
# Velocity P-wave (km/s) = 5.61456 6.90587 6.29342
#
# Compressibility (1/GPa) = 0.02263986
#
# Stress axis : x y z
#
# Youngs Moduli (GPa) = 111.00450 39.46329 123.21569
#
# Poissons Ratio (x) = 0.05710 0.25160
# Poissons Ratio (y) = 0.16062 0.79147
# Poissons Ratio (z) = 0.22666 0.25349
#
# Static dielectric constant tensor:
#      x y z
#    x 2.169780 0.053420 -0.008460 
#    y 0.053420 2.442360 -0.054590 
#    z -0.008460 -0.054590 2.051250 
# 
# From -- ./inp_files/505024.got.cif
#   From: 2010.05.17/outbox.cif.g08.bks.cpg/sg2_253_cif.got.tgz:505024.got - 2010.06.03 11:33:40.
