data_PCOD9104473
_publ_section_title
;
Structure prediction by ZEFSAII (Michael W. Deem and Ramdas Pophale) SiO2 
 PCOD9104473
Probable space group: P -1
;
_chemical_formula_sum "Si O2"
_cell_formula_units_Z 16
_cell_length_a 7.276360
_cell_length_b 8.620846
_cell_length_c 15.123244
_cell_angle_alpha 78.242094
_cell_angle_beta 52.417884
_cell_angle_gamma 56.139214
_cell_volume 610.796960
_symmetry_space_group_name_H-M "P -1"
_symmetry_group_IT_number 2
_symmetry_cell_setting 'triclinic'
loop_
_space_group_symop_operation_xyz
x,y,z
-x,-y,-z
loop_
_atom_site_type_symbol
_atom_site_label
_atom_site_fract_x
_atom_site_fract_y
_atom_site_fract_z
Si Si1 0.116229 0.787422 0.837378
Si Si2 0.852067 0.698993 0.072837
Si Si3 0.261003 0.536555 0.129687
Si Si4 0.128272 0.271331 0.261444
Si Si5 0.764792 0.642091 0.433399
Si Si6 0.121707 0.095643 0.704017
Si Si7 0.651098 0.466929 0.636313
Si Si8 0.270675 0.901726 0.309733
O O1 0.406093 0.582522 0.766125
O O2 0.951407 0.811819 0.972700
O O3 0.939105 0.785777 0.805888
O O4 0.181345 0.946148 0.779875
O O5 0.013578 0.367067 0.862457
O O6 0.523228 0.815808 0.173597
O O7 0.000000 0.500000 0.000000
O O8 0.333347 0.338215 0.171146
O O9 0.163150 0.705814 0.206706
O O10 0.500000 0.500000 0.000000
O O11 0.870773 0.467815 0.354819
O O12 0.228852 0.101945 0.321751
O O13 0.671473 0.839244 0.389020
O O14 0.047131 0.594462 0.407539
O O15 0.584050 0.618348 0.560922
O O16 0.025866 0.034309 0.653881
O O17 0.664657 0.276145 0.628685
#
# Coordination Sequence:
#
# PCOD9104473 Si02
#       8
#     2   2   2   2   2   2   2   2
#     4  11  23  37  59  85 115 151 193 230 280 339
#     4  12  22  37  57  85 118 151 187 233 277 336
#     4  11  23  37  56  81 116 154 188 228 282 333
#     4  10  22  38  57  85 114 150 192 233 281 335
#     4   9  21  40  61  81 115 148 190 241 285 331
#     4   9  22  39  56  85 115 150 191 230 282 337
#     4  10  20  39  61  84 110 153 191 235 287 330
#     4  10  21  38  60  83 118 151 189 230 279 340
#
# _framework density 26.195284000000001
#
# number of rings (size 3 to 8) (size 9 to 14) (size 15 to 20)
#    0.000    1.750    2.500    0.750    5.250    4.000 
#    0.000    0.000    0.000    0.000    0.000    0.000 
#    0.000    0.000    0.000    0.000    0.000    0.000 
#
# Total GULP energy -89406.844793 kJ/mol
# GULP energy per Si atom -5587.927800 kJ/mol
# Density = 2.613566 g / cm^3
# Si number density = 26.195284 Si / 1000 Ang^3
#
#
#
# Elastic Constant Matrix: (Units=GPa)
#
#
# Indices 1 2 3 4 5 6 
#
# 1 56.0425 22.7700 4.1756 -11.4584 -12.4066 -2.8108
# 2 22.7700 183.4446 36.1099 -51.1474 -6.3057 -2.9951
# 3 4.1756 36.1099 119.6248 -28.0995 -0.2506 1.6597
# 4 -11.4584 -51.1474 -28.0995 49.4344 -3.0993 -0.2120
# 5 -12.4066 -6.3057 -0.2506 -3.0993 25.1072 -4.1715
# 6 -2.8108 -2.9951 1.6597 -0.2120 -4.1715 28.5683
#
#
#
# Elastic Compliance Matrix: (Units=1/GPa)
#
#
# Indices 1 2 3 4 5 6 
#
# 1 0.022106 -0.000920 0.000737 0.005360 0.011998 0.003827
# 2 -0.000920 0.007996 -0.000529 0.007936 0.002734 0.001237
# 3 0.000737 -0.000529 0.009723 0.005206 0.000909 -0.000377
# 4 0.005360 0.007936 0.005206 0.033232 0.009237 0.002652
# 5 0.011998 0.002734 0.000909 0.009237 0.049029 0.008642
# 6 0.003827 0.001237 -0.000377 0.002652 0.008642 0.036813
#
#
# Mechanical properties :
#
#
# Convention : Reuss Voigt Hill
#
# Bulk Modulus (GPa) = 26.03957 53.91366 39.97661
# Shear Modulus (GPa) = 28.88081 40.35908 34.61995
#
# Velocity S-wave (km/s) = 3.32402 3.92943 3.63934
# Velocity P-wave (km/s) = 4.96934 6.41977 5.74054
#
# Compressibility (1/GPa) = 0.03840310
#
# Stress axis : x y z
#
# Youngs Moduli (GPa) = 45.23613 125.05503 102.84496
#
# Poissons Ratio (x) = 0.11501 -0.07580
# Poissons Ratio (y) = 0.04160 0.05439
# Poissons Ratio (z) = -0.03334 0.06614
#
# Static dielectric constant tensor:
#      x y z
#    x 2.172650 -0.013310 0.058880 
#    y -0.013310 2.131280 -0.002340 
#    z 0.058880 -0.002340 2.133300 
# 
# From -- ./inp_files/609560.got.cif
#   From: 2010.05.17/outbox.cif.g08.bks.cpg/sg2_305_cif.got.tgz:609560.got - 2010.06.03 11:33:40.
