data_PCOD9104323
_publ_section_title
;
Structure prediction by ZEFSAII (Michael W. Deem and Ramdas Pophale) SiO2 
 PCOD9104323
Probable space group: P -1
;
_chemical_formula_sum "Si O2"
_cell_formula_units_Z 16
_cell_length_a 8.881750
_cell_length_b 6.962586
_cell_length_c 13.884619
_cell_angle_alpha 122.044521
_cell_angle_beta 69.532058
_cell_angle_gamma 93.390439
_cell_volume 673.161279
_symmetry_space_group_name_H-M "P -1"
_symmetry_group_IT_number 2
_symmetry_cell_setting 'triclinic'
loop_
_space_group_symop_operation_xyz
x,y,z
-x,-y,-z
loop_
_atom_site_type_symbol
_atom_site_label
_atom_site_fract_x
_atom_site_fract_y
_atom_site_fract_z
Si Si1 0.490928 0.974902 0.379409
Si Si2 0.658144 0.399978 0.799562
Si Si3 0.964388 0.670512 0.301861
Si Si4 0.805445 0.674975 0.153056
Si Si5 0.365376 0.708264 0.004858
Si Si6 0.955987 0.183594 0.359147
Si Si7 0.043677 0.971132 0.092004
Si Si8 0.772197 0.644159 0.534899
O O1 0.390467 0.770308 0.316590
O O2 0.668409 0.888173 0.271989
O O3 0.500000 0.000000 0.500000
O O4 0.401257 0.205901 0.408551
O O5 0.538908 0.643402 0.897344
O O6 0.845548 0.423980 0.758393
O O7 0.628241 0.283532 0.879004
O O8 0.871993 0.558905 0.207641
O O9 0.874184 0.672480 0.422756
O O10 0.954181 0.935873 0.340119
O O11 0.717539 0.514143 0.063207
O O12 0.956280 0.760401 0.091325
O O13 0.236819 0.915541 0.049411
O O14 0.800407 0.370596 0.471459
O O15 0.122512 0.260061 0.380246
O O16 0.970510 0.163706 0.235639
O O17 0.000000 0.000000 0.000000
#
# Coordination Sequence:
#
# PCOD9104323 Si02
#       8
#     2   2   2   2   2   2   2   2
#     4  11  21  37  61  94 123 159 204 258 310 367
#     4  10  21  34  62  88 120 154 205 256 296 365
#     4  11  20  39  64  93 122 161 209 250 308 372
#     4  10  22  37  62  92 118 157 212 246 304 375
#     4  10  20  39  60  86 117 162 203 248 309 356
#     4  10  23  39  57  95 119 160 210 250 303 370
#     4  11  23  38  60  85 128 160 199 259 302 362
#     4  11  22  38  66  86 127 165 198 257 312 369
#
# _framework density 23.768447999999999
#
# number of rings (size 3 to 8) (size 9 to 14) (size 15 to 20)
#    0.000    1.500    5.000    0.750    1.750    0.000 
#    0.000    5.000    0.000    5.250    0.000    0.000 
#    0.000    0.000    0.000    0.000    0.000    0.000 
#
# Total GULP energy -89521.844646 kJ/mol
# GULP energy per Si atom -5595.115290 kJ/mol
# Density = 2.371435 g / cm^3
# Si number density = 23.768448 Si / 1000 Ang^3
#
#
#
# Elastic Constant Matrix: (Units=GPa)
#
#
# Indices 1 2 3 4 5 6 
#
# 1 117.2296 18.6111 40.5561 0.4904 -10.9777 -28.1158
# 2 18.6111 57.0133 31.6233 -6.4478 -0.4520 -12.1211
# 3 40.5561 31.6233 121.1366 -6.8373 15.1365 -12.8433
# 4 0.4904 -6.4478 -6.8373 40.7280 -17.7405 2.6448
# 5 -10.9777 -0.4520 15.1365 -17.7405 62.2417 0.9344
# 6 -28.1158 -12.1211 -12.8433 2.6448 0.9344 28.9639
#
#
#
# Elastic Compliance Matrix: (Units=1/GPa)
#
#
# Indices 1 2 3 4 5 6 
#
# 1 0.012516 0.000083 -0.003455 -0.000166 0.002842 0.010575
# 2 0.000083 0.022208 -0.005217 0.003185 0.002252 0.006698
# 3 -0.003455 -0.005217 0.011136 -0.000393 -0.003461 -0.000452
# 4 -0.000166 0.003185 -0.000393 0.028735 0.008308 -0.001895
# 5 0.002842 0.002252 -0.003461 0.008308 0.019782 0.000770
# 6 0.010575 0.006698 -0.000452 -0.001895 0.000770 0.047542
#
#
# Mechanical properties :
#
#
# Convention : Reuss Voigt Hill
#
# Bulk Modulus (GPa) = 34.86509 52.99562 43.93035
# Shear Modulus (GPa) = 29.64574 40.02598 34.83586
#
# Velocity S-wave (km/s) = 3.53551 4.10810 3.83251
# Velocity P-wave (km/s) = 5.60062 6.69679 6.17308
#
# Compressibility (1/GPa) = 0.02868199
#
# Stress axis : x y z
#
# Youngs Moduli (GPa) = 79.90050 45.02825 89.79761
#
# Poissons Ratio (x) = -0.00374 0.31026
# Poissons Ratio (y) = -0.00663 0.46846
# Poissons Ratio (z) = 0.27607 0.23491
#
# Static dielectric constant tensor:
#      x y z
#    x 1.957990 -0.076910 0.020900 
#    y -0.076910 1.994610 0.068650 
#    z 0.020900 0.068650 1.925100 
# 
# From -- ./inp_files/245117.got.cif
#   From: 2010.05.17/outbox.cif.g08.bks.cpg/sg2_123_cif.got.tgz:245117.got - 2010.06.03 11:33:40.
