data_PCOD9104625
_publ_section_title
;
Structure prediction by ZEFSAII (Michael W. Deem and Ramdas Pophale) SiO2 
 PCOD9104625
Probable space group: P -1
;
_chemical_formula_sum "Si O2"
_cell_formula_units_Z 15
_cell_length_a 10.116022
_cell_length_b 18.173917
_cell_length_c 7.568445
_cell_angle_alpha 134.469676
_cell_angle_beta 126.044771
_cell_angle_gamma 36.690546
_cell_volume 592.125376
_symmetry_space_group_name_H-M "P -1"
_symmetry_group_IT_number 2
_symmetry_cell_setting 'triclinic'
loop_
_space_group_symop_operation_xyz
x,y,z
-x,-y,-z
loop_
_atom_site_type_symbol
_atom_site_label
_atom_site_fract_x
_atom_site_fract_y
_atom_site_fract_z
Si Si1 0.772857 0.941220 0.794761
Si Si2 0.777078 0.283267 0.349973
Si Si3 0.699470 0.795585 0.202359
Si Si4 0.500000 0.000000 0.000000
Si Si5 0.651727 0.709279 0.524364
Si Si6 0.897637 0.316851 0.861741
Si Si7 0.647103 0.616822 0.008096
Si Si8 0.156090 0.569762 0.625697
O O1 0.738811 0.858131 0.496486
O O2 0.020558 0.868907 0.828475
O O3 0.562893 0.101525 0.856556
O O4 0.716354 0.927590 0.921256
O O5 0.810290 0.274530 0.573496
O O6 0.808136 0.382573 0.445884
O O7 0.544116 0.345576 0.201595
O O8 0.777662 0.648957 0.059716
O O9 0.833772 0.789664 0.135014
O O10 0.519724 0.864251 0.747924
O O11 0.547369 0.715490 0.268861
O O12 0.684515 0.595896 0.488108
O O13 0.906731 0.632340 0.549486
O O14 0.798604 0.464561 0.953835
O O15 0.821882 0.356148 0.070515
#
# Coordination Sequence:
#
# PCOD9104625 Si02
#       8
#     2   2   2   1   2   2   2   2
#     4  10  22  36  63  88 122 168 216 265 311 379
#     4  11  23  42  63  94 140 171 205 262 333 393
#     4  10  20  39  61  92 119 167 218 268 312 366
#     4  12  18  38  62  90 122 160 214 270 308 370
#     4  10  21  36  65  94 125 162 221 269 313 373
#     4  10  22  39  66  95 123 171 217 264 320 380
#     4  11  22  40  64  95 135 170 206 269 327 397
#     4  10  21  42  65  98 126 167 217 277 314 378
#
# _framework density 25.332474000000001
#
# number of rings (size 3 to 8) (size 9 to 14) (size 15 to 20)
#    0.000    1.600    2.667    2.400    0.000    5.867 
#    0.000    3.333    0.000    0.000    0.000    0.000 
#    0.000    0.000    0.000    0.000    0.000    0.000 
#
# Total GULP energy -83642.911353 kJ/mol
# GULP energy per Si atom -5576.194090 kJ/mol
# Density = 2.527482 g / cm^3
# Si number density = 25.332474 Si / 1000 Ang^3
#
#
#
# Elastic Constant Matrix: (Units=GPa)
#
#
# Indices 1 2 3 4 5 6 
#
# 1 40.5791 14.4955 22.7855 6.5606 -5.9179 3.1955
# 2 14.4955 86.8142 31.7218 16.3609 -7.6925 -7.3652
# 3 22.7855 31.7218 114.1696 7.9794 -29.9361 -7.9743
# 4 6.5606 16.3609 7.9794 43.7069 5.4530 -2.6458
# 5 -5.9179 -7.6925 -29.9361 5.4530 32.2085 3.3132
# 6 3.1955 -7.3652 -7.9743 -2.6458 3.3132 32.9035
#
#
#
# Elastic Compliance Matrix: (Units=1/GPa)
#
#
# Indices 1 2 3 4 5 6 
#
# 1 0.029480 -0.002905 -0.004925 -0.002889 0.001154 -0.005055
# 2 -0.002905 0.014055 -0.002633 -0.004309 0.000863 0.002357
# 3 -0.004925 -0.002633 0.013740 -0.002090 0.011395 0.001903
# 4 -0.002889 -0.004309 -0.002090 0.026432 -0.008158 0.001756
# 5 0.001154 0.000863 0.011395 -0.008158 0.043666 -0.002210
# 6 -0.005055 0.002357 0.001903 0.001756 -0.002210 0.032235
#
#
# Mechanical properties :
#
#
# Convention : Reuss Voigt Hill
#
# Bulk Modulus (GPa) = 27.51155 42.17428 34.84292
# Shear Modulus (GPa) = 25.95378 33.26781 29.61080
#
# Velocity S-wave (km/s) = 3.20429 3.62781 3.42261
# Velocity P-wave (km/s) = 4.95719 5.85085 5.42246
#
# Compressibility (1/GPa) = 0.03634837
#
# Stress axis : x y z
#
# Youngs Moduli (GPa) = 33.92167 71.15111 72.77825
#
# Poissons Ratio (x) = 0.20669 0.35842
# Poissons Ratio (y) = 0.09854 0.19165
# Poissons Ratio (z) = 0.16706 0.18736
#
# Static dielectric constant tensor:
#      x y z
#    x 2.060940 0.006340 -0.069260 
#    y 0.006340 2.218200 0.065150 
#    z -0.069260 0.065150 2.103670 
# 
# From -- ./inp_files/285071.got.cif
#   From: 2010.05.17/outbox.cif.g08.bks.cpg/sg2_143_cif.got.tgz:285071.got - 2010.06.03 11:33:40.
