data_PCOD9104802
_publ_section_title
;
Structure prediction by ZEFSAII (Michael W. Deem and Ramdas Pophale) SiO2 
 PCOD9104802
Probable space group: P -1
;
_chemical_formula_sum "Si O2"
_cell_formula_units_Z 16
_cell_length_a 13.819960
_cell_length_b 26.310166
_cell_length_c 7.805740
_cell_angle_alpha 49.281616
_cell_angle_beta 122.552302
_cell_angle_gamma 159.011766
_cell_volume 743.678514
_symmetry_space_group_name_H-M "P -1"
_symmetry_group_IT_number 2
_symmetry_cell_setting 'triclinic'
loop_
_space_group_symop_operation_xyz
x,y,z
-x,-y,-z
loop_
_atom_site_type_symbol
_atom_site_label
_atom_site_fract_x
_atom_site_fract_y
_atom_site_fract_z
Si Si1 0.463784 0.367073 0.529620
Si Si2 0.506195 0.906718 0.591757
Si Si3 0.929356 0.041053 0.528236
Si Si4 0.877924 0.886600 0.987054
Si Si5 0.803435 0.206653 0.139767
Si Si6 0.582212 0.513742 0.860029
Si Si7 0.111965 0.740291 0.285955
Si Si8 0.025226 0.851340 0.000274
O O1 0.371813 0.395249 0.409531
O O2 0.788796 0.544638 0.401763
O O3 0.247893 0.224910 0.491766
O O4 0.405574 0.292295 0.806315
O O5 0.349944 0.826743 0.800135
O O6 0.275049 0.787888 0.482757
O O7 0.713591 0.956535 0.646391
O O8 0.687694 0.071161 0.374394
O O9 0.871181 0.054471 0.276088
O O10 0.868162 0.929156 0.717753
O O11 0.066443 0.922484 0.042310
O O12 0.000000 0.000000 0.000000
O O13 0.137571 0.379591 0.101852
O O14 0.758107 0.197347 0.916640
O O15 0.500000 0.500000 0.000000
O O16 0.311088 0.331215 0.939727
O O17 0.116214 0.822401 0.156442
#
# Coordination Sequence:
#
# PCOD9104802 Si02
#       8
#     2   2   2   2   2   2   2   2
#     4  10  20  39  62  90 123 156 207 263 314 357
#     4  11  24  35  62  92 136 168 201 245 325 392
#     4  11  20  44  59  88 127 169 211 248 306 380
#     4  10  25  38  60  90 122 166 214 266 295 364
#     4  11  21  37  58  94 136 164 189 255 330 380
#     4  11  17  35  64  93 123 155 195 269 322 370
#     4  11  22  39  64 101 125 156 205 267 325 381
#     4  11  21  36  67  92 121 158 208 266 319 363
#
# _framework density 21.514673999999999
#
# number of rings (size 3 to 8) (size 9 to 14) (size 15 to 20)
#    0.000    1.250    6.250    0.750    3.500    2.000 
#    0.000    0.625    0.000    0.750    0.000    0.000 
#    0.000    0.000    0.000    0.000    0.000    0.000 
#
# Total GULP energy -89379.724670 kJ/mol
# GULP energy per Si atom -5586.232792 kJ/mol
# Density = 2.146571 g / cm^3
# Si number density = 21.514674 Si / 1000 Ang^3
#
#
#
# Elastic Constant Matrix: (Units=GPa)
#
#
# Indices 1 2 3 4 5 6 
#
# 1 98.5107 35.4557 36.8151 -4.6502 -26.1186 -3.5258
# 2 35.4557 94.6430 17.1068 -0.7471 -8.0784 16.9717
# 3 36.8151 17.1068 115.4922 -12.0625 -1.3167 1.9294
# 4 -4.6502 -0.7471 -12.0625 21.9694 3.2311 -7.1084
# 5 -26.1186 -8.0784 -1.3167 3.2311 28.4816 -0.9044
# 6 -3.5258 16.9717 1.9294 -7.1084 -0.9044 20.3792
#
#
#
# Elastic Compliance Matrix: (Units=1/GPa)
#
#
# Indices 1 2 3 4 5 6 
#
# 1 0.018994 -0.006903 -0.004783 0.002477 0.015308 0.011031
# 2 -0.006903 0.016098 -0.000596 -0.006465 -0.001594 -0.016870
# 3 -0.004783 -0.000596 0.010810 0.005734 -0.004692 0.000437
# 4 0.002477 -0.006465 0.005734 0.057880 -0.005062 0.025234
# 5 0.015308 -0.001594 -0.004692 -0.005062 0.049207 0.004838
# 6 0.011031 -0.016870 0.000437 0.025234 0.004838 0.074002
#
#
# Mechanical properties :
#
#
# Convention : Reuss Voigt Hill
#
# Bulk Modulus (GPa) = 46.86508 54.15567 50.51037
# Shear Modulus (GPa) = 19.33000 28.78393 24.05696
#
# Velocity S-wave (km/s) = 3.00068 3.66166 3.34753
# Velocity P-wave (km/s) = 5.81683 6.56530 6.20237
#
# Compressibility (1/GPa) = 0.02133785
#
# Stress axis : x y z
#
# Youngs Moduli (GPa) = 52.64938 62.12079 92.51051
#
# Poissons Ratio (x) = 0.42881 0.44249
# Poissons Ratio (y) = 0.36343 0.05509
# Poissons Ratio (z) = 0.25183 0.03700
#
# Static dielectric constant tensor:
#      x y z
#    x 1.812850 -0.040080 -0.041440 
#    y -0.040080 1.801670 0.027440 
#    z -0.041440 0.027440 1.837100 
# 
# From -- ./inp_files/321046.got.cif
#   From: 2010.05.17/outbox.cif.g08.bks.cpg/sg2_161_cif.got.tgz:321046.got - 2010.06.03 11:33:40.
