data_PCOD9104264
_publ_section_title
;
Structure prediction by ZEFSAII (Michael W. Deem and Ramdas Pophale) SiO2 
 PCOD9104264
Probable space group: P -1
;
_chemical_formula_sum "Si O2"
_cell_formula_units_Z 14
_cell_length_a 9.140057
_cell_length_b 14.798071
_cell_length_c 11.317209
_cell_angle_alpha 28.024961
_cell_angle_beta 113.871521
_cell_angle_gamma 125.966148
_cell_volume 555.453151
_symmetry_space_group_name_H-M "P -1"
_symmetry_group_IT_number 2
_symmetry_cell_setting 'triclinic'
loop_
_space_group_symop_operation_xyz
x,y,z
-x,-y,-z
loop_
_atom_site_type_symbol
_atom_site_label
_atom_site_fract_x
_atom_site_fract_y
_atom_site_fract_z
Si Si1 0.328029 0.022399 0.461497
Si Si2 0.114861 0.891193 0.122678
Si Si3 0.467877 0.274979 0.427612
Si Si4 0.865124 0.395148 0.938002
Si Si5 0.112299 0.464487 0.733831
Si Si6 0.941940 0.857473 0.521375
Si Si7 0.520046 0.115058 0.000016
O O1 0.147438 0.988772 0.367994
O O2 0.500000 0.000000 0.500000
O O3 0.421909 0.255257 0.296775
O O4 0.218792 0.817069 0.757202
O O5 0.040458 0.768050 0.113500
O O6 0.098411 0.677608 0.436175
O O7 0.328586 0.108698 0.949114
O O8 0.000000 0.000000 0.000000
O O9 0.677873 0.487326 0.277210
O O10 0.267613 0.192193 0.521316
O O11 0.503337 0.074620 0.698205
O O12 0.888386 0.599657 0.785965
O O13 0.052007 0.442341 0.876530
O O14 0.713114 0.336198 0.849955
O O15 0.000000 0.000000 0.500000
O O16 0.500000 0.000000 0.000000
#
# Coordination Sequence:
#
# PCOD9104264 Si02
#       7
#     2   2   2   2   2   2   2
#     4  10  21  42  66  88 124 169 220 278 335 388
#     4  10  22  39  63  94 133 179 220 267 320 387
#     4   9  21  38  61  90 129 165 213 270 327 395
#     4  11  22  39  66  93 127 178 215 266 340 392
#     4  10  21  41  62  94 137 174 219 268 326 396
#     4  10  22  41  62  95 127 164 226 275 328 390
#     4  10  20  39  59  91 132 170 212 265 327 388
#
# _framework density 25.204646
#
# number of rings (size 3 to 8) (size 9 to 14) (size 15 to 20)
#    0.000    2.000    1.429    1.286    2.000    1.143 
#    2.571   10.714    0.000    0.000    0.000    0.000 
#    0.000    0.000    0.000    0.000    0.000    0.000 
#
# Total GULP energy -77934.810846 kJ/mol
# GULP energy per Si atom -5566.772203 kJ/mol
# Density = 2.514728 g / cm^3
# Si number density = 25.204646 Si / 1000 Ang^3
#
#
#
# Elastic Constant Matrix: (Units=GPa)
#
#
# Indices 1 2 3 4 5 6 
#
# 1 193.3523 46.2902 20.2990 4.9985 13.0836 44.2247
# 2 46.2902 134.0169 33.6390 -17.5074 1.9906 20.5685
# 3 20.2990 33.6390 56.8232 -13.8163 5.7509 -7.4663
# 4 4.9985 -17.5074 -13.8163 24.3193 -3.4281 1.8974
# 5 13.0836 1.9906 5.7509 -3.4281 31.6143 -4.2425
# 6 44.2247 20.5685 -7.4663 1.8974 -4.2425 59.5041
#
#
#
# Elastic Compliance Matrix: (Units=1/GPa)
#
#
# Indices 1 2 3 4 5 6 
#
# 1 0.007514 -0.001443 -0.003300 -0.004536 -0.003664 -0.005616
# 2 -0.001443 0.010355 -0.004823 0.005400 0.000977 -0.003214
# 3 -0.003300 -0.004823 0.025273 0.010912 -0.000821 0.006884
# 4 -0.004536 0.005400 0.010912 0.052789 0.005489 0.001582
# 5 -0.003664 0.000977 -0.000821 0.005489 0.034443 0.004563
# 6 -0.005616 -0.003214 0.006884 0.001582 0.004563 0.023229
#
#
# Mechanical properties :
#
#
# Convention : Reuss Voigt Hill
#
# Bulk Modulus (GPa) = 41.64934 64.96095 53.30515
# Shear Modulus (GPa) = 27.66445 42.01850 34.84148
#
# Velocity S-wave (km/s) = 3.31659 4.08744 3.72202
# Velocity P-wave (km/s) = 5.58808 6.93581 6.29810
#
# Compressibility (1/GPa) = 0.02400998
#
# Stress axis : x y z
#
# Youngs Moduli (GPa) = 133.09268 96.57142 39.56789
#
# Poissons Ratio (x) = 0.13937 0.13056
# Poissons Ratio (y) = 0.19208 0.19083
# Poissons Ratio (z) = 0.43917 0.46575
#
# Static dielectric constant tensor:
#      x y z
#    x 2.107880 0.079480 -0.006560 
#    y 0.079480 2.164070 0.101890 
#    z -0.006560 0.101890 2.058590 
# 
# From -- ./inp_files/398295.got.cif
#   From: 2010.05.17/outbox.cif.g08.bks.cpg/sg2_200_cif.got.tgz:398295.got - 2010.06.03 11:33:40.
