data_PCOD9104448
_publ_section_title
;
Structure prediction by ZEFSAII (Michael W. Deem and Ramdas Pophale) SiO2 
 PCOD9104448
Probable space group: P -1
;
_chemical_formula_sum "Si O2"
_cell_formula_units_Z 14
_cell_length_a 20.534272
_cell_length_b 5.240909
_cell_length_c 5.314260
_cell_angle_alpha 96.359536
_cell_angle_beta 95.262759
_cell_angle_gamma 73.702593
_cell_volume 544.449493
_symmetry_space_group_name_H-M "P -1"
_symmetry_group_IT_number 2
_symmetry_cell_setting 'triclinic'
loop_
_space_group_symop_operation_xyz
x,y,z
-x,-y,-z
loop_
_atom_site_type_symbol
_atom_site_label
_atom_site_fract_x
_atom_site_fract_y
_atom_site_fract_z
Si Si1 0.077770 0.904094 0.939423
Si Si2 0.303092 0.518623 0.538599
Si Si3 0.858203 0.667401 0.261652
Si Si4 0.721191 0.891683 0.936275
Si Si5 0.398481 0.166306 0.875479
Si Si6 0.442200 0.355518 0.416418
Si Si7 0.186978 0.908448 0.336406
O O1 0.125174 0.820436 0.192751
O O2 0.102026 0.141810 0.842482
O O3 0.097125 0.634877 0.755245
O O4 0.000000 0.000000 0.000000
O O5 0.293386 0.282131 0.325358
O O6 0.333447 0.411578 0.806502
O O7 0.369328 0.579527 0.442862
O O8 0.231828 0.735688 0.551593
O O9 0.842380 0.791765 0.545624
O O10 0.784614 0.719226 0.106783
O O11 0.755575 0.105108 0.851900
O O12 0.648052 0.016992 0.059342
O O13 0.437237 0.149758 0.620597
O O14 0.442159 0.231216 0.126467
O O15 0.500000 0.500000 0.500000
#
# Coordination Sequence:
#
# PCOD9104448 Si02
#       7
#     2   2   2   2   2   2   2
#     4  11  26  46  66 102 144 186 238 295 360 437
#     4   9  20  36  61  92 133 171 232 295 352 417
#     4  11  25  39  74  95 141 186 239 295 365 429
#     4  10  20  39  60  98 131 171 232 294 360 410
#     4   9  19  32  63  89 134 176 232 291 352 424
#     4   9  18  33  60  95 132 184 234 287 356 430
#     4  11  24  40  68  98 136 179 236 301 357 433
#
# _framework density 25.71405
#
# number of rings (size 3 to 8) (size 9 to 14) (size 15 to 20)
#    0.857    1.143    1.429    1.714    4.000    2.286 
#    0.000    0.000    0.000    4.286    0.000    0.000 
#    0.000    0.000    0.000    0.143    0.000    0.000 
#
# Total GULP energy -78219.461168 kJ/mol
# GULP energy per Si atom -5587.104369 kJ/mol
# Density = 2.565552 g / cm^3
# Si number density = 25.714050 Si / 1000 Ang^3
#
#
#
# Elastic Constant Matrix: (Units=GPa)
#
#
# Indices 1 2 3 4 5 6 
#
# 1 172.7504 38.4918 36.6918 5.1448 -1.7885 22.6144
# 2 38.4918 84.3582 28.8861 12.8049 -3.3254 -1.0424
# 3 36.6918 28.8861 122.3667 8.5806 -16.2689 2.2158
# 4 5.1448 12.8049 8.5806 37.4692 -2.7401 -10.6224
# 5 -1.7885 -3.3254 -16.2689 -2.7401 28.5230 -2.7049
# 6 22.6144 -1.0424 2.2158 -10.6224 -2.7049 39.2755
#
#
#
# Elastic Compliance Matrix: (Units=1/GPa)
#
#
# Indices 1 2 3 4 5 6 
#
# 1 0.007360 -0.002762 -0.001566 -0.001111 -0.001298 -0.004613
# 2 -0.002762 0.014500 -0.002365 -0.003731 -0.000086 0.001093
# 3 -0.001566 -0.002365 0.009945 -0.000744 0.005269 0.000440
# 4 -0.001111 -0.003731 -0.000744 0.031109 0.002932 0.009198
# 5 -0.001298 -0.000086 0.005269 0.002932 0.038625 0.003901
# 6 -0.004613 0.001093 0.000440 0.009198 0.003901 0.030878
#
#
# Mechanical properties :
#
#
# Convention : Reuss Voigt Hill
#
# Bulk Modulus (GPa) = 54.28711 65.29051 59.78881
# Shear Modulus (GPa) = 32.90752 39.41393 36.16073
#
# Velocity S-wave (km/s) = 3.58124 3.91932 3.75409
# Velocity P-wave (km/s) = 6.18531 6.77698 6.48789
#
# Compressibility (1/GPa) = 0.01842058
#
# Stress axis : x y z
#
# Youngs Moduli (GPa) = 135.86645 68.96340 100.55651
#
# Poissons Ratio (x) = 0.19045 0.15749
# Poissons Ratio (y) = 0.37521 0.23777
# Poissons Ratio (z) = 0.21279 0.16307
#
# Static dielectric constant tensor:
#      x y z
#    x 2.061740 0.049360 -0.074560 
#    y 0.049360 2.141710 -0.079100 
#    z -0.074560 -0.079100 2.129150 
# 
# From -- ./inp_files/114675.got.cif
#   From: 2010.05.17/outbox.cif.g08.bks.cpg/sg2_58_cif.got.tgz:114675.got - 2010.06.03 11:33:40.
