data_PCOD9104080
_publ_section_title
;
Structure prediction by ZEFSAII (Michael W. Deem and Ramdas Pophale) SiO2 
 PCOD9104080
Probable space group: P -1
;
_chemical_formula_sum "Si O2"
_cell_formula_units_Z 14
_cell_length_a 21.158140
_cell_length_b 5.502341
_cell_length_c 5.223155
_cell_angle_alpha 79.306916
_cell_angle_beta 68.803944
_cell_angle_gamma 70.184271
_cell_volume 531.992512
_symmetry_space_group_name_H-M "P -1"
_symmetry_group_IT_number 2
_symmetry_cell_setting 'triclinic'
loop_
_space_group_symop_operation_xyz
x,y,z
-x,-y,-z
loop_
_atom_site_type_symbol
_atom_site_label
_atom_site_fract_x
_atom_site_fract_y
_atom_site_fract_z
Si Si1 0.273697 0.867077 0.933991
Si Si2 0.803398 0.363636 0.291617
Si Si3 0.074275 0.021428 0.980491
Si Si4 0.863585 0.926274 0.620299
Si Si5 0.325405 0.392330 0.315003
Si Si6 0.457007 0.379147 0.389945
Si Si7 0.409256 0.984328 0.901908
O O1 0.242047 0.822450 0.716160
O O2 0.349561 0.908865 0.841542
O O3 0.211532 0.076351 0.145542
O O4 0.289548 0.583576 0.100838
O O5 0.870860 0.274883 0.024771
O O6 0.843408 0.232884 0.514942
O O7 0.740096 0.615800 0.405159
O O8 0.105229 0.174908 0.684569
O O9 0.079129 0.141922 0.225526
O O10 0.000000 0.000000 0.000000
O O11 0.382700 0.517043 0.334611
O O12 0.371799 0.123483 0.183708
O O13 0.500000 0.500000 0.500000
O O14 0.431686 0.185075 0.648633
O O15 0.516552 0.235018 0.124284
#
# Coordination Sequence:
#
# PCOD9104080 Si02
#       7
#     2   2   2   2   2   2   2
#     4  10  20  39  57  83 118 159 199 255 298 363
#     4   8  18  32  54  80 118 155 193 244 301 344
#     4   9  15  28  51  89 124 158 201 244 296 360
#     4   8  17  29  52  82 123 158 199 248 296 348
#     4  11  21  38  58  82 115 151 201 252 307 355
#     4  11  25  42  56  82 117 153 198 258 310 367
#     4  11  24  37  60  84 110 156 205 245 316 364
#
# _framework density 26.316157
#
# number of rings (size 3 to 8) (size 9 to 14) (size 15 to 20)
#    0.857    1.429    0.000    3.429    0.000    6.857 
#    0.000    0.000    0.000    0.000    0.000    5.000 
#    0.000    0.143    0.000    0.000    0.000    0.000 
#
# Total GULP energy -78043.823492 kJ/mol
# GULP energy per Si atom -5574.558821 kJ/mol
# Density = 2.625626 g / cm^3
# Si number density = 26.316157 Si / 1000 Ang^3
#
#
#
# Elastic Constant Matrix: (Units=GPa)
#
#
# Indices 1 2 3 4 5 6 
#
# 1 137.7975 10.8426 23.1290 0.2770 13.7922 -6.3586
# 2 10.8426 35.0696 5.1386 4.9769 -0.6700 6.7459
# 3 23.1290 5.1386 110.3722 1.2916 24.0261 3.1442
# 4 0.2770 4.9769 1.2916 32.0889 -4.5268 -8.5715
# 5 13.7922 -0.6700 24.0261 -4.5268 47.2687 -1.8638
# 6 -6.3586 6.7459 3.1442 -8.5715 -1.8638 15.3180
#
#
#
# Elastic Compliance Matrix: (Units=1/GPa)
#
#
# Indices 1 2 3 4 5 6 
#
# 1 0.008233 -0.003908 -0.001484 0.002155 -0.001241 0.006498
# 2 -0.003908 0.036125 0.000089 -0.012170 -0.000521 -0.024423
# 3 -0.001484 0.000089 0.010724 -0.002518 -0.005452 -0.004929
# 4 0.002155 -0.012170 -0.002518 0.042257 0.005752 0.031117
# 5 -0.001241 -0.000521 -0.005452 0.005752 0.025113 0.007108
# 6 0.006498 -0.024423 -0.004929 0.031117 0.007108 0.098025
#
#
# Mechanical properties :
#
#
# Convention : Reuss Voigt Hill
#
# Bulk Modulus (GPa) = 22.48375 40.16219 31.32297
# Shear Modulus (GPa) = 20.33284 35.21037 27.77160
#
# Velocity S-wave (km/s) = 2.78265 3.66180 3.25207
# Velocity P-wave (km/s) = 4.34585 5.75960 5.10193
#
# Compressibility (1/GPa) = 0.04447658
#
# Stress axis : x y z
#
# Youngs Moduli (GPa) = 121.45846 27.68169 93.25126
#
# Poissons Ratio (x) = 0.10817 0.13835
# Poissons Ratio (y) = 0.47463 -0.00827
# Poissons Ratio (z) = 0.18019 -0.00245
#
# Static dielectric constant tensor:
#      x y z
#    x 2.028010 -0.007920 -0.003570 
#    y -0.007920 2.226220 -0.009980 
#    z -0.003570 -0.009980 2.211300 
# 
# From -- ./inp_files/56587.got.cif
#   From: 2010.05.17/outbox.cif.g08.bks.cpg/sg2_29_cif.got.tgz:56587.got - 2010.06.03 11:33:40.
