data_PCOD9104467
_publ_section_title
;
Structure prediction by ZEFSAII (Michael W. Deem and Ramdas Pophale) SiO2 
 PCOD9104467
Probable space group: P -1
;
_chemical_formula_sum "Si O2"
_cell_formula_units_Z 16
_cell_length_a 9.335371
_cell_length_b 21.322835
_cell_length_c 24.975514
_cell_angle_alpha 17.741416
_cell_angle_beta 38.878218
_cell_angle_gamma 31.916930
_cell_volume 786.953598
_symmetry_space_group_name_H-M "P -1"
_symmetry_group_IT_number 2
_symmetry_cell_setting 'triclinic'
loop_
_space_group_symop_operation_xyz
x,y,z
-x,-y,-z
loop_
_atom_site_type_symbol
_atom_site_label
_atom_site_fract_x
_atom_site_fract_y
_atom_site_fract_z
Si Si1 0.453795 0.789838 0.967610
Si Si2 0.563066 0.149496 0.492444
Si Si3 0.149928 0.536392 0.229444
Si Si4 0.933493 0.354009 0.233210
Si Si5 0.244453 0.408051 0.791903
Si Si6 0.354866 0.070275 0.869532
Si Si7 0.421666 0.475646 0.482885
Si Si8 0.156203 0.284262 0.586839
O O1 0.313294 0.909048 0.969578
O O2 0.350973 0.022557 0.770948
O O3 0.336071 0.645559 0.091249
O O4 0.777473 0.604792 0.039064
O O5 0.355007 0.250008 0.421295
O O6 0.777730 0.226749 0.362246
O O7 0.357618 0.310989 0.469027
O O8 0.742191 0.857370 0.690892
O O9 0.001490 0.561135 0.197137
O O10 0.907292 0.705739 0.205352
O O11 0.861327 0.431995 0.252939
O O12 0.407246 0.486344 0.642485
O O13 0.443878 0.124601 0.985491
O O14 0.466907 0.205663 0.691573
O O15 0.500000 0.500000 0.500000
O O16 0.098039 0.684318 0.397310
O O17 0.000000 0.500000 0.500000
#
# Coordination Sequence:
#
# PCOD9104467 Si02
#       8
#     2   2   2   2   2   2   2   2
#     4  10  22  36  58  84 119 156 198 241 295 351
#     4  10  20  39  61  83 117 149 205 242 286 356
#     4  11  20  37  58  86 117 157 194 242 293 358
#     4   9  22  40  59  82 111 162 197 243 293 348
#     4  11  23  38  60  87 123 161 192 242 302 355
#     4  11  21  38  56  88 124 157 191 244 299 357
#     4  12  23  36  57  92 124 154 191 240 308 355
#     4  12  21  36  60  91 117 151 192 248 294 350
#
# _framework density 20.331565999999999
#
# number of rings (size 3 to 8) (size 9 to 14) (size 15 to 20)
#    0.000    1.250    3.750    2.250    1.750    3.000 
#    0.000    0.000    0.000    0.750    0.000    0.000 
#    0.000    0.000    0.000    0.000    0.000    0.000 
#
# Total GULP energy -89198.957499 kJ/mol
# GULP energy per Si atom -5574.934844 kJ/mol
# Density = 2.028529 g / cm^3
# Si number density = 20.331566 Si / 1000 Ang^3
#
#
#
# Elastic Constant Matrix: (Units=GPa)
#
#
# Indices 1 2 3 4 5 6 
#
# 1 101.1802 12.6021 39.2505 -8.0593 32.0773 -14.6161
# 2 12.6021 55.8260 27.7870 -17.1597 17.9991 -3.0064
# 3 39.2505 27.7870 124.4713 -17.8631 38.1244 -11.9538
# 4 -8.0593 -17.1597 -17.8631 31.8167 -8.0264 6.4704
# 5 32.0773 17.9991 38.1244 -8.0264 38.6735 -5.9782
# 6 -14.6161 -3.0064 -11.9538 6.4704 -5.9782 16.6055
#
#
#
# Elastic Compliance Matrix: (Units=1/GPa)
#
#
# Indices 1 2 3 4 5 6 
#
# 1 0.014667 0.000700 -0.000838 -0.000844 -0.010449 0.009000
# 2 0.000700 0.024603 -0.001899 0.010987 -0.008438 -0.003615
# 3 -0.000838 -0.001899 0.012334 0.002604 -0.009521 0.003356
# 4 -0.000844 0.010987 0.002604 0.041147 -0.000463 -0.013078
# 5 -0.010449 -0.008438 -0.009521 -0.000463 0.047707 -0.000224
# 6 0.009000 -0.003615 0.003356 -0.013078 -0.000224 0.074919
#
#
# Mechanical properties :
#
#
# Convention : Reuss Voigt Hill
#
# Bulk Modulus (GPa) = 21.03885 48.97295 35.00590
# Shear Modulus (GPa) = 21.25001 30.87501 26.06251
#
# Velocity S-wave (km/s) = 3.23642 3.90112 3.58421
# Velocity P-wave (km/s) = 4.93318 6.66566 5.86376
#
# Compressibility (1/GPa) = 0.04753113
#
# Stress axis : x y z
#
# Youngs Moduli (GPa) = 68.18148 40.64572 81.07424
#
# Poissons Ratio (x) = -0.02847 0.06790
# Poissons Ratio (y) = -0.04775 0.15398
# Poissons Ratio (z) = 0.05710 0.07720
#
# Static dielectric constant tensor:
#      x y z
#    x 1.766710 -0.012530 0.001450 
#    y -0.012530 1.745760 0.010830 
#    z 0.001450 0.010830 1.815360 
# 
# From -- ./inp_files/203160.got.cif
#   From: 2010.05.17/outbox.cif.g08.bks.cpg/sg2_102_cif.got.tgz:203160.got - 2010.06.03 11:33:40.
