data_PCOD9104729
_publ_section_title
;
Structure prediction by ZEFSAII (Michael W. Deem and Ramdas Pophale) SiO2 
 PCOD9104729
Probable space group: P -1
;
_chemical_formula_sum "Si O2"
_cell_formula_units_Z 16
_cell_length_a 7.190843
_cell_length_b 16.539877
_cell_length_c 9.963604
_cell_angle_alpha 102.287261
_cell_angle_beta 133.866582
_cell_angle_gamma 72.419499
_cell_volume 814.437860
_symmetry_space_group_name_H-M "P -1"
_symmetry_group_IT_number 2
_symmetry_cell_setting 'triclinic'
loop_
_space_group_symop_operation_xyz
x,y,z
-x,-y,-z
loop_
_atom_site_type_symbol
_atom_site_label
_atom_site_fract_x
_atom_site_fract_y
_atom_site_fract_z
Si Si1 0.062666 0.432190 0.627071
Si Si2 0.310911 0.093223 0.941453
Si Si3 0.296495 0.856564 0.318393
Si Si4 0.436735 0.601621 0.525653
Si Si5 0.619047 0.330829 0.780215
Si Si6 0.671231 0.114771 0.354637
Si Si7 0.729653 0.915082 0.380435
Si Si8 0.003136 0.442184 0.112106
O O1 0.328563 0.365554 0.704926
O O2 0.000000 0.500000 0.500000
O O3 0.826614 0.383229 0.512842
O O4 0.081584 0.490515 0.786494
O O5 0.311234 0.125525 0.799948
O O6 0.006819 0.090158 0.818160
O O7 0.441394 0.140306 0.138730
O O8 0.500000 0.000000 0.000000
O O9 0.297013 0.769742 0.210914
O O10 0.365517 0.838556 0.503999
O O11 0.516867 0.898239 0.374337
O O12 0.500000 0.500000 0.500000
O O13 0.385482 0.642845 0.369440
O O14 0.703804 0.613708 0.732043
O O15 0.808933 0.379981 0.970022
O O16 0.960308 0.117268 0.441123
O O17 0.687677 0.016178 0.369812
O O18 0.000000 0.500000 0.000000
#
# Coordination Sequence:
#
# PCOD9104729 Si02
#       8
#     2   2   2   2   2   2   2   2
#     4  11  20  39  66  87 116 157 209 253 294 367
#     4   9  20  39  63  89 120 161 205 247 292 368
#     4  11  24  37  59  92 131 154 202 258 307 355
#     4  10  20  39  62  87 117 152 205 254 298 358
#     4  12  24  39  59  93 126 159 199 261 312 350
#     4   9  19  38  65  85 119 165 201 244 299 365
#     4   9  19  38  62  93 118 158 209 244 295 367
#     4  11  20  40  67  87 114 162 210 248 302 364
#
# _framework density 19.645451999999999
#
# number of rings (size 3 to 8) (size 9 to 14) (size 15 to 20)
#    0.000    1.750    5.000    1.500    0.000    6.000 
#    0.000    0.000    2.750    0.000    0.000    0.000 
#    0.000    0.000    0.000    0.000    0.000    0.000 
#
# Total GULP energy -89265.994384 kJ/mol
# GULP energy per Si atom -5579.124649 kJ/mol
# Density = 1.960074 g / cm^3
# Si number density = 19.645452 Si / 1000 Ang^3
#
#
#
# Elastic Constant Matrix: (Units=GPa)
#
#
# Indices 1 2 3 4 5 6 
#
# 1 159.8760 16.4645 37.2877 -4.2028 18.3897 -1.4256
# 2 16.4645 32.3434 -18.3483 -1.0679 1.1930 -11.2616
# 3 37.2877 -18.3483 75.8866 -13.0477 1.7410 -9.8032
# 4 -4.2028 -1.0679 -13.0477 3.5925 -3.8471 -10.6789
# 5 18.3897 1.1930 1.7410 -3.8471 38.0642 2.9214
# 6 -1.4256 -11.2616 -9.8032 -10.6789 2.9214 9.5054
#
#
#
# Elastic Compliance Matrix: (Units=1/GPa)
#
#
# Indices 1 2 3 4 5 6 
#
# 1 0.007855 -0.003589 -0.002666 0.008271 -0.003063 0.004410
# 2 -0.003589 0.026616 -0.000345 -0.039841 -0.002076 -0.013482
# 3 -0.002666 -0.000345 0.008489 -0.021897 -0.000025 -0.016646
# 4 0.008271 -0.039841 -0.021897 0.002786 0.003642 -0.066534
# 5 -0.003063 -0.002076 -0.000025 0.003642 0.028776 -0.007697
# 6 0.004410 -0.013482 -0.016646 -0.066534 -0.007697 0.000341
#
#
# Mechanical properties :
#
#
# Convention : Reuss Voigt Hill
#
# Bulk Modulus (GPa) = 33.60129 37.65710 35.62919
# Shear Modulus (GPa) = 51.02873 25.74589 38.38731
#
# Velocity S-wave (km/s) = 5.10208 3.62405 4.42521
# Velocity P-wave (km/s) = 7.20064 6.05983 6.65473
#
# Compressibility (1/GPa) = 0.02976076
#
# Stress axis : x y z
#
# Youngs Moduli (GPa) = 127.30342 37.57114 117.79636
#
# Poissons Ratio (x) = 0.13485 0.31399
# Poissons Ratio (y) = 0.45692 0.04066
# Poissons Ratio (z) = 0.33933 0.01297
#
# Static dielectric constant tensor:
#      x y z
#    x 1.721840 -0.023880 0.000810 
#    y -0.023880 1.679130 0.030320 
#    z 0.000810 0.030320 1.728530 
# 
# From -- ./inp_files/139092.got.cif
#   From: 2010.05.17/outbox.cif.g08.bks.cpg/sg2_70_cif.got.tgz:139092.got - 2010.06.03 11:33:40.
