data_PCOD9104545
_publ_section_title
;
Structure prediction by ZEFSAII (Michael W. Deem and Ramdas Pophale) SiO2 
 PCOD9104545
Probable space group: P -1
;
_chemical_formula_sum "Si O2"
_cell_formula_units_Z 16
_cell_length_a 29.214687
_cell_length_b 14.033153
_cell_length_c 8.370651
_cell_angle_alpha 127.493857
_cell_angle_beta 44.330243
_cell_angle_gamma 159.675928
_cell_volume 805.188213
_symmetry_space_group_name_H-M "P -1"
_symmetry_group_IT_number 2
_symmetry_cell_setting 'triclinic'
loop_
_space_group_symop_operation_xyz
x,y,z
-x,-y,-z
loop_
_atom_site_type_symbol
_atom_site_label
_atom_site_fract_x
_atom_site_fract_y
_atom_site_fract_z
Si Si1 0.291527 0.807543 0.758276
Si Si2 0.827331 0.650013 0.385005
Si Si3 0.232840 0.076992 0.130560
Si Si4 0.759913 0.130416 0.338641
Si Si5 0.937472 0.389467 0.720429
Si Si6 0.452229 0.556296 0.631287
Si Si7 0.161736 0.157451 0.157183
Si Si8 0.387815 0.522101 0.397273
O O1 0.271245 0.635036 0.670300
O O2 0.228454 0.733535 0.662079
O O3 0.463694 0.148466 0.675479
O O4 0.184119 0.707125 0.040940
O O5 0.811417 0.682308 0.634465
O O6 0.760847 0.639307 0.420322
O O7 0.009239 0.923030 0.192836
O O8 0.132149 0.999177 0.193847
O O9 0.370050 0.386442 0.173457
O O10 0.144845 0.871407 0.289386
O O11 0.276274 0.038219 0.868039
O O12 0.917146 0.359187 0.266839
O O13 0.614755 0.898062 0.582255
O O14 0.000000 0.500000 0.500000
O O15 0.500000 0.500000 0.500000
O O16 0.397850 0.484721 0.511089
O O17 0.315047 0.375592 0.901046
#
# Coordination Sequence:
#
# PCOD9104545 Si02
#       8
#     2   2   2   2   2   2   2   2
#     4  10  21  40  62  84 128 169 205 254 307 373
#     4  10  21  41  63  84 126 168 219 243 301 383
#     4  10  20  39  61  88 125 160 210 255 304 382
#     4  10  21  39  59  90 125 164 200 250 325 368
#     4  11  24  36  60  95 126 160 202 258 320 365
#     4  11  23  38  63  94 130 154 204 267 314 361
#     4  10  21  39  65  92 116 173 208 256 311 364
#     4  10  24  39  62  96 118 168 212 254 311 360
#
# _framework density 19.871130000000001
#
# number of rings (size 3 to 8) (size 9 to 14) (size 15 to 20)
#    0.000    1.750    1.250    3.375    1.750    7.000 
#    0.000    6.250    0.000    0.000    0.000    0.000 
#    0.000    0.000    0.000    0.000    0.000    0.000 
#
# Total GULP energy -89316.793077 kJ/mol
# GULP energy per Si atom -5582.299567 kJ/mol
# Density = 1.982590 g / cm^3
# Si number density = 19.871130 Si / 1000 Ang^3
#
#
#
# Elastic Constant Matrix: (Units=GPa)
#
#
# Indices 1 2 3 4 5 6 
#
# 1 98.8993 21.5605 28.7094 -4.7170 -12.3474 -3.6622
# 2 21.5605 82.9375 28.5978 -0.2287 -1.9679 -4.5911
# 3 28.7094 28.5978 91.9989 -25.7745 -6.5607 -8.2296
# 4 -4.7170 -0.2287 -25.7745 26.5643 -3.5463 -2.3558
# 5 -12.3474 -1.9679 -6.5607 -3.5463 31.1175 -6.3185
# 6 -3.6622 -4.5911 -8.2296 -2.3558 -6.3185 25.2295
#
#
#
# Elastic Compliance Matrix: (Units=1/GPa)
#
#
# Indices 1 2 3 4 5 6 
#
# 1 0.011922 -0.002037 -0.002497 0.000424 0.004470 0.001704
# 2 -0.002037 0.014485 -0.005787 -0.006164 -0.001938 -0.000608
# 3 -0.002497 -0.005787 0.020826 0.021515 0.007360 0.009230
# 4 0.000424 -0.006164 0.021515 0.061837 0.014480 0.015358
# 5 0.004470 -0.001938 0.007360 0.014480 0.039837 0.014026
# 6 0.001704 -0.000608 0.009230 0.015358 0.014026 0.047730
#
#
# Mechanical properties :
#
#
# Convention : Reuss Voigt Hill
#
# Bulk Modulus (GPa) = 37.60582 47.95235 42.77908
# Shear Modulus (GPa) = 22.10995 29.58011 25.84503
#
# Velocity S-wave (km/s) = 3.33929 3.86242 3.61034
# Velocity P-wave (km/s) = 5.81667 6.63891 6.24135
#
# Compressibility (1/GPa) = 0.02659163
#
# Stress axis : x y z
#
# Youngs Moduli (GPa) = 83.88194 69.03486 48.01716
#
# Poissons Ratio (x) = 0.14059 0.11990
# Poissons Ratio (y) = 0.17083 0.27787
# Poissons Ratio (z) = 0.20946 0.39950
#
# Static dielectric constant tensor:
#      x y z
#    x 1.712480 0.006900 -0.005330 
#    y 0.006900 1.732510 -0.012280 
#    z -0.005330 -0.012280 1.696960 
# 
# From -- ./inp_files/358868.got.cif
#   From: 2010.05.17/outbox.cif.g08.bks.cpg/sg2_180_cif.got.tgz:358868.got - 2010.06.03 11:33:40.
