data_PCOD9104657
_publ_section_title
;
Structure prediction by ZEFSAII (Michael W. Deem and Ramdas Pophale) SiO2 
 PCOD9104657
Probable space group: P -1
;
_chemical_formula_sum "Si O2"
_cell_formula_units_Z 16
_cell_length_a 8.245047
_cell_length_b 17.247235
_cell_length_c 18.750255
_cell_angle_alpha 30.695949
_cell_angle_beta 143.217375
_cell_angle_gamma 144.862875
_cell_volume 738.782067
_symmetry_space_group_name_H-M "P -1"
_symmetry_group_IT_number 2
_symmetry_cell_setting 'triclinic'
loop_
_space_group_symop_operation_xyz
x,y,z
-x,-y,-z
loop_
_atom_site_type_symbol
_atom_site_label
_atom_site_fract_x
_atom_site_fract_y
_atom_site_fract_z
Si Si1 0.370981 0.301853 0.527629
Si Si2 0.697302 0.434242 0.986836
Si Si3 0.253607 0.805840 0.680443
Si Si4 0.312814 0.320730 0.114308
Si Si5 0.759451 0.693735 0.360774
Si Si6 0.622931 0.154552 0.974773
Si Si7 0.330375 0.109240 0.053554
Si Si8 0.585512 0.122434 0.619907
O O1 0.616853 0.492525 0.470824
O O2 0.297477 0.241770 0.632296
O O3 0.490962 0.215983 0.575762
O O4 0.051896 0.281117 0.401460
O O5 0.757165 0.323662 0.157884
O O6 0.416921 0.301831 0.950128
O O7 0.670682 0.604555 0.861048
O O8 0.000000 0.500000 0.000000
O O9 0.538254 0.807108 0.736894
O O10 0.320083 0.996050 0.575574
O O11 0.500000 0.500000 0.000000
O O12 0.980664 0.247981 0.023165
O O13 0.560815 0.739685 0.197024
O O14 0.107125 0.768126 0.400331
O O15 0.544969 0.105739 0.068444
O O16 0.500000 0.000000 0.000000
O O17 0.355395 0.018805 0.204957
O O18 0.000000 0.000000 0.000000
#
# Coordination Sequence:
#
# PCOD9104657 Si02
#       8
#     2   2   2   2   2   2   2   2
#     4  11  25  46  65  94 131 183 225 272 321 391
#     4  10  20  39  61  96 129 167 213 264 334 393
#     4  10  23  42  65  92 131 166 224 270 320 398
#     4  10  21  38  62  93 131 169 209 270 333 387
#     4  11  24  44  66  96 134 172 229 268 328 403
#     4  12  23  39  67  98 135 169 210 280 341 393
#     4  11  23  39  64  99 131 164 213 275 337 398
#     4  11  23  45  67  96 132 172 226 274 331 396
#
# _framework density 21.657267000000001
#
# number of rings (size 3 to 8) (size 9 to 14) (size 15 to 20)
#    0.000    1.250    2.500    3.750    3.500    0.500 
#    6.750    0.000    0.000    0.000    0.000    0.000 
#    0.000    0.000    0.000    0.000    0.000    0.000 
#
# Total GULP energy -89161.060555 kJ/mol
# GULP energy per Si atom -5572.566285 kJ/mol
# Density = 2.160797 g / cm^3
# Si number density = 21.657267 Si / 1000 Ang^3
#
#
#
# Elastic Constant Matrix: (Units=GPa)
#
#
# Indices 1 2 3 4 5 6 
#
# 1 119.6377 52.6241 13.6596 -9.8663 15.1412 1.5985
# 2 52.6241 145.4016 22.1741 10.4647 6.9785 -3.0009
# 3 13.6596 22.1741 22.6252 4.3490 7.4332 5.9435
# 4 -9.8663 10.4647 4.3490 27.6503 -3.2942 12.0072
# 5 15.1412 6.9785 7.4332 -3.2942 31.2822 -5.4287
# 6 1.5985 -3.0009 5.9435 12.0072 -5.4287 40.1985
#
#
#
# Elastic Compliance Matrix: (Units=1/GPa)
#
#
# Indices 1 2 3 4 5 6 
#
# 1 0.011576 -0.004250 -0.002039 0.006924 -0.003976 -0.003081
# 2 -0.004250 0.010003 -0.007793 -0.005592 0.001779 0.003979
# 3 -0.002039 -0.007793 0.061234 -0.004724 -0.014065 -0.010043
# 4 0.006924 -0.005592 -0.004724 0.047790 0.001613 -0.014051
# 5 -0.003976 0.001779 -0.014065 0.001613 0.038230 0.007052
# 6 -0.003081 0.003979 -0.010043 -0.014051 0.007052 0.031930
#
#
# Mechanical properties :
#
#
# Convention : Reuss Voigt Hill
#
# Bulk Modulus (GPa) = 18.29815 51.62004 34.95910
# Shear Modulus (GPa) = 20.23114 33.10664 26.66889
#
# Velocity S-wave (km/s) = 3.05970 3.91405 3.51295
# Velocity P-wave (km/s) = 4.57708 6.65681 5.71239
#
# Compressibility (1/GPa) = 0.05465032
#
# Stress axis : x y z
#
# Youngs Moduli (GPa) = 86.38486 99.96777 16.33086
#
# Poissons Ratio (x) = 0.42484 0.03330
# Poissons Ratio (y) = 0.36712 0.12726
# Poissons Ratio (z) = 0.17615 0.77900
#
# Static dielectric constant tensor:
#      x y z
#    x 0.638420 0.817590 -0.187190 
#    y 0.817590 1.243060 0.111680 
#    z -0.187190 0.111680 1.751660 
# 
# From -- ./inp_files/591230.got.cif
#   From: 2010.05.17/outbox.cif.g08.bks.cpg/sg2_296_cif.got.tgz:591230.got - 2010.06.03 11:33:40.
