data_PCOD9104505
_publ_section_title
;
Structure prediction by ZEFSAII (Michael W. Deem and Ramdas Pophale) SiO2 
 PCOD9104505
Probable space group: P -1
;
_chemical_formula_sum "Si O2"
_cell_formula_units_Z 14
_cell_length_a 18.288543
_cell_length_b 7.175258
_cell_length_c 10.981569
_cell_angle_alpha 122.368693
_cell_angle_beta 32.963670
_cell_angle_gamma 103.266127
_cell_volume 581.674043
_symmetry_space_group_name_H-M "P -1"
_symmetry_group_IT_number 2
_symmetry_cell_setting 'triclinic'
loop_
_space_group_symop_operation_xyz
x,y,z
-x,-y,-z
loop_
_atom_site_type_symbol
_atom_site_label
_atom_site_fract_x
_atom_site_fract_y
_atom_site_fract_z
Si Si1 0.834838 0.709240 0.351112
Si Si2 0.603061 0.696406 0.256596
Si Si3 0.553446 0.826907 0.631562
Si Si4 0.873115 0.152394 0.329269
Si Si5 0.805542 0.924876 0.721773
Si Si6 0.567557 0.336741 0.729002
Si Si7 0.092842 0.686672 0.401600
O O1 0.684675 0.704795 0.507589
O O2 0.832431 0.731161 0.507242
O O3 0.827652 0.963566 0.397034
O O4 0.000000 0.500000 0.000000
O O5 0.604549 0.644704 0.379298
O O6 0.523301 0.576870 0.239904
O O7 0.500000 0.000000 0.500000
O O8 0.774709 0.582840 0.925322
O O9 0.565181 0.076745 0.665808
O O10 0.374309 0.933826 0.946459
O O11 0.733023 0.312132 0.491675
O O12 0.906779 0.286136 0.442884
O O13 0.000000 0.000000 0.000000
O O14 0.924484 0.782849 0.614940
O O15 0.852085 0.126115 0.671765
O O16 0.500000 0.500000 0.000000
#
# Coordination Sequence:
#
# PCOD9104505 Si02
#       7
#     2   2   2   2   2   2   2
#     4  10  21  41  60  86 129 161 202 261 313 371
#     4  10  21  39  60  89 127 162 203 258 315 364
#     4  10  22  38  63  93 120 159 214 254 309 378
#     4  10  22  38  61  91 121 164 212 251 311 377
#     4  10  22  39  63  92 122 165 212 254 317 374
#     4  10  20  39  61  86 125 162 202 259 311 366
#     4  10  21  41  62  89 133 162 204 267 311 368
#
# _framework density 24.068463999999999
#
# number of rings (size 3 to 8) (size 9 to 14) (size 15 to 20)
#    0.000    2.000    1.429    1.286    2.000    1.714 
#    2.571    2.857    0.000    0.000    0.000    0.000 
#    0.000    0.000    0.000    0.000    0.000    0.000 
#
# Total GULP energy -78206.749942 kJ/mol
# GULP energy per Si atom -5586.196424 kJ/mol
# Density = 2.401368 g / cm^3
# Si number density = 24.068464 Si / 1000 Ang^3
#
#
#
# Elastic Constant Matrix: (Units=GPa)
#
#
# Indices 1 2 3 4 5 6 
#
# 1 247.5444 45.8630 121.5164 -14.7024 -6.5522 18.3733
# 2 45.8630 76.5854 17.2245 -3.7505 -6.7987 2.9387
# 3 121.5164 17.2245 216.9956 -16.2371 -6.8678 17.8923
# 4 -14.7024 -3.7505 -16.2371 34.2272 3.2621 -3.3387
# 5 -6.5522 -6.7987 -6.8678 3.2621 54.7656 1.8177
# 6 18.3733 2.9387 17.8923 -3.3387 1.8177 26.5141
#
#
#
# Elastic Compliance Matrix: (Units=1/GPa)
#
#
# Indices 1 2 3 4 5 6 
#
# 1 0.006278 -0.002960 -0.003072 0.000732 0.000016 -0.001858
# 2 -0.002960 0.014863 0.000564 0.000476 0.001534 -0.000022
# 3 -0.003072 0.000564 0.006604 0.001610 0.000508 -0.002222
# 4 0.000732 0.000476 0.001610 0.030723 -0.001559 0.002329
# 5 0.000016 0.001534 0.000508 -0.001559 0.018675 -0.002001
# 6 -0.001858 -0.000022 -0.002222 0.002329 -0.002001 0.040936
#
#
# Mechanical properties :
#
#
# Convention : Reuss Voigt Hill
#
# Bulk Modulus (GPa) = 59.49393 101.14814 80.32104
# Shear Modulus (GPa) = 37.14203 46.86948 42.00576
#
# Velocity S-wave (km/s) = 3.93260 4.41765 4.18216
# Velocity P-wave (km/s) = 6.73741 8.25453 7.53426
#
# Compressibility (1/GPa) = 0.01680844
#
# Stress axis : x y z
#
# Youngs Moduli (GPa) = 159.28597 67.27907 151.42771
#
# Poissons Ratio (x) = 0.19915 0.46521
# Poissons Ratio (y) = 0.47149 -0.08537
# Poissons Ratio (z) = 0.48936 -0.03793
#
# Static dielectric constant tensor:
#      x y z
#    x 1.935210 -0.016090 0.008710 
#    y -0.016090 2.001680 0.042100 
#    z 0.008710 0.042100 1.920700 
# 
# From -- ./inp_files/168033.got.cif
#   From: 2010.05.17/outbox.cif.g08.bks.cpg/sg2_85_cif.got.tgz:168033.got - 2010.06.03 11:33:40.
