data_PCOD9104981
_publ_section_title
;
Structure prediction by ZEFSAII (Michael W. Deem and Ramdas Pophale) SiO2 
 PCOD9104981
Probable space group: P -1
;
_chemical_formula_sum "Si O2"
_cell_formula_units_Z 12
_cell_length_a 11.547099
_cell_length_b 8.758320
_cell_length_c 8.729743
_cell_angle_alpha 134.765807
_cell_angle_beta 110.377927
_cell_angle_gamma 90.515969
_cell_volume 543.044885
_symmetry_space_group_name_H-M "P -1"
_symmetry_group_IT_number 2
_symmetry_cell_setting 'triclinic'
loop_
_space_group_symop_operation_xyz
x,y,z
-x,-y,-z
loop_
_atom_site_type_symbol
_atom_site_label
_atom_site_fract_x
_atom_site_fract_y
_atom_site_fract_z
Si Si1 0.880133 0.528683 0.866591
Si Si2 0.971854 0.993080 0.800696
Si Si3 0.604359 0.271830 0.729127
Si Si4 0.416672 0.392628 0.533822
Si Si5 0.242994 0.862362 0.068903
Si Si6 0.160260 0.508474 0.536824
O O1 0.731012 0.360802 0.732001
O O2 0.890960 0.496632 0.664997
O O3 0.000000 0.500000 0.000000
O O4 0.907749 0.806924 0.088138
O O5 0.917226 0.719087 0.553484
O O6 0.851168 0.087307 0.811774
O O7 0.000000 0.000000 0.000000
O O8 0.511689 0.408455 0.733944
O O9 0.683508 0.297164 0.941679
O O10 0.500000 0.000000 0.500000
O O11 0.500000 0.500000 0.500000
O O12 0.305741 0.498702 0.580298
O O13 0.344963 0.120464 0.266770
O O14 0.169328 0.734668 0.793430
#
# Coordination Sequence:
#
# PCOD9104981 Si02
#       6
#     2   2   2   2   2   2
#     4  11  20  38  63  89 121 165 200 246 311 362
#     4   9  20  37  61  82 124 157 196 243 307 356
#     4  10  21  39  62  87 124 163 198 250 308 358
#     4  10  20  39  63  86 122 162 205 244 303 362
#     4  10  21  39  61  91 122 155 205 256 299 354
#     4  10  22  39  64  91 118 161 205 250 301 362
#
# _framework density 22.097622000000001
#
# number of rings (size 3 to 8) (size 9 to 14) (size 15 to 20)
#    0.000    2.000    3.333    0.000    0.000    4.000 
#    0.000    2.500    0.000    0.000    0.000    0.000 
#    0.000    0.000    0.000    0.000    0.000    0.000 
#
# Total GULP energy -66813.375937 kJ/mol
# GULP energy per Si atom -5567.781328 kJ/mol
# Density = 2.204733 g / cm^3
# Si number density = 22.097622 Si / 1000 Ang^3
#
#
#
# Elastic Constant Matrix: (Units=GPa)
#
#
# Indices 1 2 3 4 5 6 
#
# 1 122.1379 54.7328 27.4916 4.0514 20.1305 -7.6472
# 2 54.7328 101.0497 16.5744 -0.7415 15.0814 8.4257
# 3 27.4916 16.5744 76.7012 1.3311 3.4826 13.0578
# 4 4.0514 -0.7415 1.3311 32.7069 2.1447 28.4439
# 5 20.1305 15.0814 3.4826 2.1447 28.4749 4.8185
# 6 -7.6472 8.4257 13.0578 28.4439 4.8185 49.4436
#
#
#
# Elastic Compliance Matrix: (Units=1/GPa)
#
#
# Indices 1 2 3 4 5 6 
#
# 1 0.015235 -0.007428 -0.005539 -0.012797 -0.007424 0.013170
# 2 -0.007428 0.014874 0.000912 0.009199 -0.001903 -0.009031
# 3 -0.005539 0.000912 0.016427 0.009487 0.002580 -0.011059
# 4 -0.012797 0.009199 0.009487 0.074757 0.005781 -0.049622
# 5 -0.007424 -0.001903 0.002580 0.005781 0.042137 -0.008937
# 6 0.013170 -0.009031 -0.011059 -0.049622 -0.008937 0.056139
#
#
# Mechanical properties :
#
#
# Convention : Reuss Voigt Hill
#
# Bulk Modulus (GPa) = 44.58690 55.27627 49.93158
# Shear Modulus (GPa) = 19.90814 35.53106 27.71960
#
# Velocity S-wave (km/s) = 3.00479 4.01423 3.54562
# Velocity P-wave (km/s) = 5.67973 6.82307 6.27748
#
# Compressibility (1/GPa) = 0.02242811
#
# Stress axis : x y z
#
# Youngs Moduli (GPa) = 65.63680 67.23061 60.87685
#
# Poissons Ratio (x) = 0.49937 0.33717
# Poissons Ratio (y) = 0.48753 -0.05554
# Poissons Ratio (z) = 0.36354 -0.06133
#
# Static dielectric constant tensor:
#      x y z
#    x 1.916470 -0.014540 0.091950 
#    y -0.014540 1.888970 0.033140 
#    z 0.091950 0.033140 1.878730 
# 
# From -- ./inp_files/27163.got.cif
#   From: 2010.05.17/outbox.cif.g08.bks.cpg/sg2_14_cif.got.tgz:27163.got - 2010.06.03 11:33:40.
