data_PCOD9104658
_publ_section_title
;
Structure prediction by ZEFSAII (Michael W. Deem and Ramdas Pophale) SiO2 
 PCOD9104658
Probable space group: P -1
;
_chemical_formula_sum "Si O2"
_cell_formula_units_Z 14
_cell_length_a 17.323193
_cell_length_b 8.932442
_cell_length_c 7.333735
_cell_angle_alpha 85.497758
_cell_angle_beta 46.014239
_cell_angle_gamma 58.622386
_cell_volume 618.656221
_symmetry_space_group_name_H-M "P -1"
_symmetry_group_IT_number 2
_symmetry_cell_setting 'triclinic'
loop_
_space_group_symop_operation_xyz
x,y,z
-x,-y,-z
loop_
_atom_site_type_symbol
_atom_site_label
_atom_site_fract_x
_atom_site_fract_y
_atom_site_fract_z
Si Si1 0.475360 0.743626 0.138225
Si Si2 0.627620 0.941477 0.419896
Si Si3 0.846217 0.987862 0.934938
Si Si4 0.245231 0.742975 0.629292
Si Si5 0.268795 0.406810 0.491611
Si Si6 0.912284 0.443488 0.568186
Si Si7 0.707500 0.400166 0.053665
O O1 0.339746 0.760163 0.341956
O O2 0.583914 0.553127 0.106088
O O3 0.430457 0.928781 0.312177
O O4 0.567782 0.705294 0.817093
O O5 0.727662 0.714674 0.340539
O O6 0.500000 0.000000 0.500000
O O7 0.718021 0.987296 0.167976
O O8 0.977817 0.778583 0.666321
O O9 0.862444 0.053430 0.101203
O O10 0.795517 0.172131 0.875296
O O11 0.198443 0.631730 0.625958
O O12 0.337268 0.597808 0.666829
O O13 0.189610 0.413924 0.444060
O O14 0.000000 0.500000 0.500000
O O15 0.812397 0.446445 0.872877
#
# Coordination Sequence:
#
# PCOD9104658 Si02
#       7
#     2   2   2   2   2   2   2
#     4  10  20  39  61  96 131 162 205 258 319 379
#     4  11  24  39  65  97 132 166 207 258 323 381
#     4   9  23  40  65  91 123 169 214 253 315 367
#     4   9  20  38  63  93 124 163 208 259 311 378
#     4  11  24  39  64  94 131 167 208 261 316 370
#     4  11  25  44  64  92 127 169 214 263 311 373
#     4   9  20  40  66  89 124 168 214 252 316 368
#
# _framework density 22.62969
#
# number of rings (size 3 to 8) (size 9 to 14) (size 15 to 20)
#    0.857    1.143    0.000    2.571    8.000    1.143 
#    0.000    4.286    0.000    0.000    0.000    0.000 
#    0.000    0.000    0.000    0.000    0.000    0.000 
#
# Total GULP energy -78165.867409 kJ/mol
# GULP energy per Si atom -5583.276244 kJ/mol
# Density = 2.257818 g / cm^3
# Si number density = 22.629690 Si / 1000 Ang^3
#
#
#
# Elastic Constant Matrix: (Units=GPa)
#
#
# Indices 1 2 3 4 5 6 
#
# 1 88.4879 48.1962 12.2395 -7.5157 -6.4254 22.3818
# 2 48.1962 103.1692 28.5661 -6.7136 -14.8209 23.5030
# 3 12.2395 28.5661 52.7155 2.9010 1.7356 12.3385
# 4 -7.5157 -6.7136 2.9010 37.4450 9.1621 1.1904
# 5 -6.4254 -14.8209 1.7356 9.1621 15.9301 -0.4792
# 6 22.3818 23.5030 12.3385 1.1904 -0.4792 27.3768
#
#
#
# Elastic Compliance Matrix: (Units=1/GPa)
#
#
# Indices 1 2 3 4 5 6 
#
# 1 0.016995 -0.006151 0.001469 0.002706 -0.000867 -0.009408
# 2 -0.006151 0.018448 -0.007356 -0.001007 0.015847 -0.007172
# 3 0.001469 -0.007356 0.024335 -0.000578 -0.008750 -0.005981
# 4 0.002706 -0.001007 -0.000578 0.031618 -0.018051 -0.002778
# 5 -0.000867 0.015847 -0.008750 -0.018051 0.088304 -0.006622
# 6 -0.009408 -0.007172 -0.005981 -0.002778 -0.006622 0.053077
#
#
# Mechanical properties :
#
#
# Convention : Reuss Voigt Hill
#
# Bulk Modulus (GPa) = 28.01052 46.93068 37.47060
# Shear Modulus (GPa) = 18.60435 26.50844 22.55639
#
# Velocity S-wave (km/s) = 2.87038 3.42629 3.16058
# Velocity P-wave (km/s) = 4.83633 6.03624 5.46929
#
# Compressibility (1/GPa) = 0.03570087
#
# Stress axis : x y z
#
# Youngs Moduli (GPa) = 58.84236 54.20556 41.09322
#
# Poissons Ratio (x) = 0.33343 -0.06037
# Poissons Ratio (y) = 0.36195 0.30230
# Poissons Ratio (z) = -0.08645 0.39876
#
# Static dielectric constant tensor:
#      x y z
#    x 1.847810 0.032970 0.021900 
#    y 0.032970 1.824830 0.026330 
#    z 0.021900 0.026330 1.849220 
# 
# From -- ./inp_files/326154.got.cif
#   From: 2010.05.17/outbox.cif.g08.bks.cpg/sg2_164_cif.got.tgz:326154.got - 2010.06.03 11:33:40.
