data_PCOD9104063
_publ_section_title
;
Structure prediction by ZEFSAII (Michael W. Deem and Ramdas Pophale) SiO2 
 PCOD9104063
Probable space group: P -1
;
_chemical_formula_sum "Si O2"
_cell_formula_units_Z 16
_cell_length_a 9.050771
_cell_length_b 9.534227
_cell_length_c 13.178240
_cell_angle_alpha 37.915875
_cell_angle_beta 81.681971
_cell_angle_gamma 96.388158
_cell_volume 642.188113
_symmetry_space_group_name_H-M "P -1"
_symmetry_group_IT_number 2
_symmetry_cell_setting 'triclinic'
loop_
_space_group_symop_operation_xyz
x,y,z
-x,-y,-z
loop_
_atom_site_type_symbol
_atom_site_label
_atom_site_fract_x
_atom_site_fract_y
_atom_site_fract_z
Si Si1 0.760754 0.608410 0.462587
Si Si2 0.585006 0.452989 0.383720
Si Si3 0.418044 0.713836 0.750251
Si Si4 0.677006 0.999985 0.987389
Si Si5 0.016177 0.216753 0.493100
Si Si6 0.759331 0.034119 0.477763
Si Si7 0.198875 0.196201 0.100055
Si Si8 0.928927 0.105767 0.040530
O O1 0.694908 0.419342 0.483417
O O2 0.596444 0.606657 0.529093
O O3 0.849893 0.877911 0.254142
O O4 0.885625 0.581774 0.547896
O O5 0.588022 0.339616 0.339731
O O6 0.653122 0.741422 0.189438
O O7 0.303256 0.869492 0.671933
O O8 0.604278 0.881981 0.649764
O O9 0.343656 0.453463 0.961788
O O10 0.798529 0.188262 0.948228
O O11 0.741749 0.974032 0.883946
O O12 0.500000 0.000000 0.000000
O O13 0.899229 0.971642 0.703596
O O14 0.152568 0.146461 0.463255
O O15 0.895526 0.250108 0.403048
O O16 0.075948 0.275865 0.996592
O O17 0.000000 0.000000 0.000000
#
# Coordination Sequence:
#
# PCOD9104063 Si02
#       8
#     2   2   2   2   2   2   2   2
#     4   9  16  31  56  78 103 142 177 214 270 331
#     4   9  17  32  56  80 108 141 178 221 268 334
#     4  10  20  39  57  83 104 152 187 223 273 333
#     4   9  17  32  50  80 115 144 175 220 275 323
#     4  10  20  39  56  83 109 148 179 236 282 312
#     4  10  22  38  59  75 117 144 187 235 273 319
#     4   9  19  35  58  76 109 145 189 220 270 336
#     4   8  15  30  51  71 106 145 170 211 270 326
#
# _framework density 24.914818
#
# number of rings (size 3 to 8) (size 9 to 14) (size 15 to 20)
#    0.000    2.750    1.250    0.750    0.000    1.000 
#    9.000    0.625    0.000    0.000    0.000    0.000 
#    0.000    0.000    0.000    0.000    0.000    0.000 
#
# Total GULP energy -89267.039849 kJ/mol
# GULP energy per Si atom -5579.189991 kJ/mol
# Density = 2.485811 g / cm^3
# Si number density = 24.914818 Si / 1000 Ang^3
#
#
#
# Elastic Constant Matrix: (Units=GPa)
#
#
# Indices 1 2 3 4 5 6 
#
# 1 114.6716 24.8437 8.3078 2.7153 -13.5576 31.3417
# 2 24.8437 60.5069 -13.4272 -4.2960 2.6106 27.7727
# 3 8.3078 -13.4272 104.2978 4.3978 -14.7324 -2.5668
# 4 2.7153 -4.2960 4.3978 25.1988 4.1999 -7.2532
# 5 -13.5576 2.6106 -14.7324 4.1999 34.3333 1.1986
# 6 31.3417 27.7727 -2.5668 -7.2532 1.1986 47.1086
#
#
#
# Elastic Compliance Matrix: (Units=1/GPa)
#
#
# Indices 1 2 3 4 5 6 
#
# 1 0.012084 -0.002103 -0.000433 -0.004732 0.005593 -0.007694
# 2 -0.002103 0.023751 0.002752 0.000417 -0.001075 -0.012362
# 3 -0.000433 0.002752 0.010693 -0.002468 0.004554 -0.001247
# 4 -0.004732 0.000417 -0.002468 0.045022 -0.008813 0.009924
# 5 0.005593 -0.001075 0.004554 -0.008813 0.034626 -0.005077
# 6 -0.007694 -0.012362 -0.001247 0.009924 -0.005077 0.035223
#
#
# Mechanical properties :
#
#
# Convention : Reuss Voigt Hill
#
# Bulk Modulus (GPa) = 21.29538 35.43608 28.36573
# Shear Modulus (GPa) = 28.30904 38.64495 33.47700
#
# Velocity S-wave (km/s) = 3.37446 3.94265 3.66957
# Velocity P-wave (km/s) = 4.87324 5.91437 5.41887
#
# Compressibility (1/GPa) = 0.04695855
#
# Stress axis : x y z
#
# Youngs Moduli (GPa) = 82.75513 42.10303 93.51659
#
# Poissons Ratio (x) = 0.08856 0.04050
# Poissons Ratio (y) = 0.17407 -0.25732
# Poissons Ratio (z) = 0.03584 -0.11585
#
# Static dielectric constant tensor:
#      x y z
#    x 1.118170 -0.153600 -0.283630 
#    y -0.153600 2.040610 -0.098840 
#    z -0.283630 -0.098840 1.915140 
# 
# From -- ./inp_files/226378.got.cif
#   From: 2010.05.17/outbox.cif.g08.bks.cpg/sg2_114_cif.got.tgz:226378.got - 2010.06.03 11:33:40.
