data_PCOD9104159
_publ_section_title
;
Structure prediction by ZEFSAII (Michael W. Deem and Ramdas Pophale) SiO2 
 PCOD9104159
Probable space group: P -1
;
_chemical_formula_sum "Si O2"
_cell_formula_units_Z 16
_cell_length_a 13.853494
_cell_length_b 15.513397
_cell_length_c 15.892073
_cell_angle_alpha 30.578441
_cell_angle_beta 26.527945
_cell_angle_gamma 27.994616
_cell_volume 673.832423
_symmetry_space_group_name_H-M "P -1"
_symmetry_group_IT_number 2
_symmetry_cell_setting 'triclinic'
loop_
_space_group_symop_operation_xyz
x,y,z
-x,-y,-z
loop_
_atom_site_type_symbol
_atom_site_label
_atom_site_fract_x
_atom_site_fract_y
_atom_site_fract_z
Si Si1 0.994473 0.428084 0.216298
Si Si2 0.763016 0.701769 0.540159
Si Si3 0.609665 0.849377 0.965422
Si Si4 0.914465 0.131953 0.801067
Si Si5 0.177602 0.175550 0.925613
Si Si6 0.594798 0.775226 0.795178
Si Si7 0.607868 0.429695 0.642625
Si Si8 0.484153 0.198453 0.524128
O O1 0.218876 0.367029 0.160039
O O2 0.902954 0.656187 0.083784
O O3 0.772716 0.418815 0.443840
O O4 0.106573 0.272616 0.184325
O O5 0.661106 0.694028 0.717565
O O6 0.576978 0.750379 0.567985
O O7 0.000000 0.500000 0.500000
O O8 0.864950 0.854920 0.336854
O O9 0.542356 0.678864 0.171397
O O10 0.500000 0.000000 0.000000
O O11 0.441301 0.992051 0.901643
O O12 0.793426 0.302670 0.681092
O O13 0.686015 0.171024 0.008181
O O14 0.990451 0.924006 0.873849
O O15 0.233261 0.249338 0.732107
O O16 0.632693 0.965090 0.608466
O O17 0.443909 0.653032 0.613202
#
# Coordination Sequence:
#
# PCOD9104159 Si02
#       8
#     2   2   2   2   2   2   2   2
#     4  11  20  41  68  87 127 168 195 253 313 359
#     4  12  22  36  57  88 126 163 213 256 288 348
#     4  11  24  44  67  95 124 151 203 260 304 382
#     4  10  20  39  58  88 123 161 210 252 296 353
#     4   9  21  40  64  90 123 162 204 247 308 369
#     4  11  22  38  60  88 122 171 206 248 304 350
#     4  10  20  41  64  91 121 162 204 246 313 369
#     4  10  20  39  59  88 126 162 208 255 292 363
#
# _framework density 23.744776999999999
#
# number of rings (size 3 to 8) (size 9 to 14) (size 15 to 20)
#    0.000    1.500    6.250    1.125    0.000    4.500 
#    0.000    2.500    0.000    0.000    0.000    0.000 
#    0.000    0.000    0.000    0.000    0.000    0.000 
#
# Total GULP energy -89417.255115 kJ/mol
# GULP energy per Si atom -5588.578445 kJ/mol
# Density = 2.369073 g / cm^3
# Si number density = 23.744777 Si / 1000 Ang^3
#
#
#
# Elastic Constant Matrix: (Units=GPa)
#
#
# Indices 1 2 3 4 5 6 
#
# 1 29.5206 9.5289 8.9276 7.1567 10.4932 23.9048
# 2 9.5289 154.3485 41.0867 -3.7327 7.8806 32.7589
# 3 8.9276 41.0867 83.6965 4.7002 7.3293 18.0667
# 4 7.1567 -3.7327 4.7002 37.9949 10.6787 1.6015
# 5 10.4932 7.8806 7.3293 10.6787 15.5187 6.6361
# 6 23.9048 32.7589 18.0667 1.6015 6.6361 39.9778
#
#
#
# Elastic Compliance Matrix: (Units=1/GPa)
#
#
# Indices 1 2 3 4 5 6 
#
# 1 0.089075 0.007245 0.002140 -0.002791 -0.040169 -0.053387
# 2 0.007245 0.009163 -0.002800 0.001776 -0.005273 -0.009771
# 3 0.002140 -0.002800 0.014559 -0.001138 -0.004045 -0.004848
# 4 -0.002791 0.001776 -0.001138 0.033450 -0.022855 0.003182
# 5 -0.040169 -0.005273 -0.004045 -0.022855 0.106158 0.013463
# 6 -0.053387 -0.009771 -0.004848 0.003182 0.013463 0.064772
#
#
# Mechanical properties :
#
#
# Convention : Reuss Voigt Hill
#
# Bulk Modulus (GPa) = 7.93847 42.96134 25.44991
# Shear Modulus (GPa) = 14.45114 32.56644 23.50879
#
# Velocity S-wave (km/s) = 2.46966 3.70742 3.14994
# Velocity P-wave (km/s) = 3.38863 6.03812 4.89600
#
# Compressibility (1/GPa) = 0.12596887
#
# Stress axis : x y z
#
# Youngs Moduli (GPa) = 11.22651 109.13682 68.68795
#
# Poissons Ratio (x) = -0.79074 -0.14702
# Poissons Ratio (y) = -0.08134 0.19230
# Poissons Ratio (z) = -0.02403 0.30554
#
# Static dielectric constant tensor:
#      x y z
#    x 1.913340 0.022130 0.021190 
#    y 0.022130 1.964710 0.018660 
#    z 0.021190 0.018660 1.934990 
# 
# From -- ./inp_files/212380.got.cif
#   From: 2010.05.17/outbox.cif.g08.bks.cpg/sg2_107_cif.got.tgz:212380.got - 2010.06.03 11:33:40.
