data_PCOD9104415
_publ_section_title
;
Structure prediction by ZEFSAII (Michael W. Deem and Ramdas Pophale) SiO2 
 PCOD9104415
Probable space group: P -1
;
_chemical_formula_sum "Si O2"
_cell_formula_units_Z 14
_cell_length_a 13.429168
_cell_length_b 8.229922
_cell_length_c 10.463612
_cell_angle_alpha 119.195045
_cell_angle_beta 147.320947
_cell_angle_gamma 76.299845
_cell_volume 506.705004
_symmetry_space_group_name_H-M "P -1"
_symmetry_group_IT_number 2
_symmetry_cell_setting 'triclinic'
loop_
_space_group_symop_operation_xyz
x,y,z
-x,-y,-z
loop_
_atom_site_type_symbol
_atom_site_label
_atom_site_fract_x
_atom_site_fract_y
_atom_site_fract_z
Si Si1 0.050614 0.072277 0.436298
Si Si2 0.264926 0.902558 0.084816
Si Si3 0.297440 0.471814 0.957041
Si Si4 0.654337 0.354318 0.288836
Si Si5 0.012621 0.682921 0.932047
Si Si6 0.427065 0.980131 0.721066
Si Si7 0.730587 0.556031 0.796421
O O1 0.212146 0.993535 0.518049
O O2 0.856578 0.039195 0.133807
O O3 0.161104 0.312656 0.650716
O O4 0.000000 0.000000 0.500000
O O5 0.138342 0.882515 0.068731
O O6 0.269132 0.679082 0.002760
O O7 0.490273 0.028206 0.334931
O O8 0.521758 0.489201 0.182333
O O9 0.241254 0.375675 0.000402
O O10 0.876699 0.504435 0.619332
O O11 0.580334 0.209872 0.276703
O O12 0.585706 0.185195 0.038113
O O13 0.851544 0.691898 0.863684
O O14 0.168209 0.610832 0.149200
O O15 0.500000 0.500000 0.500000
#
# Coordination Sequence:
#
# PCOD9104415 Si02
#       7
#     2   2   2   2   2   2   2
#     4  11  24  40  62  94 128 167 203 243 314 387
#     4  11  24  38  61  96 130 158 205 259 307 365
#     4  10  22  36  66  93 122 161 206 262 307 354
#     4  10  20  40  60  90 125 167 205 241 311 379
#     4  10  23  36  66  93 117 162 216 254 301 365
#     4  10  24  37  57  88 137 165 190 249 312 373
#     4  10  20  39  60  93 122 156 207 270 306 346
#
# _framework density 27.629484999999999
#
# number of rings (size 3 to 8) (size 9 to 14) (size 15 to 20)
#    0.000    1.714    1.429    3.000   12.000    1.143 
#    0.000    0.000    0.000   11.143    0.000    0.000 
#    0.000    0.000    0.000    0.000    0.000    0.000 
#
# Total GULP energy -78381.943329 kJ/mol
# GULP energy per Si atom -5598.710238 kJ/mol
# Density = 2.756660 g / cm^3
# Si number density = 27.629485 Si / 1000 Ang^3
#
#
#
# Elastic Constant Matrix: (Units=GPa)
#
#
# Indices 1 2 3 4 5 6 
#
# 1 168.9944 50.2756 60.9642 -6.0741 53.1847 39.0203
# 2 50.2756 105.6126 48.2787 -19.3379 11.7704 10.2871
# 3 60.9642 48.2787 172.8577 2.5148 26.8440 -6.7490
# 4 -6.0741 -19.3379 2.5148 35.7220 -3.4848 8.5337
# 5 53.1847 11.7704 26.8440 -3.4848 47.6688 4.0779
# 6 39.0203 10.2871 -6.7490 8.5337 4.0779 67.2565
#
#
#
# Elastic Compliance Matrix: (Units=1/GPa)
#
#
# Indices 1 2 3 4 5 6 
#
# 1 0.012848 -0.002956 -0.002161 0.001183 -0.011732 -0.006658
# 2 -0.002956 0.013768 -0.003386 0.007888 0.002543 -0.001886
# 3 -0.002161 -0.003386 0.007943 -0.003683 -0.001764 0.003143
# 4 0.001183 0.007888 -0.003683 0.034525 0.001909 -0.006759
# 5 -0.011732 0.002543 -0.001764 0.001909 0.034237 0.003923
# 6 -0.006658 -0.001886 0.003143 -0.006759 0.003923 0.019955
#
#
# Mechanical properties :
#
#
# Convention : Reuss Voigt Hill
#
# Bulk Modulus (GPa) = 56.96862 85.16686 71.06774
# Shear Modulus (GPa) = 34.21517 49.32589 41.77053
#
# Velocity S-wave (km/s) = 3.52285 4.22982 3.89242
# Velocity P-wave (km/s) = 6.10007 7.39910 6.78076
#
# Compressibility (1/GPa) = 0.01755352
#
# Stress axis : x y z
#
# Youngs Moduli (GPa) = 77.83099 72.63163 125.89276
#
# Poissons Ratio (x) = 0.21469 0.27206
# Poissons Ratio (y) = 0.23006 0.42630
# Poissons Ratio (z) = 0.16820 0.24595
#
# Static dielectric constant tensor:
#      x y z
#    x 2.266610 -0.000120 -0.039400 
#    y -0.000120 2.107340 0.075270 
#    z -0.039400 0.075270 2.141540 
# 
# From -- ./inp_files/447708.got.cif
#   From: 2010.05.17/outbox.cif.g08.bks.cpg/sg2_224_cif.got.tgz:447708.got - 2010.06.03 11:33:40.
