data_PCOD9104269
_publ_section_title
;
Structure prediction by ZEFSAII (Michael W. Deem and Ramdas Pophale) SiO2 
 PCOD9104269
Probable space group: P -1
;
_chemical_formula_sum "Si O2"
_cell_formula_units_Z 16
_cell_length_a 9.249483
_cell_length_b 13.588429
_cell_length_c 23.519447
_cell_angle_alpha 26.153083
_cell_angle_beta 44.655081
_cell_angle_gamma 34.310886
_cell_volume 729.048432
_symmetry_space_group_name_H-M "P -1"
_symmetry_group_IT_number 2
_symmetry_cell_setting 'triclinic'
loop_
_space_group_symop_operation_xyz
x,y,z
-x,-y,-z
loop_
_atom_site_type_symbol
_atom_site_label
_atom_site_fract_x
_atom_site_fract_y
_atom_site_fract_z
Si Si1 0.741466 0.962615 0.480913
Si Si2 0.371848 0.911048 0.831597
Si Si3 0.171265 0.398802 0.711356
Si Si4 0.767482 0.693293 0.073081
Si Si5 0.253189 0.697014 0.796724
Si Si6 0.634252 0.438608 0.330251
Si Si7 0.714967 0.475225 0.868089
Si Si8 0.067265 0.962056 0.184248
O O1 0.801080 0.114237 0.340029
O O2 0.681488 0.146446 0.459212
O O3 0.500000 0.000000 0.500000
O O4 0.968246 0.646642 0.597038
O O5 0.596457 0.724602 0.818917
O O6 0.375165 0.120289 0.763117
O O7 0.327461 0.731270 0.980042
O O8 0.113306 0.085716 0.774840
O O9 0.316631 0.495149 0.656042
O O10 0.993197 0.359879 0.823646
O O11 0.750917 0.557427 0.090808
O O12 0.811696 0.483958 0.218067
O O13 0.500000 0.000000 0.000000
O O14 0.954661 0.781206 0.973267
O O15 0.522647 0.581984 0.811977
O O16 0.039271 0.905165 0.793620
O O17 0.350932 0.677599 0.260226
#
# Coordination Sequence:
#
# PCOD9104269 Si02
#       8
#     2   2   2   2   2   2   2   2
#     4  11  22  43  64  88 118 163 216 251 295 370
#     4  10  23  39  63  96 125 156 210 252 307 374
#     4  12  23  41  66  87 126 168 201 254 314 355
#     4   9  19  32  59  88 123 156 199 246 304 374
#     4  10  21  38  61  92 120 162 205 256 306 359
#     4  10  23  39  60  93 122 160 208 246 308 370
#     4  10  22  40  63  94 125 160 205 256 308 367
#     4  10  20  39  59  92 125 158 198 254 311 366
#
# _framework density 21.946415999999999
#
# number of rings (size 3 to 8) (size 9 to 14) (size 15 to 20)
#    0.000    1.750    1.250    2.625    7.000    0.000 
#    9.000    2.500    0.000    0.000    0.000    0.000 
#    0.000    0.000    0.000    0.000    0.000    0.000 
#
# Total GULP energy -89265.245415 kJ/mol
# GULP energy per Si atom -5579.077838 kJ/mol
# Density = 2.189646 g / cm^3
# Si number density = 21.946416 Si / 1000 Ang^3
#
#
#
# Elastic Constant Matrix: (Units=GPa)
#
#
# Indices 1 2 3 4 5 6 
#
# 1 68.0902 16.3787 1.8333 -8.8727 -0.6145 23.5997
# 2 16.3787 49.4527 4.0519 -14.5124 -9.6490 27.7922
# 3 1.8333 4.0519 43.2183 -13.1677 1.0969 11.7286
# 4 -8.8727 -14.5124 -13.1677 22.0544 7.6387 -7.8115
# 5 -0.6145 -9.6490 1.0969 7.6387 32.5410 -9.2384
# 6 23.5997 27.7922 11.7286 -7.8115 -9.2384 39.1246
#
#
#
# Elastic Compliance Matrix: (Units=1/GPa)
#
#
# Indices 1 2 3 4 5 6 
#
# 1 0.020680 0.004021 0.006813 0.011247 -0.005983 -0.016540
# 2 0.004021 0.043629 0.013101 0.027717 -0.003179 -0.032562
# 3 0.006813 0.013101 0.036428 0.029180 -0.009989 -0.020869
# 4 0.011247 0.027717 0.029180 0.083913 -0.018750 -0.022894
# 5 -0.005983 -0.003179 -0.009989 -0.018750 0.038443 0.014196
# 6 -0.016540 -0.032562 -0.020869 -0.022894 0.014196 0.063703
#
#
# Mechanical properties :
#
#
# Convention : Reuss Voigt Hill
#
# Bulk Modulus (GPa) = 6.72910 22.80988 14.76949
# Shear Modulus (GPa) = 17.33332 27.97715 22.65524
#
# Velocity S-wave (km/s) = 2.81339 3.57430 3.21642
# Velocity P-wave (km/s) = 3.69139 5.23929 4.53192
#
# Compressibility (1/GPa) = 0.14860835
#
# Stress axis : x y z
#
# Youngs Moduli (GPa) = 48.35597 22.92054 27.45109
#
# Poissons Ratio (x) = -0.09217 -0.18703
# Poissons Ratio (y) = -0.19446 -0.35964
# Poissons Ratio (z) = -0.32945 -0.30028
#
# Static dielectric constant tensor:
#      x y z
#    x 1.859600 0.033380 0.020640 
#    y 0.033380 1.866330 0.079030 
#    z 0.020640 0.079030 1.893410 
# 
# From -- ./inp_files/181470.got.cif
#   From: 2010.05.17/outbox.cif.g08.bks.cpg/sg2_91_cif.got.tgz:181470.got - 2010.06.03 11:33:40.
