data_PCOD9104032
_publ_section_title
;
Structure prediction by ZEFSAII (Michael W. Deem and Ramdas Pophale) SiO2 
 PCOD9104032
Probable space group: P -1
;
_chemical_formula_sum "Si O2"
_cell_formula_units_Z 16
_cell_length_a 23.990329
_cell_length_b 17.265689
_cell_length_c 5.509882
_cell_angle_alpha 97.839655
_cell_angle_beta 90.304608
_cell_angle_gamma 161.948730
_cell_volume 629.194992
_symmetry_space_group_name_H-M "P -1"
_symmetry_group_IT_number 2
_symmetry_cell_setting 'triclinic'
loop_
_space_group_symop_operation_xyz
x,y,z
-x,-y,-z
loop_
_atom_site_type_symbol
_atom_site_label
_atom_site_fract_x
_atom_site_fract_y
_atom_site_fract_z
Si Si1 0.330506 0.195819 0.974946
Si Si2 0.328764 0.410840 0.597515
Si Si3 0.777600 0.207765 0.256172
Si Si4 0.920056 0.277578 0.962874
Si Si5 0.900784 0.783055 0.176298
Si Si6 0.381153 0.139793 0.584823
Si Si7 0.928365 0.730115 0.662627
Si Si8 0.720214 0.283810 0.531442
O O1 0.522898 0.459910 0.266680
O O2 0.197289 0.947098 0.984987
O O3 0.413250 0.265940 0.767095
O O4 0.167695 0.041535 0.847524
O O5 0.465535 0.653861 0.546220
O O6 0.243342 0.339590 0.804802
O O7 0.131160 0.122224 0.321924
O O8 0.714603 0.211656 0.287858
O O9 0.000000 0.500000 0.500000
O O10 0.624676 0.944269 0.281902
O O11 0.817039 0.221326 0.004122
O O12 0.850599 0.167359 0.643984
O O13 0.143053 0.569085 0.187274
O O14 0.894219 0.721526 0.394363
O O15 0.856286 0.680600 0.878447
O O16 0.820462 0.500862 0.558600
O O17 0.500000 0.000000 0.500000
#
# Coordination Sequence:
#
# PCOD9104032 Si02
#       8
#     2   2   2   2   2   2   2   2
#     4   9  21  40  70  99 142 175 236 283 351 417
#     4  10  25  44  73 106 130 189 238 293 342 434
#     4   9  19  37  60  91 128 177 227 279 336 408
#     4   8  18  38  60  93 127 177 222 284 335 402
#     4  11  28  48  73 102 148 187 234 291 369 415
#     4  10  20  38  73  99 134 176 239 292 338 415
#     4  11  27  48  70 103 149 189 225 300 359 427
#     4  10  22  39  63  94 136 177 231 281 349 420
#
# _framework density 25.429317000000001
#
# number of rings (size 3 to 8) (size 9 to 14) (size 15 to 20)
#    0.000    2.250    0.000    0.750   10.500    6.000 
#    2.250    0.625    0.000    0.000    0.000    0.000 
#    0.000    0.000    0.000    0.000    0.000    0.000 
#
# Total GULP energy -89466.919507 kJ/mol
# GULP energy per Si atom -5591.682469 kJ/mol
# Density = 2.537144 g / cm^3
# Si number density = 25.429317 Si / 1000 Ang^3
#
#
#
# Elastic Constant Matrix: (Units=GPa)
#
#
# Indices 1 2 3 4 5 6 
#
# 1 99.8337 38.8617 39.0630 4.3005 0.9366 1.8485
# 2 38.8617 139.0438 26.4414 8.0860 6.7621 -3.6838
# 3 39.0630 26.4414 77.5396 -9.6169 4.1660 1.8101
# 4 4.3005 8.0860 -9.6169 25.9544 4.8046 9.3714
# 5 0.9366 6.7621 4.1660 4.8046 37.4829 6.1012
# 6 1.8485 -3.6838 1.8101 9.3714 6.1012 45.4675
#
#
#
# Elastic Compliance Matrix: (Units=1/GPa)
#
#
# Indices 1 2 3 4 5 6 
#
# 1 0.013746 -0.002365 -0.006739 -0.004374 0.001354 0.000238
# 2 -0.002365 0.008563 -0.002145 -0.003499 -0.001082 0.001742
# 3 -0.006739 -0.002145 0.018435 0.009907 -0.002380 -0.002356
# 4 -0.004374 -0.003499 0.009907 0.048483 -0.004976 -0.009825
# 5 0.001354 -0.001082 -0.002380 -0.004976 0.028199 -0.002806
# 6 0.000238 0.001742 -0.002356 -0.009825 -0.002806 0.024621
#
#
# Mechanical properties :
#
#
# Convention : Reuss Voigt Hill
#
# Bulk Modulus (GPa) = 54.81034 58.34995 56.58015
# Shear Modulus (GPa) = 29.30364 35.91771 32.61067
#
# Velocity S-wave (km/s) = 3.39832 3.76234 3.58495
# Velocity P-wave (km/s) = 6.08267 6.47065 6.27966
#
# Compressibility (1/GPa) = 0.01824473
#
# Stress axis : x y z
#
# Youngs Moduli (GPa) = 72.75068 116.77756 54.24582
#
# Poissons Ratio (x) = 0.27623 0.36556
# Poissons Ratio (y) = 0.17209 0.11636
# Poissons Ratio (z) = 0.49026 0.25048
#
# Static dielectric constant tensor:
#      x y z
#    x 2.026730 -0.020610 -0.023650 
#    y -0.020610 2.020690 -0.012720 
#    z -0.023650 -0.012720 2.095400 
# 
# From -- ./inp_files/124848.got.cif
#   From: 2010.05.17/outbox.cif.g08.bks.cpg/sg2_63_cif.got.tgz:124848.got - 2010.06.03 11:33:40.
