data_PCOD9104128
_publ_section_title
;
Structure prediction by ZEFSAII (Michael W. Deem and Ramdas Pophale) SiO2 
 PCOD9104128
Probable space group: P -1
;
_chemical_formula_sum "Si O2"
_cell_formula_units_Z 16
_cell_length_a 16.041416
_cell_length_b 8.745032
_cell_length_c 15.906347
_cell_angle_alpha 61.237529
_cell_angle_beta 142.823054
_cell_angle_gamma 90.005907
_cell_volume 815.899646
_symmetry_space_group_name_H-M "P -1"
_symmetry_group_IT_number 2
_symmetry_cell_setting 'triclinic'
loop_
_space_group_symop_operation_xyz
x,y,z
-x,-y,-z
loop_
_atom_site_type_symbol
_atom_site_label
_atom_site_fract_x
_atom_site_fract_y
_atom_site_fract_z
Si Si1 0.977781 0.786707 0.930473
Si Si2 0.390924 0.866775 0.343533
Si Si3 0.654316 0.337951 0.788017
Si Si4 0.230709 0.248359 0.545719
Si Si5 0.558277 0.205929 0.892906
Si Si6 0.869169 0.611450 0.280676
Si Si7 0.262386 0.221391 0.378099
Si Si8 0.498485 0.304422 0.017156
O O1 0.830400 0.863991 0.716559
O O2 0.832311 0.936585 0.853376
O O3 0.117614 0.817401 0.006709
O O4 0.133166 0.493560 0.159193
O O5 0.514474 0.619332 0.566166
O O6 0.397375 0.783834 0.277123
O O7 0.507356 0.944050 0.415603
O O8 0.604877 0.336978 0.843638
O O9 0.361438 0.287503 0.678833
O O10 0.232195 0.253351 0.444963
O O11 0.013628 0.461841 0.356627
O O12 0.338028 0.971064 0.734714
O O13 0.538410 0.257815 0.961838
O O14 0.736660 0.907240 0.096258
O O15 0.714663 0.592643 0.165130
O O16 0.000000 0.500000 0.500000
O O17 0.500000 0.500000 0.000000
#
# Coordination Sequence:
#
# PCOD9104128 Si02
#       8
#     2   2   2   2   2   2   2   2
#     4  10  22  38  57  88 123 152 198 249 292 347
#     4  10  20  39  58  83 121 161 191 242 299 348
#     4  10  22  36  58  89 117 152 202 243 290 351
#     4  11  22  41  65  89 122 161 209 240 298 372
#     4  11  22  41  64  91 123 158 205 248 296 365
#     4  11  21  42  67  88 116 166 202 246 299 358
#     4  10  22  38  60  87 117 159 199 241 296 355
#     4  11  25  42  62  93 127 153 196 257 305 356
#
# _framework density 19.610254000000001
#
# number of rings (size 3 to 8) (size 9 to 14) (size 15 to 20)
#    0.000    1.500    3.750    1.500    1.750    3.500 
#    2.250    0.000    0.000    0.000    0.000    0.000 
#    0.000    0.000    0.000    0.000    0.000    0.000 
#
# Total GULP energy -89352.702074 kJ/mol
# GULP energy per Si atom -5584.543880 kJ/mol
# Density = 1.956562 g / cm^3
# Si number density = 19.610254 Si / 1000 Ang^3
#
#
#
# Elastic Constant Matrix: (Units=GPa)
#
#
# Indices 1 2 3 4 5 6 
#
# 1 120.7139 27.9850 28.0512 10.0657 7.0471 -4.6413
# 2 27.9850 68.2231 15.5089 12.6220 -2.3858 0.6512
# 3 28.0512 15.5089 45.3361 11.3109 13.8743 7.8290
# 4 10.0657 12.6220 11.3109 12.1699 -18.7342 5.0888
# 5 7.0471 -2.3858 13.8743 -18.7342 35.0977 7.2194
# 6 -4.6413 0.6512 7.8290 5.0888 7.2194 22.9396
#
#
#
# Elastic Compliance Matrix: (Units=1/GPa)
#
#
# Indices 1 2 3 4 5 6 
#
# 1 0.010451 -0.003289 -0.007717 0.004391 0.002434 0.003101
# 2 -0.003289 0.016912 -0.007277 0.005743 0.008275 -0.002540
# 3 -0.007717 -0.007277 0.016249 0.041752 0.021643 -0.022974
# 4 0.004391 0.005743 0.041752 -0.109705 -0.083161 0.036985
# 5 0.002434 0.008275 0.021643 -0.083161 -0.028556 0.020306
# 6 0.003101 -0.002540 -0.022974 0.036985 0.020306 0.037538
#
#
# Mechanical properties :
#
#
# Convention : Reuss Voigt Hill
#
# Bulk Modulus (GPa) = 141.93409 41.92927 91.93168
# Shear Modulus (GPa) = -274.78777 24.88997 -124.94890
#
# Velocity S-wave (km/s) = -11.85026 3.56649 -7.99090
# Velocity P-wave (km/s) = 10.70998 6.19577 6.17722
#
# Compressibility (1/GPa) = 0.00704552
#
# Stress axis : x y z
#
# Youngs Moduli (GPa) = 95.68522 59.12819 61.54315
#
# Poissons Ratio (x) = 0.19450 0.47494
# Poissons Ratio (y) = 0.31475 0.44783
# Poissons Ratio (z) = 0.73842 0.43025
#
# Static dielectric constant tensor:
#      x y z
#    x 1.672990 0.011100 0.012160 
#    y 0.011100 1.679890 -0.001360 
#    z 0.012160 -0.001360 1.693440 
# 
# From -- ./inp_files/126950.got.cif
#   From: 2010.05.17/outbox.cif.g08.bks.cpg/sg2_64_cif.got.tgz:126950.got - 2010.06.03 11:33:40.
