data_PCOD9104514
_publ_section_title
;
Structure prediction by ZEFSAII (Michael W. Deem and Ramdas Pophale) SiO2 
 PCOD9104514
Probable space group: P -1
;
_chemical_formula_sum "Si O2"
_cell_formula_units_Z 16
_cell_length_a 26.650337
_cell_length_b 21.387623
_cell_length_c 9.253238
_cell_angle_alpha 150.381907
_cell_angle_beta 38.986635
_cell_angle_gamma 160.457607
_cell_volume 843.359207
_symmetry_space_group_name_H-M "P -1"
_symmetry_group_IT_number 2
_symmetry_cell_setting 'triclinic'
loop_
_space_group_symop_operation_xyz
x,y,z
-x,-y,-z
loop_
_atom_site_type_symbol
_atom_site_label
_atom_site_fract_x
_atom_site_fract_y
_atom_site_fract_z
Si Si1 0.399997 0.963330 0.287723
Si Si2 0.895474 0.301084 0.211757
Si Si3 0.972453 0.848023 0.644220
Si Si4 0.593598 0.999978 0.319461
Si Si5 0.756361 0.848902 0.580100
Si Si6 0.915296 0.489402 0.075560
Si Si7 0.620057 0.356246 0.357175
Si Si8 0.460853 0.588858 0.615459
O O1 0.372275 0.971424 0.528816
O O2 0.542280 0.234085 0.443501
O O3 0.262723 0.783344 0.113422
O O4 0.417785 0.835232 0.006799
O O5 0.761324 0.218516 0.306751
O O6 0.000000 0.500000 0.500000
O O7 0.003275 0.410288 0.059049
O O8 0.815420 0.059525 0.942575
O O9 0.951120 0.680728 0.432261
O O10 0.804012 0.630091 0.507064
O O11 0.112341 0.027257 0.573325
O O12 0.000000 0.000000 0.000000
O O13 0.500000 0.000000 0.500000
O O14 0.499764 0.756912 0.973807
O O15 0.601944 0.680531 0.497578
O O16 0.696140 0.681377 0.509414
O O17 0.000000 0.500000 0.000000
O O18 0.551750 0.369845 0.432682
#
# Coordination Sequence:
#
# PCOD9104514 Si02
#       8
#     2   2   2   2   2   2   2   2
#     4  10  21  37  59  93 125 157 205 257 308 367
#     4  10  20  39  61  87 119 156 206 257 303 361
#     4  10  23  43  60  89 128 165 203 259 314 374
#     4  11  21  34  62  90 121 156 203 253 304 365
#     4   9  22  40  64  84 126 159 212 253 308 368
#     4  10  22  40  65  90 126 165 205 260 313 368
#     4  10  22  38  61  86 127 159 202 255 312 364
#     4  10  21  41  63  89 119 169 202 255 313 362
#
# _framework density 18.97175
#
# number of rings (size 3 to 8) (size 9 to 14) (size 15 to 20)
#    0.000    2.000    2.500    0.000    7.000    1.500 
#    2.250    0.625    0.000    0.000    0.000    0.000 
#    0.000    0.000    0.000    0.000    0.000    0.000 
#
# Total GULP energy -89118.097228 kJ/mol
# GULP energy per Si atom -5569.881077 kJ/mol
# Density = 1.892857 g / cm^3
# Si number density = 18.971750 Si / 1000 Ang^3
#
#
#
# Elastic Constant Matrix: (Units=GPa)
#
#
# Indices 1 2 3 4 5 6 
#
# 1 70.2018 13.4008 20.1910 9.8542 -7.9989 0.6965
# 2 13.4008 109.4294 31.8442 9.0164 -4.3454 7.9516
# 3 20.1910 31.8442 83.5470 -4.4083 2.9152 2.5945
# 4 9.8542 9.0164 -4.4083 27.0629 1.4944 -2.0420
# 5 -7.9989 -4.3454 2.9152 1.4944 15.8663 -3.4700
# 6 0.6965 7.9516 2.5945 -2.0420 -3.4700 22.8914
#
#
#
# Elastic Compliance Matrix: (Units=1/GPa)
#
#
# Indices 1 2 3 4 5 6 
#
# 1 0.018130 0.000399 -0.005383 -0.008163 0.011202 0.000890
# 2 0.000399 0.011272 -0.004699 -0.005129 0.003922 -0.003258
# 3 -0.005383 -0.004699 0.015685 0.006459 -0.007613 -0.000560
# 4 -0.008163 -0.005129 0.006459 0.043513 -0.010004 0.003663
# 5 0.011202 0.003922 -0.007613 -0.010004 0.074169 0.009510
# 6 0.000890 -0.003258 -0.000560 0.003663 0.009510 0.046621
#
#
# Mechanical properties :
#
#
# Convention : Reuss Voigt Hill
#
# Bulk Modulus (GPa) = 38.87843 43.78336 41.33089
# Shear Modulus (GPa) = 21.06778 26.34692 23.70735
#
# Velocity S-wave (km/s) = 3.33600 3.73063 3.53882
# Velocity P-wave (km/s) = 5.94776 6.45640 6.20729
#
# Compressibility (1/GPa) = 0.02572121
#
# Stress axis : x y z
#
# Youngs Moduli (GPa) = 55.15734 88.71592 63.75507
#
# Poissons Ratio (x) = -0.03539 0.34318
# Poissons Ratio (y) = -0.02200 0.29959
# Poissons Ratio (z) = 0.29690 0.41688
#
# Static dielectric constant tensor:
#      x y z
#    x 1.662070 0.010090 -0.023390 
#    y 0.010090 1.730830 0.019560 
#    z -0.023390 0.019560 1.664960 
# 
# From -- ./inp_files/279510.got.cif
#   From: 2010.05.17/outbox.cif.g08.bks.cpg/sg2_140_cif.got.tgz:279510.got - 2010.06.03 11:33:40.
