data_PCOD9104965
_publ_section_title
;
Structure prediction by ZEFSAII (Michael W. Deem and Ramdas Pophale) SiO2 
 PCOD9104965
Probable space group: P -1
;
_chemical_formula_sum "Si O2"
_cell_formula_units_Z 14
_cell_length_a 9.016052
_cell_length_b 19.141576
_cell_length_c 6.560567
_cell_angle_alpha 74.459406
_cell_angle_beta 103.771944
_cell_angle_gamma 143.944922
_cell_volume 641.567158
_symmetry_space_group_name_H-M "P -1"
_symmetry_group_IT_number 2
_symmetry_cell_setting 'triclinic'
loop_
_space_group_symop_operation_xyz
x,y,z
-x,-y,-z
loop_
_atom_site_type_symbol
_atom_site_label
_atom_site_fract_x
_atom_site_fract_y
_atom_site_fract_z
Si Si1 0.637718 0.233435 0.506772
Si Si2 0.863547 0.750525 0.367063
Si Si3 0.042262 0.423394 0.790321
Si Si4 0.120541 0.966388 0.571989
Si Si5 0.000840 0.682564 0.769619
Si Si6 0.801591 0.119212 0.024062
Si Si7 0.356326 0.616425 0.411293
O O1 0.416658 0.092273 0.531811
O O2 0.798480 0.289468 0.310871
O O3 0.543732 0.278796 0.496949
O O4 0.828633 0.293594 0.710981
O O5 0.578118 0.669713 0.304745
O O6 0.851435 0.672871 0.560431
O O7 0.035086 0.805942 0.182521
O O8 0.000076 0.865716 0.450824
O O9 0.252107 0.519054 0.615103
O O10 0.881325 0.437884 0.743496
O O11 0.130502 0.419108 0.028566
O O12 0.000000 0.000000 0.500000
O O13 0.101545 0.920331 0.819353
O O14 0.139000 0.796701 0.856471
O O15 0.500000 0.000000 0.000000
#
# Coordination Sequence:
#
# PCOD9104965 Si02
#       7
#     2   2   2   2   2   2   2
#     4  10  20  39  63  85 119 154 201 242 292 356
#     4  11  23  40  58  93 124 151 196 249 293 350
#     4   9  20  41  62  88 114 159 201 239 301 348
#     4  11  21  37  61  90 117 151 195 246 296 344
#     4  11  22  37  63  85 117 160 199 238 297 352
#     4  11  24  39  58  88 125 161 194 236 298 360
#     4   9  21  42  62  85 122 152 199 253 291 345
#
# _framework density 21.821566000000001
#
# number of rings (size 3 to 8) (size 9 to 14) (size 15 to 20)
#    0.857    0.857    1.429    3.429    0.000    5.143 
#    0.000    2.857    0.000    0.000    0.000    0.000 
#    0.000    0.000    0.000    0.000    0.000    0.000 
#
# Total GULP energy -78094.564117 kJ/mol
# GULP energy per Si atom -5578.183151 kJ/mol
# Density = 2.177190 g / cm^3
# Si number density = 21.821566 Si / 1000 Ang^3
#
#
#
# Elastic Constant Matrix: (Units=GPa)
#
#
# Indices 1 2 3 4 5 6 
#
# 1 107.6648 22.9257 65.6789 -6.3775 -5.6475 -3.0323
# 2 22.9257 53.8786 7.9698 -8.2452 -1.1500 2.2735
# 3 65.6789 7.9698 100.6371 -8.4439 11.1289 2.4508
# 4 -6.3775 -8.2452 -8.4439 24.5978 -2.9881 -3.9222
# 5 -5.6475 -1.1500 11.1289 -2.9881 36.4860 -11.4206
# 6 -3.0323 2.2735 2.4508 -3.9222 -11.4206 21.2518
#
#
#
# Elastic Compliance Matrix: (Units=1/GPa)
#
#
# Indices 1 2 3 4 5 6 
#
# 1 0.020211 -0.006564 -0.014032 0.001338 0.010841 0.011277
# 2 -0.006564 0.021879 0.003362 0.005962 -0.002003 -0.003641
# 3 -0.014032 0.003362 0.020482 0.001419 -0.011534 -0.010660
# 4 0.001338 0.005962 0.001419 0.046306 0.007500 0.011966
# 5 0.010841 -0.002003 -0.011534 0.007500 0.041544 0.026801
# 6 0.011277 -0.003641 -0.010660 0.011966 0.026801 0.066894
#
#
# Mechanical properties :
#
#
# Convention : Reuss Voigt Hill
#
# Bulk Modulus (GPa) = 35.58175 50.59215 43.08695
# Shear Modulus (GPa) = 19.14588 27.50751 23.32670
#
# Velocity S-wave (km/s) = 2.96528 3.55430 3.27306
# Velocity P-wave (km/s) = 5.29764 6.33078 5.83712
#
# Compressibility (1/GPa) = 0.02810429
#
# Stress axis : x y z
#
# Youngs Moduli (GPa) = 49.47753 45.70520 48.82292
#
# Poissons Ratio (x) = 0.30001 0.68507
# Poissons Ratio (y) = 0.32478 -0.16413
# Poissons Ratio (z) = 0.69426 -0.15365
#
# Static dielectric constant tensor:
#      x y z
#    x 1.841980 -0.004080 0.037650 
#    y -0.004080 1.810050 -0.000830 
#    z 0.037650 -0.000830 1.786450 
# 
# From -- ./inp_files/52758.got.cif
#   From: 2010.05.17/outbox.cif.g08.bks.cpg/sg2_27_cif.got.tgz:52758.got - 2010.06.03 11:33:40.
