data_PCOD9104544
_publ_section_title
;
Structure prediction by ZEFSAII (Michael W. Deem and Ramdas Pophale) SiO2 
 PCOD9104544
Probable space group: P -1
;
_chemical_formula_sum "Si O2"
_cell_formula_units_Z 12
_cell_length_a 15.146640
_cell_length_b 5.435780
_cell_length_c 15.009700
_cell_angle_alpha 60.524878
_cell_angle_beta 154.573423
_cell_angle_gamma 108.645862
_cell_volume 435.473260
_symmetry_space_group_name_H-M "P -1"
_symmetry_group_IT_number 2
_symmetry_cell_setting 'triclinic'
loop_
_space_group_symop_operation_xyz
x,y,z
-x,-y,-z
loop_
_atom_site_type_symbol
_atom_site_label
_atom_site_fract_x
_atom_site_fract_y
_atom_site_fract_z
Si Si1 0.196222 0.711649 0.203519
Si Si2 0.401828 0.065973 0.052027
Si Si3 0.072755 0.717952 0.385545
Si Si4 0.537939 0.430204 0.370908
Si Si5 0.230495 0.044907 0.707117
Si Si6 0.085416 0.639669 0.916024
O O1 0.406922 0.693920 0.456382
O O2 0.180270 0.714573 0.082887
O O3 0.115731 0.453931 0.218844
O O4 0.000000 0.000000 0.000000
O O5 0.489748 0.783779 0.247094
O O6 0.612795 0.140157 0.196800
O O7 0.336941 0.957516 0.916340
O O8 0.177080 0.290185 0.846308
O O9 0.239174 0.708252 0.457702
O O10 0.189057 0.404096 0.596871
O O11 0.003258 0.075296 0.279642
O O12 0.313421 0.390184 0.137267
O O13 0.000000 0.000000 0.500000
#
# Coordination Sequence:
#
# PCOD9104544 Si02
#       6
#     2   2   2   2   2   2
#     4  11  22  42  66  90 123 165 210 251 311 367
#     4   9  21  39  59  89 123 157 205 255 301 365
#     4  10  20  39  61  88 125 159 199 255 304 357
#     4  10  21  40  62  90 125 160 206 255 306 367
#     4  10  21  39  63  88 122 163 205 249 305 368
#     4  10  23  42  62  91 127 159 207 262 299 362
#
# _framework density 27.556225999999999
#
# number of rings (size 3 to 8) (size 9 to 14) (size 15 to 20)
#    0.000    2.000    1.667    1.000    0.000    6.667 
#    3.000   10.000    0.000    0.000    0.000    0.000 
#    0.000    0.000    0.000    0.000    0.000    0.000 
#
# Total GULP energy -66921.851786 kJ/mol
# GULP energy per Si atom -5576.820982 kJ/mol
# Density = 2.749351 g / cm^3
# Si number density = 27.556226 Si / 1000 Ang^3
#
#
#
# Elastic Constant Matrix: (Units=GPa)
#
#
# Indices 1 2 3 4 5 6 
#
# 1 109.1807 18.5370 30.7850 11.7987 21.0507 17.8799
# 2 18.5370 57.0882 16.4343 -9.4055 -15.4221 19.0057
# 3 30.7850 16.4343 172.5207 -13.4806 8.3690 -8.6192
# 4 11.7987 -9.4055 -13.4806 45.5569 11.7736 0.1430
# 5 21.0507 -15.4221 8.3690 11.7736 67.2096 2.3424
# 6 17.8799 19.0057 -8.6192 0.1430 2.3424 31.6919
#
#
#
# Elastic Compliance Matrix: (Units=1/GPa)
#
#
# Indices 1 2 3 4 5 6 
#
# 1 0.012257 -0.003022 -0.002284 -0.003570 -0.003433 -0.005454
# 2 -0.003022 0.027317 -0.002942 0.003664 0.007499 -0.016048
# 3 -0.002284 -0.002942 0.006994 0.002407 -0.001428 0.005050
# 4 -0.003570 0.003664 0.002407 0.025053 -0.002749 0.000561
# 5 -0.003433 0.007499 -0.001428 -0.002749 0.018484 -0.004302
# 6 -0.005454 -0.016048 0.005050 0.000561 -0.004302 0.045944
#
#
# Mechanical properties :
#
#
# Convention : Reuss Voigt Hill
#
# Bulk Modulus (GPa) = 33.25435 52.25581 42.75508
# Shear Modulus (GPa) = 30.75609 47.09390 38.92499
#
# Velocity S-wave (km/s) = 3.34446 4.13850 3.76249
# Velocity P-wave (km/s) = 5.19692 6.46845 5.86723
#
# Compressibility (1/GPa) = 0.03007125
#
# Stress axis : x y z
#
# Youngs Moduli (GPa) = 81.58501 36.60709 142.98076
#
# Poissons Ratio (x) = 0.11063 0.32661
# Poissons Ratio (y) = 0.24655 0.42067
# Poissons Ratio (z) = 0.18636 0.10770
#
# Static dielectric constant tensor:
#      x y z
#    x 2.381780 0.205950 0.262350 
#    y 0.205950 2.507920 0.224340 
#    z 0.262350 0.224340 2.272790 
# 
# From -- ./inp_files/5977.got.cif
#   From: 2010.05.17/outbox.cif.g08.bks.cpg/sg2_3_cif.got.tgz:5977.got - 2010.06.03 11:33:40.
