data_PCOD9104779
_publ_section_title
;
Structure prediction by ZEFSAII (Michael W. Deem and Ramdas Pophale) SiO2 
 PCOD9104779
Probable space group: P -1
;
_chemical_formula_sum "Si O2"
_cell_formula_units_Z 13
_cell_length_a 9.816607
_cell_length_b 7.524169
_cell_length_c 17.086307
_cell_angle_alpha 134.645990
_cell_angle_beta 135.422141
_cell_angle_gamma 44.221169
_cell_volume 568.134294
_symmetry_space_group_name_H-M "P -1"
_symmetry_group_IT_number 2
_symmetry_cell_setting 'triclinic'
loop_
_space_group_symop_operation_xyz
x,y,z
-x,-y,-z
loop_
_atom_site_type_symbol
_atom_site_label
_atom_site_fract_x
_atom_site_fract_y
_atom_site_fract_z
Si Si1 0.836926 0.116237 0.897844
Si Si2 0.164871 0.167710 0.758774
Si Si3 0.439644 0.551243 0.620961
Si Si4 0.410696 0.961513 0.034658
Si Si5 0.500000 0.500000 0.000000
Si Si6 0.772885 0.607623 0.649015
Si Si7 0.818794 0.404577 0.826271
O O1 0.621465 0.318856 0.915365
O O2 0.882403 0.296580 0.905853
O O3 0.803489 0.876768 0.765020
O O4 0.000000 0.000000 0.000000
O O5 0.000263 0.346298 0.680505
O O6 0.018786 0.253699 0.803577
O O7 0.276496 0.843718 0.682830
O O8 0.371615 0.232077 0.882893
O O9 0.593751 0.602614 0.635679
O O10 0.309616 0.417004 0.478260
O O11 0.612512 0.363394 0.697574
O O12 0.282260 0.260382 0.111761
O O13 0.500000 0.000000 0.000000
O O14 0.311336 0.749166 0.937766
#
# Coordination Sequence:
#
# PCOD9104779 Si02
#       7
#     2   2   2   2   1   2   2
#     4  12  26  39  60  93 128 169 213 262 318 383
#     4  10  20  39  62  89 123 162 206 261 325 372
#     4   9  20  41  66  89 118 164 215 265 321 370
#     4  11  23  40  62  90 126 172 210 259 314 379
#     4  12  24  42  62  88 126 170 214 256 318 374
#     4  10  21  40  64  92 121 160 219 263 312 384
#     4  10  23  41  60  92 127 164 209 266 318 377
#
# _framework density 22.881912
#
# number of rings (size 3 to 8) (size 9 to 14) (size 15 to 20)
#    0.000    1.538    1.538    4.154    2.154    1.231 
#    0.000    0.769    0.000    0.000    0.000    0.000 
#    0.000    0.000    0.000    0.000    0.000    0.000 
#
# Total GULP energy -72494.393342 kJ/mol
# GULP energy per Si atom -5576.491796 kJ/mol
# Density = 2.282983 g / cm^3
# Si number density = 22.881912 Si / 1000 Ang^3
#
#
#
# Elastic Constant Matrix: (Units=GPa)
#
#
# Indices 1 2 3 4 5 6 
#
# 1 79.9597 43.0049 38.1817 -5.8823 -15.0907 -7.9005
# 2 43.0049 145.0354 77.3167 -4.0059 -5.5528 -12.9698
# 3 38.1817 77.3167 157.3869 -5.2549 0.0670 -16.5535
# 4 -5.8823 -4.0059 -5.2549 42.8026 -0.4561 -5.4516
# 5 -15.0907 -5.5528 0.0670 -0.4561 31.0645 1.2757
# 6 -7.9005 -12.9698 -16.5535 -5.4516 1.2757 50.8909
#
#
#
# Elastic Compliance Matrix: (Units=1/GPa)
#
#
# Indices 1 2 3 4 5 6 
#
# 1 0.017148 -0.003408 -0.002312 0.001971 0.007712 0.001059
# 2 -0.003408 0.010155 -0.004082 0.000076 0.000139 0.000736
# 3 -0.002312 -0.004082 0.009118 0.000613 -0.001933 0.001681
# 4 0.001971 0.000076 0.000613 0.024121 0.001197 0.003079
# 5 0.007712 0.000139 -0.001933 0.001197 0.035991 -0.000170
# 6 0.001059 0.000736 0.001681 0.003079 -0.000170 0.020883
#
#
# Mechanical properties :
#
#
# Convention : Reuss Voigt Hill
#
# Bulk Modulus (GPa) = 59.46231 77.70985 68.58608
# Shear Modulus (GPa) = 35.05704 39.87684 37.46694
#
# Velocity S-wave (km/s) = 3.91843 4.17912 4.05088
# Velocity P-wave (km/s) = 6.82020 7.57111 7.20545
#
# Compressibility (1/GPa) = 0.01681738
#
# Stress axis : x y z
#
# Youngs Moduli (GPa) = 58.31513 98.47821 109.67332
#
# Poissons Ratio (x) = 0.33558 0.25358
# Poissons Ratio (y) = 0.19872 0.44767
# Poissons Ratio (z) = 0.13483 0.40198
#
# Static dielectric constant tensor:
#      x y z
#    x 2.535730 0.337780 0.429890 
#    y 0.337780 2.100120 0.140880 
#    z 0.429890 0.140880 2.116450 
# 
# From -- ./inp_files/566288.got.cif
#   From: 2010.05.17/outbox.cif.g08.bks.cpg/sg2_284_cif.got.tgz:566288.got - 2010.06.03 11:33:40.
