data_PCOD9104635
_publ_section_title
;
Structure prediction by ZEFSAII (Michael W. Deem and Ramdas Pophale) SiO2 
 PCOD9104635
Probable space group: P -1
;
_chemical_formula_sum "Si O2"
_cell_formula_units_Z 16
_cell_length_a 14.326950
_cell_length_b 5.638158
_cell_length_c 15.887664
_cell_angle_alpha 123.632544
_cell_angle_beta 41.742907
_cell_angle_gamma 106.675435
_cell_volume 692.708514
_symmetry_space_group_name_H-M "P -1"
_symmetry_group_IT_number 2
_symmetry_cell_setting 'triclinic'
loop_
_space_group_symop_operation_xyz
x,y,z
-x,-y,-z
loop_
_atom_site_type_symbol
_atom_site_label
_atom_site_fract_x
_atom_site_fract_y
_atom_site_fract_z
Si Si1 0.908772 0.257506 0.917318
Si Si2 0.633947 0.711779 0.413013
Si Si3 0.095070 0.679729 0.873274
Si Si4 0.916036 0.246754 0.539373
Si Si5 0.396058 0.800819 0.928615
Si Si6 0.390519 0.427528 0.128018
Si Si7 0.448903 0.392306 0.376412
Si Si8 0.827454 0.160080 0.394504
O O1 0.998744 0.472926 0.859735
O O2 0.875862 0.373856 0.057175
O O3 0.757474 0.276235 0.980257
O O4 0.017916 0.936992 0.775721
O O5 0.748641 0.398065 0.288193
O O6 0.529603 0.652559 0.398182
O O7 0.554371 0.777339 0.567717
O O8 0.737096 0.932071 0.375416
O O9 0.000000 0.000000 0.000000
O O10 0.769116 0.384543 0.715329
O O11 0.868586 0.123209 0.458425
O O12 0.000000 0.500000 0.500000
O O13 0.000000 0.000000 0.500000
O O14 0.523670 0.573097 0.843106
O O15 0.453622 0.809067 0.797144
O O16 0.376615 0.104158 0.049636
O O17 0.500000 0.500000 0.000000
O O18 0.285532 0.529420 0.482162
#
# Coordination Sequence:
#
# PCOD9104635 Si02
#       8
#     2   2   2   2   2   2   2   2
#     4  10  22  40  63  95 132 179 232 286 362 437
#     4  10  23  40  64 102 137 184 239 291 362 449
#     4  10  20  39  61  92 134 176 228 289 350 432
#     4  12  30  52  81 112 153 202 259 319 387 456
#     4  11  24  46  71  99 145 182 244 303 386 436
#     4  11  28  47  75 107 143 191 254 321 379 456
#     4  11  22  42  67  99 141 188 236 293 371 444
#     4  11  24  42  70  96 142 186 240 302 365 447
#
# _framework density 23.097740999999999
#
# number of rings (size 3 to 8) (size 9 to 14) (size 15 to 20)
#    0.000    1.250    2.500    1.875    8.750    1.000 
#    6.750    0.000    0.000    0.000    0.000    0.000 
#    0.000    0.000    0.000    0.000    0.000    0.000 
#
# Total GULP energy -89318.218666 kJ/mol
# GULP energy per Si atom -5582.388667 kJ/mol
# Density = 2.304517 g / cm^3
# Si number density = 23.097741 Si / 1000 Ang^3
#
#
#
# Elastic Constant Matrix: (Units=GPa)
#
#
# Indices 1 2 3 4 5 6 
#
# 1 130.1330 31.7864 50.2150 -1.6373 -22.4506 9.2660
# 2 31.7864 53.2377 15.6904 -7.3368 -22.1882 2.8024
# 3 50.2150 15.6904 148.0513 -16.8311 -25.9984 0.7026
# 4 -1.6373 -7.3368 -16.8311 30.9417 -5.1201 2.3771
# 5 -22.4506 -22.1882 -25.9984 -5.1201 50.4912 -5.8759
# 6 9.2660 2.8024 0.7026 2.3771 -5.8759 25.1420
#
#
#
# Elastic Compliance Matrix: (Units=1/GPa)
#
#
# Indices 1 2 3 4 5 6 
#
# 1 0.010430 -0.005423 -0.003197 -0.002241 0.000040 -0.002929
# 2 -0.005423 0.027564 0.002033 0.009246 0.011773 0.000747
# 3 -0.003197 0.002033 0.009172 0.006023 0.004955 0.001284
# 4 -0.002241 0.009246 0.006023 0.039454 0.009962 -0.001775
# 5 0.000040 0.011773 0.004955 0.009962 0.029069 0.004386
# 6 -0.002929 0.000747 0.001284 -0.001775 0.004386 0.041927
#
#
# Mechanical properties :
#
#
# Convention : Reuss Voigt Hill
#
# Bulk Modulus (GPa) = 29.41834 58.53397 43.97615
# Shear Modulus (GPa) = 27.45445 36.89700 32.17572
#
# Velocity S-wave (km/s) = 3.45138 4.00112 3.73637
# Velocity P-wave (km/s) = 5.35227 6.83682 6.13958
#
# Compressibility (1/GPa) = 0.03399240
#
# Stress axis : x y z
#
# Youngs Moduli (GPa) = 95.87838 36.27941 109.02825
#
# Poissons Ratio (x) = 0.19675 0.34852
# Poissons Ratio (y) = 0.51996 -0.22166
# Poissons Ratio (z) = 0.30648 -0.07376
#
# Static dielectric constant tensor:
#      x y z
#    x 1.974570 0.049370 -0.082570 
#    y 0.049370 2.062170 -0.036060 
#    z -0.082570 -0.036060 1.962440 
# 
# From -- ./inp_files/571805.got.cif
#   From: 2010.05.17/outbox.cif.g08.bks.cpg/sg2_286_cif.got.tgz:571805.got - 2010.06.03 11:33:40.
