data_PCOD9104705
_publ_section_title
;
Structure prediction by ZEFSAII (Michael W. Deem and Ramdas Pophale) SiO2 
 PCOD9104705
Probable space group: P -1
;
_chemical_formula_sum "Si O2"
_cell_formula_units_Z 16
_cell_length_a 23.381551
_cell_length_b 26.619249
_cell_length_c 14.580958
_cell_angle_alpha 164.173886
_cell_angle_beta 160.534733
_cell_angle_gamma 20.403185
_cell_volume 778.010757
_symmetry_space_group_name_H-M "P -1"
_symmetry_group_IT_number 2
_symmetry_cell_setting 'triclinic'
loop_
_space_group_symop_operation_xyz
x,y,z
-x,-y,-z
loop_
_atom_site_type_symbol
_atom_site_label
_atom_site_fract_x
_atom_site_fract_y
_atom_site_fract_z
Si Si1 0.298756 0.505533 0.199360
Si Si2 0.367826 0.641319 0.973552
Si Si3 0.824198 0.621661 0.887411
Si Si4 0.996310 0.220619 0.248269
Si Si5 0.297304 0.155795 0.452743
Si Si6 0.296220 0.213476 0.824411
Si Si7 0.073701 0.311262 0.035098
Si Si8 0.625986 0.859031 0.663502
O O1 0.500000 0.500000 0.500000
O O2 0.298334 0.349854 0.847476
O O3 0.262005 0.426356 0.103791
O O4 0.126049 0.696824 0.259124
O O5 0.278737 0.520396 0.558967
O O6 0.197883 0.791986 0.037532
O O7 0.500000 0.500000 0.000000
O O8 0.489663 0.739383 0.272233
O O9 0.875121 0.723352 0.054536
O O10 0.704961 0.776681 0.051759
O O11 0.000000 0.500000 0.000000
O O12 0.126299 0.116261 0.176219
O O13 0.132500 0.159524 0.434224
O O14 0.944992 0.457601 0.571774
O O15 0.277747 0.189737 0.374614
O O16 0.500000 0.000000 0.500000
O O17 0.488682 0.078984 0.841656
O O18 0.227194 0.183048 0.108299
#
# Coordination Sequence:
#
# PCOD9104705 Si02
#       8
#     2   2   2   2   2   2   2   2
#     4  10  21  39  61  86 114 155 212 244 288 379
#     4  11  22  39  61  96 124 153 213 260 291 364
#     4  11  18  39  64  81 121 165 197 242 305 363
#     4   9  18  39  58  85 123 157 205 242 295 368
#     4  10  20  39  62  85 121 162 192 248 316 355
#     4  10  21  37  61  86 120 159 198 249 308 356
#     4   9  20  37  59  85 120 154 196 247 308 353
#     4  12  22  38  63  90 126 159 197 259 313 352
#
# _framework density 20.565269000000001
#
# number of rings (size 3 to 8) (size 9 to 14) (size 15 to 20)
#    0.000    2.000    8.750    0.000    1.750    3.000 
#    0.000    0.625    0.000    0.000    0.000    0.000 
#    0.000    0.000    0.000    0.000    0.000    0.000 
#
# Total GULP energy -89129.462898 kJ/mol
# GULP energy per Si atom -5570.591431 kJ/mol
# Density = 2.051846 g / cm^3
# Si number density = 20.565269 Si / 1000 Ang^3
#
#
#
# Elastic Constant Matrix: (Units=GPa)
#
#
# Indices 1 2 3 4 5 6 
#
# 1 176.6517 40.9735 31.1593 -23.5743 -11.6402 -18.5946
# 2 40.9735 89.9370 18.5494 -36.8544 -3.6405 -0.6602
# 3 31.1593 18.5494 46.5902 -33.1026 2.7268 -3.1238
# 4 -23.5743 -36.8544 -33.1026 34.2331 -1.7103 -0.3001
# 5 -11.6402 -3.6405 2.7268 -1.7103 23.4154 -8.3862
# 6 -18.5946 -0.6602 -3.1238 -0.3001 -8.3862 39.5425
#
#
#
# Elastic Compliance Matrix: (Units=1/GPa)
#
#
# Indices 1 2 3 4 5 6 
#
# 1 0.008192 -0.005521 -0.010626 -0.010287 0.005106 0.003926
# 2 -0.005521 0.039053 0.049422 0.086324 0.005210 0.003720
# 3 -0.010626 0.049422 0.134356 0.176011 0.002595 0.008328
# 4 -0.010287 0.086324 0.176011 0.286113 0.014340 0.015721
# 5 0.005106 0.005210 0.002595 0.014340 0.051734 0.013774
# 6 0.003926 0.003720 0.008328 0.015721 0.013774 0.030896
#
#
# Mechanical properties :
#
#
# Convention : Reuss Voigt Hill
#
# Bulk Modulus (GPa) = 4.02978 54.94927 29.48953
# Shear Modulus (GPa) = 8.82596 34.27133 21.54865
#
# Velocity S-wave (km/s) = 2.07389 4.08667 3.24051
# Velocity P-wave (km/s) = 2.77460 7.00323 5.32652
#
# Compressibility (1/GPa) = 0.24815227
#
# Stress axis : x y z
#
# Youngs Moduli (GPa) = 122.06303 25.60645 7.44289
#
# Poissons Ratio (x) = 0.14136 0.07909
# Poissons Ratio (y) = 0.67387 -0.36784
# Poissons Ratio (z) = 1.29700 -1.26551
#
# Static dielectric constant tensor:
#      x y z
#    x 1.878340 -0.040940 0.117140 
#    y -0.040940 1.764020 0.001180 
#    z 0.117140 0.001180 1.856040 
# 
# From -- ./inp_files/543426.got.cif
#   From: 2010.05.17/outbox.cif.g08.bks.cpg/sg2_272_cif.got.tgz:543426.got - 2010.06.03 11:33:40.
