data_PCOD9104755
_publ_section_title
;
Structure prediction by ZEFSAII (Michael W. Deem and Ramdas Pophale) SiO2 
 PCOD9104755
Probable space group: P -1
;
_chemical_formula_sum "Si O2"
_cell_formula_units_Z 16
_cell_length_a 14.742659
_cell_length_b 12.879709
_cell_length_c 16.750526
_cell_angle_alpha 24.483144
_cell_angle_beta 140.548454
_cell_angle_gamma 122.386035
_cell_volume 647.315075
_symmetry_space_group_name_H-M "P -1"
_symmetry_group_IT_number 2
_symmetry_cell_setting 'triclinic'
loop_
_space_group_symop_operation_xyz
x,y,z
-x,-y,-z
loop_
_atom_site_type_symbol
_atom_site_label
_atom_site_fract_x
_atom_site_fract_y
_atom_site_fract_z
Si Si1 0.688909 0.517107 0.474107
Si Si2 0.085937 0.319988 0.062749
Si Si3 0.729243 0.379608 0.039048
Si Si4 0.286027 0.666041 0.752440
Si Si5 0.776640 0.342312 0.826825
Si Si6 0.111055 0.613973 0.528812
Si Si7 0.705018 0.182702 0.584143
Si Si8 0.275648 0.983006 0.837673
O O1 0.765616 0.184930 0.714093
O O2 0.799099 0.657511 0.443910
O O3 0.648725 0.515143 0.541983
O O4 0.493255 0.779435 0.115222
O O5 0.157074 0.515083 0.990624
O O6 0.868009 0.508355 0.790669
O O7 0.175953 0.026522 0.391812
O O8 0.176447 0.139368 0.164264
O O9 0.509144 0.660183 0.675306
O O10 0.746174 0.340975 0.172019
O O11 0.799844 0.058299 0.264198
O O12 0.206908 0.521137 0.746585
O O13 0.500000 0.500000 0.000000
O O14 0.730418 0.224503 0.953442
O O15 0.949690 0.998646 0.149494
O O16 0.266077 0.573859 0.607717
O O17 0.000000 0.500000 0.500000
#
# Coordination Sequence:
#
# PCOD9104755 Si02
#       8
#     2   2   2   2   2   2   2   2
#     4  10  21  40  64  85 117 168 205 257 311 360
#     4  10  23  37  59  92 123 152 201 260 303 375
#     4  11  21  39  62  88 119 163 204 256 301 359
#     4  10  20  39  62  88 122 162 200 242 313 371
#     4  10  22  40  58  86 127 161 200 255 314 363
#     4  10  21  37  60  96 128 156 201 261 307 370
#     4   9  19  36  59  88 120 149 207 253 302 365
#     4  10  23  40  61  87 121 159 219 256 288 374
#
# _framework density 24.717485
#
# number of rings (size 3 to 8) (size 9 to 14) (size 15 to 20)
#    0.000    2.250    2.500    1.500    0.000    7.500 
#    2.250    4.375    0.000    0.000    0.000    0.000 
#    0.000    0.000    0.000    0.000    0.000    0.000 
#
# Total GULP energy -89292.801938 kJ/mol
# GULP energy per Si atom -5580.800121 kJ/mol
# Density = 2.466123 g / cm^3
# Si number density = 24.717485 Si / 1000 Ang^3
#
#
#
# Elastic Constant Matrix: (Units=GPa)
#
#
# Indices 1 2 3 4 5 6 
#
# 1 100.1925 53.8947 6.5838 9.8524 -19.2645 10.0612
# 2 53.8947 154.9066 26.8689 19.9183 -21.9231 21.0427
# 3 6.5838 26.8689 47.1427 20.5282 -2.5990 4.4479
# 4 9.8524 19.9183 20.5282 34.0699 -3.0644 -5.4016
# 5 -19.2645 -21.9231 -2.5990 -3.0644 35.4990 6.5235
# 6 10.0612 21.0427 4.4479 -5.4016 6.5235 42.4487
#
#
#
# Elastic Compliance Matrix: (Units=1/GPa)
#
#
# Indices 1 2 3 4 5 6 
#
# 1 0.013345 -0.003417 0.001978 -0.003016 0.005552 -0.002914
# 2 -0.003417 0.009932 -0.002985 -0.003384 0.004678 -0.004950
# 3 0.001978 -0.002985 0.031051 -0.018207 0.000792 -0.004681
# 4 -0.003016 -0.003384 -0.018207 0.044547 -0.003134 0.010450
# 5 0.005552 0.004678 0.000792 -0.003134 0.035622 -0.009591
# 6 -0.002914 -0.004950 -0.004681 0.010450 -0.009591 0.029997
#
#
# Mechanical properties :
#
#
# Convention : Reuss Voigt Hill
#
# Bulk Modulus (GPa) = 21.98762 52.99297 37.49030
# Shear Modulus (GPa) = 26.52505 36.72982 31.62743
#
# Velocity S-wave (km/s) = 3.27942 3.85903 3.58097
# Velocity P-wave (km/s) = 4.82227 6.42979 5.68315
#
# Compressibility (1/GPa) = 0.04548013
#
# Stress axis : x y z
#
# Youngs Moduli (GPa) = 74.93197 100.68794 32.20541
#
# Poissons Ratio (x) = 0.34404 -0.06370
# Poissons Ratio (y) = 0.25603 0.09613
# Poissons Ratio (z) = -0.14821 0.30054
#
# Static dielectric constant tensor:
#      x y z
#    x 2.080120 0.034470 -0.025530 
#    y 0.034470 2.135240 0.015370 
#    z -0.025530 0.015370 1.966640 
# 
# From -- ./inp_files/532290.got.cif
#   From: 2010.05.17/outbox.cif.g08.bks.cpg/sg2_267_cif.got.tgz:532290.got - 2010.06.03 11:33:40.
