data_PCOD9104795
_publ_section_title
;
Structure prediction by ZEFSAII (Michael W. Deem and Ramdas Pophale) SiO2 
 PCOD9104795
Probable space group: P -1
;
_chemical_formula_sum "Si O2"
_cell_formula_units_Z 13
_cell_length_a 14.547711
_cell_length_b 14.803178
_cell_length_c 17.621567
_cell_angle_alpha 32.257766
_cell_angle_beta 30.285513
_cell_angle_gamma 19.595679
_cell_volume 630.144475
_symmetry_space_group_name_H-M "P -1"
_symmetry_group_IT_number 2
_symmetry_cell_setting 'triclinic'
loop_
_space_group_symop_operation_xyz
x,y,z
-x,-y,-z
loop_
_atom_site_type_symbol
_atom_site_label
_atom_site_fract_x
_atom_site_fract_y
_atom_site_fract_z
Si Si1 0.565228 0.831578 0.733118
Si Si2 0.873407 0.382023 0.712901
Si Si3 0.368067 0.899332 0.600426
Si Si4 0.708940 0.662717 0.924586
Si Si5 0.059868 0.091508 0.145577
Si Si6 0.000000 0.000000 0.000000
Si Si7 0.826683 0.785207 0.887734
O O1 0.807640 0.563032 0.697761
O O2 0.663374 0.735195 0.817953
O O3 0.541926 0.042261 0.572976
O O4 0.257027 0.959039 0.848246
O O5 0.630990 0.606879 0.662174
O O6 0.824970 0.235305 0.890563
O O7 0.189553 0.143056 0.616360
O O8 0.131197 0.932518 0.719457
O O9 0.812648 0.756887 0.828655
O O10 0.931231 0.345816 0.009084
O O11 0.398410 0.829858 0.063962
O O12 0.048383 0.145178 0.205581
O O13 0.000000 0.500000 0.000000
O O14 0.500000 0.000000 0.000000
#
# Coordination Sequence:
#
# PCOD9104795 Si02
#       7
#     2   2   2   2   2   1   2
#     4  12  27  41  63  90 127 160 210 248 308 354
#     4  12  27  45  61  88 121 167 206 251 302 360
#     4  12  26  42  63  88 126 167 199 250 306 368
#     4  10  22  37  63  90 120 155 204 252 293 354
#     4  10  20  39  62  90 118 158 201 246 303 359
#     4  12  26  42  64  86 116 158 212 254 294 346
#     4   8  16  34  59  87 117 151 195 246 297 354
#
# _framework density 20.630189000000001
#
# number of rings (size 3 to 8) (size 9 to 14) (size 15 to 20)
#    0.000    1.231    1.538    4.154    6.462    0.000 
#    0.000    0.769    0.000    0.000    0.000   15.077 
#    0.000    0.000    0.000    0.000    0.000    0.000 
#
# Total GULP energy -72371.980666 kJ/mol
# GULP energy per Si atom -5567.075436 kJ/mol
# Density = 2.058323 g / cm^3
# Si number density = 20.630189 Si / 1000 Ang^3
#
#
#
# Elastic Constant Matrix: (Units=GPa)
#
#
# Indices 1 2 3 4 5 6 
#
# 1 139.6850 4.4622 42.7068 4.9230 2.5650 -1.5943
# 2 4.4622 91.4602 2.8137 -10.2052 -2.5278 -17.1407
# 3 42.7068 2.8137 116.8929 -16.7987 6.5533 -4.5245
# 4 4.9230 -10.2052 -16.7987 13.3719 -3.2427 3.0327
# 5 2.5650 -2.5278 6.5533 -3.2427 16.3817 -3.7317
# 6 -1.5943 -17.1407 -4.5245 3.0327 -3.7317 26.5201
#
#
#
# Elastic Compliance Matrix: (Units=1/GPa)
#
#
# Indices 1 2 3 4 5 6 
#
# 1 0.009088 -0.001647 -0.004761 -0.010994 -0.002031 -0.000359
# 2 -0.001647 0.014328 0.002239 0.013884 0.006337 0.008847
# 3 -0.004761 0.002239 0.013112 0.019674 0.000002 0.001149
# 4 -0.010994 0.013884 0.019674 0.118722 0.019691 0.000864
# 5 -0.002031 0.006337 0.000002 0.019691 0.068835 0.011408
# 6 -0.000359 0.008847 0.001149 0.000864 0.011408 0.045106
#
#
# Mechanical properties :
#
#
# Convention : Reuss Voigt Hill
#
# Bulk Modulus (GPa) = 35.47264 49.77820 42.62542
# Shear Modulus (GPa) = 17.42616 31.12509 24.27562
#
# Velocity S-wave (km/s) = 2.90951 3.88843 3.43403
# Velocity P-wave (km/s) = 5.34031 6.65891 6.03572
#
# Compressibility (1/GPa) = 0.02819074
#
# Stress axis : x y z
#
# Youngs Moduli (GPa) = 110.03810 69.79504 76.26651
#
# Poissons Ratio (x) = 0.11496 0.36308
# Poissons Ratio (y) = 0.18124 -0.17079
# Poissons Ratio (z) = 0.52385 -0.15630
#
# Static dielectric constant tensor:
#      x y z
#    x 1.816470 0.020320 -0.002950 
#    y 0.020320 1.771810 -0.000650 
#    z -0.002950 -0.000650 1.694290 
# 
# From -- ./inp_files/573814.got.cif
#   From: 2010.05.17/outbox.cif.g08.bks.cpg/sg2_287_cif.got.tgz:573814.got - 2010.06.03 11:33:40.
