data_PCOD9104749
_publ_section_title
;
Structure prediction by ZEFSAII (Michael W. Deem and Ramdas Pophale) SiO2 
 PCOD9104749
Probable space group: P -1
;
_chemical_formula_sum "Si O2"
_cell_formula_units_Z 14
_cell_length_a 26.609735
_cell_length_b 14.274430
_cell_length_c 15.342448
_cell_angle_alpha 26.655238
_cell_angle_beta 20.415901
_cell_angle_gamma 16.563211
_cell_volume 578.903776
_symmetry_space_group_name_H-M "P -1"
_symmetry_group_IT_number 2
_symmetry_cell_setting 'triclinic'
loop_
_space_group_symop_operation_xyz
x,y,z
-x,-y,-z
loop_
_atom_site_type_symbol
_atom_site_label
_atom_site_fract_x
_atom_site_fract_y
_atom_site_fract_z
Si Si1 0.818395 0.132228 0.252220
Si Si2 0.672305 0.177948 0.924855
Si Si3 0.901932 0.157445 0.403437
Si Si4 0.751490 0.530191 0.695773
Si Si5 0.393736 0.395039 0.648207
Si Si6 0.566035 0.770098 0.968169
Si Si7 0.149288 0.280719 0.327722
O O1 0.591825 0.339634 0.392606
O O2 0.788240 0.337509 0.205160
O O3 0.871622 0.857383 0.443893
O O4 0.000000 0.000000 0.000000
O O5 0.759912 0.204643 0.673315
O O6 0.500000 0.500000 0.000000
O O7 0.498517 0.184653 0.178072
O O8 0.914349 0.879984 0.827094
O O9 0.725039 0.452216 0.378060
O O10 0.074509 0.803625 0.366897
O O11 0.690843 0.499603 0.915428
O O12 0.906547 0.559081 0.443584
O O13 0.492191 0.061726 0.792394
O O14 0.721577 0.670245 0.879099
O O15 0.327124 0.974497 0.227187
#
# Coordination Sequence:
#
# PCOD9104749 Si02
#       7
#     2   2   2   2   2   2   2
#     4  10  22  36  58  88 121 158 204 242 293 350
#     4   9  21  37  62  91 113 149 204 250 298 358
#     4  10  20  39  62  88 117 150 204 250 298 350
#     4  11  20  35  61  86 112 161 194 244 295 354
#     4  10  22  39  57  89 119 157 195 255 289 348
#     4  10  23  38  56  85 127 157 202 236 301 357
#     4  10  21  38  57  83 121 168 199 239 287 363
#
# _framework density 24.183637999999998
#
# number of rings (size 3 to 8) (size 9 to 14) (size 15 to 20)
#    0.000    2.000    1.429    1.286    2.000    5.714 
#    0.000    0.714    0.000    8.571    0.000    0.000 
#    0.000    0.000    0.000    0.000    0.000    0.000 
#
# Total GULP energy -78128.043184 kJ/mol
# GULP energy per Si atom -5580.574513 kJ/mol
# Density = 2.412860 g / cm^3
# Si number density = 24.183638 Si / 1000 Ang^3
#
#
#
# Elastic Constant Matrix: (Units=GPa)
#
#
# Indices 1 2 3 4 5 6 
#
# 1 134.1234 31.7190 51.9615 18.8483 -12.6861 -28.8667
# 2 31.7190 75.8776 34.2440 10.5890 -1.0561 -13.5743
# 3 51.9615 34.2440 133.9379 47.8978 2.7825 -8.2812
# 4 18.8483 10.5890 47.8978 41.1430 -2.3133 3.1268
# 5 -12.6861 -1.0561 2.7825 -2.3133 64.7588 24.0122
# 6 -28.8667 -13.5743 -8.2812 3.1268 24.0122 51.6774
#
#
#
# Elastic Compliance Matrix: (Units=1/GPa)
#
#
# Indices 1 2 3 4 5 6 
#
# 1 0.010196 -0.002027 -0.002652 -0.001402 0.000290 0.004688
# 2 -0.002027 0.015953 -0.003147 0.000189 -0.001133 0.003069
# 3 -0.002652 -0.003147 0.015237 -0.016041 -0.002668 0.002344
# 4 -0.001402 0.000189 -0.016041 0.044497 0.005111 -0.008371
# 5 0.000290 -0.001133 -0.002668 0.005111 0.019452 -0.009911
# 6 0.004688 0.003069 0.002344 -0.008371 -0.009911 0.028263
#
#
# Mechanical properties :
#
#
# Convention : Reuss Voigt Hill
#
# Bulk Modulus (GPa) = 38.85932 64.42089 51.64011
# Shear Modulus (GPa) = 31.67989 46.58347 39.13168
#
# Velocity S-wave (km/s) = 3.62328 4.39366 4.02693
# Velocity P-wave (km/s) = 5.79720 7.24120 6.55906
#
# Compressibility (1/GPa) = 0.02573385
#
# Stress axis : x y z
#
# Youngs Moduli (GPa) = 98.07662 62.68217 65.63186
#
# Poissons Ratio (x) = 0.12705 0.17408
# Poissons Ratio (y) = 0.19880 0.20653
# Poissons Ratio (z) = 0.26013 0.19725
#
# Static dielectric constant tensor:
#      x y z
#    x 2.033030 0.031880 -0.036310 
#    y 0.031880 2.024830 0.004310 
#    z -0.036310 0.004310 1.952930 
# 
# From -- ./inp_files/484257.got.cif
#   From: 2010.05.17/outbox.cif.g08.bks.cpg/sg2_243_cif.got.tgz:484257.got - 2010.06.03 11:33:40.
