data_PCOD9104113
_publ_section_title
;
Structure prediction by ZEFSAII (Michael W. Deem and Ramdas Pophale) SiO2 
 PCOD9104113
Probable space group: P -1
;
_chemical_formula_sum "Si O2"
_cell_formula_units_Z 16
_cell_length_a 9.288805
_cell_length_b 8.501915
_cell_length_c 12.483095
_cell_angle_alpha 123.097912
_cell_angle_beta 102.130885
_cell_angle_gamma 60.607615
_cell_volume 717.291818
_symmetry_space_group_name_H-M "P -1"
_symmetry_group_IT_number 2
_symmetry_cell_setting 'triclinic'
loop_
_space_group_symop_operation_xyz
x,y,z
-x,-y,-z
loop_
_atom_site_type_symbol
_atom_site_label
_atom_site_fract_x
_atom_site_fract_y
_atom_site_fract_z
Si Si1 0.022198 0.273039 0.386038
Si Si2 0.496705 0.453919 0.643919
Si Si3 0.620724 0.423894 0.093300
Si Si4 0.624789 0.060773 0.267279
Si Si5 0.170312 0.850112 0.522798
Si Si6 0.687524 0.963407 0.012957
Si Si7 0.985359 0.230977 0.112285
Si Si8 0.392928 0.120156 0.424233
O O1 0.989594 0.256137 0.249781
O O2 0.214069 0.127340 0.395128
O O3 0.000000 0.500000 0.500000
O O4 0.888709 0.235265 0.417105
O O5 0.463819 0.449173 0.763672
O O6 0.440046 0.694031 0.686887
O O7 0.689751 0.323972 0.593955
O O8 0.399835 0.343892 0.524903
O O9 0.661450 0.184477 0.041117
O O10 0.806333 0.402996 0.103293
O O11 0.500000 0.500000 0.000000
O O12 0.745481 0.012856 0.367954
O O13 0.725478 0.934815 0.134395
O O14 0.474123 0.036109 0.288140
O O15 0.000000 0.000000 0.500000
O O16 0.500000 0.000000 0.000000
O O17 0.843875 0.779909 0.910017
O O18 0.000000 0.000000 0.000000
O O19 0.500000 0.000000 0.500000
#
# Coordination Sequence:
#
# PCOD9104113 Si02
#       8
#     2   2   2   2   2   2   2   2
#     4  12  22  37  60  88 118 151 196 249 293 347
#     4  10  21  40  59  78 116 160 196 231 297 370
#     4  10  22  40  61  85 114 158 204 249 298 354
#     4  10  20  39  58  78 113 159 192 225 290 369
#     4  11  22  35  55  85 115 151 193 241 295 352
#     4  10  21  38  62  87 114 153 199 243 295 356
#     4  10  22  40  62  88 119 161 205 241 296 370
#     4  11  22  35  57  89 117 147 190 247 296 340
#
# _framework density 22.306122999999999
#
# number of rings (size 3 to 8) (size 9 to 14) (size 15 to 20)
#    0.000    1.500    0.000    8.250    0.000    7.000 
#    0.000    1.875    0.000    0.000    0.000    0.000 
#    0.000    0.000    0.000    0.000    0.000    0.000 
#
# Total GULP energy -89276.280898 kJ/mol
# GULP energy per Si atom -5579.767556 kJ/mol
# Density = 2.225535 g / cm^3
# Si number density = 22.306123 Si / 1000 Ang^3
#
#
#
# Elastic Constant Matrix: (Units=GPa)
#
#
# Indices 1 2 3 4 5 6 
#
# 1 154.3582 35.0761 37.5119 -2.6548 -34.4669 -36.2934
# 2 35.0761 53.6022 32.0065 -24.4737 -14.9076 -28.3699
# 3 37.5119 32.0065 131.3621 -20.5557 -30.3300 -18.5090
# 4 -2.6548 -24.4737 -20.5557 24.3185 0.1744 7.3074
# 5 -34.4669 -14.9076 -30.3300 0.1744 43.6224 -1.3229
# 6 -36.2934 -28.3699 -18.5090 7.3074 -1.3229 47.5389
#
#
#
# Elastic Compliance Matrix: (Units=1/GPa)
#
#
# Indices 1 2 3 4 5 6 
#
# 1 0.010370 -0.002659 -0.000236 -0.003913 0.007350 0.007044
# 2 -0.002659 0.074694 0.004352 0.067983 0.027227 0.034547
# 3 -0.000236 0.004352 0.011464 0.012404 0.009381 0.005235
# 4 -0.003913 0.067983 0.012404 0.111551 0.029110 0.026075
# 5 0.007350 0.027227 0.009381 0.029110 0.045118 0.022293
# 6 0.007044 0.034547 0.005235 0.026075 0.022293 0.045680
#
#
# Mechanical properties :
#
#
# Convention : Reuss Voigt Hill
#
# Bulk Modulus (GPa) = 10.05616 60.94575 35.50095
# Shear Modulus (GPa) = 15.19244 38.74449 26.96847
#
# Velocity S-wave (km/s) = 2.61260 4.17219 3.48086
# Velocity P-wave (km/s) = 3.69038 7.11275 5.66614
#
# Compressibility (1/GPa) = 0.09944154
#
# Stress axis : x y z
#
# Youngs Moduli (GPa) = 96.42915 13.38801 87.22926
#
# Poissons Ratio (x) = 0.03560 0.02060
# Poissons Ratio (y) = 0.25644 -0.37964
# Poissons Ratio (z) = 0.02277 -0.05827
#
# Static dielectric constant tensor:
#      x y z
#    x 1.928590 -0.015220 -0.014330 
#    y -0.015220 1.866500 0.016130 
#    z -0.014330 0.016130 1.859110 
# 
# From -- ./inp_files/242929.got.cif
#   From: 2010.05.17/outbox.cif.g08.bks.cpg/sg2_122_cif.got.tgz:242929.got - 2010.06.03 11:33:40.
