data_PCOD9104889
_publ_section_title
;
Structure prediction by ZEFSAII (Michael W. Deem and Ramdas Pophale) SiO2 
 PCOD9104889
Probable space group: P -1
;
_chemical_formula_sum "Si O2"
_cell_formula_units_Z 16
_cell_length_a 11.072563
_cell_length_b 14.379246
_cell_length_c 8.470953
_cell_angle_alpha 38.713052
_cell_angle_beta 120.933374
_cell_angle_gamma 121.510079
_cell_volume 704.715066
_symmetry_space_group_name_H-M "P -1"
_symmetry_group_IT_number 2
_symmetry_cell_setting 'triclinic'
loop_
_space_group_symop_operation_xyz
x,y,z
-x,-y,-z
loop_
_atom_site_type_symbol
_atom_site_label
_atom_site_fract_x
_atom_site_fract_y
_atom_site_fract_z
Si Si1 0.325397 0.268212 0.043317
Si Si2 0.882934 0.936209 0.372083
Si Si3 0.504987 0.099033 0.210418
Si Si4 0.007666 0.143647 0.931044
Si Si5 0.435730 0.162568 0.577193
Si Si6 0.248879 0.595906 0.031826
Si Si7 0.491336 0.539434 0.625919
Si Si8 0.038728 0.349355 0.390795
O O1 0.159891 0.191243 0.061438
O O2 0.365756 0.438675 0.780423
O O3 0.373967 0.179875 0.042020
O O4 0.419642 0.245978 0.287762
O O5 0.726249 0.891990 0.399058
O O6 0.923775 0.789316 0.506467
O O7 0.000000 0.000000 0.500000
O O8 0.888599 0.075004 0.069560
O O9 0.649073 0.234054 0.109783
O O10 0.500000 0.000000 0.500000
O O11 0.494228 0.978250 0.225113
O O12 0.008543 0.285321 0.631130
O O13 0.000000 0.000000 0.000000
O O14 0.514413 0.287264 0.586723
O O15 0.109458 0.610354 0.819270
O O16 0.357687 0.498625 0.160254
O O17 0.171971 0.495578 0.261974
O O18 0.500000 0.500000 0.500000
#
# Coordination Sequence:
#
# PCOD9104889 Si02
#       8
#     2   2   2   2   2   2   2   2
#     4  10  21  40  64  91 128 170 216 263 327 384
#     4  11  20  36  64  95 130 169 216 273 322 389
#     4   9  21  37  63  91 125 167 221 260 318 386
#     4  10  22  36  64  99 124 168 220 270 315 383
#     4  11  21  40  64  95 127 168 221 263 327 388
#     4  10  20  39  62  94 124 174 214 262 322 392
#     4  11  23  40  67  93 127 169 221 271 322 391
#     4  10  21  37  64  88 129 172 225 255 328 387
#
# _framework density 22.704212999999999
#
# number of rings (size 3 to 8) (size 9 to 14) (size 15 to 20)
#    0.000    1.750    2.500    1.875    7.000    0.000 
#    0.000    2.500    5.500   12.000    0.000    0.000 
#    0.000    0.000    0.000    0.000    0.000    0.000 
#
# Total GULP energy -89337.926718 kJ/mol
# GULP energy per Si atom -5583.620420 kJ/mol
# Density = 2.265254 g / cm^3
# Si number density = 22.704213 Si / 1000 Ang^3
#
#
#
# Elastic Constant Matrix: (Units=GPa)
#
#
# Indices 1 2 3 4 5 6 
#
# 1 79.5905 30.1401 25.5611 -15.8741 -20.0386 7.8928
# 2 30.1401 86.3540 20.1083 -28.0405 -16.2733 -3.4949
# 3 25.5611 20.1083 95.7448 -13.0376 -36.2933 9.5930
# 4 -15.8741 -28.0405 -13.0376 33.9169 6.6543 -6.3947
# 5 -20.0386 -16.2733 -36.2933 6.6543 47.8099 -9.0142
# 6 7.8928 -3.4949 9.5930 -6.3947 -9.0142 35.7536
#
#
#
# Elastic Compliance Matrix: (Units=1/GPa)
#
#
# Indices 1 2 3 4 5 6 
#
# 1 0.016153 -0.003821 -0.001614 0.002695 0.003463 -0.002151
# 2 -0.003821 0.018371 -0.000144 0.013751 0.003776 0.006090
# 3 -0.001614 -0.000144 0.015285 0.002848 0.010361 -0.000637
# 4 0.002695 0.013751 0.002848 0.044179 0.003475 0.008763
# 5 0.003463 0.003776 0.010361 0.003475 0.032078 0.005534
# 6 -0.002151 0.006090 -0.000637 0.008763 0.005534 0.032173
#
#
# Mechanical properties :
#
#
# Convention : Reuss Voigt Hill
#
# Bulk Modulus (GPa) = 25.87428 45.92313 35.89871
# Shear Modulus (GPa) = 27.43033 35.88807 31.65920
#
# Velocity S-wave (km/s) = 3.47963 3.98009 3.73824
# Velocity P-wave (km/s) = 5.25022 6.43367 5.87183
#
# Compressibility (1/GPa) = 0.03864842
#
# Stress axis : x y z
#
# Youngs Moduli (GPa) = 61.90955 54.43407 65.42504
#
# Poissons Ratio (x) = 0.20799 0.10563
# Poissons Ratio (y) = 0.23655 0.00945
# Poissons Ratio (z) = 0.09995 0.00786
#
# Static dielectric constant tensor:
#      x y z
#    x 1.811450 0.001400 -0.001920 
#    y 0.001400 1.892960 0.006190 
#    z -0.001920 0.006190 1.903000 
# 
# From -- ./inp_files/271631.got.cif
#   From: 2010.05.17/outbox.cif.g08.bks.cpg/sg2_136_cif.got.tgz:271631.got - 2010.06.03 11:33:40.
