data_PCOD9104607
_publ_section_title
;
Structure prediction by ZEFSAII (Michael W. Deem and Ramdas Pophale) SiO2 
 PCOD9104607
Probable space group: P -1
;
_chemical_formula_sum "Si O2"
_cell_formula_units_Z 16
_cell_length_a 7.118801
_cell_length_b 28.729228
_cell_length_c 5.244046
_cell_angle_alpha 86.531510
_cell_angle_beta 69.573066
_cell_angle_gamma 45.446757
_cell_volume 688.370078
_symmetry_space_group_name_H-M "P -1"
_symmetry_group_IT_number 2
_symmetry_cell_setting 'triclinic'
loop_
_space_group_symop_operation_xyz
x,y,z
-x,-y,-z
loop_
_atom_site_type_symbol
_atom_site_label
_atom_site_fract_x
_atom_site_fract_y
_atom_site_fract_z
Si Si1 0.335148 0.409135 0.609287
Si Si2 0.279125 0.973603 0.514195
Si Si3 0.083128 0.787571 0.613940
Si Si4 0.982368 0.565157 0.746179
Si Si5 0.646082 0.941967 0.746925
Si Si6 0.763172 0.818237 0.239941
Si Si7 0.047068 0.656443 0.568698
Si Si8 0.677682 0.731880 0.219286
O O1 0.257225 0.401632 0.373731
O O2 0.677010 0.356960 0.514898
O O3 0.195833 0.484767 0.657718
O O4 0.170788 0.409753 0.913863
O O5 0.388520 0.951357 0.762668
O O6 0.556259 0.898838 0.284573
O O7 0.244322 0.035599 0.501685
O O8 0.000000 0.000000 0.500000
O O9 0.414522 0.741415 0.399705
O O10 0.925750 0.864311 0.698532
O O11 0.912875 0.793920 0.453760
O O12 0.012073 0.775561 0.919354
O O13 0.135367 0.588036 0.606543
O O14 0.500000 0.000000 0.000000
O O15 0.583162 0.801427 0.290960
O O16 0.926663 0.680893 0.331122
O O17 0.798744 0.707753 0.882834
#
# Coordination Sequence:
#
# PCOD9104607 Si02
#       8
#     2   2   2   2   2   2   2   2
#     4  10  22  41  67  98 131 162 207 263 306 377
#     4  10  21  38  61  90 120 155 201 261 326 389
#     4  11  24  44  65  87 130 162 208 269 317 378
#     4  10  22  41  67  98 129 168 205 253 326 356
#     4  10  20  39  61  91 116 154 205 260 329 386
#     4  11  24  44  63  89 124 167 208 259 318 374
#     4  12  25  42  65  94 129 167 217 257 305 365
#     4  12  27  42  62  94 123 175 218 253 307 375
#
# _framework density 23.243310999999999
#
# number of rings (size 3 to 8) (size 9 to 14) (size 15 to 20)
#    0.000    1.250    1.250    4.125    0.000    6.500 
#    4.500    5.000    0.000    0.000    0.000    0.000 
#    0.000    0.000    0.000    0.000    0.000    0.000 
#
# Total GULP energy -89373.557977 kJ/mol
# GULP energy per Si atom -5585.847374 kJ/mol
# Density = 2.319041 g / cm^3
# Si number density = 23.243311 Si / 1000 Ang^3
#
#
#
# Elastic Constant Matrix: (Units=GPa)
#
#
# Indices 1 2 3 4 5 6 
#
# 1 89.1425 -4.5370 1.2591 4.9700 2.6933 -14.7494
# 2 -4.5370 62.5423 -0.9064 2.4199 4.7706 4.6944
# 3 1.2591 -0.9064 80.7092 -5.6408 15.2666 -12.9206
# 4 4.9700 2.4199 -5.6408 30.9727 0.6070 -2.4208
# 5 2.6933 4.7706 15.2666 0.6070 29.2955 -0.2963
# 6 -14.7494 4.6944 -12.9206 -2.4208 -0.2963 49.0298
#
#
#
# Elastic Compliance Matrix: (Units=1/GPa)
#
#
# Indices 1 2 3 4 5 6 
#
# 1 0.011975 0.000779 0.000561 -0.001571 -0.001451 0.003589
# 2 0.000779 0.016429 0.000425 -0.001376 -0.002953 -0.001313
# 3 0.000561 0.000425 0.014736 0.003035 -0.007822 0.004114
# 4 -0.001571 -0.001376 0.003035 0.033400 -0.001884 0.002097
# 5 -0.001451 -0.002953 -0.007822 -0.001884 0.038843 -0.002073
# 6 0.003589 -0.001313 0.004114 0.002097 -0.002073 0.022776
#
#
# Mechanical properties :
#
#
# Convention : Reuss Voigt Hill
#
# Bulk Modulus (GPa) = 21.42702 24.89171 23.15936
# Shear Modulus (GPa) = 33.29190 37.63151 35.46170
#
# Velocity S-wave (km/s) = 3.78871 4.02808 3.91022
# Velocity P-wave (km/s) = 5.32707 5.68914 5.51108
#
# Compressibility (1/GPa) = 0.04667004
#
# Stress axis : x y z
#
# Youngs Moduli (GPa) = 83.50687 60.86858 67.85899
#
# Poissons Ratio (x) = -0.04741 -0.03809
# Poissons Ratio (y) = -0.06505 -0.02882
# Poissons Ratio (z) = -0.04687 -0.02585
#
# Static dielectric constant tensor:
#      x y z
#    x 1.912930 0.068810 -0.039270 
#    y 0.068810 2.024910 -0.100260 
#    z -0.039270 -0.100260 1.959910 
# 
# From -- ./inp_files/14992.got.cif
#   From: 2010.05.17/outbox.cif.g08.bks.cpg/sg2_8_cif.got.tgz:14992.got - 2010.06.03 11:33:40.
