data_PCOD9104138
_publ_section_title
;
Structure prediction by ZEFSAII (Michael W. Deem and Ramdas Pophale) SiO2 
 PCOD9104138
Probable space group: P -1
;
_chemical_formula_sum "Si O2"
_cell_formula_units_Z 16
_cell_length_a 6.551312
_cell_length_b 5.494454
_cell_length_c 23.488941
_cell_angle_alpha 121.020793
_cell_angle_beta 97.076518
_cell_angle_gamma 106.466917
_cell_volume 656.503486
_symmetry_space_group_name_H-M "P -1"
_symmetry_group_IT_number 2
_symmetry_cell_setting 'triclinic'
loop_
_space_group_symop_operation_xyz
x,y,z
-x,-y,-z
loop_
_atom_site_type_symbol
_atom_site_label
_atom_site_fract_x
_atom_site_fract_y
_atom_site_fract_z
Si Si1 0.649471 0.948237 0.046117
Si Si2 0.963894 0.761190 0.569251
Si Si3 0.768446 0.483507 0.196401
Si Si4 0.211333 0.532166 0.050608
Si Si5 0.713231 0.187777 0.568264
Si Si6 0.352771 0.044330 0.209312
Si Si7 0.873808 0.507517 0.713658
Si Si8 0.723826 0.063237 0.295591
O O1 0.464558 0.727998 0.057737
O O2 0.781453 0.272208 0.120403
O O3 0.795767 0.807626 0.999786
O O4 0.500000 0.000000 0.000000
O O5 0.794300 0.525745 0.580708
O O6 0.000000 0.500000 0.500000
O O7 0.183776 0.950404 0.639418
O O8 0.867975 0.984028 0.558512
O O9 0.012930 0.617566 0.249665
O O10 0.713162 0.778091 0.220762
O O11 0.562755 0.260949 0.202462
O O12 0.227262 0.716404 0.132394
O O13 0.000000 0.500000 0.000000
O O14 0.674434 0.258035 0.640684
O O15 0.500000 0.000000 0.500000
O O16 0.191277 0.223264 0.232522
O O17 0.478520 0.053841 0.274785
O O18 0.080506 0.641406 0.691490
#
# Coordination Sequence:
#
# PCOD9104138 Si02
#       8
#     2   2   2   2   2   2   2   2
#     4  10  21  36  59  83 116 157 196 254 314 366
#     4  11  24  43  68  96 131 173 212 265 323 377
#     4  10  20  39  58  85 118 154 204 256 307 379
#     4  10  21  38  57  85 119 154 203 254 311 377
#     4  11  24  43  66  98 133 168 217 262 321 385
#     4  10  22  37  60  88 115 161 206 254 313 378
#     4  10  22  40  61  86 122 161 203 255 316 365
#     4  10  22  40  61  87 123 155 210 255 310 377
#
# _framework density 24.371538999999999
#
# number of rings (size 3 to 8) (size 9 to 14) (size 15 to 20)
#    0.000    1.750    1.250    2.250    1.750    5.500 
#    0.000    0.000    0.000    0.000    0.000    0.000 
#    0.000    0.000    0.000    0.000    0.000    0.000 
#
# Total GULP energy -89158.996026 kJ/mol
# GULP energy per Si atom -5572.437252 kJ/mol
# Density = 2.431607 g / cm^3
# Si number density = 24.371539 Si / 1000 Ang^3
#
#
#
# Elastic Constant Matrix: (Units=GPa)
#
#
# Indices 1 2 3 4 5 6 
#
# 1 92.4999 27.3646 15.8677 -1.9051 6.9993 -8.3599
# 2 27.3646 63.2198 2.2621 5.0821 -1.0960 -13.9500
# 3 15.8677 2.2621 133.9123 8.4021 1.5766 -5.4827
# 4 -1.9051 5.0821 8.4021 29.0369 -13.8666 1.3936
# 5 6.9993 -1.0960 1.5766 -13.8666 41.1655 11.2677
# 6 -8.3599 -13.9500 -5.4827 1.3936 11.2677 51.8355
#
#
#
# Elastic Compliance Matrix: (Units=1/GPa)
#
#
# Indices 1 2 3 4 5 6 
#
# 1 0.012950 -0.005487 -0.001453 0.001163 -0.002145 0.000893
# 2 -0.005487 0.019642 0.000860 -0.005075 -0.001652 0.004988
# 3 -0.001453 0.000860 0.007901 -0.003301 -0.001485 0.001245
# 4 0.001163 -0.005075 -0.003301 0.044557 0.016532 -0.006319
# 5 -0.002145 -0.001652 -0.001485 0.016532 0.032557 -0.008469
# 6 0.000893 0.004988 0.001245 -0.006319 -0.008469 0.022921
#
#
# Mechanical properties :
#
#
# Convention : Reuss Voigt Hill
#
# Bulk Modulus (GPa) = 35.29360 42.29123 38.79241
# Shear Modulus (GPa) = 30.83920 40.68341 35.76131
#
# Velocity S-wave (km/s) = 3.56107 4.09014 3.83474
# Velocity P-wave (km/s) = 5.60547 6.30048 5.96311
#
# Compressibility (1/GPa) = 0.02833375
#
# Stress axis : x y z
#
# Youngs Moduli (GPa) = 77.21791 50.91119 126.56993
#
# Poissons Ratio (x) = 0.27936 0.18391
# Poissons Ratio (y) = 0.42371 -0.10891
# Poissons Ratio (z) = 0.11220 -0.04381
#
# Static dielectric constant tensor:
#      x y z
#    x 1.907080 0.060040 0.002380 
#    y 0.060040 1.989520 0.000020 
#    z 0.002380 0.000020 1.952550 
# 
# From -- ./inp_files/11073.got.cif
#   From: 2010.05.17/outbox.cif.g08.bks.cpg/sg2_6_cif.got.tgz:11073.got - 2010.06.03 11:33:40.
