data_PCOD9104011
_publ_section_title
;
Structure prediction by ZEFSAII (Michael W. Deem and Ramdas Pophale) SiO2 
 PCOD9104011
Probable space group: P -1
;
_chemical_formula_sum "Si O2"
_cell_formula_units_Z 16
_cell_length_a 12.560709
_cell_length_b 20.076491
_cell_length_c 8.417820
_cell_angle_alpha 137.430982
_cell_angle_beta 56.423514
_cell_angle_gamma 152.175445
_cell_volume 636.993188
_symmetry_space_group_name_H-M "P -1"
_symmetry_group_IT_number 2
_symmetry_cell_setting 'triclinic'
loop_
_space_group_symop_operation_xyz
x,y,z
-x,-y,-z
loop_
_atom_site_type_symbol
_atom_site_label
_atom_site_fract_x
_atom_site_fract_y
_atom_site_fract_z
Si Si1 0.176535 0.526888 0.965610
Si Si2 0.812115 0.797081 0.244698
Si Si3 0.913895 0.009439 0.946072
Si Si4 0.058456 0.338475 0.064533
Si Si5 0.266494 0.721672 0.695756
Si Si6 0.125708 0.810536 0.539354
Si Si7 0.549452 0.346713 0.483505
Si Si8 0.499908 0.885340 0.460147
O O1 0.127451 0.449945 0.047912
O O2 0.128439 0.407902 0.671484
O O3 0.426884 0.745505 0.163538
O O4 0.000000 0.500000 0.000000
O O5 0.888098 0.740483 0.149412
O O6 0.564755 0.677680 0.304160
O O7 0.859635 0.828816 0.075037
O O8 0.000000 0.000000 0.500000
O O9 0.684043 0.800818 0.695550
O O10 0.864970 0.087881 0.183173
O O11 0.000000 0.000000 0.000000
O O12 0.186072 0.439976 0.312266
O O13 0.788283 0.202260 0.080500
O O14 0.388631 0.728216 0.729359
O O15 0.435626 0.817031 0.572080
O O16 0.000000 0.500000 0.500000
O O17 0.312779 0.851528 0.520490
O O18 0.237565 0.911818 0.452245
#
# Coordination Sequence:
#
# PCOD9104011 Si02
#       8
#     2   2   2   2   2   2   2   2
#     4  10  22  40  70 104 144 185 229 301 356 432
#     4  10  24  45  70  98 141 194 239 295 355 430
#     4  11  26  46  67  97 143 185 245 302 354 424
#     4  11  22  44  74 103 142 187 243 290 367 432
#     4  10  20  38  72 103 138 177 240 300 358 419
#     4  10  24  40  65 102 144 186 232 287 376 424
#     4  10  23  43  72 101 135 186 240 293 355 435
#     4  10  20  43  66 103 141 182 232 292 365 436
#
# _framework density 25.118008
#
# number of rings (size 3 to 8) (size 9 to 14) (size 15 to 20)
#    0.000    1.750    2.500    1.125    5.250    4.000 
#    4.500    4.375    0.000    0.000    0.000    0.000 
#    0.000    0.000    0.000    0.000    0.000    0.000 
#
# Total GULP energy -89141.289501 kJ/mol
# GULP energy per Si atom -5571.330594 kJ/mol
# Density = 2.506084 g / cm^3
# Si number density = 25.118008 Si / 1000 Ang^3
#
#
#
# Elastic Constant Matrix: (Units=GPa)
#
#
# Indices 1 2 3 4 5 6 
#
# 1 121.5263 24.5999 30.3439 10.2882 -0.4191 -4.9991
# 2 24.5999 20.8288 12.5826 -1.9246 -10.8959 7.1788
# 3 30.3439 12.5826 141.1200 12.0627 -14.4700 3.4575
# 4 10.2882 -1.9246 12.0627 41.8500 2.2376 -0.1305
# 5 -0.4191 -10.8959 -14.4700 2.2376 40.4221 0.9917
# 6 -4.9991 7.1788 3.4575 -0.1305 0.9917 27.3036
#
#
#
# Elastic Compliance Matrix: (Units=1/GPa)
#
#
# Indices 1 2 3 4 5 6 
#
# 1 0.013665 -0.021810 -0.001548 -0.003552 -0.006307 0.008645
# 2 -0.021810 0.100045 -0.001516 0.008888 0.026468 -0.031024
# 3 -0.001548 -0.001516 0.008028 -0.002145 0.002592 -0.001006
# 4 -0.003552 0.008888 -0.002145 0.025775 0.000228 -0.002601
# 5 -0.006307 0.026468 0.002592 0.000228 0.032960 -0.009638
# 6 0.008645 -0.031024 -0.001006 -0.002601 -0.009638 0.046830
#
#
# Mechanical properties :
#
#
# Convention : Reuss Voigt Hill
#
# Bulk Modulus (GPa) = 13.89124 46.50312 30.19718
# Shear Modulus (GPa) = 16.60860 36.31172 26.46016
#
# Velocity S-wave (km/s) = 2.57422 3.80629 3.24919
# Velocity P-wave (km/s) = 3.79181 6.15395 5.11121
#
# Compressibility (1/GPa) = 0.07198783
#
# Stress axis : x y z
#
# Youngs Moduli (GPa) = 73.18061 9.99549 124.56207
#
# Poissons Ratio (x) = 0.21801 0.19288
# Poissons Ratio (y) = 1.59610 0.18887
# Poissons Ratio (z) = 0.11332 0.01516
#
# Static dielectric constant tensor:
#      x y z
#    x -4.153980 1.019330 -2.406850 
#    y 1.019330 1.976880 0.462660 
#    z -2.406850 0.462660 1.129110 
# 
# From -- ./inp_files/283332.got.cif
#   From: 2010.05.17/outbox.cif.g08.bks.cpg/sg2_142_cif.got.tgz:283332.got - 2010.06.03 11:33:40.
