data_PCOD9104921
_publ_section_title
;
Structure prediction by ZEFSAII (Michael W. Deem and Ramdas Pophale) SiO2 
 PCOD9104921
Probable space group: P -1
;
_chemical_formula_sum "Si O2"
_cell_formula_units_Z 16
_cell_length_a 13.619756
_cell_length_b 8.570489
_cell_length_c 11.898477
_cell_angle_alpha 50.212438
_cell_angle_beta 106.010369
_cell_angle_gamma 137.971065
_cell_volume 658.594053
_symmetry_space_group_name_H-M "P -1"
_symmetry_group_IT_number 2
_symmetry_cell_setting 'triclinic'
loop_
_space_group_symop_operation_xyz
x,y,z
-x,-y,-z
loop_
_atom_site_type_symbol
_atom_site_label
_atom_site_fract_x
_atom_site_fract_y
_atom_site_fract_z
Si Si1 0.977281 0.047449 0.617857
Si Si2 0.205477 0.107893 0.169274
Si Si3 0.704454 0.849703 0.477287
Si Si4 0.341998 0.642834 0.410697
Si Si5 0.504934 0.854177 0.966023
Si Si6 0.720372 0.791910 0.100440
Si Si7 0.914114 0.199440 0.182484
Si Si8 0.589886 0.912560 0.627077
O O1 0.150269 0.359837 0.480578
O O2 0.949998 0.084481 0.718558
O O3 0.838273 0.939916 0.553433
O O4 0.966662 0.786637 0.736654
O O5 0.285604 0.024810 0.282043
O O6 0.337126 0.484557 0.062091
O O7 0.178432 0.062705 0.048555
O O8 0.617397 0.525528 0.538226
O O9 0.620344 0.866767 0.533302
O O10 0.799250 0.103607 0.289039
O O11 0.382409 0.809212 0.466086
O O12 0.430244 0.920938 0.222011
O O13 0.628487 0.865786 0.030691
O O14 0.500000 0.000000 0.000000
O O15 0.580919 0.415987 0.229591
O O16 0.810757 0.920156 0.186947
O O17 0.000000 0.500000 0.000000
#
# Coordination Sequence:
#
# PCOD9104921 Si02
#       8
#     2   2   2   2   2   2   2   2
#     4  10  24  42  66  94 132 174 222 272 314 395
#     4  10  20  39  62  96 136 161 220 267 321 386
#     4  10  24  43  65  96 131 166 229 272 311 402
#     4  11  19  37  67  93 126 163 222 260 329 371
#     4  11  21  35  67  98 122 170 219 264 322 386
#     4  11  22  39  62  93 140 161 213 278 322 395
#     4  11  26  41  63  93 134 178 210 264 344 384
#     4  10  20  40  65  97 125 172 216 275 326 380
#
# _framework density 24.294174999999999
#
# number of rings (size 3 to 8) (size 9 to 14) (size 15 to 20)
#    0.000    1.500    2.500    4.500    5.250    4.000 
#    0.000    3.750    0.000    0.000    0.000    0.000 
#    0.000    0.000    0.000    0.000    0.000    0.000 
#
# Total GULP energy -89558.246447 kJ/mol
# GULP energy per Si atom -5597.390403 kJ/mol
# Density = 2.423888 g / cm^3
# Si number density = 24.294175 Si / 1000 Ang^3
#
#
#
# Elastic Constant Matrix: (Units=GPa)
#
#
# Indices 1 2 3 4 5 6 
#
# 1 114.5153 54.3183 42.9604 -0.6348 -16.7646 -31.0099
# 2 54.3183 81.2881 24.6741 13.2303 0.0617 -31.1460
# 3 42.9604 24.6741 125.0266 5.1454 -14.4000 -18.7074
# 4 -0.6348 13.2303 5.1454 44.9251 -21.3173 -5.3087
# 5 -16.7646 0.0617 -14.4000 -21.3173 42.9212 10.6886
# 6 -31.0099 -31.1460 -18.7074 -5.3087 10.6886 40.7928
#
#
#
# Elastic Compliance Matrix: (Units=1/GPa)
#
#
# Indices 1 2 3 4 5 6 
#
# 1 0.017012 -0.011365 -0.002596 0.008677 0.009687 0.001655
# 2 -0.011365 0.027920 -0.000602 -0.013784 -0.015158 0.014580
# 3 -0.002596 -0.000602 0.009430 0.000106 0.001850 0.001421
# 4 0.008677 -0.013784 0.000106 0.036716 0.022954 -0.005116
# 5 0.009687 -0.015158 0.001850 0.022954 0.041956 -0.011367
# 6 0.001655 0.014580 0.001421 -0.005116 -0.011367 0.039868
#
#
# Mechanical properties :
#
#
# Convention : Reuss Voigt Hill
#
# Bulk Modulus (GPa) = 39.62585 62.74839 51.18712
# Shear Modulus (GPa) = 23.75962 38.98632 31.37297
#
# Velocity S-wave (km/s) = 3.13069 4.01029 3.59747
# Velocity P-wave (km/s) = 5.42351 6.87953 6.19445
#
# Compressibility (1/GPa) = 0.02523605
#
# Stress axis : x y z
#
# Youngs Moduli (GPa) = 58.78342 35.81625 106.03985
#
# Poissons Ratio (x) = 0.40705 0.27530
# Poissons Ratio (y) = 0.66807 0.06383
# Poissons Ratio (z) = 0.15262 0.02156
#
# Static dielectric constant tensor:
#      x y z
#    x 1.938000 -0.010880 0.025400 
#    y -0.010880 1.998900 0.028170 
#    z 0.025400 0.028170 1.919170 
# 
# From -- ./inp_files/446811.got.cif
#   From: 2010.05.17/outbox.cif.g08.bks.cpg/sg2_224_cif.got.tgz:446811.got - 2010.06.03 11:33:40.
