data_PCOD9104568
_publ_section_title
;
Structure prediction by ZEFSAII (Michael W. Deem and Ramdas Pophale) SiO2 
 PCOD9104568
Probable space group: P -1
;
_chemical_formula_sum "Si O2"
_cell_formula_units_Z 14
_cell_length_a 7.577121
_cell_length_b 12.193984
_cell_length_c 12.077337
_cell_angle_alpha 31.089442
_cell_angle_beta 67.158104
_cell_angle_gamma 61.231104
_cell_volume 504.386090
_symmetry_space_group_name_H-M "P -1"
_symmetry_group_IT_number 2
_symmetry_cell_setting 'triclinic'
loop_
_space_group_symop_operation_xyz
x,y,z
-x,-y,-z
loop_
_atom_site_type_symbol
_atom_site_label
_atom_site_fract_x
_atom_site_fract_y
_atom_site_fract_z
Si Si1 0.090044 0.580046 0.208437
Si Si2 0.616205 0.126414 0.133079
Si Si3 0.106104 0.875954 0.409353
Si Si4 0.649681 0.856526 0.995033
Si Si5 0.650144 0.703796 0.760095
Si Si6 0.985786 0.793611 0.262617
Si Si7 0.230773 0.698153 0.768680
O O1 0.180131 0.338788 0.337713
O O2 0.091741 0.590039 0.331445
O O3 0.229149 0.731322 0.002914
O O4 0.858091 0.697600 0.131078
O O5 0.480035 0.253538 0.955005
O O6 0.481042 0.109104 0.286360
O O7 0.747946 0.887038 0.263365
O O8 0.179788 0.718976 0.633893
O O9 0.083855 0.790876 0.362177
O O10 0.278611 0.989890 0.241888
O O11 0.915443 0.076691 0.332110
O O12 0.500000 0.000000 0.000000
O O13 0.462788 0.669298 0.767477
O O14 0.781725 0.522117 0.974774
O O15 0.000000 0.000000 0.000000
#
# Coordination Sequence:
#
# PCOD9104568 Si02
#       7
#     2   2   2   2   2   2   2
#     4  11  19  36  58  85 119 155 198 242 286 353
#     4  11  19  32  62  87 114 152 202 232 295 361
#     4  11  20  36  59  97 114 154 205 249 281 352
#     4  12  21  34  59  92 118 156 204 241 284 358
#     4  11  18  39  62  87 115 163 189 248 309 346
#     4  10  16  33  57  79 114 156 191 232 285 348
#     4  10  19  35  66  83 124 153 198 246 302 347
#
# _framework density 27.756516000000001
#
# number of rings (size 3 to 8) (size 9 to 14) (size 15 to 20)
#    0.000    1.143   10.000    0.857    0.000    0.571 
#    0.000    1.429    0.000    0.857    0.000    0.000 
#    0.000    0.000    0.000    0.000    0.000    0.000 
#
# Total GULP energy -78216.000651 kJ/mol
# GULP energy per Si atom -5586.857189 kJ/mol
# Density = 2.769334 g / cm^3
# Si number density = 27.756516 Si / 1000 Ang^3
#
#
#
# Elastic Constant Matrix: (Units=GPa)
#
#
# Indices 1 2 3 4 5 6 
#
# 1 122.0582 55.8223 41.6729 11.7908 53.6505 0.5706
# 2 55.8223 291.8682 65.8252 10.9616 24.9748 -11.1313
# 3 41.6729 65.8252 159.0188 29.0603 21.6402 -5.1894
# 4 11.7908 10.9616 29.0603 63.0067 4.9689 16.4504
# 5 53.6505 24.9748 21.6402 4.9689 43.1247 6.8043
# 6 0.5706 -11.1313 -5.1894 16.4504 6.8043 48.1002
#
#
#
# Elastic Compliance Matrix: (Units=1/GPa)
#
#
# Indices 1 2 3 4 5 6 
#
# 1 0.019608 -0.001331 -0.000909 -0.002051 -0.023464 0.003382
# 2 -0.001331 0.004012 -0.001245 -0.000087 -0.000169 0.000864
# 3 -0.000909 -0.001245 0.008085 -0.003743 -0.002117 0.002175
# 4 -0.002051 -0.000087 -0.003743 0.019719 0.003411 -0.007626
# 5 -0.023464 -0.000169 -0.002117 0.003411 0.054546 -0.008872
# 6 0.003382 0.000864 0.002175 -0.007626 -0.008872 0.025047
#
#
# Mechanical properties :
#
#
# Convention : Reuss Voigt Hill
#
# Bulk Modulus (GPa) = 40.42939 99.95399 70.19169
# Shear Modulus (GPa) = 34.19196 58.15464 46.17330
#
# Velocity S-wave (km/s) = 3.51358 4.58227 4.08304
# Velocity P-wave (km/s) = 5.57295 8.00534 6.89722
#
# Compressibility (1/GPa) = 0.02473448
#
# Stress axis : x y z
#
# Youngs Moduli (GPa) = 51.00010 249.23664 123.68154
#
# Poissons Ratio (x) = 0.33183 0.11244
# Poissons Ratio (y) = 0.06790 0.15397
# Poissons Ratio (z) = 0.04637 0.31028
#
# Static dielectric constant tensor:
#      x y z
#    x 2.253120 0.082360 -0.139600 
#    y 0.082360 2.226050 -0.112370 
#    z -0.139600 -0.112370 2.295990 
# 
# From -- ./inp_files/398389.got.cif
#   From: 2010.05.17/outbox.cif.g08.bks.cpg/sg2_200_cif.got.tgz:398389.got - 2010.06.03 11:33:40.
