data_PCOD9104329
_publ_section_title
;
Structure prediction by ZEFSAII (Michael W. Deem and Ramdas Pophale) SiO2 
 PCOD9104329
Probable space group: P -1
;
_chemical_formula_sum "Si O2"
_cell_formula_units_Z 16
_cell_length_a 14.032452
_cell_length_b 9.923298
_cell_length_c 9.764720
_cell_angle_alpha 30.022595
_cell_angle_beta 67.696178
_cell_angle_gamma 66.081174
_cell_volume 620.692071
_symmetry_space_group_name_H-M "P -1"
_symmetry_group_IT_number 2
_symmetry_cell_setting 'triclinic'
loop_
_space_group_symop_operation_xyz
x,y,z
-x,-y,-z
loop_
_atom_site_type_symbol
_atom_site_label
_atom_site_fract_x
_atom_site_fract_y
_atom_site_fract_z
Si Si1 0.187007 0.828019 0.885033
Si Si2 0.301596 0.331622 0.776882
Si Si3 0.550303 0.715276 0.018652
Si Si4 0.967249 0.062653 0.763339
Si Si5 0.555488 0.813647 0.508732
Si Si6 0.257195 0.759830 0.193970
Si Si7 0.267612 0.251376 0.324301
Si Si8 0.069095 0.511752 0.817210
O O1 0.267736 0.807233 0.984948
O O2 0.178457 0.515468 0.134621
O O3 0.079926 0.027617 0.802343
O O4 0.228976 0.964045 0.608694
O O5 0.309914 0.507002 0.480137
O O6 0.196076 0.478857 0.784624
O O7 0.403914 0.314389 0.828621
O O8 0.280945 0.028924 0.020488
O O9 0.651283 0.725183 0.859768
O O10 0.472504 0.993025 0.777981
O O11 0.497263 0.455823 0.237714
O O12 0.867608 0.244495 0.726202
O O13 0.971099 0.208321 0.486833
O O14 0.945911 0.755596 0.026772
O O15 0.671019 0.737882 0.574695
O O16 0.500000 0.000000 0.500000
O O17 0.000000 0.500000 0.000000
#
# Coordination Sequence:
#
# PCOD9104329 Si02
#       8
#     2   2   2   2   2   2   2   2
#     4  12  23  37  62  85 119 152 200 251 272 345
#     4  10  22  37  62  83 113 158 201 232 279 355
#     4  11  21  38  64  89 117 151 191 232 290 378
#     4  10  22  37  57  82 112 162 201 228 284 335
#     4  10  20  39  60  86 124 150 180 236 301 359
#     4  10  22  42  56  82 118 161 203 234 283 324
#     4  11  23  37  59  95 116 145 186 246 312 329
#     4  10  21  37  53  83 124 152 180 244 291 336
#
# _framework density 25.777676
#
# number of rings (size 3 to 8) (size 9 to 14) (size 15 to 20)
#    0.000    1.500    0.000    6.750    3.500    0.000 
#    0.000    5.000    0.000   15.000    0.000    0.000 
#    0.000    0.000    0.000    0.000    0.000    0.000 
#
# Total GULP energy -89553.578202 kJ/mol
# GULP energy per Si atom -5597.098638 kJ/mol
# Density = 2.571901 g / cm^3
# Si number density = 25.777676 Si / 1000 Ang^3
#
#
#
# Elastic Constant Matrix: (Units=GPa)
#
#
# Indices 1 2 3 4 5 6 
#
# 1 97.9642 2.5918 50.9079 1.8796 31.2835 -0.5903
# 2 2.5918 46.4780 17.5979 17.1899 3.2025 -4.7164
# 3 50.9079 17.5979 184.0205 -5.2619 19.1818 1.8872
# 4 1.8796 17.1899 -5.2619 40.5120 -1.9878 -5.2685
# 5 31.2835 3.2025 19.1818 -1.9878 46.4951 2.3272
# 6 -0.5903 -4.7164 1.8872 -5.2685 2.3272 33.5676
#
#
#
# Elastic Compliance Matrix: (Units=1/GPa)
#
#
# Indices 1 2 3 4 5 6 
#
# 1 0.014818 0.002043 -0.003450 -0.002307 -0.008836 0.000992
# 2 0.002043 0.027509 -0.003299 -0.012011 -0.002541 0.002377
# 3 -0.003450 -0.003299 0.006790 0.002367 -0.000125 -0.000526
# 4 -0.002307 -0.012011 0.002367 0.030683 0.002576 0.002776
# 5 -0.008836 -0.002541 -0.000125 0.002576 0.027892 -0.002035
# 6 0.000992 0.002377 -0.000526 0.002776 -0.002035 0.030748
#
#
# Mechanical properties :
#
#
# Convention : Reuss Voigt Hill
#
# Bulk Modulus (GPa) = 25.18522 52.29534 38.74028
# Shear Modulus (GPa) = 31.03896 41.27261 36.15579
#
# Velocity S-wave (km/s) = 3.47378 4.00571 3.74919
# Velocity P-wave (km/s) = 5.08733 6.45952 5.81405
#
# Compressibility (1/GPa) = 0.03970583
#
# Stress axis : x y z
#
# Youngs Moduli (GPa) = 67.48365 36.35121 147.27185
#
# Poissons Ratio (x) = -0.07425 0.50806
# Poissons Ratio (y) = -0.13784 0.48582
# Poissons Ratio (z) = 0.23281 0.11992
#
# Static dielectric constant tensor:
#      x y z
#    x 2.038380 -0.055340 0.010690 
#    y -0.055340 2.076550 0.001980 
#    z 0.010690 0.001980 2.023590 
# 
# From -- ./inp_files/113272.got.cif
#   From: 2010.05.17/outbox.cif.g08.bks.cpg/sg2_57_cif.got.tgz:113272.got - 2010.06.03 11:33:40.
