data_PCOD9104151
_publ_section_title
;
Structure prediction by ZEFSAII (Michael W. Deem and Ramdas Pophale) SiO2 
 PCOD9104151
Probable space group: P -1
;
_chemical_formula_sum "Si O2"
_cell_formula_units_Z 15
_cell_length_a 11.477454
_cell_length_b 6.674246
_cell_length_c 9.423534
_cell_angle_alpha 73.253530
_cell_angle_beta 56.476041
_cell_angle_gamma 79.523289
_cell_volume 576.038390
_symmetry_space_group_name_H-M "P -1"
_symmetry_group_IT_number 2
_symmetry_cell_setting 'triclinic'
loop_
_space_group_symop_operation_xyz
x,y,z
-x,-y,-z
loop_
_atom_site_type_symbol
_atom_site_label
_atom_site_fract_x
_atom_site_fract_y
_atom_site_fract_z
Si Si1 0.069913 0.228676 0.514453
Si Si2 0.800156 0.973109 0.771894
Si Si3 0.746291 0.340792 0.057901
Si Si4 0.500000 0.500000 0.000000
Si Si5 0.942044 0.575783 0.243811
Si Si6 0.425625 0.769586 0.276587
Si Si7 0.794188 0.184340 0.347189
Si Si8 0.731478 0.784718 0.139123
O O1 0.147158 0.231945 0.310655
O O2 0.082814 0.421859 0.571203
O O3 0.150258 0.033638 0.581134
O O4 0.913261 0.145653 0.623884
O O5 0.649811 0.037261 0.796441
O O6 0.794222 0.938736 0.949281
O O7 0.905257 0.336805 0.898091
O O8 0.628026 0.356238 0.015284
O O9 0.735877 0.175818 0.228261
O O10 0.733886 0.561761 0.102623
O O11 0.455712 0.593860 0.172456
O O12 0.918708 0.350575 0.234895
O O13 0.829362 0.733661 0.215485
O O14 0.319937 0.718144 0.485960
O O15 0.567001 0.834913 0.246512
#
# Coordination Sequence:
#
# PCOD9104151 Si02
#       8
#     2   2   2   1   2   2   2   2
#     4  10  22  38  63  91 118 159 200 245 306 354
#     4  10  20  39  58  86 127 155 193 253 301 353
#     4  10  21  38  59  88 120 155 198 247 300 356
#     4  10  22  36  56  86 114 152 202 236 292 364
#     4  11  22  38  64  92 117 157 206 246 295 359
#     4  10  22  39  59  85 121 164 200 245 304 352
#     4  10  22  42  62  87 125 157 199 254 295 353
#     4  10  21  37  59  86 120 160 200 248 301 352
#
# _framework density 26.039930999999999
#
# number of rings (size 3 to 8) (size 9 to 14) (size 15 to 20)
#    0.000    1.867    0.000    4.400    0.000   10.133 
#    0.000   10.000    0.000    0.000    0.000    0.000 
#    0.000    0.000    0.000    0.000    0.000    0.000 
#
# Total GULP energy -83737.883032 kJ/mol
# GULP energy per Si atom -5582.525535 kJ/mol
# Density = 2.598066 g / cm^3
# Si number density = 26.039931 Si / 1000 Ang^3
#
#
#
# Elastic Constant Matrix: (Units=GPa)
#
#
# Indices 1 2 3 4 5 6 
#
# 1 210.1014 19.1394 69.3121 3.9185 22.5643 -37.0936
# 2 19.1394 43.0545 -4.0490 -2.3028 -6.7533 -2.8963
# 3 69.3121 -4.0490 114.0618 2.2482 15.5058 -9.9836
# 4 3.9185 -2.3028 2.2482 35.5488 -8.5414 11.9570
# 5 22.5643 -6.7533 15.5058 -8.5414 47.9894 4.9663
# 6 -37.0936 -2.8963 -9.9836 11.9570 4.9663 27.9981
#
#
#
# Elastic Compliance Matrix: (Units=1/GPa)
#
#
# Indices 1 2 3 4 5 6 
#
# 1 0.010669 -0.005672 -0.003893 -0.009086 -0.007981 0.017456
# 2 -0.005672 0.027011 0.002518 0.006786 0.007700 -0.008087
# 3 -0.003893 0.002518 0.011400 -0.000356 -0.001520 -0.000410
# 4 -0.009086 0.006786 -0.000356 0.044953 0.016825 -0.033645
# 5 -0.007981 0.007700 -0.001520 0.016825 0.031550 -0.023100
# 6 0.017456 -0.008087 -0.000410 -0.033645 -0.023100 0.076327
#
#
# Mechanical properties :
#
#
# Convention : Reuss Voigt Hill
#
# Bulk Modulus (GPa) = 28.58373 59.55809 44.07091
# Shear Modulus (GPa) = 21.96190 41.16163 31.56176
#
# Velocity S-wave (km/s) = 2.90727 3.98013 3.48523
# Velocity P-wave (km/s) = 4.71915 6.63652 5.75820
#
# Compressibility (1/GPa) = 0.03498493
#
# Stress axis : x y z
#
# Youngs Moduli (GPa) = 93.72973 37.02145 87.72169
#
# Poissons Ratio (x) = 0.21000 0.34147
# Poissons Ratio (y) = 0.53167 -0.22084
# Poissons Ratio (z) = 0.36486 -0.09320
#
# Static dielectric constant tensor:
#      x y z
#    x 2.036680 -0.017010 -0.001890 
#    y -0.017010 2.168610 0.007420 
#    z -0.001890 0.007420 2.055360 
# 
# From -- ./inp_files/243314.got.cif
#   From: 2010.05.17/outbox.cif.g08.bks.cpg/sg2_122_cif.got.tgz:243314.got - 2010.06.03 11:33:40.
