data_PCOD9104451
_publ_section_title
;
Structure prediction by ZEFSAII (Michael W. Deem and Ramdas Pophale) SiO2 
 PCOD9104451
Probable space group: P -1
;
_chemical_formula_sum "Si O2"
_cell_formula_units_Z 12
_cell_length_a 13.513949
_cell_length_b 10.116760
_cell_length_c 8.885423
_cell_angle_alpha 129.428454
_cell_angle_beta 109.611165
_cell_angle_gamma 34.082977
_cell_volume 472.239962
_symmetry_space_group_name_H-M "P -1"
_symmetry_group_IT_number 2
_symmetry_cell_setting 'triclinic'
loop_
_space_group_symop_operation_xyz
x,y,z
-x,-y,-z
loop_
_atom_site_type_symbol
_atom_site_label
_atom_site_fract_x
_atom_site_fract_y
_atom_site_fract_z
Si Si1 0.965380 0.393946 0.793204
Si Si2 0.124805 0.781598 0.720916
Si Si3 0.604189 0.737951 0.990246
Si Si4 0.735329 0.171260 0.908436
Si Si5 0.741951 0.766806 0.636629
Si Si6 0.682062 0.331590 0.551731
O O1 0.831006 0.462021 0.881296
O O2 0.853831 0.601544 0.735445
O O3 0.164117 0.024898 0.584414
O O4 0.000000 0.500000 0.000000
O O5 0.203474 0.485270 0.600643
O O6 0.206019 0.700444 0.535131
O O7 0.207252 0.825327 0.895488
O O8 0.890157 0.075674 0.824453
O O9 0.582324 0.575102 0.808922
O O10 0.500000 0.000000 0.000000
O O11 0.490847 0.924677 0.220808
O O12 0.785390 0.901307 0.705815
O O13 0.500000 0.500000 0.000000
O O14 0.500000 0.500000 0.500000
#
# Coordination Sequence:
#
# PCOD9104451 Si02
#       6
#     2   2   2   2   2   2
#     4  11  23  38  64 102 140 178 218 279 347 417
#     4  11  25  47  71  98 141 182 232 294 344 408
#     4  10  20  39  60  99 135 167 214 273 339 416
#     4  11  27  49  71  99 132 187 247 291 341 406
#     4  11  24  46  69  99 142 177 229 286 347 420
#     4  12  23  40  69 102 140 180 221 278 355 418
#
# _framework density 25.410807999999999
#
# number of rings (size 3 to 8) (size 9 to 14) (size 15 to 20)
#    0.000    1.000    3.333    5.000    2.333    2.000 
#    0.000    0.000    0.000    0.000    0.000    0.000 
#    0.000    0.000    0.000    0.000    0.000    0.000 
#
# Total GULP energy -67096.202232 kJ/mol
# GULP energy per Si atom -5591.350186 kJ/mol
# Density = 2.535297 g / cm^3
# Si number density = 25.410808 Si / 1000 Ang^3
#
#
#
# Elastic Constant Matrix: (Units=GPa)
#
#
# Indices 1 2 3 4 5 6 
#
# 1 127.3754 34.1860 7.4259 9.9457 -2.4719 -6.1476
# 2 34.1860 95.4742 27.7006 15.2082 2.8812 -19.3687
# 3 7.4259 27.7006 115.3702 11.3503 14.8600 -4.6379
# 4 9.9457 15.2082 11.3503 43.0209 -7.7099 -0.0683
# 5 -2.4719 2.8812 14.8600 -7.7099 51.7594 4.1661
# 6 -6.1476 -19.3687 -4.6379 -0.0683 4.1661 41.1283
#
#
#
# Elastic Compliance Matrix: (Units=1/GPa)
#
#
# Indices 1 2 3 4 5 6 
#
# 1 0.008739 -0.003092 0.000210 -0.000910 0.000407 -0.000169
# 2 -0.003092 0.014168 -0.002408 -0.003884 -0.001312 0.006065
# 3 0.000210 -0.002408 0.009871 -0.002351 -0.003066 0.000317
# 4 -0.000910 -0.003884 -0.002351 0.026338 0.004987 -0.002692
# 5 0.000407 -0.001312 -0.003066 0.004987 0.021281 -0.003050
# 6 -0.000169 0.006065 0.000317 -0.002692 -0.003050 0.027485
#
#
# Mechanical properties :
#
#
# Convention : Reuss Voigt Hill
#
# Bulk Modulus (GPa) = 45.04554 52.98275 49.01415
# Shear Modulus (GPa) = 39.72600 45.10885 42.41743
#
# Velocity S-wave (km/s) = 3.95821 4.21786 4.09010
# Velocity P-wave (km/s) = 6.21734 6.67954 6.45258
#
# Compressibility (1/GPa) = 0.02219975
#
# Stress axis : x y z
#
# Youngs Moduli (GPa) = 114.42747 70.57950 101.30430
#
# Poissons Ratio (x) = 0.21821 -0.02129
# Poissons Ratio (y) = 0.35378 0.24394
# Poissons Ratio (z) = -0.02405 0.16995
#
# Static dielectric constant tensor:
#      x y z
#    x 2.087150 0.062760 -0.000600 
#    y 0.062760 2.001720 0.030430 
#    z -0.000600 0.030430 2.009090 
# 
# From -- ./inp_files/451927.got.cif
#   From: 2010.05.17/outbox.cif.g08.bks.cpg/sg2_226_cif.got.tgz:451927.got - 2010.06.03 11:33:40.
