data_PCOD9104572
_publ_section_title
;
Structure prediction by ZEFSAII (Michael W. Deem and Ramdas Pophale) SiO2 
 PCOD9104572
Probable space group: P -1
;
_chemical_formula_sum "Si O2"
_cell_formula_units_Z 16
_cell_length_a 7.511950
_cell_length_b 17.922066
_cell_length_c 13.922657
_cell_angle_alpha 152.943594
_cell_angle_beta 76.186700
_cell_angle_gamma 117.570201
_cell_volume 682.309648
_symmetry_space_group_name_H-M "P -1"
_symmetry_group_IT_number 2
_symmetry_cell_setting 'triclinic'
loop_
_space_group_symop_operation_xyz
x,y,z
-x,-y,-z
loop_
_atom_site_type_symbol
_atom_site_label
_atom_site_fract_x
_atom_site_fract_y
_atom_site_fract_z
Si Si1 0.203258 0.721613 0.983053
Si Si2 0.515144 0.333215 0.529064
Si Si3 0.495686 0.128240 0.473050
Si Si4 0.929031 0.860759 0.718700
Si Si5 0.028300 0.604220 0.515085
Si Si6 0.820912 0.785191 0.041763
Si Si7 0.002903 0.364770 0.720710
Si Si8 0.839754 0.032848 0.497601
O O1 0.014057 0.766144 0.041529
O O2 0.437382 0.931332 0.198128
O O3 0.157892 0.574331 0.733573
O O4 0.158587 0.596335 0.942050
O O5 0.416141 0.228739 0.525327
O O6 0.328740 0.218539 0.340665
O O7 0.728262 0.325704 0.473697
O O8 0.613400 0.564824 0.791511
O O9 0.750753 0.290745 0.646648
O O10 0.365006 0.043877 0.492529
O O11 0.000834 0.785812 0.713505
O O12 0.940986 0.741274 0.489241
O O13 0.082042 0.085658 0.919680
O O14 0.000000 0.500000 0.500000
O O15 0.768931 0.897638 0.256198
O O16 0.980918 0.261270 0.705438
O O17 0.000000 0.000000 0.500000
#
# Coordination Sequence:
#
# PCOD9104572 Si02
#       8
#     2   2   2   2   2   2   2   2
#     4  10  20  40  65  84 123 164 200 247 320 356
#     4  11  22  41  67  87 124 166 199 251 311 361
#     4  12  20  38  63  86 122 168 202 251 302 353
#     4  10  20  40  67  89 124 161 199 249 310 363
#     4  10  23  44  66  93 124 153 203 257 303 378
#     4  10  20  39  61  89 124 165 202 249 299 355
#     4  10  22  39  57  89 124 166 206 254 296 358
#     4  11  22  36  56  88 126 162 217 251 287 355
#
# _framework density 23.449764999999999
#
# number of rings (size 3 to 8) (size 9 to 14) (size 15 to 20)
#    0.000    1.500    6.250    1.125    0.000    5.500 
#    0.000    3.125    0.000    0.000    0.000    0.000 
#    0.000    0.000    0.000    0.000    0.000    0.000 
#
# Total GULP energy -89416.366872 kJ/mol
# GULP energy per Si atom -5588.522930 kJ/mol
# Density = 2.339639 g / cm^3
# Si number density = 23.449765 Si / 1000 Ang^3
#
#
#
# Elastic Constant Matrix: (Units=GPa)
#
#
# Indices 1 2 3 4 5 6 
#
# 1 65.9755 30.8266 0.9882 11.8979 0.7792 -28.0896
# 2 30.8266 134.9267 42.5220 31.0369 -10.9347 -38.7490
# 3 0.9882 42.5220 104.7010 44.4600 1.4236 -16.9880
# 4 11.8979 31.0369 44.4600 40.1817 -6.2973 -15.2423
# 5 0.7792 -10.9347 1.4236 -6.2973 25.4205 11.4216
# 6 -28.0896 -38.7490 -16.9880 -15.2423 11.4216 37.1997
#
#
#
# Elastic Compliance Matrix: (Units=1/GPa)
#
#
# Indices 1 2 3 4 5 6 
#
# 1 0.027968 -0.000945 0.008647 -0.010183 -0.015332 0.024618
# 2 -0.000945 0.011578 -0.001933 -0.003013 0.000260 0.009150
# 3 0.008647 -0.001933 0.022043 -0.024169 -0.012088 0.008391
# 4 -0.010183 -0.003013 -0.024169 0.058406 0.016136 -0.002889
# 5 -0.015332 0.000260 -0.012088 0.016136 0.057055 -0.027733
# 6 0.024618 0.009150 0.008391 -0.002889 -0.027733 0.066165
#
#
# Mechanical properties :
#
#
# Convention : Reuss Voigt Hill
#
# Bulk Modulus (GPa) = 13.67468 50.47520 32.07494
# Shear Modulus (GPa) = 19.52718 35.97816 27.75267
#
# Velocity S-wave (km/s) = 2.88883 3.92122 3.44393
# Velocity P-wave (km/s) = 4.11961 6.48636 5.43342
#
# Compressibility (1/GPa) = 0.07312787
#
# Stress axis : x y z
#
# Youngs Moduli (GPa) = 35.75511 86.36798 45.36500
#
# Poissons Ratio (x) = 0.08162 -0.39226
# Poissons Ratio (y) = 0.03379 0.08768
# Poissons Ratio (z) = -0.30917 0.16693
#
# Static dielectric constant tensor:
#      x y z
#    x 1.960570 -0.006710 -0.015000 
#    y -0.006710 1.926790 -0.005590 
#    z -0.015000 -0.005590 1.896000 
# 
# From -- ./inp_files/214819.got.cif
#   From: 2010.05.17/outbox.cif.g08.bks.cpg/sg2_108_cif.got.tgz:214819.got - 2010.06.03 11:33:40.
