data_PCOD9104611
_publ_section_title
;
Structure prediction by ZEFSAII (Michael W. Deem and Ramdas Pophale) SiO2 
 PCOD9104611
Probable space group: P -1
;
_chemical_formula_sum "Si O2"
_cell_formula_units_Z 14
_cell_length_a 8.812046
_cell_length_b 11.257478
_cell_length_c 9.284504
_cell_angle_alpha 68.788907
_cell_angle_beta 133.820941
_cell_angle_gamma 124.299011
_cell_volume 548.354519
_symmetry_space_group_name_H-M "P -1"
_symmetry_group_IT_number 2
_symmetry_cell_setting 'triclinic'
loop_
_space_group_symop_operation_xyz
x,y,z
-x,-y,-z
loop_
_atom_site_type_symbol
_atom_site_label
_atom_site_fract_x
_atom_site_fract_y
_atom_site_fract_z
Si Si1 0.322061 0.572104 0.463354
Si Si2 0.039327 0.715055 0.324425
Si Si3 0.303002 0.128142 0.553041
Si Si4 0.775934 0.976247 0.770160
Si Si5 0.141282 0.834221 0.655147
Si Si6 0.034213 0.366243 0.135996
Si Si7 0.664717 0.684135 0.879304
O O1 0.481600 0.719027 0.414473
O O2 0.240892 0.441643 0.357974
O O3 0.451167 0.564147 0.698577
O O4 0.098427 0.592632 0.359267
O O5 0.087517 0.743869 0.512318
O O6 0.776939 0.678766 0.108264
O O7 0.225868 0.871926 0.306602
O O8 0.190525 0.053526 0.359534
O O9 0.100700 0.151730 0.488183
O O10 0.343533 0.000737 0.705867
O O11 0.597019 0.815936 0.777475
O O12 0.000000 0.000000 0.000000
O O13 0.171747 0.752884 0.849932
O O14 0.118768 0.297240 0.094835
O O15 0.000000 0.500000 0.000000
#
# Coordination Sequence:
#
# PCOD9104611 Si02
#       7
#     2   2   2   2   2   2   2
#     4  11  22  39  68  94 123 170 212 255 310 392
#     4  10  21  38  63  96 126 162 209 262 322 364
#     4   9  19  37  63  92 124 164 211 259 315 368
#     4   8  15  30  59  87 116 152 202 251 298 363
#     4  10  21  39  63  94 129 164 205 270 318 361
#     4  12  23  41  66  89 128 174 215 248 315 391
#     4  10  20  39  61  91 121 169 212 252 307 384
#
# _framework density 25.530926000000001
#
# number of rings (size 3 to 8) (size 9 to 14) (size 15 to 20)
#    0.000    2.000    4.286    0.429    0.000    5.714 
#    0.000    2.857    0.000    0.000    0.000    0.000 
#    0.000    0.000    0.000    0.000    0.000    0.000 
#
# Total GULP energy -78101.393159 kJ/mol
# GULP energy per Si atom -5578.670940 kJ/mol
# Density = 2.547282 g / cm^3
# Si number density = 25.530926 Si / 1000 Ang^3
#
#
#
# Elastic Constant Matrix: (Units=GPa)
#
#
# Indices 1 2 3 4 5 6 
#
# 1 39.7321 20.7878 30.9880 -7.3614 -4.1803 -10.4211
# 2 20.7878 132.1490 34.1240 -24.2845 -17.8479 -2.9086
# 3 30.9880 34.1240 88.7852 -14.7375 -9.3621 5.2214
# 4 -7.3614 -24.2845 -14.7375 57.9791 -2.5228 -8.9502
# 5 -4.1803 -17.8479 -9.3621 -2.5228 23.8065 -5.3642
# 6 -10.4211 -2.9086 5.2214 -8.9502 -5.3642 35.6006
#
#
#
# Elastic Compliance Matrix: (Units=1/GPa)
#
#
# Indices 1 2 3 4 5 6 
#
# 1 0.042235 -0.001268 -0.014013 0.003967 0.004995 0.016065
# 2 -0.001268 0.010240 -0.002123 0.004398 0.007774 0.003054
# 3 -0.014013 -0.002123 0.017659 0.000898 0.001544 -0.006407
# 4 0.003967 0.004398 0.000898 0.021431 0.008431 0.008047
# 5 0.004995 0.007774 0.001544 0.008431 0.052906 0.011962
# 6 0.016065 0.003054 -0.006407 0.008047 0.011962 0.037807
#
#
# Mechanical properties :
#
#
# Convention : Reuss Voigt Hill
#
# Bulk Modulus (GPa) = 28.30827 48.05177 38.18002
# Shear Modulus (GPa) = 21.84721 35.12833 28.48777
#
# Velocity S-wave (km/s) = 2.92843 3.71335 3.34400
# Velocity P-wave (km/s) = 4.74829 6.10305 5.46779
#
# Compressibility (1/GPa) = 0.03532536
#
# Stress axis : x y z
#
# Youngs Moduli (GPa) = 23.67687 97.65359 56.62919
#
# Poissons Ratio (x) = 0.12385 0.79356
# Poissons Ratio (y) = 0.03003 0.12022
# Poissons Ratio (z) = 0.33179 0.20731
#
# Static dielectric constant tensor:
#      x y z
#    x 2.034610 0.135540 0.016210 
#    y 0.135540 2.152080 -0.050040 
#    z 0.016210 -0.050040 2.029780 
# 
# From -- ./inp_files/181212.got.cif
#   From: 2010.05.17/outbox.cif.g08.bks.cpg/sg2_91_cif.got.tgz:181212.got - 2010.06.03 11:33:40.
