data_PCOD9104469
_publ_section_title
;
Structure prediction by ZEFSAII (Michael W. Deem and Ramdas Pophale) SiO2 
 PCOD9104469
Probable space group: P -1
;
_chemical_formula_sum "Si O2"
_cell_formula_units_Z 16
_cell_length_a 13.561800
_cell_length_b 15.417642
_cell_length_c 7.421698
_cell_angle_alpha 53.553094
_cell_angle_beta 81.993779
_cell_angle_gamma 122.049986
_cell_volume 788.613711
_symmetry_space_group_name_H-M "P -1"
_symmetry_group_IT_number 2
_symmetry_cell_setting 'triclinic'
loop_
_space_group_symop_operation_xyz
x,y,z
-x,-y,-z
loop_
_atom_site_type_symbol
_atom_site_label
_atom_site_fract_x
_atom_site_fract_y
_atom_site_fract_z
Si Si1 0.884660 0.629373 0.359901
Si Si2 0.804744 0.978698 0.177736
Si Si3 0.180134 0.150153 0.337169
Si Si4 0.187202 0.616298 0.603426
Si Si5 0.218164 0.003791 0.238023
Si Si6 0.520281 0.824509 0.275456
Si Si7 0.033402 0.373342 0.279019
Si Si8 0.372146 0.468736 0.666261
O O1 0.859186 0.501352 0.403829
O O2 0.870299 0.590742 0.621832
O O3 0.757324 0.607946 0.352754
O O4 0.053849 0.824715 0.048295
O O5 0.807750 0.876070 0.427239
O O6 0.643005 0.912473 0.299422
O O7 0.822617 0.967189 0.974100
O O8 0.255780 0.114808 0.250026
O O9 0.277812 0.334543 0.020127
O O10 0.000000 0.000000 0.500000
O O11 0.373690 0.780538 0.367975
O O12 0.091722 0.647028 0.580272
O O13 0.132576 0.513386 0.928673
O O14 0.069805 0.806967 0.560155
O O15 0.368053 0.061451 0.065317
O O16 0.450081 0.645498 0.489825
O O17 0.500000 0.500000 0.500000
#
# Coordination Sequence:
#
# PCOD9104469 Si02
#       8
#     2   2   2   2   2   2   2   2
#     4  10  20  39  61  83 118 155 188 237 288 344
#     4   9  20  39  56  84 116 154 193 232 279 347
#     4  12  22  36  62  83 114 162 194 233 285 339
#     4  10  21  38  62  91 113 143 199 240 292 340
#     4   9  21  40  54  84 120 149 191 236 287 342
#     4   9  21  40  55  84 123 145 189 247 280 341
#     4  10  21  38  64  85 114 152 192 241 289 348
#     4  11  21  38  57  88 118 152 193 240 284 335
#
# _framework density 20.288768000000001
#
# number of rings (size 3 to 8) (size 9 to 14) (size 15 to 20)
#    0.750    1.250    2.500    1.125    1.750    2.500 
#    4.500    0.000    0.000    2.250    0.000    0.000 
#    0.000    0.000    0.000    0.000    0.000    0.000 
#
# Total GULP energy -89237.958246 kJ/mol
# GULP energy per Si atom -5577.372390 kJ/mol
# Density = 2.024259 g / cm^3
# Si number density = 20.288768 Si / 1000 Ang^3
#
#
#
# Elastic Constant Matrix: (Units=GPa)
#
#
# Indices 1 2 3 4 5 6 
#
# 1 37.2348 10.7854 2.1768 -2.7441 -10.5672 16.7185
# 2 10.7854 40.4329 5.9698 -15.7764 -2.4302 9.3097
# 3 2.1768 5.9698 53.4384 -4.0696 -5.8297 14.6955
# 4 -2.7441 -15.7764 -4.0696 23.2608 6.2781 -4.9206
# 5 -10.5672 -2.4302 -5.8297 6.2781 33.9835 -3.7770
# 6 16.7185 9.3097 14.6955 -4.9206 -3.7770 29.9517
#
#
#
# Elastic Compliance Matrix: (Units=1/GPa)
#
#
# Indices 1 2 3 4 5 6 
#
# 1 0.043085 -0.009582 0.006692 -0.008817 0.012800 -0.024188
# 2 -0.009582 0.037441 -0.001960 0.024992 -0.005468 -0.001911
# 3 0.006692 -0.001960 0.022922 -0.000676 0.004450 -0.013923
# 4 -0.008817 0.024992 -0.000676 0.063390 -0.012073 0.006377
# 5 0.012800 -0.005468 0.004450 -0.012073 0.035437 -0.005144
# 6 -0.024188 -0.001911 -0.013923 0.006377 -0.005144 0.054712
#
#
# Mechanical properties :
#
#
# Convention : Reuss Voigt Hill
#
# Bulk Modulus (GPa) = 10.66705 18.77446 14.72076
# Shear Modulus (GPa) = 16.78206 24.91745 20.84976
#
# Velocity S-wave (km/s) = 2.87916 3.50828 3.20918
# Velocity P-wave (km/s) = 4.04002 5.06798 4.58292
#
# Compressibility (1/GPa) = 0.09374662
#
# Stress axis : x y z
#
# Youngs Moduli (GPa) = 23.21019 26.70893 43.62581
#
# Poissons Ratio (x) = 0.25594 -0.29195
# Poissons Ratio (y) = 0.22241 0.08551
# Poissons Ratio (z) = -0.15533 0.05235
#
# Static dielectric constant tensor:
#      x y z
#    x 1.753900 -0.006760 -0.020300 
#    y -0.006760 1.702300 -0.001830 
#    z -0.020300 -0.001830 1.736380 
# 
# From -- ./inp_files/316970.got.cif
#   From: 2010.05.17/outbox.cif.g08.bks.cpg/sg2_159_cif.got.tgz:316970.got - 2010.06.03 11:33:40.
