data_PCOD9104274
_publ_section_title
;
Structure prediction by ZEFSAII (Michael W. Deem and Ramdas Pophale) SiO2 
 PCOD9104274
Probable space group: P -1
;
_chemical_formula_sum "Si O2"
_cell_formula_units_Z 16
_cell_length_a 14.521086
_cell_length_b 13.167282
_cell_length_c 11.236830
_cell_angle_alpha 145.118840
_cell_angle_beta 140.733574
_cell_angle_gamma 49.636113
_cell_volume 777.203541
_symmetry_space_group_name_H-M "P -1"
_symmetry_group_IT_number 2
_symmetry_cell_setting 'triclinic'
loop_
_space_group_symop_operation_xyz
x,y,z
-x,-y,-z
loop_
_atom_site_type_symbol
_atom_site_label
_atom_site_fract_x
_atom_site_fract_y
_atom_site_fract_z
Si Si1 0.914829 0.519806 0.809931
Si Si2 0.147910 0.792651 0.273277
Si Si3 0.001421 0.860503 0.573119
Si Si4 0.722862 0.668066 0.179415
Si Si5 0.415710 0.188257 0.600057
Si Si6 0.666543 0.511347 0.712260
Si Si7 0.848846 0.013174 0.932947
Si Si8 0.697312 0.289145 0.882919
O O1 0.755377 0.581126 0.754113
O O2 0.923702 0.320315 0.576059
O O3 0.000000 0.500000 0.000000
O O4 0.013887 0.663568 0.982600
O O5 0.255892 0.680277 0.360558
O O6 0.245574 0.822417 0.281981
O O7 0.076148 0.978598 0.425645
O O8 0.864589 0.783257 0.432409
O O9 0.111052 0.956713 0.861957
O O10 0.600120 0.756835 0.225548
O O11 0.685780 0.624140 0.962250
O O12 0.754039 0.482068 0.098412
O O13 0.523009 0.306862 0.744407
O O14 0.500000 0.000000 0.500000
O O15 0.255912 0.150916 0.352917
O O16 0.500000 0.500000 0.500000
O O17 0.765651 0.189910 0.968987
O O18 0.000000 0.000000 0.000000
#
# Coordination Sequence:
#
# PCOD9104274 Si02
#       8
#     2   2   2   2   2   2   2   2
#     4  10  21  43  66  89 124 167 214 265 314 375
#     4  10  21  41  67  93 128 170 206 259 327 373
#     4  12  21  39  68  96 127 169 216 256 316 376
#     4  11  21  40  65  87 126 174 204 259 322 371
#     4  10  21  38  60  88 132 168 204 253 315 380
#     4  10  23  44  66  92 126 159 220 276 313 376
#     4  11  21  36  59  94 127 162 213 256 292 383
#     4  10  20  39  59  93 132 171 203 250 320 372
#
# _framework density 20.586627
#
# number of rings (size 3 to 8) (size 9 to 14) (size 15 to 20)
#    0.000    1.500    6.250    1.125    0.000    4.500 
#    6.750    0.625    0.000    0.000    0.000    0.000 
#    0.000    0.000    0.000    0.000    0.000    0.000 
#
# Total GULP energy -89099.029347 kJ/mol
# GULP energy per Si atom -5568.689334 kJ/mol
# Density = 2.053977 g / cm^3
# Si number density = 20.586627 Si / 1000 Ang^3
#
#
#
# Elastic Constant Matrix: (Units=GPa)
#
#
# Indices 1 2 3 4 5 6 
#
# 1 136.7746 19.8216 42.0350 0.3587 7.1622 -27.9170
# 2 19.8216 65.6498 35.7581 2.2746 10.0868 -5.1703
# 3 42.0350 35.7581 80.9487 1.2478 10.8458 -11.7273
# 4 0.3587 2.2746 1.2478 35.0302 -10.4935 1.6517
# 5 7.1622 10.0868 10.8458 -10.4935 37.0375 -3.8895
# 6 -27.9170 -5.1703 -11.7273 1.6517 -3.8895 23.8589
#
#
#
# Elastic Compliance Matrix: (Units=1/GPa)
#
#
# Indices 1 2 3 4 5 6 
#
# 1 0.010713 -0.000273 -0.003920 -0.000408 0.000148 0.010601
# 2 -0.000273 0.020533 -0.008470 -0.002117 -0.003710 -0.000491
# 3 -0.003920 -0.008470 0.018836 -0.000934 -0.002453 0.002501
# 4 -0.000408 -0.002117 -0.000934 0.031724 0.009706 -0.002009
# 5 0.000148 -0.003710 -0.002453 0.009706 0.031729 0.002665
# 6 0.010601 -0.000491 0.002501 -0.002009 0.002665 0.056014
#
#
# Mechanical properties :
#
#
# Convention : Reuss Voigt Hill
#
# Bulk Modulus (GPa) = 40.39483 53.17808 46.78645
# Shear Modulus (GPa) = 24.61524 31.56920 28.09222
#
# Velocity S-wave (km/s) = 3.46163 3.92022 3.69804
# Velocity P-wave (km/s) = 5.97006 6.81016 6.40390
#
# Compressibility (1/GPa) = 0.02475564
#
# Stress axis : x y z
#
# Youngs Moduli (GPa) = 93.34665 48.70247 53.09019
#
# Poissons Ratio (x) = 0.01330 0.20812
# Poissons Ratio (y) = 0.02549 0.44966
# Poissons Ratio (z) = 0.36592 0.41250
#
# Static dielectric constant tensor:
#      x y z
#    x 1.802220 0.054900 0.026960 
#    y 0.054900 1.678920 0.028000 
#    z 0.026960 0.028000 1.785110 
# 
# From -- ./inp_files/455299.got.cif
#   From: 2010.05.17/outbox.cif.g08.bks.cpg/sg2_228_cif.got.tgz:455299.got - 2010.06.03 11:33:40.
