data_PCOD9104914
_publ_section_title
;
Structure prediction by ZEFSAII (Michael W. Deem and Ramdas Pophale) SiO2 
 PCOD9104914
Probable space group: P -1
;
_chemical_formula_sum "Si O2"
_cell_formula_units_Z 16
_cell_length_a 20.950045
_cell_length_b 11.915206
_cell_length_c 7.461641
_cell_angle_alpha 46.901651
_cell_angle_beta 59.068723
_cell_angle_gamma 30.208103
_cell_volume 669.310272
_symmetry_space_group_name_H-M "P -1"
_symmetry_group_IT_number 2
_symmetry_cell_setting 'triclinic'
loop_
_space_group_symop_operation_xyz
x,y,z
-x,-y,-z
loop_
_atom_site_type_symbol
_atom_site_label
_atom_site_fract_x
_atom_site_fract_y
_atom_site_fract_z
Si Si1 0.030386 0.774880 0.992644
Si Si2 0.985010 0.840766 0.389956
Si Si3 0.634796 0.454003 0.812719
Si Si4 0.415136 0.140055 0.689294
Si Si5 0.843549 0.953843 0.792914
Si Si6 0.678236 0.798451 0.859235
Si Si7 0.348778 0.850438 0.654819
Si Si8 0.235016 0.211116 0.749734
O O1 0.182455 0.485555 0.104158
O O2 0.963437 0.860053 0.187931
O O3 0.971940 0.769839 0.926111
O O4 0.008652 0.991422 0.749626
O O5 0.874976 0.950684 0.550652
O O6 0.122898 0.526578 0.567323
O O7 0.636165 0.635198 0.605707
O O8 0.494861 0.638622 0.740384
O O9 0.735268 0.231312 0.755858
O O10 0.661282 0.316035 0.110102
O O11 0.375405 0.049298 0.752025
O O12 0.562359 0.927309 0.762920
O O13 0.341515 0.245134 0.870917
O O14 0.802732 0.847431 0.982576
O O15 0.665512 0.007077 0.646427
O O16 0.246631 0.095809 0.675792
#
# Coordination Sequence:
#
# PCOD9104914 Si02
#       8
#     2   2   2   2   2   2   2   2
#     4  11  23  41  65  93 129 167 207 263 315 376
#     4  11  23  40  63  97 125 166 216 254 313 379
#     4   9  19  38  63  89 116 170 206 250 315 374
#     4  10  21  37  68  90 124 165 208 261 316 374
#     4  11  23  41  65  91 130 170 204 260 315 376
#     4  10  20  39  62  96 125 161 208 262 323 369
#     4   9  19  38  63  86 125 157 210 257 314 373
#     4  11  22  41  61  93 123 163 213 254 310 380
#
# _framework density 23.905204999999999
#
# number of rings (size 3 to 8) (size 9 to 14) (size 15 to 20)
#    0.000    1.750    1.250    3.000    0.000    2.500 
#    9.000    0.000    0.000   15.000    0.000    0.000 
#    0.000    0.000    0.000    0.000    0.000    0.000 
#
# Total GULP energy -89437.252751 kJ/mol
# GULP energy per Si atom -5589.828297 kJ/mol
# Density = 2.385080 g / cm^3
# Si number density = 23.905205 Si / 1000 Ang^3
#
#
#
# Elastic Constant Matrix: (Units=GPa)
#
#
# Indices 1 2 3 4 5 6 
#
# 1 25.2522 2.6809 75.3095 -17.1674 -24.2480 -1.0361
# 2 2.6809 93.3996 41.2635 13.6384 -4.9325 -18.4343
# 3 75.3095 41.2635 156.1136 40.8171 -18.0828 -10.7296
# 4 -17.1674 13.6384 40.8171 32.7012 -6.8395 5.5777
# 5 -24.2480 -4.9325 -18.0828 -6.8395 8.9701 10.1475
# 6 -1.0361 -18.4343 -10.7296 5.5777 10.1475 18.2684
#
#
#
# Elastic Compliance Matrix: (Units=1/GPa)
#
#
# Indices 1 2 3 4 5 6 
#
# 1 0.002213 0.006405 -0.001878 -0.011930 -0.036878 0.029613
# 2 0.006405 0.017726 -0.007535 -0.001516 -0.014657 0.022429
# 3 -0.001878 -0.007535 0.012952 -0.002007 0.039781 -0.021587
# 4 -0.011930 -0.001516 -0.002007 0.019083 -0.032719 0.008963
# 5 -0.036878 -0.014657 0.039781 -0.032719 0.108566 -0.043831
# 6 0.029613 0.022429 -0.021587 0.008963 -0.043831 0.087983
#
#
# Mechanical properties :
#
#
# Convention : Reuss Voigt Hill
#
# Bulk Modulus (GPa) = 37.20746 57.03037 47.11891
# Shear Modulus (GPa) = 18.97570 22.35535 20.66553
#
# Velocity S-wave (km/s) = 2.82048 3.06137 2.94339
# Velocity P-wave (km/s) = 5.11910 6.03363 5.59508
#
# Compressibility (1/GPa) = 0.02687633
#
# Stress axis : x y z
#
# Youngs Moduli (GPa) = 451.91080 56.41467 77.20829
#
# Poissons Ratio (x) = -0.36135 0.14496
# Poissons Ratio (y) = -2.89462 0.58176
# Poissons Ratio (z) = 0.84848 0.42508
#
# Static dielectric constant tensor:
#      x y z
#    x 1.902980 0.004600 -0.004800 
#    y 0.004600 1.889090 0.011470 
#    z -0.004800 0.011470 1.950280 
# 
# From -- ./inp_files/189255.got.cif
#   From: 2010.05.17/outbox.cif.g08.bks.cpg/sg2_95_cif.got.tgz:189255.got - 2010.06.03 11:33:40.
