data_PCOD9104016
_publ_section_title
;
Structure prediction by ZEFSAII (Michael W. Deem and Ramdas Pophale) SiO2 
 PCOD9104016
Probable space group: P -1
;
_chemical_formula_sum "Si O2"
_cell_formula_units_Z 14
_cell_length_a 13.748989
_cell_length_b 5.985064
_cell_length_c 12.576901
_cell_angle_alpha 123.082831
_cell_angle_beta 43.093334
_cell_angle_gamma 129.878435
_cell_volume 536.615669
_symmetry_space_group_name_H-M "P -1"
_symmetry_group_IT_number 2
_symmetry_cell_setting 'triclinic'
loop_
_space_group_symop_operation_xyz
x,y,z
-x,-y,-z
loop_
_atom_site_type_symbol
_atom_site_label
_atom_site_fract_x
_atom_site_fract_y
_atom_site_fract_z
Si Si1 0.372033 0.620459 0.663489
Si Si2 0.725161 0.656755 0.540961
Si Si3 0.790473 0.755911 0.883582
Si Si4 0.186000 0.651755 0.407011
Si Si5 0.867137 0.383961 0.981053
Si Si6 0.931360 0.129545 0.184603
Si Si7 0.384396 0.224001 0.760380
O O1 0.500000 0.500000 0.500000
O O2 0.253460 0.472572 0.622543
O O3 0.269719 0.552033 0.835287
O O4 0.440369 0.972563 0.689143
O O5 0.791299 0.504663 0.540874
O O6 0.539541 0.501472 0.676904
O O7 0.765988 0.002136 0.571972
O O8 0.737988 0.483698 0.777484
O O9 0.980742 0.895543 0.787323
O O10 0.702772 0.700426 0.052516
O O11 0.775636 0.045550 0.933023
O O12 0.000000 0.500000 0.500000
O O13 0.000000 0.500000 0.000000
O O14 0.966188 0.532599 0.837284
O O15 0.746199 0.969469 0.274732
O O16 0.000000 0.000000 0.000000
#
# Coordination Sequence:
#
# PCOD9104016 Si02
#       7
#     2   2   2   2   2   2   2
#     4  11  25  43  77 113 159 198 246 333 403 456
#     4  12  29  52  74 115 156 207 256 315 398 467
#     4  10  25  44  75 107 148 204 256 315 373 466
#     4  12  31  53  79 106 155 215 264 312 375 476
#     4  11  21  41  72 113 142 191 259 319 390 449
#     4  10  20  38  72 112 143 186 251 318 389 443
#     4  10  23  46  73 112 152 188 260 325 402 449
#
# _framework density 26.089438000000001
#
# number of rings (size 3 to 8) (size 9 to 14) (size 15 to 20)
#    0.000    1.143    4.286    1.714   10.000    1.143 
#    5.143    0.000    0.000    0.000    0.000    0.000 
#    0.000    0.000    0.000    0.000    0.000    0.000 
#
# Total GULP energy -77987.978124 kJ/mol
# GULP energy per Si atom -5570.569866 kJ/mol
# Density = 2.603006 g / cm^3
# Si number density = 26.089438 Si / 1000 Ang^3
#
#
#
# Elastic Constant Matrix: (Units=GPa)
#
#
# Indices 1 2 3 4 5 6 
#
# 1 109.6197 32.8084 47.2442 -0.9351 -5.7825 -16.5044
# 2 32.8084 221.0700 75.2074 5.8764 9.4600 -33.6750
# 3 47.2442 75.2074 152.3778 -3.8988 -1.0040 -7.0345
# 4 -0.9351 5.8764 -3.8988 58.3580 17.1178 -5.0402
# 5 -5.7825 9.4600 -1.0040 17.1178 52.4269 -2.2419
# 6 -16.5044 -33.6750 -7.0345 -5.0402 -2.2419 27.2102
#
#
#
# Elastic Compliance Matrix: (Units=1/GPa)
#
#
# Indices 1 2 3 4 5 6 
#
# 1 0.011592 0.000440 -0.003486 0.000087 0.001395 0.006806
# 2 0.000440 0.006729 -0.003106 0.000057 -0.000913 0.007728
# 3 -0.003486 -0.003106 0.009028 0.000551 0.000019 -0.003520
# 4 0.000087 0.000057 0.000551 0.019255 -0.006135 0.003327
# 5 0.001395 -0.000913 0.000019 -0.006135 0.021411 0.000348
# 6 0.006806 0.007728 -0.003520 0.003327 0.000348 0.050177
#
#
# Mechanical properties :
#
#
# Convention : Reuss Voigt Hill
#
# Bulk Modulus (GPa) = 66.45867 88.17640 77.31754
# Shear Modulus (GPa) = 36.89748 49.45285 43.17516
#
# Velocity S-wave (km/s) = 3.76476 4.35847 4.07245
# Velocity P-wave (km/s) = 6.66532 7.69412 7.19813
#
# Compressibility (1/GPa) = 0.01504695
#
# Stress axis : x y z
#
# Youngs Moduli (GPa) = 86.26636 148.60308 110.76806
#
# Poissons Ratio (x) = -0.06542 0.38611
# Poissons Ratio (y) = -0.03797 0.34400
# Poissons Ratio (z) = 0.30070 0.46150
#
# Static dielectric constant tensor:
#      x y z
#    x 2.445830 -0.219820 -0.099350 
#    y -0.219820 2.181530 0.069700 
#    z -0.099350 0.069700 2.099460 
# 
# From -- ./inp_files/180067.got.cif
#   From: 2010.05.17/outbox.cif.g08.bks.cpg/sg2_91_cif.got.tgz:180067.got - 2010.06.03 11:33:40.
