data_PCOD9104052
_publ_section_title
;
Structure prediction by ZEFSAII (Michael W. Deem and Ramdas Pophale) SiO2 
 PCOD9104052
Probable space group: P -1
;
_chemical_formula_sum "Si O2"
_cell_formula_units_Z 12
_cell_length_a 6.507705
_cell_length_b 23.220488
_cell_length_c 5.219379
_cell_angle_alpha 58.503487
_cell_angle_beta 98.345092
_cell_angle_gamma 115.956385
_cell_volume 601.074040
_symmetry_space_group_name_H-M "P -1"
_symmetry_group_IT_number 2
_symmetry_cell_setting 'triclinic'
loop_
_space_group_symop_operation_xyz
x,y,z
-x,-y,-z
loop_
_atom_site_type_symbol
_atom_site_label
_atom_site_fract_x
_atom_site_fract_y
_atom_site_fract_z
Si Si1 0.496191 0.846283 0.029185
Si Si2 0.206617 0.080696 0.594499
Si Si3 0.738934 0.331135 0.585404
Si Si4 0.251739 0.945954 0.696969
Si Si5 0.636385 0.451107 0.141496
Si Si6 0.912712 0.415780 0.920661
O O1 0.681000 0.881409 0.207984
O O2 0.383049 0.757135 0.228549
O O3 0.625633 0.874414 0.715300
O O4 0.300170 0.876742 0.957930
O O5 0.956545 0.075990 0.491806
O O6 0.195871 0.997179 0.772626
O O7 0.559679 0.369615 0.440885
O O8 0.881923 0.366472 0.783142
O O9 0.898709 0.365583 0.285653
O O10 0.500000 0.000000 0.500000
O O11 0.868098 0.505744 0.204626
O O12 0.500000 0.500000 0.000000
O O13 0.702262 0.437112 0.898133
#
# Coordination Sequence:
#
# PCOD9104052 Si02
#       6
#     2   2   2   2   2   2
#     4  11  22  39  58  87 124 151 187 242 293 335
#     4  10  22  39  61  88 116 151 200 233 277 355
#     4  10  20  39  55  81 120 146 182 239 283 332
#     4   9  21  40  64  86 114 157 194 235 286 339
#     4   9  20  37  60  81 107 150 194 231 276 334
#     4   9  20  38  56  80 112 146 191 234 273 336
#
# _framework density 19.964262999999999
#
# number of rings (size 3 to 8) (size 9 to 14) (size 15 to 20)
#    1.000    1.333    0.000    2.000    0.000    9.333 
#    6.000    0.000    0.000    0.000    0.000    0.000 
#    0.000    0.000    0.000    0.000    0.000    0.000 
#
# Total GULP energy -66820.908178 kJ/mol
# GULP energy per Si atom -5568.409015 kJ/mol
# Density = 1.991882 g / cm^3
# Si number density = 19.964263 Si / 1000 Ang^3
#
#
#
# Elastic Constant Matrix: (Units=GPa)
#
#
# Indices 1 2 3 4 5 6 
#
# 1 74.3752 36.6750 27.5059 -15.7937 26.3410 -0.5626
# 2 36.6750 133.1318 71.4540 -15.8876 19.2961 -12.9888
# 3 27.5059 71.4540 107.2767 -11.3247 4.2042 -15.5064
# 4 -15.7937 -15.8876 -11.3247 50.1738 -12.8618 6.5108
# 5 26.3410 19.2961 4.2042 -12.8618 25.7888 -3.3541
# 6 -0.5626 -12.9888 -15.5064 6.5108 -3.3541 12.8214
#
#
#
# Elastic Compliance Matrix: (Units=1/GPa)
#
#
# Indices 1 2 3 4 5 6 
#
# 1 0.025974 -0.000909 -0.007189 0.001714 -0.025921 -0.016126
# 2 -0.000909 0.013393 -0.008148 -0.000046 -0.007564 0.001719
# 3 -0.007189 -0.008148 0.018601 0.000433 0.012842 0.017067
# 4 0.001714 -0.000046 0.000433 0.024071 0.009007 -0.009315
# 5 -0.025921 -0.007564 0.012842 0.009007 0.076184 0.022087
# 6 -0.016126 0.001719 0.017067 -0.009315 0.022087 0.110177
#
#
# Mechanical properties :
#
#
# Convention : Reuss Voigt Hill
#
# Bulk Modulus (GPa) = 39.24938 65.11707 52.18322
# Shear Modulus (GPa) = 16.16109 29.70004 22.93056
#
# Velocity S-wave (km/s) = 2.84826 3.86120 3.39275
# Velocity P-wave (km/s) = 5.52443 7.25025 6.44536
#
# Compressibility (1/GPa) = 0.02547811
#
# Stress axis : x y z
#
# Youngs Moduli (GPa) = 38.49936 74.66364 53.75970
#
# Poissons Ratio (x) = 0.06786 0.38646
# Poissons Ratio (y) = 0.03499 0.43803
# Poissons Ratio (z) = 0.27676 0.60835
#
# Static dielectric constant tensor:
#      x y z
#    x 1.763810 -0.024620 0.022810 
#    y -0.024620 1.685980 0.003950 
#    z 0.022810 0.003950 1.794930 
# 
# From -- ./inp_files/9191.got.cif
#   From: 2010.05.17/outbox.cif.g08.bks.cpg/sg2_5_cif.got.tgz:9191.got - 2010.06.03 11:33:40.
