data_PCOD9104296
_publ_section_title
;
Structure prediction by ZEFSAII (Michael W. Deem and Ramdas Pophale) SiO2 
 PCOD9104296
Probable space group: P -1
;
_chemical_formula_sum "Si O2"
_cell_formula_units_Z 16
_cell_length_a 8.758246
_cell_length_b 7.854346
_cell_length_c 17.226941
_cell_angle_alpha 127.350795
_cell_angle_beta 115.115365
_cell_angle_gamma 50.884356
_cell_volume 729.229960
_symmetry_space_group_name_H-M "P -1"
_symmetry_group_IT_number 2
_symmetry_cell_setting 'triclinic'
loop_
_space_group_symop_operation_xyz
x,y,z
-x,-y,-z
loop_
_atom_site_type_symbol
_atom_site_label
_atom_site_fract_x
_atom_site_fract_y
_atom_site_fract_z
Si Si1 0.066069 0.441479 0.875587
Si Si2 0.184605 0.798628 0.244504
Si Si3 0.235195 0.790430 0.669103
Si Si4 0.301931 0.202957 0.725490
Si Si5 0.601476 0.079716 0.125731
Si Si6 0.217230 0.047748 0.014256
Si Si7 0.442789 0.251014 0.602514
Si Si8 0.623263 0.265516 0.898551
O O1 0.137529 0.441130 0.804050
O O2 0.240169 0.209193 0.895935
O O3 0.891975 0.389109 0.810423
O O4 0.983444 0.697244 0.973079
O O5 0.354017 0.777163 0.330583
O O6 0.273608 0.726301 0.156283
O O7 0.980338 0.061615 0.294771
O O8 0.311352 0.500435 0.590605
O O9 0.251661 0.981024 0.664845
O O10 0.393965 0.762906 0.759490
O O11 0.327721 0.257513 0.658198
O O12 0.490619 0.157895 0.804791
O O13 0.395036 0.105436 0.072994
O O14 0.699221 0.140590 0.091455
O O15 0.214965 0.937898 0.065294
O O16 0.500000 0.000000 0.500000
O O17 0.500000 0.500000 0.000000
#
# Coordination Sequence:
#
# PCOD9104296 Si02
#       8
#     2   2   2   2   2   2   2   2
#     4  10  20  39  60  82 117 161 205 245 289 355
#     4   9  23  40  61  87 122 158 200 252 298 359
#     4  10  21  43  63  86 124 161 201 246 313 358
#     4   9  22  43  60  88 127 155 203 254 289 366
#     4   9  20  34  54  85 116 159 202 247 279 352
#     4  11  20  31  59  81 116 166 201 236 297 334
#     4  11  24  42  68  93 119 153 194 257 320 369
#     4  11  23  36  55  91 127 162 205 250 289 347
#
# _framework density 21.940951999999999
#
# number of rings (size 3 to 8) (size 9 to 14) (size 15 to 20)
#    0.000    2.250    2.500    1.125    8.750    3.000 
#    0.000    6.250    0.000    0.000    0.000    0.000 
#    0.000    0.000    0.000    0.000    0.000    0.000 
#
# Total GULP energy -89094.445483 kJ/mol
# GULP energy per Si atom -5568.402843 kJ/mol
# Density = 2.189101 g / cm^3
# Si number density = 21.940952 Si / 1000 Ang^3
#
#
#
# Elastic Constant Matrix: (Units=GPa)
#
#
# Indices 1 2 3 4 5 6 
#
# 1 121.2201 19.8810 26.5930 3.2421 -8.2783 -4.5991
# 2 19.8810 72.3336 22.5662 22.4893 12.1563 -11.4138
# 3 26.5930 22.5662 39.7762 12.1637 1.6371 -9.0214
# 4 3.2421 22.4893 12.1637 33.8582 3.1773 -3.9821
# 5 -8.2783 12.1563 1.6371 3.1773 17.6988 -2.8295
# 6 -4.5991 -11.4138 -9.0214 -3.9821 -2.8295 17.1310
#
#
#
# Elastic Compliance Matrix: (Units=1/GPa)
#
#
# Indices 1 2 3 4 5 6 
#
# 1 0.010569 -0.002935 -0.006677 0.002578 0.006973 -0.000883
# 2 -0.002935 0.023225 -0.005736 -0.010992 -0.013727 0.006843
# 3 -0.006677 -0.005736 0.038111 -0.007810 0.000734 0.012761
# 4 0.002578 -0.010992 -0.007810 0.039030 0.002263 -0.001298
# 5 0.006973 -0.013727 0.000734 0.002263 0.069536 0.005124
# 6 -0.000883 0.006843 0.012761 -0.001298 0.005124 0.069961
#
#
# Mechanical properties :
#
#
# Convention : Reuss Voigt Hill
#
# Bulk Modulus (GPa) = 24.26538 41.26779 32.76659
# Shear Modulus (GPa) = 16.95699 24.69025 20.82362
#
# Velocity S-wave (km/s) = 2.78303 3.35820 3.08405
# Velocity P-wave (km/s) = 4.62714 5.82117 5.25816
#
# Compressibility (1/GPa) = 0.04121097
#
# Stress axis : x y z
#
# Youngs Moduli (GPa) = 94.61413 43.05690 26.23892
#
# Poissons Ratio (x) = 0.12635 0.17519
# Poissons Ratio (y) = 0.27765 0.15051
# Poissons Ratio (z) = 0.63172 0.24697
#
# Static dielectric constant tensor:
#      x y z
#    x 1.921200 0.046430 -0.030570 
#    y 0.046430 1.884300 0.031140 
#    z -0.030570 0.031140 1.825080 
# 
# From -- ./inp_files/556577.got.cif
#   From: 2010.05.17/outbox.cif.g08.bks.cpg/sg2_279_cif.got.tgz:556577.got - 2010.06.03 11:33:40.
