data_PCOD9104298
_publ_section_title
;
Structure prediction by ZEFSAII (Michael W. Deem and Ramdas Pophale) SiO2 
 PCOD9104298
Probable space group: P -1
;
_chemical_formula_sum "Si O2"
_cell_formula_units_Z 12
_cell_length_a 8.438224
_cell_length_b 15.776389
_cell_length_c 12.040425
_cell_angle_alpha 24.335061
_cell_angle_beta 94.687663
_cell_angle_gamma 109.532930
_cell_volume 509.726943
_symmetry_space_group_name_H-M "P -1"
_symmetry_group_IT_number 2
_symmetry_cell_setting 'triclinic'
loop_
_space_group_symop_operation_xyz
x,y,z
-x,-y,-z
loop_
_atom_site_type_symbol
_atom_site_label
_atom_site_fract_x
_atom_site_fract_y
_atom_site_fract_z
Si Si1 0.125690 0.421994 0.976403
Si Si2 0.379517 0.627640 0.201578
Si Si3 0.330436 0.855115 0.291990
Si Si4 0.773080 0.678866 0.117386
Si Si5 0.986236 0.248822 0.764762
Si Si6 0.291804 0.711468 0.854951
O O1 0.200969 0.689210 0.593643
O O2 0.165411 0.276010 0.063041
O O3 0.248399 0.518155 0.983062
O O4 0.891581 0.273074 0.170163
O O5 0.596541 0.690129 0.127250
O O6 0.192135 0.368965 0.562868
O O7 0.303362 0.617419 0.087274
O O8 0.449242 0.887383 0.963488
O O9 0.333480 0.633318 0.500309
O O10 0.208152 0.909141 0.139820
O O11 0.976244 0.845945 0.006451
O O12 0.000000 0.500000 0.500000
O O13 0.500000 0.000000 0.500000
#
# Coordination Sequence:
#
# PCOD9104298 Si02
#       6
#     2   2   2   2   2   2
#     4   9  20  39  55  80 118 145 186 238 273 334
#     4  12  21  36  63  86 111 151 191 232 285 335
#     4   9  20  39  56  82 113 152 184 227 286 328
#     4   9  21  39  56  87 117 143 192 237 277 334
#     4  10  20  39  60  82 119 152 182 236 283 334
#     4  11  19  35  64  81 109 156 190 224 288 336
#
# _framework density 23.542014999999999
#
# number of rings (size 3 to 8) (size 9 to 14) (size 15 to 20)
#    1.000    1.000    3.333    0.500    0.000    4.000 
#    0.000    7.500    0.000    0.000    0.000    0.000 
#    0.000    0.000    0.000    0.000    0.000    0.000 
#
# Total GULP energy -66995.709436 kJ/mol
# GULP energy per Si atom -5582.975786 kJ/mol
# Density = 2.348843 g / cm^3
# Si number density = 23.542015 Si / 1000 Ang^3
#
#
#
# Elastic Constant Matrix: (Units=GPa)
#
#
# Indices 1 2 3 4 5 6 
#
# 1 41.1183 6.4027 -2.9155 -9.0384 -2.5425 0.3678
# 2 6.4027 161.3268 13.8202 -0.9938 -2.8473 23.1078
# 3 -2.9155 13.8202 42.4638 1.9329 -14.2338 -2.0438
# 4 -9.0384 -0.9938 1.9329 16.3003 -4.8692 -9.5928
# 5 -2.5425 -2.8473 -14.2338 -4.8692 33.4272 1.5589
# 6 0.3678 23.1078 -2.0438 -9.5928 1.5589 39.9033
#
#
#
# Elastic Compliance Matrix: (Units=1/GPa)
#
#
# Indices 1 2 3 4 5 6 
#
# 1 0.030118 -0.002201 0.004388 0.021727 0.006849 0.006178
# 2 -0.002201 0.007241 -0.002962 -0.003825 -0.001126 -0.005200
# 3 0.004388 -0.002962 0.029143 0.004956 0.013033 0.003849
# 4 0.021727 -0.003825 0.004956 0.091104 0.015609 0.023560
# 5 0.006849 -0.001126 0.013033 0.015609 0.038000 0.003525
# 6 0.006178 -0.005200 0.003849 0.023560 0.003525 0.033738
#
#
# Mechanical properties :
#
#
# Convention : Reuss Voigt Hill
#
# Bulk Modulus (GPa) = 15.39568 31.05818 23.22693
# Shear Modulus (GPa) = 19.79850 33.09959 26.44905
#
# Velocity S-wave (km/s) = 2.90312 3.75371 3.35548
# Velocity P-wave (km/s) = 4.21798 5.65760 4.98998
#
# Compressibility (1/GPa) = 0.06495330
#
# Stress axis : x y z
#
# Youngs Moduli (GPa) = 33.20248 138.10095 34.31344
#
# Poissons Ratio (x) = 0.30402 -0.15058
# Poissons Ratio (y) = 0.07309 0.10162
# Poissons Ratio (z) = -0.14571 0.40899
#
# Static dielectric constant tensor:
#      x y z
#    x 1.879690 -0.016820 0.029690 
#    y -0.016820 1.958600 -0.028700 
#    z 0.029690 -0.028700 1.888260 
# 
# From -- ./inp_files/37645.got.cif
#   From: 2010.05.17/outbox.cif.g08.bks.cpg/sg2_19_cif.got.tgz:37645.got - 2010.06.03 11:33:40.
