data_PCOD9104317
_publ_section_title
;
Structure prediction by ZEFSAII (Michael W. Deem and Ramdas Pophale) SiO2 
 PCOD9104317
Probable space group: P -1
;
_chemical_formula_sum "Si O2"
_cell_formula_units_Z 16
_cell_length_a 15.874076
_cell_length_b 15.682055
_cell_length_c 12.155305
_cell_angle_alpha 134.004787
_cell_angle_beta 143.851706
_cell_angle_gamma 27.757096
_cell_volume 829.106360
_symmetry_space_group_name_H-M "P -1"
_symmetry_group_IT_number 2
_symmetry_cell_setting 'triclinic'
loop_
_space_group_symop_operation_xyz
x,y,z
-x,-y,-z
loop_
_atom_site_type_symbol
_atom_site_label
_atom_site_fract_x
_atom_site_fract_y
_atom_site_fract_z
Si Si1 0.258380 0.217763 0.773636
Si Si2 0.343708 0.904824 0.543732
Si Si3 0.440050 0.144167 0.484360
Si Si4 0.973129 0.073339 0.864921
Si Si5 0.241550 0.694683 0.930139
Si Si6 0.727997 0.915034 0.912750
Si Si7 0.243552 0.295887 0.071354
Si Si8 0.110336 0.523961 0.557103
O O1 0.032826 0.388480 0.626686
O O2 0.252056 0.079952 0.663305
O O3 0.467146 0.113683 0.821091
O O4 0.304031 0.249480 0.965971
O O5 0.376473 0.928632 0.473353
O O6 0.188640 0.891210 0.358588
O O7 0.581033 0.739250 0.703939
O O8 0.254814 0.201402 0.262807
O O9 0.351854 0.317091 0.604474
O O10 0.500000 0.000000 0.500000
O O11 0.827079 0.225696 0.945678
O O12 0.139046 0.868845 0.907706
O O13 0.116985 0.079179 0.957780
O O14 0.118464 0.650233 0.727599
O O15 0.500000 0.500000 0.000000
O O16 0.764290 0.828232 0.989884
O O17 0.000000 0.500000 0.000000
O O18 0.000000 0.500000 0.500000
#
# Coordination Sequence:
#
# PCOD9104317 Si02
#       8
#     2   2   2   2   2   2   2   2
#     4  10  20  39  63  89 119 158 211 260 309 369
#     4  10  20  39  60  85 119 165 201 255 317 370
#     4  10  21  34  59  86 120 159 209 263 309 362
#     4  11  24  43  61  89 140 168 206 256 325 379
#     4  11  26  40  61  92 132 179 207 253 317 387
#     4  10  22  38  61  90 120 166 205 258 315 373
#     4  10  21  41  66  91 118 156 214 269 314 364
#     4  12  22  36  61  95 121 157 217 257 306 379
#
# _framework density 19.297885999999998
#
# number of rings (size 3 to 8) (size 9 to 14) (size 15 to 20)
#    0.000    1.750    1.250    6.000    7.000    0.000 
#    0.000    3.125    0.000    0.000    0.000    0.000 
#    0.000    0.000    0.000    0.000    0.000    0.000 
#
# Total GULP energy -89218.073254 kJ/mol
# GULP energy per Si atom -5576.129578 kJ/mol
# Density = 1.925396 g / cm^3
# Si number density = 19.297886 Si / 1000 Ang^3
#
#
#
# Elastic Constant Matrix: (Units=GPa)
#
#
# Indices 1 2 3 4 5 6 
#
# 1 62.3628 12.4455 48.0643 5.8597 14.3012 -1.8196
# 2 12.4455 102.2210 35.4137 -4.3350 -0.1306 -10.5413
# 3 48.0643 35.4137 114.8884 2.1796 16.1708 -1.3345
# 4 5.8597 -4.3350 2.1796 27.1024 6.1532 -5.4858
# 5 14.3012 -0.1306 16.1708 6.1532 39.0187 3.0795
# 6 -1.8196 -10.5413 -1.3345 -5.4858 3.0795 24.4258
#
#
#
# Elastic Compliance Matrix: (Units=1/GPa)
#
#
# Indices 1 2 3 4 5 6 
#
# 1 0.024936 0.000358 -0.009808 -0.003212 -0.004673 0.001344
# 2 0.000358 0.011777 -0.003857 0.003102 0.000581 0.005522
# 3 -0.009808 -0.003857 0.014302 0.000651 -0.002356 -0.001170
# 4 -0.003212 0.003102 0.000651 0.041827 -0.006575 0.011358
# 5 -0.004673 0.000581 -0.002356 -0.006575 0.029787 -0.005458
# 6 0.001344 0.005522 -0.001170 0.011358 -0.005458 0.046599
#
#
# Mechanical properties :
#
#
# Convention : Reuss Voigt Hill
#
# Bulk Modulus (GPa) = 40.98096 52.36880 46.67488
# Shear Modulus (GPa) = 24.51291 30.34596 27.42943
#
# Velocity S-wave (km/s) = 3.56791 3.96978 3.77420
# Velocity P-wave (km/s) = 6.18509 6.94321 6.57509
#
# Compressibility (1/GPa) = 0.02440157
#
# Stress axis : x y z
#
# Youngs Moduli (GPa) = 40.10310 84.91178 69.92111
#
# Poissons Ratio (x) = -0.03044 0.68580
# Poissons Ratio (y) = -0.01438 0.26966
# Poissons Ratio (z) = 0.39334 0.32748
#
# Static dielectric constant tensor:
#      x y z
#    x 1.684860 -0.044140 -0.017900 
#    y -0.044140 1.750880 -0.014480 
#    z -0.017900 -0.014480 1.757140 
# 
# From -- ./inp_files/455890.got.cif
#   From: 2010.05.17/outbox.cif.g08.bks.cpg/sg2_228_cif.got.tgz:455890.got - 2010.06.03 11:33:40.
