data_PCOD9104715
_publ_section_title
;
Structure prediction by ZEFSAII (Michael W. Deem and Ramdas Pophale) SiO2 
 PCOD9104715
Probable space group: P -1
;
_chemical_formula_sum "Si O2"
_cell_formula_units_Z 14
_cell_length_a 8.868037
_cell_length_b 17.703317
_cell_length_c 5.581123
_cell_angle_alpha 109.521814
_cell_angle_beta 141.036097
_cell_angle_gamma 74.577149
_cell_volume 519.280849
_symmetry_space_group_name_H-M "P -1"
_symmetry_group_IT_number 2
_symmetry_cell_setting 'triclinic'
loop_
_space_group_symop_operation_xyz
x,y,z
-x,-y,-z
loop_
_atom_site_type_symbol
_atom_site_label
_atom_site_fract_x
_atom_site_fract_y
_atom_site_fract_z
Si Si1 0.511324 0.824695 0.564469
Si Si2 0.796753 0.246193 0.504179
Si Si3 0.359723 0.987928 0.559011
Si Si4 0.334604 0.459749 0.457764
Si Si5 0.758581 0.689510 0.559911
Si Si6 0.054466 0.088188 0.552788
Si Si7 0.919679 0.394986 0.535775
O O1 0.422673 0.765767 0.600640
O O2 0.305760 0.893397 0.377441
O O3 0.597967 0.769141 0.394059
O O4 0.739146 0.873297 0.989913
O O5 0.857677 0.158760 0.373004
O O6 0.769533 0.321272 0.374876
O O7 0.032450 0.273561 0.974381
O O8 0.500000 0.000000 0.500000
O O9 0.163651 0.058598 0.404888
O O10 0.500000 0.000000 0.000000
O O11 0.500000 0.500000 0.500000
O O12 0.407733 0.377714 0.593330
O O13 0.248192 0.526355 0.615577
O O14 0.103788 0.426915 0.996154
O O15 0.911270 0.642334 0.499151
O O16 0.000000 0.000000 0.500000
#
# Coordination Sequence:
#
# PCOD9104715 Si02
#       7
#     2   2   2   2   2   2   2
#     4  10  21  39  59  87 122 161 208 256 317 379
#     4  10  21  39  57  85 123 157 206 253 313 372
#     4  10  22  41  63  92 126 168 220 271 322 383
#     4  10  21  39  62  86 118 155 196 247 306 376
#     4  10  22  38  57  90 121 155 200 254 306 375
#     4  10  20  39  62  86 122 164 212 264 318 374
#     4  10  22  38  60  88 117 154 199 249 307 374
#
# _framework density 26.960363999999998
#
# number of rings (size 3 to 8) (size 9 to 14) (size 15 to 20)
#    0.000    2.000    1.429    1.286    2.000    1.714 
#    5.143    2.857    0.000    0.000    0.000    0.000 
#    0.000    0.000    0.000    0.000    0.000    0.000 
#
# Total GULP energy -78202.053750 kJ/mol
# GULP energy per Si atom -5585.860982 kJ/mol
# Density = 2.689900 g / cm^3
# Si number density = 26.960364 Si / 1000 Ang^3
#
#
#
# Elastic Constant Matrix: (Units=GPa)
#
#
# Indices 1 2 3 4 5 6 
#
# 1 148.2308 86.9309 14.4486 47.9811 -24.5018 -14.2874
# 2 86.9309 211.4797 34.8075 54.1173 -17.6818 -37.0587
# 3 14.4486 34.8075 138.4653 28.5794 0.4217 -5.0135
# 4 47.9811 54.1173 28.5794 52.5397 -3.8714 -4.3482
# 5 -24.5018 -17.6818 0.4217 -3.8714 48.5461 29.0552
# 6 -14.2874 -37.0587 -5.0135 -4.3482 29.0552 74.9851
#
#
#
# Elastic Compliance Matrix: (Units=1/GPa)
#
#
# Indices 1 2 3 4 5 6 
#
# 1 0.011533 -0.002681 0.001074 -0.008105 0.005084 -0.001495
# 2 -0.002681 0.007699 -0.000499 -0.005004 -0.000939 0.003335
# 3 0.001074 -0.000499 0.008273 -0.004961 -0.000314 0.000345
# 4 -0.008105 -0.005004 -0.004961 0.033996 -0.002260 -0.001502
# 5 0.005084 -0.000939 -0.000314 -0.002260 0.029208 -0.010965
# 6 -0.001495 0.003335 0.000345 -0.001502 -0.010965 0.018884
#
#
# Mechanical properties :
#
#
# Convention : Reuss Voigt Hill
#
# Bulk Modulus (GPa) = 42.93243 85.61666 64.27455
# Shear Modulus (GPa) = 41.12865 59.34675 50.23770
#
# Velocity S-wave (km/s) = 3.91003 4.69685 4.32138
# Velocity P-wave (km/s) = 6.02854 7.82555 6.98508
#
# Compressibility (1/GPa) = 0.02329242
#
# Stress axis : x y z
#
# Youngs Moduli (GPa) = 86.70573 129.88890 120.87694
#
# Poissons Ratio (x) = 0.34818 -0.12977
# Poissons Ratio (y) = 0.23242 0.06035
# Poissons Ratio (z) = -0.09308 0.06485
#
# Static dielectric constant tensor:
#      x y z
#    x 2.298070 -0.130540 0.127930 
#    y -0.130540 2.274280 -0.184100 
#    z 0.127930 -0.184100 2.203580 
# 
# From -- ./inp_files/49210.got.cif
#   From: 2010.05.17/outbox.cif.g08.bks.cpg/sg2_25_cif.got.tgz:49210.got - 2010.06.03 11:33:40.
