data_PCOD9104419
_publ_section_title
;
Structure prediction by ZEFSAII (Michael W. Deem and Ramdas Pophale) SiO2 
 PCOD9104419
Probable space group: P -1
;
_chemical_formula_sum "Si O2"
_cell_formula_units_Z 16
_cell_length_a 13.806471
_cell_length_b 14.337281
_cell_length_c 7.909764
_cell_angle_alpha 115.250664
_cell_angle_beta 60.000239
_cell_angle_gamma 68.403294
_cell_volume 821.884764
_symmetry_space_group_name_H-M "P -1"
_symmetry_group_IT_number 2
_symmetry_cell_setting 'triclinic'
loop_
_space_group_symop_operation_xyz
x,y,z
-x,-y,-z
loop_
_atom_site_type_symbol
_atom_site_label
_atom_site_fract_x
_atom_site_fract_y
_atom_site_fract_z
Si Si1 0.094054 0.092034 0.607309
Si Si2 0.756956 0.286901 0.179883
Si Si3 0.511229 0.738405 0.285347
Si Si4 0.432881 0.520326 0.846991
Si Si5 0.565680 0.065742 0.205015
Si Si6 0.537509 0.097766 0.865457
Si Si7 0.891990 0.961532 0.824913
Si Si8 0.777836 0.184249 0.524482
O O1 0.042638 0.123019 0.480482
O O2 0.261215 0.044254 0.446855
O O3 0.153312 0.935855 0.479509
O O4 0.935864 0.220751 0.963364
O O5 0.629099 0.395566 0.528760
O O6 0.662203 0.387141 0.171127
O O7 0.797719 0.136321 0.019400
O O8 0.603714 0.570957 0.130223
O O9 0.533866 0.808786 0.462974
O O10 0.535205 0.770235 0.102831
O O11 0.317229 0.832217 0.522608
O O12 0.362875 0.646767 0.143748
O O13 0.538292 0.962561 0.148522
O O14 0.518538 0.137030 0.111556
O O15 0.756718 0.968307 0.995074
O O16 0.056759 0.869871 0.722287
#
# Coordination Sequence:
#
# PCOD9104419 Si02
#       8
#     2   2   2   2   2   2   2   2
#     4   9  16  33  56  81 109 146 185 240 267 316
#     4  10  18  30  54  84 113 148 188 218 278 342
#     4  11  22  35  56  85 118 144 184 230 279 337
#     4  11  20  31  50  85 120 154 174 216 283 349
#     4  10  20  38  59  89 100 150 188 243 275 316
#     4   9  21  37  62  83 109 139 197 239 280 312
#     4  10  16  33  56  80 114 141 189 234 270 322
#     4  10  19  32  50  81 116 149 175 220 283 333
#
# _framework density 19.467449999999999
#
# number of rings (size 3 to 8) (size 9 to 14) (size 15 to 20)
#    0.000    2.000    3.750    1.500    0.000    0.500 
#    2.250    0.000    0.000    1.500    6.500    0.000 
#    0.000    0.000    0.000    0.000    0.000    0.000 
#
# Total GULP energy -89181.725260 kJ/mol
# GULP energy per Si atom -5573.857829 kJ/mol
# Density = 1.942314 g / cm^3
# Si number density = 19.467450 Si / 1000 Ang^3
#
#
#
# Elastic Constant Matrix: (Units=GPa)
#
#
# Indices 1 2 3 4 5 6 
#
# 1 90.2103 19.0235 27.0830 -3.0849 -2.9685 13.4842
# 2 19.0235 96.5814 31.1752 -11.1710 2.7777 -4.1548
# 3 27.0830 31.1752 87.7243 -0.7255 -0.4349 -4.1509
# 4 -3.0849 -11.1710 -0.7255 25.8797 -5.2166 0.5726
# 5 -2.9685 2.7777 -0.4349 -5.2166 31.3206 -11.9971
# 6 13.4842 -4.1548 -4.1509 0.5726 -11.9971 23.8360
#
#
#
# Elastic Compliance Matrix: (Units=1/GPa)
#
#
# Indices 1 2 3 4 5 6 
#
# 1 0.014213 -0.001730 -0.004269 0.000569 -0.002415 -0.010315
# 2 -0.001730 0.012612 -0.003776 0.005184 0.000552 0.002673
# 3 -0.004269 -0.003776 0.014304 -0.001473 0.001888 0.005233
# 4 0.000569 0.005184 -0.001473 0.042424 0.007896 0.003280
# 5 -0.002415 0.000552 0.001888 0.007896 0.041631 0.022555
# 6 -0.010315 0.002673 0.005233 0.003280 0.022555 0.060439
#
#
# Mechanical properties :
#
#
# Convention : Reuss Voigt Hill
#
# Bulk Modulus (GPa) = 46.33855 47.67551 47.00703
# Shear Modulus (GPa) = 23.54427 29.35622 26.45025
#
# Velocity S-wave (km/s) = 3.48144 3.88746 3.69004
# Velocity P-wave (km/s) = 6.32577 6.68527 6.50800
#
# Compressibility (1/GPa) = 0.02158030
#
# Stress axis : x y z
#
# Youngs Moduli (GPa) = 70.35647 79.28780 69.91146
#
# Poissons Ratio (x) = 0.13718 0.29842
# Poissons Ratio (y) = 0.12173 0.26397
# Poissons Ratio (z) = 0.30032 0.29938
#
# Static dielectric constant tensor:
#      x y z
#    x 1.699630 -0.039400 -0.024840 
#    y -0.039400 1.732430 -0.032000 
#    z -0.024840 -0.032000 1.716810 
# 
# From -- ./inp_files/311074.got.cif
#   From: 2010.05.17/outbox.cif.g08.bks.cpg/sg2_156_cif.got.tgz:311074.got - 2010.06.03 11:33:40.
