data_PCOD9104395
_publ_section_title
;
Structure prediction by ZEFSAII (Michael W. Deem and Ramdas Pophale) SiO2 
 PCOD9104395
Probable space group: P -1
;
_chemical_formula_sum "Si O2"
_cell_formula_units_Z 14
_cell_length_a 10.780917
_cell_length_b 8.610998
_cell_length_c 14.759072
_cell_angle_alpha 126.383176
_cell_angle_beta 33.261253
_cell_angle_gamma 112.816752
_cell_volume 586.531006
_symmetry_space_group_name_H-M "P -1"
_symmetry_group_IT_number 2
_symmetry_cell_setting 'triclinic'
loop_
_space_group_symop_operation_xyz
x,y,z
-x,-y,-z
loop_
_atom_site_type_symbol
_atom_site_label
_atom_site_fract_x
_atom_site_fract_y
_atom_site_fract_z
Si Si1 0.252194 0.449285 0.651378
Si Si2 0.073062 0.859015 0.704347
Si Si3 0.842789 0.789674 0.007171
Si Si4 0.955870 0.579663 0.429413
Si Si5 0.408124 0.012546 0.449591
Si Si6 0.261404 0.006257 0.197384
Si Si7 0.630079 0.249248 0.779738
O O1 0.500000 0.500000 0.500000
O O2 0.055322 0.636412 0.872974
O O3 0.143593 0.408675 0.607571
O O4 0.694721 0.754294 0.397464
O O5 0.954834 0.874893 0.881449
O O6 0.077300 0.633260 0.592647
O O7 0.910348 0.007932 0.785255
O O8 0.327592 0.894721 0.541100
O O9 0.646299 0.686391 0.049111
O O10 0.677194 0.946669 0.228866
O O11 0.818520 0.778311 0.631780
O O12 0.224121 0.591133 0.274663
O O13 0.293579 0.930727 0.401927
O O14 0.302658 0.841634 0.193882
O O15 0.500000 0.000000 0.000000
#
# Coordination Sequence:
#
# PCOD9104395 Si02
#       7
#     2   2   2   2   2   2   2
#     4  11  24  43  69  90 122 177 219 260 313 371
#     4  11  22  37  60  96 130 169 201 258 329 383
#     4   9  22  43  62  99 125 167 211 258 326 376
#     4  11  22  40  58  93 133 159 215 260 307 393
#     4  10  21  44  62  92 131 162 211 265 315 375
#     4  12  19  33  56  93 130 164 197 248 329 380
#     4  10  20  39  60  91 131 166 195 265 321 373
#
# _framework density 23.869156
#
# number of rings (size 3 to 8) (size 9 to 14) (size 15 to 20)
#    0.857    0.571    4.286    1.714    0.000    2.857 
#   10.286    2.857    0.000    4.286    0.000    0.000 
#    0.000    0.000    0.000    0.000    0.000    0.000 
#
# Total GULP energy -78201.051874 kJ/mol
# GULP energy per Si atom -5585.789420 kJ/mol
# Density = 2.381483 g / cm^3
# Si number density = 23.869156 Si / 1000 Ang^3
#
#
#
# Elastic Constant Matrix: (Units=GPa)
#
#
# Indices 1 2 3 4 5 6 
#
# 1 81.2596 17.9290 36.2198 -2.1337 -9.0769 -13.5747
# 2 17.9290 124.5198 58.5770 -27.2916 -12.6426 -10.9566
# 3 36.2198 58.5770 158.6275 -27.9816 -12.3244 -6.9689
# 4 -2.1337 -27.2916 -27.9816 42.6605 4.3673 -10.6416
# 5 -9.0769 -12.6426 -12.3244 4.3673 53.2645 -4.4499
# 6 -13.5747 -10.9566 -6.9689 -10.6416 -4.4499 34.7947
#
#
#
# Elastic Compliance Matrix: (Units=1/GPa)
#
#
# Indices 1 2 3 4 5 6 
#
# 1 0.014797 -0.000054 -0.002965 -0.000122 0.002285 0.005417
# 2 -0.000054 0.011420 -0.002632 0.006709 0.001990 0.005354
# 3 -0.002965 -0.002632 0.008784 0.004143 0.000657 0.001125
# 4 -0.000122 0.006709 0.004143 0.033674 0.000881 0.013307
# 5 0.002285 0.001990 0.000657 0.000881 0.020091 0.004489
# 6 0.005417 0.005354 0.001125 0.013307 0.004489 0.037409
#
#
# Mechanical properties :
#
#
# Convention : Reuss Voigt Hill
#
# Bulk Modulus (GPa) = 42.19251 65.53985 53.86618
# Shear Modulus (GPa) = 34.39404 42.92268 38.65836
#
# Velocity S-wave (km/s) = 3.80009 4.24518 4.02878
# Velocity P-wave (km/s) = 6.08023 7.17957 6.65265
#
# Compressibility (1/GPa) = 0.02370089
#
# Stress axis : x y z
#
# Youngs Moduli (GPa) = 67.58341 87.56408 113.84217
#
# Poissons Ratio (x) = 0.00471 0.33749
# Poissons Ratio (y) = 0.00364 0.29958
# Poissons Ratio (z) = 0.20035 0.23043
#
# Static dielectric constant tensor:
#      x y z
#    x 1.989290 0.008260 -0.034600 
#    y 0.008260 1.928170 0.016330 
#    z -0.034600 0.016330 1.966250 
# 
# From -- ./inp_files/597429.got.cif
#   From: 2010.05.17/outbox.cif.g08.bks.cpg/sg2_299_cif.got.tgz:597429.got - 2010.06.03 11:33:40.
