data_PCOD9104374
_publ_section_title
;
Structure prediction by ZEFSAII (Michael W. Deem and Ramdas Pophale) SiO2 
 PCOD9104374
Probable space group: P -1
;
_chemical_formula_sum "Si O2"
_cell_formula_units_Z 14
_cell_length_a 12.498641
_cell_length_b 7.018831
_cell_length_c 10.625619
_cell_angle_alpha 46.059541
_cell_angle_beta 78.757879
_cell_angle_gamma 91.114093
_cell_volume 642.327256
_symmetry_space_group_name_H-M "P -1"
_symmetry_group_IT_number 2
_symmetry_cell_setting 'triclinic'
loop_
_space_group_symop_operation_xyz
x,y,z
-x,-y,-z
loop_
_atom_site_type_symbol
_atom_site_label
_atom_site_fract_x
_atom_site_fract_y
_atom_site_fract_z
Si Si1 0.005290 0.668923 0.545313
Si Si2 0.631957 0.602220 0.458025
Si Si3 0.404283 0.912953 0.165523
Si Si4 0.815635 0.845416 0.641792
Si Si5 0.459274 0.915029 0.689505
Si Si6 0.295653 0.376600 0.993866
Si Si7 0.798992 0.410416 0.311827
O O1 0.074109 0.533016 0.693768
O O2 0.000000 0.500000 0.500000
O O3 0.883845 0.701686 0.597177
O O4 0.085350 0.969678 0.379297
O O5 0.500000 0.500000 0.500000
O O6 0.641720 0.409154 0.662774
O O7 0.716298 0.536297 0.363356
O O8 0.637108 0.917476 0.334940
O O9 0.454084 0.011092 0.248290
O O10 0.500000 0.000000 0.000000
O O11 0.310432 0.080855 0.085356
O O12 0.763401 0.081684 0.484051
O O13 0.736647 0.643316 0.844142
O O14 0.410538 0.595415 0.847513
O O15 0.500000 0.000000 0.500000
O O16 0.211051 0.481350 0.873999
#
# Coordination Sequence:
#
# PCOD9104374 Si02
#       7
#     2   2   2   2   2   2   2
#     4   9  20  46  69  93 131 174 212 275 352 396
#     4  10  20  39  60  89 132 172 213 265 326 391
#     4  11  21  40  59  88 131 173 223 271 315 394
#     4   9  22  43  67  95 131 166 219 281 333 389
#     4  11  24  39  61  92 133 182 222 268 330 392
#     4  12  22  39  66  97 128 166 225 269 334 389
#     4  10  21  42  65  93 130 171 210 274 338 386
#
# _framework density 21.795743999999999
#
# number of rings (size 3 to 8) (size 9 to 14) (size 15 to 20)
#    0.857    0.857    1.429    4.714    0.000    1.714 
#    7.714    0.714    0.000    0.000    0.000    0.000 
#    0.000    0.000    0.000    0.000    0.000    0.000 
#
# Total GULP energy -78112.789817 kJ/mol
# GULP energy per Si atom -5579.484987 kJ/mol
# Density = 2.174614 g / cm^3
# Si number density = 21.795744 Si / 1000 Ang^3
#
#
#
# Elastic Constant Matrix: (Units=GPa)
#
#
# Indices 1 2 3 4 5 6 
#
# 1 62.8445 24.3563 19.9672 1.1478 21.8829 -15.1707
# 2 24.3563 88.5763 22.1682 13.5451 12.5898 -33.6978
# 3 19.9672 22.1682 111.8617 -0.0290 22.4450 -14.3865
# 4 1.1478 13.5451 -0.0290 28.6249 -5.6596 4.5318
# 5 21.8829 12.5898 22.4450 -5.6596 36.2060 2.8913
# 6 -15.1707 -33.6978 -14.3865 4.5318 2.8913 44.2771
#
#
#
# Elastic Compliance Matrix: (Units=1/GPa)
#
#
# Indices 1 2 3 4 5 6 
#
# 1 0.024082 0.000699 0.000303 -0.006304 -0.016820 0.010625
# 2 0.000699 0.023331 0.000568 -0.016967 -0.013199 0.020779
# 3 0.000303 0.000568 0.011010 -0.002630 -0.008009 0.004905
# 4 -0.006304 -0.016967 -0.002630 0.050951 0.021103 -0.022520
# 5 -0.016820 -0.013199 -0.008009 0.021103 0.052556 -0.024003
# 6 0.010625 0.020779 0.004905 -0.022520 -0.024003 0.047506
#
#
# Mechanical properties :
#
#
# Convention : Reuss Voigt Hill
#
# Bulk Modulus (GPa) = 16.24351 44.02953 30.13652
# Shear Modulus (GPa) = 22.04411 34.94099 28.49255
#
# Velocity S-wave (km/s) = 3.18369 4.00823 3.61952
# Velocity P-wave (km/s) = 4.58076 6.45492 5.59685
#
# Compressibility (1/GPa) = 0.06156306
#
# Stress axis : x y z
#
# Youngs Moduli (GPa) = 41.52474 42.86115 90.82492
#
# Poissons Ratio (x) = -0.02997 -0.02748
# Poissons Ratio (y) = -0.02904 -0.05158
# Poissons Ratio (z) = -0.01256 -0.02434
#
# Static dielectric constant tensor:
#      x y z
#    x 2.599070 -0.147790 -0.449770 
#    y -0.147790 1.875500 0.097790 
#    z -0.449770 0.097790 2.071280 
# 
# From -- ./inp_files/442416.got.cif
#   From: 2010.05.17/outbox.cif.g08.bks.cpg/sg2_222_cif.got.tgz:442416.got - 2010.06.03 11:33:40.
