data_PCOD9104330
_publ_section_title
;
Structure prediction by ZEFSAII (Michael W. Deem and Ramdas Pophale) SiO2 
 PCOD9104330
Probable space group: P -1
;
_chemical_formula_sum "Si O2"
_cell_formula_units_Z 14
_cell_length_a 7.711434
_cell_length_b 12.860537
_cell_length_c 14.237608
_cell_angle_alpha 150.466899
_cell_angle_beta 110.367609
_cell_angle_gamma 85.439768
_cell_volume 571.244226
_symmetry_space_group_name_H-M "P -1"
_symmetry_group_IT_number 2
_symmetry_cell_setting 'triclinic'
loop_
_space_group_symop_operation_xyz
x,y,z
-x,-y,-z
loop_
_atom_site_type_symbol
_atom_site_label
_atom_site_fract_x
_atom_site_fract_y
_atom_site_fract_z
Si Si1 0.438899 0.813627 0.259485
Si Si2 0.815259 0.404704 0.122635
Si Si3 0.000131 0.394742 0.518186
Si Si4 0.119255 0.970007 0.588390
Si Si5 0.389919 0.351444 0.506061
Si Si6 0.615143 0.580968 0.911700
Si Si7 0.463021 0.816544 0.764384
O O1 0.646878 0.941701 0.336239
O O2 0.395772 0.573670 0.119583
O O3 0.500000 0.000000 0.500000
O O4 0.238100 0.745114 0.100567
O O5 0.911834 0.376147 0.214736
O O6 0.591176 0.383988 0.092265
O O7 0.981034 0.688386 0.362401
O O8 0.160787 0.285274 0.454352
O O9 0.000000 0.500000 0.500000
O O10 0.754583 0.222294 0.354232
O O11 0.170558 0.166675 0.835647
O O12 0.000000 0.000000 0.500000
O O13 0.563508 0.432793 0.687320
O O14 0.444935 0.588171 0.640099
O O15 0.396209 0.163299 0.284975
O O16 0.500000 0.000000 0.000000
#
# Coordination Sequence:
#
# PCOD9104330 Si02
#       7
#     2   2   2   2   2   2   2
#     4  11  23  38  56  91 130 156 204 267 315 374
#     4  10  20  39  64  87 120 171 209 251 320 377
#     4   9  20  40  62  89 127 164 209 266 318 376
#     4  11  19  37  64  81 114 167 208 245 305 377
#     4   9  21  41  61  87 128 165 203 268 325 374
#     4  10  20  39  60  86 125 161 207 261 314 385
#     4  10  21  39  64  93 122 160 216 262 316 390
#
# _framework density 24.507906999999999
#
# number of rings (size 3 to 8) (size 9 to 14) (size 15 to 20)
#    0.000    2.000    2.857    0.857    2.000    2.286 
#   10.286    0.000    0.000    0.000    0.000    0.000 
#    0.000    0.000    0.000    0.000    0.000    0.000 
#
# Total GULP energy -78032.567676 kJ/mol
# GULP energy per Si atom -5573.754834 kJ/mol
# Density = 2.445213 g / cm^3
# Si number density = 24.507907 Si / 1000 Ang^3
#
#
#
# Elastic Constant Matrix: (Units=GPa)
#
#
# Indices 1 2 3 4 5 6 
#
# 1 85.6111 8.1937 61.2431 -17.5786 -6.8379 14.2997
# 2 8.1937 79.3761 47.5071 -33.6923 3.0602 6.0837
# 3 61.2431 47.5071 224.7555 -53.4208 1.2027 5.1949
# 4 -17.5786 -33.6923 -53.4208 55.4806 1.3322 4.0668
# 5 -6.8379 3.0602 1.2027 1.3322 35.7267 -8.3544
# 6 14.2997 6.0837 5.1949 4.0668 -8.3544 26.1132
#
#
#
# Elastic Compliance Matrix: (Units=1/GPa)
#
#
# Indices 1 2 3 4 5 6 
#
# 1 0.016735 0.003068 -0.004059 0.003933 0.000719 -0.009454
# 2 0.003068 0.019073 -0.001941 0.011399 -0.003419 -0.008606
# 3 -0.004059 -0.001941 0.006972 0.004247 -0.000927 0.000330
# 4 0.003933 0.011399 0.004247 0.031258 -0.004316 -0.011903
# 5 0.000719 -0.003419 -0.000927 -0.004316 0.031245 0.011255
# 6 -0.009454 -0.008606 0.000330 -0.011903 0.011255 0.050866
#
#
# Mechanical properties :
#
#
# Convention : Reuss Voigt Hill
#
# Bulk Modulus (GPa) = 27.08840 69.29229 48.19035
# Shear Modulus (GPa) = 28.68321 41.65069 35.16695
#
# Velocity S-wave (km/s) = 3.42477 4.12695 3.79215
# Velocity P-wave (km/s) = 5.16872 7.14449 6.23536
#
# Compressibility (1/GPa) = 0.03691617
#
# Stress axis : x y z
#
# Youngs Moduli (GPa) = 59.75541 52.42990 143.42441
#
# Poissons Ratio (x) = -0.16086 0.58218
# Poissons Ratio (y) = -0.18333 0.27839
# Poissons Ratio (z) = 0.24256 0.10177
#
# Static dielectric constant tensor:
#      x y z
#    x 1.925630 -0.065500 0.064300 
#    y -0.065500 2.036300 0.122470 
#    z 0.064300 0.122470 1.914920 
# 
# From -- ./inp_files/505910.got.cif
#   From: 2010.05.17/outbox.cif.g08.bks.cpg/sg2_253_cif.got.tgz:505910.got - 2010.06.03 11:33:40.
