data_PCOD9104253
_publ_section_title
;
Structure prediction by ZEFSAII (Michael W. Deem and Ramdas Pophale) SiO2 
 PCOD9104253
Probable space group: P -1
;
_chemical_formula_sum "Si O2"
_cell_formula_units_Z 16
_cell_length_a 27.412412
_cell_length_b 6.196141
_cell_length_c 5.550448
_cell_angle_alpha 103.629352
_cell_angle_beta 45.045756
_cell_angle_gamma 111.116450
_cell_volume 622.102450
_symmetry_space_group_name_H-M "P -1"
_symmetry_group_IT_number 2
_symmetry_cell_setting 'triclinic'
loop_
_space_group_symop_operation_xyz
x,y,z
-x,-y,-z
loop_
_atom_site_type_symbol
_atom_site_label
_atom_site_fract_x
_atom_site_fract_y
_atom_site_fract_z
Si Si1 0.515942 0.740858 0.653366
Si Si2 0.360600 0.367572 0.618283
Si Si3 0.768380 0.519038 0.092128
Si Si4 0.035747 0.688901 0.229315
Si Si5 0.271256 0.956495 0.149265
Si Si6 0.395602 0.852175 0.898913
Si Si7 0.138763 0.103632 0.841171
Si Si8 0.908141 0.676773 0.344302
O O1 0.500000 0.500000 0.500000
O O2 0.566728 0.712113 0.691883
O O3 0.440792 0.806125 0.960325
O O4 0.559495 0.936875 0.367946
O O5 0.384004 0.621176 0.719577
O O6 0.301348 0.383443 0.633340
O O7 0.317090 0.188746 0.921313
O O8 0.742614 0.248606 0.054321
O O9 0.825681 0.620446 0.705247
O O10 0.818796 0.633752 0.166036
O O11 0.000000 0.500000 0.500000
O O12 0.967809 0.744522 0.358939
O O13 0.075861 0.554030 0.875670
O O14 0.096288 0.924527 0.143884
O O15 0.198169 0.993139 0.502701
O O16 0.317309 0.891970 0.192344
O O17 0.083597 0.130924 0.837998
#
# Coordination Sequence:
#
# PCOD9104253 Si02
#       8
#     2   2   2   2   2   2   2   2
#     4   8  13  25  49  87 123 168 215 258 316 376
#     4   9  17  32  56  85 128 167 212 268 317 372
#     4  11  23  39  64  95 124 168 216 262 322 388
#     4  11  26  46  70  97 127 167 214 268 327 391
#     4  10  20  39  59  89 130 167 214 269 316 382
#     4   8  15  27  52  86 124 166 218 258 314 382
#     4  12  25  43  71  94 128 174 213 264 331 386
#     4  11  24  45  67  96 130 163 214 268 322 393
#
# _framework density 25.719237
#
# number of rings (size 3 to 8) (size 9 to 14) (size 15 to 20)
#    0.000    2.000    2.500    1.125    0.000    6.000 
#    0.000    0.000    0.000    0.750    0.000   78.750 
#    0.000    0.000    0.000    0.000    0.000    0.250 
#
# Total GULP energy -89397.618510 kJ/mol
# GULP energy per Si atom -5587.351157 kJ/mol
# Density = 2.566070 g / cm^3
# Si number density = 25.719237 Si / 1000 Ang^3
#
#
#
# Elastic Constant Matrix: (Units=GPa)
#
#
# Indices 1 2 3 4 5 6 
#
# 1 133.1260 42.9014 36.5227 -1.0699 -33.4582 -16.3968
# 2 42.9014 155.3448 49.2258 -7.1691 -23.7890 2.7289
# 3 36.5227 49.2258 46.0163 0.2554 -7.6558 -1.4297
# 4 -1.0699 -7.1691 0.2554 47.4598 -3.6735 -12.2720
# 5 -33.4582 -23.7890 -7.6558 -3.6735 26.4057 6.2479
# 6 -16.3968 2.7289 -1.4297 -12.2720 6.2479 29.6594
#
#
#
# Elastic Compliance Matrix: (Units=1/GPa)
#
#
# Indices 1 2 3 4 5 6 
#
# 1 0.014665 0.001966 -0.010866 0.003333 0.016406 0.005326
# 2 0.001966 0.011405 -0.012172 0.002149 0.009952 -0.001757
# 3 -0.010866 -0.012172 0.041197 -0.003753 -0.012901 -0.001737
# 4 0.003333 0.002149 -0.003753 0.024644 0.006041 0.010388
# 5 0.016406 0.009952 -0.012901 0.006041 0.065621 -0.003791
# 6 0.005326 -0.001757 -0.001737 0.010388 -0.003791 0.041835
#
#
# Mechanical properties :
#
#
# Convention : Reuss Voigt Hill
#
# Bulk Modulus (GPa) = 39.80365 65.75412 52.77889
# Shear Modulus (GPa) = 20.00890 34.42746 27.21818
#
# Velocity S-wave (km/s) = 2.79224 3.66264 3.25665
# Velocity P-wave (km/s) = 5.08973 6.59608 5.89124
#
# Compressibility (1/GPa) = 0.02512332
#
# Stress axis : x y z
#
# Youngs Moduli (GPa) = 68.18742 87.67719 24.27334
#
# Poissons Ratio (x) = -0.17236 0.26376
# Poissons Ratio (y) = -0.13405 0.29546
# Poissons Ratio (z) = 0.74095 1.06722
#
# Static dielectric constant tensor:
#      x y z
#    x 2.094990 0.010490 -0.003550 
#    y 0.010490 1.982340 0.014070 
#    z -0.003550 0.014070 2.018130 
# 
# From -- ./inp_files/125813.got.cif
#   From: 2010.05.17/outbox.cif.g08.bks.cpg/sg2_63_cif.got.tgz:125813.got - 2010.06.03 11:33:40.
