data_PCOD9104678
_publ_section_title
;
Structure prediction by ZEFSAII (Michael W. Deem and Ramdas Pophale) SiO2 
 PCOD9104678
Probable space group: P -1
;
_chemical_formula_sum "Si O2"
_cell_formula_units_Z 16
_cell_length_a 13.221373
_cell_length_b 12.409805
_cell_length_c 5.095887
_cell_angle_alpha 95.141392
_cell_angle_beta 98.773158
_cell_angle_gamma 68.127217
_cell_volume 766.348871
_symmetry_space_group_name_H-M "P -1"
_symmetry_group_IT_number 2
_symmetry_cell_setting 'triclinic'
loop_
_space_group_symop_operation_xyz
x,y,z
-x,-y,-z
loop_
_atom_site_type_symbol
_atom_site_label
_atom_site_fract_x
_atom_site_fract_y
_atom_site_fract_z
Si Si1 0.858011 0.350704 0.098151
Si Si2 0.637667 0.170941 0.759776
Si Si3 0.202552 0.386416 0.676811
Si Si4 0.924842 0.629730 0.903157
Si Si5 0.579116 0.963398 0.776165
Si Si6 0.253153 0.697132 0.466917
Si Si7 0.533139 0.384933 0.161881
Si Si8 0.592619 0.725652 0.598752
O O1 0.821253 0.481066 0.225486
O O2 0.819879 0.283681 0.296489
O O3 0.988543 0.307454 0.091213
O O4 0.797716 0.353771 0.799037
O O5 0.732548 0.190090 0.632061
O O6 0.530232 0.210004 0.541599
O O7 0.655022 0.040791 0.825627
O O8 0.599733 0.268137 0.995176
O O9 0.131418 0.381421 0.393090
O O10 0.327284 0.329457 0.620543
O O11 0.163569 0.327572 0.890262
O O12 0.000000 0.500000 0.000000
O O13 0.630775 0.824387 0.758777
O O14 0.500000 0.000000 0.500000
O O15 0.500000 0.000000 0.000000
O O16 0.377338 0.614799 0.582618
O O17 0.425840 0.366836 0.232420
O O18 0.500000 0.500000 0.000000
#
# Coordination Sequence:
#
# PCOD9104678 Si02
#       8
#     2   2   2   2   2   2   2   2
#     4  11  21  38  59  81 117 157 193 240 291 352
#     4  10  22  39  57  84 122 155 199 238 280 340
#     4  11  23  36  58  84 118 148 198 238 292 349
#     4  10  21  39  56  81 113 154 194 242 289 347
#     4  10  20  39  62  79 110 156 203 244 281 330
#     4  11  23  37  56  85 114 158 202 226 286 349
#     4  11  24  37  54  86 130 160 191 234 285 348
#     4  10  24  37  59  89 116 161 194 240 292 339
#
# _framework density 20.878221
#
# number of rings (size 3 to 8) (size 9 to 14) (size 15 to 20)
#    0.000    1.500    2.500    3.750    5.250    2.000 
#    0.000    1.875    0.000    0.000    0.000    5.250 
#    0.000    0.000    0.000    0.000    0.000    0.000 
#
# Total GULP energy -89385.659809 kJ/mol
# GULP energy per Si atom -5586.603738 kJ/mol
# Density = 2.083070 g / cm^3
# Si number density = 20.878221 Si / 1000 Ang^3
#
#
#
# Elastic Constant Matrix: (Units=GPa)
#
#
# Indices 1 2 3 4 5 6 
#
# 1 95.6226 37.8423 43.9586 -17.6858 -26.7397 36.0457
# 2 37.8423 71.5010 33.5572 -0.4870 -12.3470 31.7364
# 3 43.9586 33.5572 146.9146 -5.0707 -3.4751 18.9676
# 4 -17.6858 -0.4870 -5.0707 19.5187 6.3116 -2.7092
# 5 -26.7397 -12.3470 -3.4751 6.3116 58.1217 -5.4124
# 6 36.0457 31.7364 18.9676 -2.7092 -5.4124 28.1578
#
#
#
# Elastic Compliance Matrix: (Units=1/GPa)
#
#
# Indices 1 2 3 4 5 6 
#
# 1 0.031564 0.004307 -0.004571 0.019101 0.009502 -0.038517
# 2 0.004307 0.030635 -0.003494 -0.003046 0.005167 -0.036989
# 3 -0.004571 -0.003494 0.008423 -0.000918 -0.001901 0.003662
# 4 0.019101 -0.003046 -0.000918 0.066411 -0.000438 -0.014095
# 5 0.009502 0.005167 -0.001901 -0.000438 0.021432 -0.012629
# 6 -0.038517 -0.036989 0.003662 -0.014095 -0.012629 0.120260
#
#
# Mechanical properties :
#
#
# Convention : Reuss Voigt Hill
#
# Bulk Modulus (GPa) = 15.84625 60.52827 38.18726
# Shear Modulus (GPa) = 16.27198 34.40498 25.33848
#
# Velocity S-wave (km/s) = 2.79476 4.06382 3.48750
# Velocity P-wave (km/s) = 4.24506 7.14658 5.87768
#
# Compressibility (1/GPa) = 0.06310643
#
# Stress axis : x y z
#
# Youngs Moduli (GPa) = 31.68172 32.64224 118.72206
#
# Poissons Ratio (x) = -0.14059 0.54271
# Poissons Ratio (y) = -0.13646 0.41477
# Poissons Ratio (z) = 0.14483 0.11404
#
# Static dielectric constant tensor:
#      x y z
#    x 1.802740 0.049650 -0.012830 
#    y 0.049650 1.799220 -0.007250 
#    z -0.012830 -0.007250 1.798390 
# 
# From -- ./inp_files/66798.got.cif
#   From: 2010.05.17/outbox.cif.g08.bks.cpg/sg2_34_cif.got.tgz:66798.got - 2010.06.03 11:33:40.
