data_PCOD9104108
_publ_section_title
;
Structure prediction by ZEFSAII (Michael W. Deem and Ramdas Pophale) SiO2 
 PCOD9104108
Probable space group: P -1
;
_chemical_formula_sum "Si O2"
_cell_formula_units_Z 14
_cell_length_a 13.487169
_cell_length_b 12.307645
_cell_length_c 6.545173
_cell_angle_alpha 111.640283
_cell_angle_beta 107.129509
_cell_angle_gamma 120.567183
_cell_volume 694.114118
_symmetry_space_group_name_H-M "P -1"
_symmetry_group_IT_number 2
_symmetry_cell_setting 'triclinic'
loop_
_space_group_symop_operation_xyz
x,y,z
-x,-y,-z
loop_
_atom_site_type_symbol
_atom_site_label
_atom_site_fract_x
_atom_site_fract_y
_atom_site_fract_z
Si Si1 0.798274 0.117546 0.666330
Si Si2 0.541074 0.449002 0.801989
Si Si3 0.647811 0.731225 0.829723
Si Si4 0.989260 0.319765 0.537393
Si Si5 0.923582 0.057955 0.062433
Si Si6 0.222828 0.700782 0.895334
Si Si7 0.500935 0.217945 0.914311
O O1 0.922321 0.237452 0.658533
O O2 0.651626 0.956455 0.363623
O O3 0.856052 0.069757 0.833767
O O4 0.763922 0.208270 0.834048
O O5 0.662679 0.617409 0.871495
O O6 0.413605 0.338240 0.481877
O O7 0.561946 0.340355 0.843295
O O8 0.500000 0.500000 0.000000
O O9 0.533244 0.719865 0.878249
O O10 0.793816 0.917273 0.033783
O O11 0.019552 0.226112 0.361104
O O12 0.864186 0.291026 0.317528
O O13 0.125199 0.511659 0.755331
O O14 0.000000 0.000000 0.000000
O O15 0.377543 0.781398 0.963031
#
# Coordination Sequence:
#
# PCOD9104108 Si02
#       7
#     2   2   2   2   2   2   2
#     4  11  22  42  65  92 127 160 211 262 305 374
#     4   9  20  35  59  85 126 159 198 256 304 363
#     4  10  20  39  57  90 128 162 202 259 304 367
#     4  10  23  45  61  90 129 161 212 257 306 376
#     4  11  24  40  64  90 125 168 208 254 315 371
#     4  10  24  41  65  92 124 167 208 258 310 371
#     4  11  21  38  65  95 123 161 208 257 316 364
#
# _framework density 20.169595000000001
#
# number of rings (size 3 to 8) (size 9 to 14) (size 15 to 20)
#    0.000    1.714    2.857    0.857    0.000    6.857 
#    0.000    0.000    0.000    0.000    0.000    0.000 
#    0.000    0.000    0.000    0.000    0.000    0.000 
#
# Total GULP energy -78168.561724 kJ/mol
# GULP energy per Si atom -5583.468695 kJ/mol
# Density = 2.012369 g / cm^3
# Si number density = 20.169595 Si / 1000 Ang^3
#
#
#
# Elastic Constant Matrix: (Units=GPa)
#
#
# Indices 1 2 3 4 5 6 
#
# 1 104.1219 16.9859 24.5413 7.9694 -17.8146 -3.2564
# 2 16.9859 89.2595 16.0374 2.6911 -10.4077 -5.6828
# 3 24.5413 16.0374 79.1319 16.0469 -20.6713 -1.5924
# 4 7.9694 2.6911 16.0469 23.1521 -4.5892 -14.6669
# 5 -17.8146 -10.4077 -20.6713 -4.5892 21.8868 3.7190
# 6 -3.2564 -5.6828 -1.5924 -14.6669 3.7190 17.3923
#
#
#
# Elastic Compliance Matrix: (Units=1/GPa)
#
#
# Indices 1 2 3 4 5 6 
#
# 1 0.011502 -0.001269 -0.000429 -0.004145 0.008084 -0.003524
# 2 -0.001269 0.012588 -0.002877 0.007285 0.002185 0.009289
# 3 -0.000429 -0.002877 0.024055 -0.030529 0.019482 -0.028729
# 4 -0.004145 0.007285 -0.030529 0.135051 -0.020313 0.117041
# 5 0.008084 0.002185 0.019482 -0.020313 0.072306 -0.028580
# 6 -0.003524 0.009289 -0.028729 0.117041 -0.028580 0.162054
#
#
# Mechanical properties :
#
#
# Convention : Reuss Voigt Hill
#
# Bulk Modulus (GPa) = 25.64378 43.07138 34.35758
# Shear Modulus (GPa) = 11.37125 26.81616 19.09371
#
# Velocity S-wave (km/s) = 2.37699 3.65023 3.08012
# Velocity P-wave (km/s) = 4.50279 6.25832 5.45168
#
# Compressibility (1/GPa) = 0.03899581
#
# Stress axis : x y z
#
# Youngs Moduli (GPa) = 86.93961 79.43950 41.57082
#
# Poissons Ratio (x) = 0.10078 0.01783
# Poissons Ratio (y) = 0.11029 0.11962
# Poissons Ratio (z) = 0.03729 0.22858
#
# Static dielectric constant tensor:
#      x y z
#    x 1.699150 -0.018260 -0.009430 
#    y -0.018260 1.736470 -0.001080 
#    z -0.009430 -0.001080 1.696340 
# 
# From -- ./inp_files/39795.got.cif
#   From: 2010.05.17/outbox.cif.g08.bks.cpg/sg2_20_cif.got.tgz:39795.got - 2010.06.03 11:33:40.
