data_PCOD9104496
_publ_section_title
;
Structure prediction by ZEFSAII (Michael W. Deem and Ramdas Pophale) SiO2 
 PCOD9104496
Probable space group: P -1
;
_chemical_formula_sum "Si O2"
_cell_formula_units_Z 14
_cell_length_a 7.633455
_cell_length_b 12.849675
_cell_length_c 9.430110
_cell_angle_alpha 49.429877
_cell_angle_beta 112.636937
_cell_angle_gamma 85.266206
_cell_volume 570.748080
_symmetry_space_group_name_H-M "P -1"
_symmetry_group_IT_number 2
_symmetry_cell_setting 'triclinic'
loop_
_space_group_symop_operation_xyz
x,y,z
-x,-y,-z
loop_
_atom_site_type_symbol
_atom_site_label
_atom_site_fract_x
_atom_site_fract_y
_atom_site_fract_z
Si Si1 0.847028 0.188950 0.320990
Si Si2 0.307597 0.107186 0.944391
Si Si3 0.428377 0.157014 0.249416
Si Si4 0.117915 0.670057 0.501589
Si Si5 0.341268 0.428720 0.560685
Si Si6 0.942997 0.333180 0.955220
Si Si7 0.232208 0.830701 0.160148
O O1 0.613718 0.206119 0.267342
O O2 0.910678 0.261340 0.410988
O O3 0.839357 0.299861 0.090984
O O4 0.000000 0.000000 0.500000
O O5 0.397499 0.121326 0.109719
O O6 0.178752 0.007017 0.000730
O O7 0.125968 0.271264 0.682748
O O8 0.500000 0.000000 0.000000
O O9 0.189818 0.283618 0.110781
O O10 0.500000 0.000000 0.500000
O O11 0.251505 0.496927 0.629238
O O12 0.236933 0.753842 0.380784
O O13 0.500000 0.500000 0.500000
O O14 0.528061 0.253422 0.762094
O O15 0.165106 0.506408 0.310357
O O16 0.919742 0.212231 0.946771
#
# Coordination Sequence:
#
# PCOD9104496 Si02
#       7
#     2   2   2   2   2   2   2
#     4  12  23  36  58  97 130 158 203 257 317 363
#     4  12  23  36  61  96 121 155 211 259 301 365
#     4  12  23  36  58  93 131 160 196 259 314 359
#     4  10  20  39  62  88 119 161 205 251 306 369
#     4   8  18  40  68  85 114 169 210 247 305 373
#     4  10  20  39  61  85 125 163 203 250 309 364
#     4  10  20  40  68  86 119 167 208 251 310 368
#
# _framework density 24.529211
#
# number of rings (size 3 to 8) (size 9 to 14) (size 15 to 20)
#    0.000    1.714    4.286    3.857    0.000    0.000 
#    0.000    7.143    6.286   14.571    0.000    0.000 
#    0.000    0.000    0.000    0.000    0.000    0.000 
#
# Total GULP energy -78155.563500 kJ/mol
# GULP energy per Si atom -5582.540250 kJ/mol
# Density = 2.447338 g / cm^3
# Si number density = 24.529211 Si / 1000 Ang^3
#
#
#
# Elastic Constant Matrix: (Units=GPa)
#
#
# Indices 1 2 3 4 5 6 
#
# 1 92.8568 9.5750 26.3428 -2.5168 9.1543 -9.0966
# 2 9.5750 124.4673 47.7859 6.0037 -17.1593 -4.6999
# 3 26.3428 47.7859 117.1087 9.3815 1.6208 -3.8079
# 4 -2.5168 6.0037 9.3815 50.5234 -8.4104 -3.1244
# 5 9.1543 -17.1593 1.6208 -8.4104 53.4928 -0.9723
# 6 -9.0966 -4.6999 -3.8079 -3.1244 -0.9723 44.1926
#
#
#
# Elastic Compliance Matrix: (Units=1/GPa)
#
#
# Indices 1 2 3 4 5 6 
#
# 1 0.011948 -0.000127 -0.002612 0.000931 -0.001819 0.002247
# 2 -0.000127 0.010129 -0.004141 0.000180 0.003439 0.000783
# 3 -0.002612 -0.004141 0.010987 -0.001944 -0.001524 -0.000202
# 4 0.000931 0.000180 -0.001944 0.020820 0.003259 0.001587
# 5 -0.001819 0.003439 -0.001524 0.003259 0.020677 0.000545
# 6 0.002247 0.000783 -0.000202 0.001587 0.000545 0.023281
#
#
# Mechanical properties :
#
#
# Convention : Reuss Voigt Hill
#
# Bulk Modulus (GPa) = 51.80553 55.76004 53.78278
# Shear Modulus (GPa) = 42.36008 46.35703 44.35856
#
# Velocity S-wave (km/s) = 4.16014 4.35198 4.25714
# Velocity P-wave (km/s) = 6.65142 6.93069 6.79249
#
# Compressibility (1/GPa) = 0.01930296
#
# Stress axis : x y z
#
# Youngs Moduli (GPa) = 83.69540 98.72842 91.01970
#
# Poissons Ratio (x) = 0.01255 0.23776
# Poissons Ratio (y) = 0.01064 0.37691
# Poissons Ratio (z) = 0.21862 0.40883
#
# Static dielectric constant tensor:
#      x y z
#    x 2.144740 0.028630 -0.069870 
#    y 0.028630 2.039030 -0.129040 
#    z -0.069870 -0.129040 2.065170 
# 
# From -- ./inp_files/192485.got.cif
#   From: 2010.05.17/outbox.cif.g08.bks.cpg/sg2_97_cif.got.tgz:192485.got - 2010.06.03 11:33:40.
