data_PCOD9104453
_publ_section_title
;
Structure prediction by ZEFSAII (Michael W. Deem and Ramdas Pophale) SiO2 
 PCOD9104453
Probable space group: P -1
;
_chemical_formula_sum "Si O2"
_cell_formula_units_Z 14
_cell_length_a 10.219234
_cell_length_b 8.646874
_cell_length_c 15.073276
_cell_angle_alpha 57.946086
_cell_angle_beta 69.378727
_cell_angle_gamma 118.812883
_cell_volume 568.007442
_symmetry_space_group_name_H-M "P -1"
_symmetry_group_IT_number 2
_symmetry_cell_setting 'triclinic'
loop_
_space_group_symop_operation_xyz
x,y,z
-x,-y,-z
loop_
_atom_site_type_symbol
_atom_site_label
_atom_site_fract_x
_atom_site_fract_y
_atom_site_fract_z
Si Si1 0.769497 0.413806 0.294895
Si Si2 0.233114 0.660165 0.058715
Si Si3 0.896115 0.191727 0.582189
Si Si4 0.275291 0.298349 0.486483
Si Si5 0.327056 0.660046 0.847631
Si Si6 0.471256 0.217987 0.571432
Si Si7 0.694721 0.439192 0.755742
O O1 0.770648 0.524451 0.167246
O O2 0.740081 0.501468 0.363827
O O3 0.017057 0.556410 0.183570
O O4 0.500000 0.000000 0.500000
O O5 0.310446 0.583730 0.131287
O O6 0.168153 0.519144 0.018386
O O7 0.490496 0.073602 0.872111
O O8 0.000000 0.500000 0.500000
O O9 0.030685 0.163097 0.602967
O O10 0.019583 0.313208 0.417768
O O11 0.589591 0.852323 0.757450
O O12 0.271788 0.091936 0.587689
O O13 0.499132 0.629629 0.394029
O O14 0.336162 0.404202 0.336568
O O15 0.400622 0.944385 0.710312
#
# Coordination Sequence:
#
# PCOD9104453 Si02
#       7
#     2   2   2   2   2   2   2
#     4  10  23  34  54  78 108 147 184 216 259 323
#     4  11  19  32  54  84 108 136 177 232 263 304
#     4  10  16  33  56  81 104 134 180 220 259 316
#     4   9  19  32  59  79 111 135 176 222 268 318
#     4  11  19  35  58  82 107 140 184 219 262 314
#     4  10  18  36  54  79 110 140 178 215 271 319
#     4   9  19  30  54  81 110 133 173 219 276 304
#
# _framework density 24.647566999999999
#
# number of rings (size 3 to 8) (size 9 to 14) (size 15 to 20)
#    0.857    1.143    4.286    2.143    0.000    0.000 
#    0.000    1.429    3.143    0.857    0.000    0.000 
#    0.000    0.000    0.000    0.000    0.000    0.000 
#
# Total GULP energy -78030.594157 kJ/mol
# GULP energy per Si atom -5573.613868 kJ/mol
# Density = 2.459147 g / cm^3
# Si number density = 24.647567 Si / 1000 Ang^3
#
#
#
# Elastic Constant Matrix: (Units=GPa)
#
#
# Indices 1 2 3 4 5 6 
#
# 1 154.5393 9.8995 38.5827 14.3391 5.3536 26.1150
# 2 9.8995 67.2227 25.0977 24.6252 18.2584 12.3167
# 3 38.5827 25.0977 109.4189 36.0103 -0.9432 9.3378
# 4 14.3391 24.6252 36.0103 42.3741 17.5147 10.2602
# 5 5.3536 18.2584 -0.9432 17.5147 34.7335 7.4233
# 6 26.1150 12.3167 9.3378 10.2602 7.4233 39.9926
#
#
#
# Elastic Compliance Matrix: (Units=1/GPa)
#
#
# Indices 1 2 3 4 5 6 
#
# 1 0.007894 0.000740 -0.002879 0.000974 -0.001161 -0.004745
# 2 0.000740 0.020596 -0.002768 -0.006077 -0.007252 -0.003275
# 3 -0.002879 -0.002768 0.015734 -0.015062 0.009681 0.001126
# 4 0.000974 -0.006077 -0.015062 0.049419 -0.021441 -0.003946
# 5 -0.001161 -0.007252 0.009681 -0.021441 0.044281 -0.001987
# 6 -0.004745 -0.003275 0.001126 -0.003946 -0.001987 0.030230
#
#
# Mechanical properties :
#
#
# Convention : Reuss Voigt Hill
#
# Bulk Modulus (GPa) = 29.06162 53.14896 41.10529
# Shear Modulus (GPa) = 26.39388 40.59342 33.49365
#
# Velocity S-wave (km/s) = 3.27594 4.06267 3.69033
# Velocity P-wave (km/s) = 5.11131 6.60435 5.90521
#
# Compressibility (1/GPa) = 0.03440964
#
# Stress axis : x y z
#
# Youngs Moduli (GPa) = 126.68115 48.55236 63.55851
#
# Poissons Ratio (x) = -0.03594 0.18298
# Poissons Ratio (y) = -0.09379 0.17596
# Poissons Ratio (z) = 0.36470 0.13442
#
# Static dielectric constant tensor:
#      x y z
#    x 1.978690 -0.074360 -0.021340 
#    y -0.074360 2.162330 0.006600 
#    z -0.021340 0.006600 1.965690 
# 
# From -- ./inp_files/517780.got.cif
#   From: 2010.05.17/outbox.cif.g08.bks.cpg/sg2_259_cif.got.tgz:517780.got - 2010.06.03 11:33:40.
