data_PCOD9104683
_publ_section_title
;
Structure prediction by ZEFSAII (Michael W. Deem and Ramdas Pophale) SiO2 
 PCOD9104683
Probable space group: P -1
;
_chemical_formula_sum "Si O2"
_cell_formula_units_Z 16
_cell_length_a 4.913924
_cell_length_b 21.295400
_cell_length_c 5.943493
_cell_angle_alpha 84.060464
_cell_angle_beta 85.007263
_cell_angle_gamma 83.179046
_cell_volume 612.471987
_symmetry_space_group_name_H-M "P -1"
_symmetry_group_IT_number 2
_symmetry_cell_setting 'triclinic'
loop_
_space_group_symop_operation_xyz
x,y,z
-x,-y,-z
loop_
_atom_site_type_symbol
_atom_site_label
_atom_site_fract_x
_atom_site_fract_y
_atom_site_fract_z
Si Si1 0.246810 0.745900 0.074616
Si Si2 0.776623 0.487556 0.706925
Si Si3 0.487850 0.074616 0.003872
Si Si4 0.504753 0.169532 0.595555
Si Si5 0.296193 0.285746 0.328258
Si Si6 0.954839 0.137320 0.191536
Si Si7 0.890438 0.601753 0.939425
Si Si8 0.551724 0.366538 0.660706
O O1 0.372741 0.786927 0.241981
O O2 0.200145 0.680495 0.226611
O O3 0.480202 0.732046 0.874622
O O4 0.017528 0.793851 0.951342
O O5 0.604716 0.439325 0.599568
O O6 0.000000 0.500000 0.500000
O O7 0.872298 0.442535 0.933451
O O8 0.731118 0.555218 0.809955
O O9 0.408601 0.110933 0.761322
O O10 0.743237 0.899666 0.806067
O O11 0.777195 0.096473 0.054256
O O12 0.500000 0.000000 0.000000
O O13 0.269017 0.218382 0.474431
O O14 0.754990 0.147760 0.416349
O O15 0.441303 0.329433 0.476359
O O16 0.050449 0.335669 0.228088
O O17 0.684750 0.626475 0.139749
#
# Coordination Sequence:
#
# PCOD9104683 Si02
#       8
#     2   2   2   2   2   2   2   2
#     4   8  18  39  62  89 121 160 217 272 330 395
#     4  11  24  38  54  89 121 160 209 264 335 400
#     4  11  24  42  69 104 144 184 230 281 337 407
#     4   9  20  41  68  95 136 171 228 277 341 399
#     4   9  18  38  68  88 117 166 218 275 332 395
#     4  10  22  42  66 101 137 185 230 283 339 406
#     4  10  22  39  59  82 121 159 213 265 331 396
#     4  10  20  39  62  83 117 164 207 267 331 393
#
# _framework density 26.123643000000001
#
# number of rings (size 3 to 8) (size 9 to 14) (size 15 to 20)
#    0.000    2.250    0.000    1.500    0.000    9.000 
#   15.750    0.000    8.250    0.000    0.000    0.000 
#    0.000    0.000    0.000    0.000    0.000    0.000 
#
# Total GULP energy -89504.832874 kJ/mol
# GULP energy per Si atom -5594.052055 kJ/mol
# Density = 2.606418 g / cm^3
# Si number density = 26.123643 Si / 1000 Ang^3
#
#
#
# Elastic Constant Matrix: (Units=GPa)
#
#
# Indices 1 2 3 4 5 6 
#
# 1 78.6318 25.0129 13.9203 1.4111 -7.5137 4.4473
# 2 25.0129 205.7667 52.0223 -19.8338 -10.6800 -9.6604
# 3 13.9203 52.0223 119.6514 1.0086 -8.6767 -5.4148
# 4 1.4111 -19.8338 1.0086 47.5632 -1.6396 -2.6955
# 5 -7.5137 -10.6800 -8.6767 -1.6396 27.1148 1.5792
# 6 4.4473 -9.6604 -5.4148 -2.6955 1.5792 35.8035
#
#
#
# Elastic Compliance Matrix: (Units=1/GPa)
#
#
# Indices 1 2 3 4 5 6 
#
# 1 0.013799 -0.001530 -0.000822 -0.001065 0.003037 -0.002465
# 2 -0.001530 0.006036 -0.002303 0.002747 0.001288 0.001620
# 3 -0.000822 -0.002303 0.009632 -0.001033 0.001840 0.000779
# 4 -0.001065 0.002747 -0.001033 0.022414 0.001676 0.002331
# 5 0.003037 0.001288 0.001840 0.001676 0.038998 -0.001345
# 6 -0.002465 0.001620 0.000779 0.002331 -0.001345 0.029026
#
#
# Mechanical properties :
#
#
# Convention : Reuss Voigt Hill
#
# Bulk Modulus (GPa) = 49.61375 65.10677 57.36026
# Shear Modulus (GPa) = 36.78287 42.96924 39.87605
#
# Velocity S-wave (km/s) = 3.75644 4.06006 3.91120
# Velocity P-wave (km/s) = 6.15204 6.85241 6.51165
#
# Compressibility (1/GPa) = 0.02015570
#
# Stress axis : x y z
#
# Youngs Moduli (GPa) = 72.47108 165.67796 103.82302
#
# Poissons Ratio (x) = 0.25352 0.08538
# Poissons Ratio (y) = 0.11090 0.23907
# Poissons Ratio (z) = 0.05960 0.38150
#
# Static dielectric constant tensor:
#      x y z
#    x 2.090340 -0.033120 0.122920 
#    y -0.033120 2.092800 -0.040020 
#    z 0.122920 -0.040020 2.099800 
# 
# From -- ./inp_files/11097.got.cif
#   From: 2010.05.17/outbox.cif.g08.bks.cpg/sg2_6_cif.got.tgz:11097.got - 2010.06.03 11:33:40.
