data_PCOD9104560
_publ_section_title
;
Structure prediction by ZEFSAII (Michael W. Deem and Ramdas Pophale) SiO2 
 PCOD9104560
Probable space group: P -1
;
_chemical_formula_sum "Si O2"
_cell_formula_units_Z 12
_cell_length_a 9.097429
_cell_length_b 20.725829
_cell_length_c 20.673246
_cell_angle_alpha 161.159602
_cell_angle_beta 153.541864
_cell_angle_gamma 26.951941
_cell_volume 533.858842
_symmetry_space_group_name_H-M "P -1"
_symmetry_group_IT_number 2
_symmetry_cell_setting 'triclinic'
loop_
_space_group_symop_operation_xyz
x,y,z
-x,-y,-z
loop_
_atom_site_type_symbol
_atom_site_label
_atom_site_fract_x
_atom_site_fract_y
_atom_site_fract_z
Si Si1 0.022337 0.231645 0.715596
Si Si2 0.826093 0.492459 0.576221
Si Si3 0.405420 0.661684 0.031346
Si Si4 0.885694 0.240901 0.813145
Si Si5 0.295822 0.790894 0.564499
Si Si6 0.202944 0.107857 0.417317
O O1 0.399715 0.235660 0.847226
O O2 0.916392 0.328995 0.836630
O O3 0.787319 0.294672 0.618406
O O4 0.000000 0.000000 0.500000
O O5 0.500000 0.500000 0.500000
O O6 0.660970 0.642362 0.593722
O O7 0.014733 0.242048 0.408362
O O8 0.111378 0.577245 0.804356
O O9 0.222759 0.865365 0.195473
O O10 0.711020 0.461699 0.990327
O O11 0.583888 0.129761 0.588084
O O12 0.230877 0.044926 0.775806
O O13 0.011439 0.786039 0.502990
#
# Coordination Sequence:
#
# PCOD9104560 Si02
#       6
#     2   2   2   2   2   2
#     4  10  20  39  64  83 120 156 195 246 290 343
#     4   9  22  41  57  86 126 155 191 241 296 349
#     4  11  21  38  64  85 118 162 191 238 304 344
#     4  10  21  38  62  87 120 152 198 244 289 347
#     4  10  20  39  61  89 118 153 197 249 286 341
#     4  10  20  39  62  86 122 153 195 243 293 347
#
# _framework density 22.477851999999999
#
# number of rings (size 3 to 8) (size 9 to 14) (size 15 to 20)
#    0.000    2.000    3.333    1.000    0.000    3.333 
#    9.000    6.667    0.000    0.000    0.000    0.000 
#    0.000    0.000    0.000    0.000    0.000    0.000 
#
# Total GULP energy -66825.243977 kJ/mol
# GULP energy per Si atom -5568.770331 kJ/mol
# Density = 2.242669 g / cm^3
# Si number density = 22.477852 Si / 1000 Ang^3
#
#
#
# Elastic Constant Matrix: (Units=GPa)
#
#
# Indices 1 2 3 4 5 6 
#
# 1 66.9570 12.4607 12.3178 1.3312 -4.1744 13.6726
# 2 12.4607 183.9745 43.5884 29.6041 -4.6600 37.2540
# 3 12.3178 43.5884 81.5714 17.4247 14.3430 6.0837
# 4 1.3312 29.6041 17.4247 36.6280 -8.1876 3.2566
# 5 -4.1744 -4.6600 14.3430 -8.1876 43.9005 2.0848
# 6 13.6726 37.2540 6.0837 3.2566 2.0848 29.3050
#
#
#
# Elastic Compliance Matrix: (Units=1/GPa)
#
#
# Indices 1 2 3 4 5 6 
#
# 1 0.017549 0.001515 -0.003755 0.001651 0.003829 -0.009790
# 2 0.001515 0.009279 -0.003799 -0.004261 0.002117 -0.011391
# 3 -0.003755 -0.003799 0.017510 -0.007307 -0.008050 0.004332
# 4 0.001651 -0.004261 -0.007307 0.035975 0.008728 0.001545
# 5 0.003829 0.002117 -0.008050 0.008728 0.027899 -0.005761
# 6 -0.009790 -0.011391 0.004332 0.001545 -0.005761 0.052511
#
#
# Mechanical properties :
#
#
# Convention : Reuss Voigt Hill
#
# Bulk Modulus (GPa) = 31.00005 52.13742 41.56873
# Shear Modulus (GPa) = 27.23980 39.57579 33.40779
#
# Velocity S-wave (km/s) = 3.48494 4.20057 3.85938
# Velocity P-wave (km/s) = 5.47854 6.83899 6.19622
#
# Compressibility (1/GPa) = 0.03225801
#
# Stress axis : x y z
#
# Youngs Moduli (GPa) = 56.98390 107.76934 57.11136
#
# Poissons Ratio (x) = -0.16325 0.21447
# Poissons Ratio (y) = -0.08632 0.21699
# Poissons Ratio (z) = 0.21399 0.40946
#
# Static dielectric constant tensor:
#      x y z
#    x 1.992640 0.035960 -0.074600 
#    y 0.035960 1.930760 0.088300 
#    z -0.074600 0.088300 1.892100 
# 
# From -- ./inp_files/349305.got.cif
#   From: 2010.05.17/outbox.cif.g08.bks.cpg/sg2_175_cif.got.tgz:349305.got - 2010.06.03 11:33:40.
