data_PCOD9104507
_publ_section_title
;
Structure prediction by ZEFSAII (Michael W. Deem and Ramdas Pophale) SiO2 
 PCOD9104507
Probable space group: P -1
;
_chemical_formula_sum "Si O2"
_cell_formula_units_Z 16
_cell_length_a 9.916716
_cell_length_b 20.887142
_cell_length_c 8.875100
_cell_angle_alpha 41.841490
_cell_angle_beta 143.735813
_cell_angle_gamma 141.915190
_cell_volume 639.309768
_symmetry_space_group_name_H-M "P -1"
_symmetry_group_IT_number 2
_symmetry_cell_setting 'triclinic'
loop_
_space_group_symop_operation_xyz
x,y,z
-x,-y,-z
loop_
_atom_site_type_symbol
_atom_site_label
_atom_site_fract_x
_atom_site_fract_y
_atom_site_fract_z
Si Si1 0.779270 0.083719 0.665052
Si Si2 0.619295 0.459571 0.312229
Si Si3 0.907121 0.143901 0.120222
Si Si4 0.634514 0.891818 0.381162
Si Si5 0.241385 0.111292 0.847931
Si Si6 0.705553 0.270524 0.202878
Si Si7 0.904900 0.650477 0.851382
Si Si8 0.854471 0.425910 0.315485
O O1 0.765264 0.191574 0.500397
O O2 0.984167 0.114862 0.659710
O O3 0.500000 0.000000 0.500000
O O4 0.829203 0.013509 0.957930
O O5 0.402283 0.390210 0.358181
O O6 0.718649 0.392462 0.414084
O O7 0.860150 0.560809 0.428157
O O8 0.500000 0.500000 0.000000
O O9 0.181298 0.151223 0.295027
O O10 0.980305 0.242574 0.129515
O O11 0.774475 0.023960 0.290139
O O12 0.669394 0.143385 0.811443
O O13 0.666361 0.867579 0.276563
O O14 0.462310 0.195659 0.010603
O O15 0.686072 0.354084 0.153046
O O16 0.946868 0.330136 0.204646
O O17 0.923762 0.549857 0.121304
#
# Coordination Sequence:
#
# PCOD9104507 Si02
#       8
#     2   2   2   2   2   2   2   2
#     4   9  21  38  57  87 127 170 212 264 331 394
#     4   9  22  45  63  84 129 170 216 269 331 397
#     4  10  22  39  62  97 132 172 223 277 335 396
#     4  10  21  40  63  92 134 175 219 274 338 401
#     4  10  20  39  61  86 131 172 213 275 332 400
#     4  11  22  39  65  98 128 165 220 275 336 395
#     4  11  22  39  66  96 131 169 217 272 339 394
#     4  10  23  43  64  93 130 169 217 273 331 409
#
# _framework density 25.026990000000001
#
# number of rings (size 3 to 8) (size 9 to 14) (size 15 to 20)
#    0.000    2.000    1.250    1.125    3.500    3.500 
#   13.500    0.000    0.000    0.000    0.000    0.000 
#    0.000    0.000    0.000    0.000    0.000    0.000 
#
# Total GULP energy -89368.642562 kJ/mol
# GULP energy per Si atom -5585.540160 kJ/mol
# Density = 2.497003 g / cm^3
# Si number density = 25.026990 Si / 1000 Ang^3
#
#
#
# Elastic Constant Matrix: (Units=GPa)
#
#
# Indices 1 2 3 4 5 6 
#
# 1 115.9591 40.4256 39.1597 20.9707 0.1360 6.5879
# 2 40.4256 84.2043 29.6002 11.3766 0.5494 -20.7678
# 3 39.1597 29.6002 111.3886 8.6534 17.9554 -0.3420
# 4 20.9707 11.3766 8.6534 47.6532 6.4205 10.1058
# 5 0.1360 0.5494 17.9554 6.4205 31.6605 7.8184
# 6 6.5879 -20.7678 -0.3420 10.1058 7.8184 41.7970
#
#
#
# Elastic Compliance Matrix: (Units=1/GPa)
#
#
# Indices 1 2 3 4 5 6 
#
# 1 0.012514 -0.005641 -0.003273 -0.003055 0.003694 -0.004754
# 2 -0.005641 0.018780 -0.002535 -0.003816 -0.000877 0.011287
# 3 -0.003273 -0.002535 0.011865 0.000725 -0.006935 0.000476
# 4 -0.003055 -0.003816 0.000725 0.025048 -0.003740 -0.006765
# 5 0.003694 -0.000877 -0.006935 -0.003740 0.038077 -0.007293
# 6 -0.004754 0.011287 0.000476 -0.006765 -0.007293 0.033286
#
#
# Mechanical properties :
#
#
# Convention : Reuss Voigt Hill
#
# Bulk Modulus (GPa) = 49.35588 58.88033 54.11810
# Shear Modulus (GPa) = 29.54696 37.71323 33.63010
#
# Velocity S-wave (km/s) = 3.43972 3.88610 3.66970
# Velocity P-wave (km/s) = 5.96150 6.61162 6.29495
#
# Compressibility (1/GPa) = 0.02026101
#
# Stress axis : x y z
#
# Youngs Moduli (GPa) = 79.91061 53.24751 84.28178
#
# Poissons Ratio (x) = 0.30038 0.27586
# Poissons Ratio (y) = 0.45079 0.21364
# Poissons Ratio (z) = 0.26155 0.13498
#
# Static dielectric constant tensor:
#      x y z
#    x 2.001160 0.014220 0.075670 
#    y 0.014220 1.994810 -0.029270 
#    z 0.075670 -0.029270 2.143360 
# 
# From -- ./inp_files/439252.got.cif
#   From: 2010.05.17/outbox.cif.g08.bks.cpg/sg2_220_cif.got.tgz:439252.got - 2010.06.03 11:33:40.
