data_PCOD9104046
_publ_section_title
;
Structure prediction by ZEFSAII (Michael W. Deem and Ramdas Pophale) SiO2 
 PCOD9104046
Probable space group: P -1
;
_chemical_formula_sum "Si O2"
_cell_formula_units_Z 13
_cell_length_a 11.125321
_cell_length_b 8.191745
_cell_length_c 8.723244
_cell_angle_alpha 91.464831
_cell_angle_beta 140.688692
_cell_angle_gamma 100.745546
_cell_volume 476.053654
_symmetry_space_group_name_H-M "P -1"
_symmetry_group_IT_number 2
_symmetry_cell_setting 'triclinic'
loop_
_space_group_symop_operation_xyz
x,y,z
-x,-y,-z
loop_
_atom_site_type_symbol
_atom_site_label
_atom_site_fract_x
_atom_site_fract_y
_atom_site_fract_z
Si Si1 0.276631 0.509406 0.300736
Si Si2 0.366221 0.108405 0.647453
Si Si3 0.233603 0.564091 0.914727
Si Si4 0.560606 0.234864 0.297257
Si Si5 0.981922 0.762197 0.720675
Si Si6 0.500000 0.500000 0.000000
Si Si7 0.771835 0.966133 0.829398
O O1 0.500000 0.500000 0.500000
O O2 0.190961 0.510559 0.047600
O O3 0.288443 0.681020 0.411842
O O4 0.160322 0.352285 0.290598
O O5 0.531813 0.295176 0.859263
O O6 0.149523 0.126523 0.472640
O O7 0.403618 0.935765 0.740247
O O8 0.358328 0.073971 0.454762
O O9 0.274233 0.419269 0.850704
O O10 0.072726 0.647462 0.702571
O O11 0.345326 0.179043 0.169287
O O12 0.585036 0.387741 0.207688
O O13 0.186411 0.869096 0.015104
O O14 0.000000 0.000000 0.000000
#
# Coordination Sequence:
#
# PCOD9104046 Si02
#       7
#     2   2   2   2   2   1   2
#     4  12  21  43  76 104 146 181 237 302 348 414
#     4  11  22  42  74 102 139 175 238 302 356 401
#     4  12  24  47  69 105 143 192 234 288 360 418
#     4  12  23  46  72 105 144 189 232 293 360 422
#     4  11  23  41  72 113 135 178 238 303 355 404
#     4  12  30  44  70 102 150 200 230 278 362 444
#     4  10  20  38  76 113 132 170 240 303 348 404
#
# _framework density 27.307846000000001
#
# number of rings (size 3 to 8) (size 9 to 14) (size 15 to 20)
#    0.000    0.615    6.154    2.769    0.000    0.615 
#    2.769    3.846    0.000    0.000    0.000    0.000 
#    0.000    0.000    0.000    0.000    0.000    0.000 
#
# Total GULP energy -72478.656912 kJ/mol
# GULP energy per Si atom -5575.281301 kJ/mol
# Density = 2.724569 g / cm^3
# Si number density = 27.307846 Si / 1000 Ang^3
#
#
#
# Elastic Constant Matrix: (Units=GPa)
#
#
# Indices 1 2 3 4 5 6 
#
# 1 100.4019 8.9249 26.2787 -24.0787 11.6113 -5.5469
# 2 8.9249 104.3361 18.2423 -16.8971 2.1257 11.2416
# 3 26.2787 18.2423 114.7288 1.4896 6.9391 2.9205
# 4 -24.0787 -16.8971 1.4896 53.5744 -9.0346 11.4600
# 5 11.6113 2.1257 6.9391 -9.0346 45.8731 -9.2932
# 6 -5.5469 11.2416 2.9205 11.4600 -9.2932 50.9987
#
#
#
# Elastic Compliance Matrix: (Units=1/GPa)
#
#
# Indices 1 2 3 4 5 6 
#
# 1 0.012139 0.000372 -0.002809 0.005401 -0.001624 -0.000111
# 2 0.000372 0.010922 -0.001787 0.004337 -0.000137 -0.003264
# 3 -0.002809 -0.001787 0.009748 -0.002255 -0.001160 -0.000174
# 4 0.005401 0.004337 -0.002255 0.024049 0.002457 -0.005196
# 5 -0.001624 -0.000137 -0.001160 0.002457 0.023620 0.003672
# 6 -0.000111 -0.003264 -0.000174 -0.005196 0.003672 0.022163
#
#
# Mechanical properties :
#
#
# Convention : Reuss Voigt Hill
#
# Bulk Modulus (GPa) = 41.04749 47.37317 44.21033
# Shear Modulus (GPa) = 41.94375 47.82399 44.88387
#
# Velocity S-wave (km/s) = 3.92338 4.18938 4.05856
# Velocity P-wave (km/s) = 5.96556 6.38645 6.17959
#
# Compressibility (1/GPa) = 0.02436202
#
# Stress axis : x y z
#
# Youngs Moduli (GPa) = 82.37902 91.55998 102.58966
#
# Poissons Ratio (x) = -0.03410 0.28815
# Poissons Ratio (y) = -0.03068 0.18331
# Poissons Ratio (z) = 0.23138 0.16360
#
# Static dielectric constant tensor:
#      x y z
#    x 1.174010 0.668510 0.108050 
#    y 0.668510 1.553180 -0.066760 
#    z 0.108050 -0.066760 2.209610 
# 
# From -- ./inp_files/238815.got.cif
#   From: 2010.05.17/outbox.cif.g08.bks.cpg/sg2_120_cif.got.tgz:238815.got - 2010.06.03 11:33:40.
