data_PCOD9104216
_publ_section_title
;
Structure prediction by ZEFSAII (Michael W. Deem and Ramdas Pophale) SiO2 
 PCOD9104216
Probable space group: P -1
;
_chemical_formula_sum "Si O2"
_cell_formula_units_Z 14
_cell_length_a 7.890854
_cell_length_b 14.863531
_cell_length_c 7.332838
_cell_angle_alpha 82.029911
_cell_angle_beta 124.422842
_cell_angle_gamma 70.263814
_cell_volume 604.628263
_symmetry_space_group_name_H-M "P -1"
_symmetry_group_IT_number 2
_symmetry_cell_setting 'triclinic'
loop_
_space_group_symop_operation_xyz
x,y,z
-x,-y,-z
loop_
_atom_site_type_symbol
_atom_site_label
_atom_site_fract_x
_atom_site_fract_y
_atom_site_fract_z
Si Si1 0.095335 0.481904 0.768332
Si Si2 0.306041 0.917824 0.596001
Si Si3 0.144030 0.807268 0.256809
Si Si4 0.775506 0.358328 0.057153
Si Si5 0.065600 0.864640 0.764765
Si Si6 0.562897 0.589723 0.471495
Si Si7 0.179035 0.268525 0.013608
O O1 0.836887 0.544309 0.694678
O O2 0.000000 0.500000 0.500000
O O3 0.233288 0.543483 0.877605
O O4 0.217973 0.359617 0.930380
O O5 0.154270 0.888904 0.374008
O O6 0.580170 0.834411 0.748188
O O7 0.239830 0.897095 0.763224
O O8 0.201555 0.041439 0.467653
O O9 0.396677 0.697451 0.446283
O O10 0.103365 0.848906 0.010236
O O11 0.946796 0.774934 0.187004
O O12 0.868264 0.248461 0.248108
O O13 0.977803 0.323313 0.032284
O O14 0.530060 0.383699 0.801766
O O15 0.500000 0.500000 0.500000
#
# Coordination Sequence:
#
# PCOD9104216 Si02
#       7
#     2   2   2   2   2   2   2
#     4  12  25  36  60  94 123 158 201 246 300 367
#     4  11  22  42  67  86 126 158 201 265 300 346
#     4  10  22  40  65  89 123 161 201 248 308 365
#     4  10  23  41  61  85 125 159 200 247 302 362
#     4   9  23  43  62  93 119 161 208 248 309 364
#     4  10  20  39  59  85 123 160 196 242 302 357
#     4  10  23  39  60  95 115 160 211 237 303 375
#
# _framework density 23.154723000000001
#
# number of rings (size 3 to 8) (size 9 to 14) (size 15 to 20)
#    0.000    2.000    2.857    1.714    8.000    2.857 
#    0.000    5.714    0.000    0.000    0.000    0.000 
#    0.000    0.000    0.000    0.000    0.000    0.000 
#
# Total GULP energy -78210.212228 kJ/mol
# GULP energy per Si atom -5586.443731 kJ/mol
# Density = 2.310202 g / cm^3
# Si number density = 23.154723 Si / 1000 Ang^3
#
#
#
# Elastic Constant Matrix: (Units=GPa)
#
#
# Indices 1 2 3 4 5 6 
#
# 1 44.1170 19.6087 25.0884 -12.2662 3.5825 1.8810
# 2 19.6087 80.8267 40.9409 -4.4591 3.2383 16.0473
# 3 25.0884 40.9409 93.0675 -22.6210 11.0121 9.0967
# 4 -12.2662 -4.4591 -22.6210 49.3601 6.1421 -3.8968
# 5 3.5825 3.2383 11.0121 6.1421 40.1322 -2.8008
# 6 1.8810 16.0473 9.0967 -3.8968 -2.8008 26.3507
#
#
#
# Elastic Compliance Matrix: (Units=1/GPa)
#
#
# Indices 1 2 3 4 5 6 
#
# 1 0.028840 -0.005021 -0.004451 0.005109 -0.001511 0.003131
# 2 -0.005021 0.018672 -0.006924 -0.003544 0.000751 -0.009066
# 3 -0.004451 -0.006924 0.017298 0.006728 -0.004887 -0.000962
# 4 0.005109 -0.003544 0.006728 0.025205 -0.005693 0.002593
# 5 -0.001511 0.000751 -0.004887 -0.005693 0.027442 0.003413
# 6 0.003131 -0.009066 -0.000962 0.002593 0.003413 0.044326
#
#
# Mechanical properties :
#
#
# Convention : Reuss Voigt Hill
#
# Bulk Modulus (GPa) = 31.23330 43.25414 37.24372
# Shear Modulus (GPa) = 24.36064 31.99347 28.17705
#
# Velocity S-wave (km/s) = 3.24710 3.72119 3.49220
# Velocity P-wave (km/s) = 5.25133 6.09787 5.69036
#
# Compressibility (1/GPa) = 0.03201711
#
# Stress axis : x y z
#
# Youngs Moduli (GPa) = 34.67461 53.55567 57.80849
#
# Poissons Ratio (x) = 0.26891 0.25730
# Poissons Ratio (y) = 0.17411 0.40029
# Poissons Ratio (z) = 0.15434 0.37084
#
# Static dielectric constant tensor:
#      x y z
#    x 1.950160 -0.023280 -0.014270 
#    y -0.023280 1.881990 -0.005960 
#    z -0.014270 -0.005960 1.903160 
# 
# From -- ./inp_files/179605.got.cif
#   From: 2010.05.17/outbox.cif.g08.bks.cpg/sg2_90_cif.got.tgz:179605.got - 2010.06.03 11:33:40.
