data_PCOD9104878
_publ_section_title
;
Structure prediction by ZEFSAII (Michael W. Deem and Ramdas Pophale) SiO2 
 PCOD9104878
Probable space group: P -1
;
_chemical_formula_sum "Si O2"
_cell_formula_units_Z 12
_cell_length_a 11.958512
_cell_length_b 13.120845
_cell_length_c 8.648837
_cell_angle_alpha 110.100930
_cell_angle_beta 55.127560
_cell_angle_gamma 64.674135
_cell_volume 612.773722
_symmetry_space_group_name_H-M "P -1"
_symmetry_group_IT_number 2
_symmetry_cell_setting 'triclinic'
loop_
_space_group_symop_operation_xyz
x,y,z
-x,-y,-z
loop_
_atom_site_type_symbol
_atom_site_label
_atom_site_fract_x
_atom_site_fract_y
_atom_site_fract_z
Si Si1 0.005728 0.110515 0.141123
Si Si2 0.615229 0.822879 0.899245
Si Si3 0.198240 0.391882 0.656213
Si Si4 0.221902 0.906635 0.190962
Si Si5 0.607522 0.505772 0.548545
Si Si6 0.385952 0.022054 0.749044
O O1 0.762032 0.330032 0.444670
O O2 0.118808 0.024425 0.175798
O O3 0.173658 0.083249 0.902773
O O4 0.000000 0.000000 0.000000
O O5 0.809430 0.649592 0.537379
O O6 0.399193 0.877759 0.116969
O O7 0.695754 0.826394 0.996417
O O8 0.500000 0.000000 0.000000
O O9 0.253121 0.483647 0.635082
O O10 0.424199 0.180897 0.429828
O O11 0.000000 0.500000 0.000000
O O12 0.394261 0.698170 0.904709
O O13 0.000000 0.000000 0.500000
O O14 0.500000 0.500000 0.500000
O O15 0.500000 0.000000 0.500000
#
# Coordination Sequence:
#
# PCOD9104878 Si02
#       6
#     2   2   2   2   2   2
#     4  12  23  42  67  93 129 171 220 266 321 390
#     4   9  19  41  62  86 132 164 207 267 316 379
#     4  10  20  39  62  93 127 166 209 263 324 376
#     4  11  24  42  66  94 132 168 211 271 329 379
#     4  11  22  42  64  92 129 167 216 268 315 388
#     4  11  22  39  67  94 126 175 215 262 328 384
#
# _framework density 19.583083999999999
#
# number of rings (size 3 to 8) (size 9 to 14) (size 15 to 20)
#    0.000    1.333    6.667    1.000    2.333    3.333 
#    0.000    7.500    0.000    0.000    0.000    0.000 
#    0.000    0.000    0.000    0.000    0.000    0.000 
#
# Total GULP energy -66870.871998 kJ/mol
# GULP energy per Si atom -5572.572666 kJ/mol
# Density = 1.953851 g / cm^3
# Si number density = 19.583084 Si / 1000 Ang^3
#
#
#
# Elastic Constant Matrix: (Units=GPa)
#
#
# Indices 1 2 3 4 5 6 
#
# 1 116.4412 27.8052 46.6671 -4.1960 12.1000 39.4164
# 2 27.8052 90.7482 48.2783 12.6626 3.8033 12.8640
# 3 46.6671 48.2783 147.3566 -6.8173 -5.8384 24.6723
# 4 -4.1960 12.6626 -6.8173 51.6619 -0.0232 -9.4357
# 5 12.1000 3.8033 -5.8384 -0.0232 23.7135 3.7640
# 6 39.4164 12.8640 24.6723 -9.4357 3.7640 37.6430
#
#
#
# Elastic Compliance Matrix: (Units=1/GPa)
#
#
# Indices 1 2 3 4 5 6 
#
# 1 0.014910 -0.000913 -0.002473 -0.001346 -0.005941 -0.013422
# 2 -0.000913 0.014759 -0.004531 -0.004659 -0.002702 -0.002015
# 3 -0.002473 -0.004531 0.009700 0.001782 0.004735 -0.002247
# 4 -0.001346 -0.004659 0.001782 0.021951 0.000741 0.007262
# 5 -0.005941 -0.002702 0.004735 0.000741 0.046874 -0.000461
# 6 -0.013422 -0.002015 -0.002247 0.007262 -0.000461 0.044648
#
#
# Mechanical properties :
#
#
# Convention : Reuss Voigt Hill
#
# Bulk Modulus (GPa) = 42.49217 66.67191 54.58204
# Shear Modulus (GPa) = 28.32513 38.05673 33.19093
#
# Velocity S-wave (km/s) = 3.80729 4.41312 4.12136
# Velocity P-wave (km/s) = 6.40881 7.75159 7.11196
#
# Compressibility (1/GPa) = 0.02353375
#
# Stress axis : x y z
#
# Youngs Moduli (GPa) = 67.07062 67.75528 103.09000
#
# Poissons Ratio (x) = 0.06188 0.25493
# Poissons Ratio (y) = 0.06125 0.46715
# Poissons Ratio (z) = 0.16586 0.30703
#
# Static dielectric constant tensor:
#      x y z
#    x 1.725760 -0.036950 -0.014820 
#    y -0.036950 1.713730 -0.008400 
#    z -0.014820 -0.008400 1.707520 
# 
# From -- ./inp_files/163668.got.cif
#   From: 2010.05.17/outbox.cif.g08.bks.cpg/sg2_82_cif.got.tgz:163668.got - 2010.06.03 11:33:40.
