data_PCOD9104710
_publ_section_title
;
Structure prediction by ZEFSAII (Michael W. Deem and Ramdas Pophale) SiO2 
 PCOD9104710
Probable space group: P -1
;
_chemical_formula_sum "Si O2"
_cell_formula_units_Z 12
_cell_length_a 11.674708
_cell_length_b 10.939089
_cell_length_c 14.710798
_cell_angle_alpha 45.255577
_cell_angle_beta 149.695610
_cell_angle_gamma 116.050353
_cell_volume 594.161006
_symmetry_space_group_name_H-M "P -1"
_symmetry_group_IT_number 2
_symmetry_cell_setting 'triclinic'
loop_
_space_group_symop_operation_xyz
x,y,z
-x,-y,-z
loop_
_atom_site_type_symbol
_atom_site_label
_atom_site_fract_x
_atom_site_fract_y
_atom_site_fract_z
Si Si1 0.135758 0.505901 0.729722
Si Si2 0.367899 0.466810 0.711343
Si Si3 0.845899 0.795887 0.975785
Si Si4 0.104977 0.785415 0.721363
Si Si5 0.131071 0.437326 0.220539
Si Si6 0.640286 0.225003 0.582906
O O1 0.243508 0.513770 0.701221
O O2 0.267185 0.293660 0.979137
O O3 0.167782 0.647778 0.748016
O O4 0.835738 0.558704 0.479783
O O5 0.420447 0.639811 0.618547
O O6 0.641721 0.279178 0.009899
O O7 0.986243 0.627672 0.084807
O O8 0.079382 0.809757 0.178410
O O9 0.658696 0.012021 0.698038
O O10 0.915392 0.732474 0.677614
O O11 0.000000 0.000000 0.500000
O O12 0.432845 0.349787 0.452255
O O13 0.000000 0.500000 0.000000
#
# Coordination Sequence:
#
# PCOD9104710 Si02
#       6
#     2   2   2   2   2   2
#     4   9  21  40  61  84 115 153 194 243 286 344
#     4  10  20  40  61  85 117 149 196 241 288 348
#     4   9  21  38  62  87 112 155 194 239 293 345
#     4  11  24  39  57  87 118 155 194 237 294 346
#     4  11  22  39  56  87 121 150 192 242 289 348
#     4  10  20  39  62  86 116 151 195 239 295 347
#
# _framework density 20.196546000000001
#
# number of rings (size 3 to 8) (size 9 to 14) (size 15 to 20)
#    0.000    2.000    1.667    1.000    2.333    2.667 
#    0.000    0.000    0.000    0.000    0.000    0.000 
#    0.000    0.000    0.000    0.000    0.000    0.000 
#
# Total GULP energy -66936.884353 kJ/mol
# GULP energy per Si atom -5578.073696 kJ/mol
# Density = 2.015058 g / cm^3
# Si number density = 20.196546 Si / 1000 Ang^3
#
#
#
# Elastic Constant Matrix: (Units=GPa)
#
#
# Indices 1 2 3 4 5 6 
#
# 1 89.2201 16.6189 14.5184 -23.3125 -16.9039 15.4130
# 2 16.6189 74.7900 33.9725 -27.7728 -17.4824 10.3363
# 3 14.5184 33.9725 97.6556 -33.3422 -22.0558 17.1395
# 4 -23.3125 -27.7728 -33.3422 34.3040 8.0975 -6.3447
# 5 -16.9039 -17.4824 -22.0558 8.0975 31.5133 -0.3312
# 6 15.4130 10.3363 17.1395 -6.3447 -0.3312 21.8404
#
#
#
# Elastic Compliance Matrix: (Units=1/GPa)
#
#
# Indices 1 2 3 4 5 6 
#
# 1 0.019024 0.004139 0.007452 0.017490 0.013054 -0.015953
# 2 0.004139 0.022315 0.002200 0.018576 0.011265 -0.009642
# 3 0.007452 0.002200 0.022165 0.021677 0.014980 -0.017170
# 4 0.017490 0.018576 0.021677 0.069954 0.016699 -0.017570
# 5 0.013054 0.011265 0.014980 0.016699 0.050961 -0.020676
# 6 -0.015953 -0.009642 -0.017170 -0.017570 -0.020676 0.069665
#
#
# Mechanical properties :
#
#
# Convention : Reuss Voigt Hill
#
# Bulk Modulus (GPa) = 10.97866 43.54280 27.26073
# Shear Modulus (GPa) = 19.46562 30.63526 25.05044
#
# Velocity S-wave (km/s) = 3.10790 3.89891 3.52566
# Velocity P-wave (km/s) = 4.28093 6.47109 5.48641
#
# Compressibility (1/GPa) = 0.09108576
#
# Stress axis : x y z
#
# Youngs Moduli (GPa) = 52.56537 44.81210 45.11707
#
# Poissons Ratio (x) = -0.18548 -0.33620
# Poissons Ratio (y) = -0.21757 -0.09927
# Poissons Ratio (z) = -0.39170 -0.09860
#
# Static dielectric constant tensor:
#      x y z
#    x 1.720430 0.042090 0.013130 
#    y 0.042090 1.907430 -0.138830 
#    z 0.013130 -0.138830 1.886580 
# 
# From -- ./inp_files/75595.got.cif
#   From: 2010.05.17/outbox.cif.g08.bks.cpg/sg2_38_cif.got.tgz:75595.got - 2010.06.03 11:33:40.
