data_PCOD9104214
_publ_section_title
;
Structure prediction by ZEFSAII (Michael W. Deem and Ramdas Pophale) SiO2 
 PCOD9104214
Probable space group: P -1
;
_chemical_formula_sum "Si O2"
_cell_formula_units_Z 16
_cell_length_a 20.840649
_cell_length_b 5.608680
_cell_length_c 6.323866
_cell_angle_alpha 72.405591
_cell_angle_beta 111.288698
_cell_angle_gamma 82.225444
_cell_volume 631.050958
_symmetry_space_group_name_H-M "P -1"
_symmetry_group_IT_number 2
_symmetry_cell_setting 'triclinic'
loop_
_space_group_symop_operation_xyz
x,y,z
-x,-y,-z
loop_
_atom_site_type_symbol
_atom_site_label
_atom_site_fract_x
_atom_site_fract_y
_atom_site_fract_z
Si Si1 0.431616 0.119357 0.072143
Si Si2 0.451640 0.384246 0.629093
Si Si3 0.836328 0.101046 0.442921
Si Si4 0.204312 0.390070 0.828766
Si Si5 0.670956 0.639885 0.732687
Si Si6 0.086708 0.310093 0.019180
Si Si7 0.695132 0.984703 0.286738
Si Si8 0.056142 0.917032 0.779043
O O1 0.387481 0.226796 0.198207
O O2 0.508707 0.926197 0.267926
O O3 0.440479 0.361909 0.874998
O O4 0.383665 0.958258 0.930659
O O5 0.500000 0.500000 0.500000
O O6 0.371516 0.518821 0.413981
O O7 0.751453 0.143541 0.372103
O O8 0.844232 0.384350 0.438513
O O9 0.868918 0.088817 0.248923
O O10 0.882239 0.855638 0.691761
O O11 0.154734 0.291633 0.954020
O O12 0.255657 0.190949 0.788203
O O13 0.257305 0.487427 0.024565
O O14 0.686179 0.838915 0.528871
O O15 0.056015 0.623327 0.927173
O O16 0.043674 0.140708 0.881707
O O17 0.000000 0.000000 0.500000
#
# Coordination Sequence:
#
# PCOD9104214 Si02
#       8
#     2   2   2   2   2   2   2   2
#     4   9  21  39  56  82 123 154 207 274 317 395
#     4  10  21  37  58  83 115 162 210 262 331 398
#     4  11  24  39  68  95 134 176 218 273 329 395
#     4  10  22  39  60  94 128 167 220 271 329 393
#     4  10  20  39  59  85 122 165 212 273 332 391
#     4  11  24  43  71  99 137 179 221 274 333 395
#     4  10  20  40  60  88 126 165 214 268 333 385
#     4  11  26  46  71 104 139 177 224 274 328 398
#
# _framework density 25.354528999999999
#
# number of rings (size 3 to 8) (size 9 to 14) (size 15 to 20)
#    0.000    1.750    2.500    0.750    3.500    1.500 
#    6.750    0.000    0.000    0.000    0.000    0.000 
#    0.000    0.000    0.000    0.000    0.000    0.000 
#
# Total GULP energy -89119.750837 kJ/mol
# GULP energy per Si atom -5569.984427 kJ/mol
# Density = 2.529682 g / cm^3
# Si number density = 25.354529 Si / 1000 Ang^3
#
#
#
# Elastic Constant Matrix: (Units=GPa)
#
#
# Indices 1 2 3 4 5 6 
#
# 1 116.6563 18.0193 27.3272 -0.8578 -23.0061 6.9594
# 2 18.0193 60.1908 52.6144 -8.4152 0.2600 4.4655
# 3 27.3272 52.6144 115.9039 -25.4072 -16.5200 23.0156
# 4 -0.8578 -8.4152 -25.4072 28.0184 9.4608 -7.1148
# 5 -23.0061 0.2600 -16.5200 9.4608 52.7681 -3.0285
# 6 6.9594 4.4655 23.0156 -7.1148 -3.0285 35.1493
#
#
#
# Elastic Compliance Matrix: (Units=1/GPa)
#
#
# Indices 1 2 3 4 5 6 
#
# 1 0.010174 -0.002486 -0.001084 -0.003300 0.004628 -0.001258
# 2 -0.002486 0.030214 -0.015454 -0.001666 -0.005430 0.005968
# 3 -0.001084 -0.015454 0.020442 0.010404 0.003634 -0.008789
# 4 -0.003300 -0.001666 0.010404 0.047513 -0.006514 0.003109
# 5 0.004628 -0.005430 0.003634 -0.006514 0.023190 -0.001926
# 6 -0.001258 0.005968 -0.008789 0.003109 -0.001926 0.034159
#
#
# Mechanical properties :
#
#
# Convention : Reuss Voigt Hill
#
# Bulk Modulus (GPa) = 43.89359 54.29697 49.09528
# Shear Modulus (GPa) = 23.65918 36.17317 29.91618
#
# Velocity S-wave (km/s) = 3.05804 3.78126 3.43871
# Velocity P-wave (km/s) = 5.46062 6.36596 5.93059
#
# Compressibility (1/GPa) = 0.02278237
#
# Stress axis : x y z
#
# Youngs Moduli (GPa) = 98.29333 33.09680 48.91784
#
# Poissons Ratio (x) = 0.08228 0.05304
# Poissons Ratio (y) = 0.24436 0.75597
# Poissons Ratio (z) = 0.10657 0.51147
#
# Static dielectric constant tensor:
#      x y z
#    x 2.098040 0.069030 0.105570 
#    y 0.069030 2.166860 0.017300 
#    z 0.105570 0.017300 2.114670 
# 
# From -- ./inp_files/13350.got.cif
#   From: 2010.05.17/outbox.cif.g08.bks.cpg/sg2_7_cif.got.tgz:13350.got - 2010.06.03 11:33:40.
