data_PCOD9104270
_publ_section_title
;
Structure prediction by ZEFSAII (Michael W. Deem and Ramdas Pophale) SiO2 
 PCOD9104270
Probable space group: P -1
;
_chemical_formula_sum "Si O2"
_cell_formula_units_Z 16
_cell_length_a 21.368895
_cell_length_b 5.113450
_cell_length_c 7.695117
_cell_angle_alpha 95.920374
_cell_angle_beta 125.632359
_cell_angle_gamma 83.173761
_cell_volume 677.964303
_symmetry_space_group_name_H-M "P -1"
_symmetry_group_IT_number 2
_symmetry_cell_setting 'triclinic'
loop_
_space_group_symop_operation_xyz
x,y,z
-x,-y,-z
loop_
_atom_site_type_symbol
_atom_site_label
_atom_site_fract_x
_atom_site_fract_y
_atom_site_fract_z
Si Si1 0.766902 0.244471 0.482840
Si Si2 0.697918 0.689618 0.633832
Si Si3 0.852702 0.885937 0.875051
Si Si4 0.630503 0.976484 0.201412
Si Si5 0.086777 0.517790 0.310298
Si Si6 0.472329 0.233803 0.537313
Si Si7 0.997152 0.056678 0.295017
Si Si8 0.494912 0.294111 0.207182
O O1 0.723927 0.398747 0.586510
O O2 0.700487 0.133158 0.250410
O O3 0.825124 0.426214 0.490961
O O4 0.822254 0.026579 0.657556
O O5 0.774492 0.810997 0.837646
O O6 0.621316 0.729055 0.626653
O O7 0.671563 0.829281 0.420866
O O8 0.899207 0.618014 0.864586
O O9 0.909419 0.058788 0.084456
O O10 0.564192 0.170970 0.192610
O O11 0.588301 0.776328 0.999419
O O12 0.040135 0.799937 0.256910
O O13 0.041070 0.314394 0.335692
O O14 0.500000 0.500000 0.500000
O O15 0.504324 0.080067 0.379796
O O16 0.495340 0.391768 0.763296
O O17 0.000000 0.000000 0.500000
#
# Coordination Sequence:
#
# PCOD9104270 Si02
#       8
#     2   2   2   2   2   2   2   2
#     4  10  21  40  68  95 128 171 226 276 325 393
#     4  10  21  37  62  89 128 166 219 273 330 396
#     4  10  23  41  71  96 125 177 224 270 327 398
#     4  10  20  39  59  93 123 165 226 278 328 387
#     4  11  23  44  71  98 132 174 224 265 326 407
#     4  11  21  38  58  88 124 171 216 269 335 396
#     4  12  26  44  70 104 137 172 213 277 333 398
#     4  10  22  35  61  88 124 168 221 275 331 390
#
# _framework density 23.600065000000001
#
# number of rings (size 3 to 8) (size 9 to 14) (size 15 to 20)
#    0.000    1.500    3.750    1.125    3.500    1.500 
#    2.250    0.000    0.000    0.000    0.000    0.000 
#    0.000    0.000    0.000    0.000    0.000    0.000 
#
# Total GULP energy -89218.094133 kJ/mol
# GULP energy per Si atom -5576.130883 kJ/mol
# Density = 2.354635 g / cm^3
# Si number density = 23.600065 Si / 1000 Ang^3
#
#
#
# Elastic Constant Matrix: (Units=GPa)
#
#
# Indices 1 2 3 4 5 6 
#
# 1 126.0597 34.4738 53.7498 16.0336 46.8602 28.5484
# 2 34.4738 169.2118 33.2251 16.9969 24.9906 2.7872
# 3 53.7498 33.2251 100.9536 19.4902 33.3605 20.8390
# 4 16.0336 16.9969 19.4902 35.8562 21.1171 14.4128
# 5 46.8602 24.9906 33.3605 21.1171 39.9968 9.5659
# 6 28.5484 2.7872 20.8390 14.4128 9.5659 46.1356
#
#
#
# Elastic Compliance Matrix: (Units=1/GPa)
#
#
# Indices 1 2 3 4 5 6 
#
# 1 0.017863 -0.000851 -0.002180 0.009846 -0.021722 -0.008589
# 2 -0.000851 0.006714 -0.001195 -0.001836 -0.001607 0.001567
# 3 -0.002180 -0.001195 0.014944 -0.000384 -0.008118 -0.003526
# 4 0.009846 -0.001836 -0.000384 0.049766 -0.032866 -0.014541
# 5 -0.021722 -0.001607 -0.008118 -0.032866 0.072609 0.012418
# 6 -0.008589 0.001567 -0.003526 -0.014541 0.012418 0.030456
#
#
# Mechanical properties :
#
#
# Convention : Reuss Voigt Hill
#
# Bulk Modulus (GPa) = 32.18600 71.01359 51.59980
# Shear Modulus (GPa) = 23.67892 42.71613 33.19752
#
# Velocity S-wave (km/s) = 3.17099 4.25903 3.75463
# Velocity P-wave (km/s) = 5.20333 7.37167 6.38029
#
# Compressibility (1/GPa) = 0.03106941
#
# Stress axis : x y z
#
# Youngs Moduli (GPa) = 55.98309 148.95163 66.91671
#
# Poissons Ratio (x) = 0.12669 0.14590
# Poissons Ratio (y) = 0.04761 0.07994
# Poissons Ratio (z) = 0.12206 0.17793
#
# Static dielectric constant tensor:
#      x y z
#    x 1.932870 0.097980 0.071620 
#    y 0.097980 1.914800 -0.104690 
#    z 0.071620 -0.104690 1.794340 
# 
# From -- ./inp_files/340411.got.cif
#   From: 2010.05.17/outbox.cif.g08.bks.cpg/sg2_171_cif.got.tgz:340411.got - 2010.06.03 11:33:40.
