data_PCOD9104773
_publ_section_title
;
Structure prediction by ZEFSAII (Michael W. Deem and Ramdas Pophale) SiO2 
 PCOD9104773
Probable space group: P -1
;
_chemical_formula_sum "Si O2"
_cell_formula_units_Z 16
_cell_length_a 18.334246
_cell_length_b 21.404347
_cell_length_c 12.070195
_cell_angle_alpha 32.063414
_cell_angle_beta 40.711874
_cell_angle_gamma 19.073000
_cell_volume 796.110005
_symmetry_space_group_name_H-M "P -1"
_symmetry_group_IT_number 2
_symmetry_cell_setting 'triclinic'
loop_
_space_group_symop_operation_xyz
x,y,z
-x,-y,-z
loop_
_atom_site_type_symbol
_atom_site_label
_atom_site_fract_x
_atom_site_fract_y
_atom_site_fract_z
Si Si1 0.692610 0.304243 0.843993
Si Si2 0.319860 0.131949 0.751748
Si Si3 0.102785 0.834940 0.953887
Si Si4 0.381632 0.942805 0.190260
Si Si5 0.044469 0.626961 0.352542
Si Si6 0.212957 0.216502 0.194293
Si Si7 0.889827 0.380875 0.460501
Si Si8 0.803259 0.149920 0.414328
O O1 0.809212 0.321274 0.651405
O O2 0.425502 0.560234 0.739649
O O3 0.734899 0.259883 0.994313
O O4 0.846662 0.071353 0.948385
O O5 0.192512 0.178974 0.730644
O O6 0.205183 0.366485 0.536801
O O7 0.592124 0.904054 0.772820
O O8 0.285026 0.092180 0.966264
O O9 0.116074 0.894936 0.735643
O O10 0.156798 0.647467 0.154518
O O11 0.330450 0.070520 0.163591
O O12 0.654981 0.668681 0.273125
O O13 0.271337 0.916690 0.381530
O O14 0.021479 0.658902 0.462631
O O15 0.092991 0.214084 0.391194
O O16 0.000000 0.500000 0.000000
O O17 0.000000 0.000000 0.500000
#
# Coordination Sequence:
#
# PCOD9104773 Si02
#       8
#     2   2   2   2   2   2   2   2
#     4   9  21  39  64  88 118 155 199 246 291 355
#     4  11  22  40  61  89 121 161 197 242 300 348
#     4  10  20  42  62  88 119 159 199 240 292 356
#     4  11  22  41  63  85 124 157 196 248 292 351
#     4  10  22  40  62  85 127 160 189 248 301 344
#     4  12  22  36  64  90 113 159 207 243 287 354
#     4  10  20  39  62  89 117 156 199 244 298 348
#     4  11  23  39  63  93 120 155 194 245 304 356
#
# _framework density 20.097725000000001
#
# number of rings (size 3 to 8) (size 9 to 14) (size 15 to 20)
#    0.000    1.500    2.500    3.000    0.000    1.000 
#    9.000    0.000    0.000    0.000    0.000    0.000 
#    0.000    0.000    0.000    0.000    0.000    0.000 
#
# Total GULP energy -89372.858156 kJ/mol
# GULP energy per Si atom -5585.803635 kJ/mol
# Density = 2.005198 g / cm^3
# Si number density = 20.097725 Si / 1000 Ang^3
#
#
#
# Elastic Constant Matrix: (Units=GPa)
#
#
# Indices 1 2 3 4 5 6 
#
# 1 69.9312 33.5596 48.4995 0.5258 18.3086 -17.9136
# 2 33.5596 84.0152 33.1752 -0.0775 17.6512 -17.4275
# 3 48.4995 33.1752 103.3759 1.9134 9.7183 -9.3096
# 4 0.5258 -0.0775 1.9134 36.1430 -1.7805 5.9962
# 5 18.3086 17.6512 9.7183 -1.7805 33.1257 -12.4257
# 6 -17.9136 -17.4275 -9.3096 5.9962 -12.4257 24.5565
#
#
#
# Elastic Compliance Matrix: (Units=1/GPa)
#
#
# Indices 1 2 3 4 5 6 
#
# 1 0.027492 -0.003313 -0.010198 -0.002024 -0.006382 0.011103
# 2 -0.003313 0.016466 -0.002768 -0.001047 -0.003713 0.006597
# 3 -0.010198 -0.002768 0.014933 -0.000088 0.001641 -0.002890
# 4 -0.002024 -0.001047 -0.000088 0.029270 -0.000309 -0.009556
# 5 -0.006382 -0.003713 0.001641 -0.000309 0.040389 0.013844
# 6 0.011103 0.006597 -0.002890 -0.009556 0.013844 0.061747
#
#
# Mechanical properties :
#
#
# Convention : Reuss Voigt Hill
#
# Bulk Modulus (GPa) = 37.97193 54.19899 46.08546
# Shear Modulus (GPa) = 21.58604 28.23756 24.91180
#
# Velocity S-wave (km/s) = 3.28083 3.75242 3.52452
# Velocity P-wave (km/s) = 5.76944 6.76760 6.28836
#
# Compressibility (1/GPa) = 0.02633524
#
# Stress axis : x y z
#
# Youngs Moduli (GPa) = 36.37395 60.73017 66.96590
#
# Poissons Ratio (x) = 0.20119 0.68290
# Poissons Ratio (y) = 0.12050 0.18533
# Poissons Ratio (z) = 0.37093 0.16807
#
# Static dielectric constant tensor:
#      x y z
#    x 1.683280 -0.002980 -0.018010 
#    y -0.002980 1.708850 -0.001530 
#    z -0.018010 -0.001530 1.770070 
# 
# From -- ./inp_files/337658.got.cif
#   From: 2010.05.17/outbox.cif.g08.bks.cpg/sg2_169_cif.got.tgz:337658.got - 2010.06.03 11:33:40.
