data_PCOD9104431
_publ_section_title
;
Structure prediction by ZEFSAII (Michael W. Deem and Ramdas Pophale) SiO2 
 PCOD9104431
Probable space group: P -1
;
_chemical_formula_sum "Si O2"
_cell_formula_units_Z 16
_cell_length_a 12.184624
_cell_length_b 5.310994
_cell_length_c 17.232505
_cell_angle_alpha 55.209730
_cell_angle_beta 129.686107
_cell_angle_gamma 106.074816
_cell_volume 697.990537
_symmetry_space_group_name_H-M "P -1"
_symmetry_group_IT_number 2
_symmetry_cell_setting 'triclinic'
loop_
_space_group_symop_operation_xyz
x,y,z
-x,-y,-z
loop_
_atom_site_type_symbol
_atom_site_label
_atom_site_fract_x
_atom_site_fract_y
_atom_site_fract_z
Si Si1 0.910154 0.238448 0.037751
Si Si2 0.020599 0.486415 0.821880
Si Si3 0.469869 0.100455 0.082788
Si Si4 0.378551 0.587345 0.694372
Si Si5 0.279085 0.520616 0.825165
Si Si6 0.422584 0.697586 0.531607
Si Si7 0.714405 0.334969 0.690809
Si Si8 0.663987 0.737845 0.843104
O O1 0.939933 0.278708 0.135567
O O2 0.939605 0.889302 0.080886
O O3 0.747402 0.399952 0.921390
O O4 0.000000 0.500000 0.000000
O O5 0.121055 0.543152 0.784882
O O6 0.847968 0.522123 0.729381
O O7 0.612690 0.272139 0.120534
O O8 0.365630 0.231917 0.084047
O O9 0.536197 0.754276 0.194216
O O10 0.370663 0.183671 0.947174
O O11 0.275021 0.616170 0.716505
O O12 0.327980 0.665650 0.570920
O O13 0.504979 0.798055 0.725063
O O14 0.567484 0.454439 0.648423
O O15 0.331895 0.654331 0.421634
O O16 0.500000 0.000000 0.500000
O O17 0.752693 0.988660 0.801477
#
# Coordination Sequence:
#
# PCOD9104431 Si02
#       8
#     2   2   2   2   2   2   2   2
#     4  12  26  40  65 100 146 181 223 261 342 418
#     4  12  27  44  65 100 145 186 216 277 338 417
#     4  10  20  39  60  94 135 174 223 266 328 399
#     4  11  22  37  70  89 131 173 228 285 331 395
#     4  10  23  38  61  98 134 180 222 264 330 413
#     4  11  24  44  68  97 123 168 235 297 344 389
#     4  11  25  41  66  95 132 169 225 288 348 396
#     4  11  21  37  62 100 129 178 215 276 336 408
#
# _framework density 22.922947000000001
#
# number of rings (size 3 to 8) (size 9 to 14) (size 15 to 20)
#    0.000    1.000    5.000    1.500    5.250    0.000 
#    0.000    0.625    0.000    1.500    0.000    0.000 
#    0.000    0.000    0.000    0.000    0.000    0.000 
#
# Total GULP energy -89341.919428 kJ/mol
# GULP energy per Si atom -5583.869964 kJ/mol
# Density = 2.287077 g / cm^3
# Si number density = 22.922947 Si / 1000 Ang^3
#
#
#
# Elastic Constant Matrix: (Units=GPa)
#
#
# Indices 1 2 3 4 5 6 
#
# 1 97.7441 -2.5935 23.1094 14.6526 -31.3091 20.4411
# 2 -2.5935 47.4850 10.4346 -5.6655 4.2983 8.7846
# 3 23.1094 10.4346 57.1890 7.9936 -17.8587 2.1484
# 4 14.6526 -5.6655 7.9936 32.9677 -3.3633 0.9763
# 5 -31.3091 4.2983 -17.8587 -3.3633 42.2938 3.4979
# 6 20.4411 8.7846 2.1484 0.9763 3.4979 34.8817
#
#
#
# Elastic Compliance Matrix: (Units=1/GPa)
#
#
# Indices 1 2 3 4 5 6 
#
# 1 0.018433 0.002004 -0.002534 -0.005549 0.012948 -0.012294
# 2 0.002004 0.024739 -0.006650 0.004882 -0.002885 -0.006842
# 3 -0.002534 -0.006650 0.022840 -0.004773 0.007975 0.001086
# 4 -0.005549 0.004882 -0.004773 0.034331 -0.004035 0.001760
# 5 0.012948 -0.002885 0.007975 -0.004035 0.037478 -0.010998
# 6 -0.012294 -0.006842 0.001086 0.001760 -0.010998 0.038582
#
#
# Mechanical properties :
#
#
# Convention : Reuss Voigt Hill
#
# Bulk Modulus (GPa) = 19.35988 29.36880 24.36434
# Shear Modulus (GPa) = 24.04066 33.45981 28.75024
#
# Velocity S-wave (km/s) = 3.24197 3.82470 3.54533
# Velocity P-wave (km/s) = 4.74107 5.68720 5.23555
#
# Compressibility (1/GPa) = 0.05165322
#
# Stress axis : x y z
#
# Youngs Moduli (GPa) = 54.25020 40.42151 43.78342
#
# Poissons Ratio (x) = -0.08099 0.11093
# Poissons Ratio (y) = -0.10870 0.29114
# Poissons Ratio (z) = 0.13744 0.26879
#
# Static dielectric constant tensor:
#      x y z
#    x 1.918060 -0.066480 -0.030860 
#    y -0.066480 1.982820 -0.033330 
#    z -0.030860 -0.033330 1.943280 
# 
# From -- ./inp_files/66332.got.cif
#   From: 2010.05.17/outbox.cif.g08.bks.cpg/sg2_34_cif.got.tgz:66332.got - 2010.06.03 11:33:40.
