data_PCOD9104110
_publ_section_title
;
Structure prediction by ZEFSAII (Michael W. Deem and Ramdas Pophale) SiO2 
 PCOD9104110
Probable space group: P -1
;
_chemical_formula_sum "Si O2"
_cell_formula_units_Z 16
_cell_length_a 15.661569
_cell_length_b 12.342597
_cell_length_c 7.888700
_cell_angle_alpha 116.857285
_cell_angle_beta 91.174109
_cell_angle_gamma 134.079120
_cell_volume 833.386266
_symmetry_space_group_name_H-M "P -1"
_symmetry_group_IT_number 2
_symmetry_cell_setting 'triclinic'
loop_
_space_group_symop_operation_xyz
x,y,z
-x,-y,-z
loop_
_atom_site_type_symbol
_atom_site_label
_atom_site_fract_x
_atom_site_fract_y
_atom_site_fract_z
Si Si1 0.274849 0.275748 0.867989
Si Si2 0.527697 0.575633 0.311603
Si Si3 0.198894 0.458045 0.876990
Si Si4 0.793094 0.157641 0.153816
Si Si5 0.491222 0.284930 0.287525
Si Si6 0.355216 0.765924 0.839926
Si Si7 0.923102 0.163119 0.472442
Si Si8 0.037818 0.678517 0.070792
O O1 0.376174 0.317401 0.773226
O O2 0.242065 0.370987 0.860218
O O3 0.141549 0.040722 0.713513
O O4 0.365768 0.395452 0.124295
O O5 0.548788 0.470198 0.329728
O O6 0.556838 0.720679 0.536641
O O7 0.321226 0.680544 0.968592
O O8 0.088498 0.336448 0.630141
O O9 0.108949 0.413406 0.995418
O O10 0.759039 0.262970 0.238307
O O11 0.873837 0.197818 0.348208
O O12 0.881288 0.232425 0.039183
O O13 0.644164 0.920738 0.960070
O O14 0.611300 0.318476 0.322488
O O15 0.500000 0.000000 0.000000
O O16 0.879571 0.165833 0.658759
O O17 0.000000 0.500000 0.000000
#
# Coordination Sequence:
#
# PCOD9104110 Si02
#       8
#     2   2   2   2   2   2   2   2
#     4  11  20  41  59  89 124 164 206 251 311 368
#     4  10  21  34  65  82 124 160 203 255 305 363
#     4  10  22  40  59  90 125 160 205 252 306 363
#     4  11  20  42  64  88 126 159 210 246 311 372
#     4  10  20  39  57  94 114 158 204 260 305 355
#     4  10  21  37  65  86 120 161 200 258 308 359
#     4  10  23  38  64  91 122 171 201 248 311 368
#     4  10  22  39  60  90 125 164 202 251 301 366
#
# _framework density 19.198779999999999
#
# number of rings (size 3 to 8) (size 9 to 14) (size 15 to 20)
#    0.750    1.000    3.750    1.125    0.000    2.000 
#    4.500    0.625    0.000    4.500    0.000    0.000 
#    0.000    0.000    0.000    0.000    0.000    0.000 
#
# Total GULP energy -89123.504742 kJ/mol
# GULP energy per Si atom -5570.219046 kJ/mol
# Density = 1.915508 g / cm^3
# Si number density = 19.198780 Si / 1000 Ang^3
#
#
#
# Elastic Constant Matrix: (Units=GPa)
#
#
# Indices 1 2 3 4 5 6 
#
# 1 119.1776 30.3797 31.9034 -8.7977 -12.2170 -15.0751
# 2 30.3797 69.1098 -0.0797 -2.2429 1.6213 -1.2266
# 3 31.9034 -0.0797 49.5153 -2.8355 1.3345 -7.9354
# 4 -8.7977 -2.2429 -2.8355 27.0180 -1.1381 -0.2585
# 5 -12.2170 1.6213 1.3345 -1.1381 16.6208 0.2177
# 6 -15.0751 -1.2266 -7.9354 -0.2585 0.2177 33.7616
#
#
#
# Elastic Compliance Matrix: (Units=1/GPa)
#
#
# Indices 1 2 3 4 5 6 
#
# 1 0.014416 -0.006436 -0.008752 0.003792 0.012133 0.004097
# 2 -0.006436 0.017424 0.004131 -0.000513 -0.006781 -0.001230
# 3 -0.008752 0.004131 0.026484 -0.000083 -0.009002 0.002524
# 4 0.003792 -0.000513 -0.000083 0.038444 0.005451 0.001914
# 5 0.012133 -0.006781 -0.009002 0.005451 0.070807 0.002641
# 6 0.004097 -0.001230 0.002524 0.001914 0.002641 0.031995
#
#
# Mechanical properties :
#
#
# Convention : Reuss Voigt Hill
#
# Bulk Modulus (GPa) = 27.61647 40.24549 33.93098
# Shear Modulus (GPa) = 21.38990 27.18672 24.28831
#
# Velocity S-wave (km/s) = 3.34148 3.76715 3.56068
# Velocity P-wave (km/s) = 5.41323 6.31901 5.88357
#
# Compressibility (1/GPa) = 0.03621027
#
# Stress axis : x y z
#
# Youngs Moduli (GPa) = 69.36542 57.39092 37.75849
#
# Poissons Ratio (x) = 0.36938 0.33047
# Poissons Ratio (y) = 0.44645 -0.15599
# Poissons Ratio (z) = 0.60711 -0.23710
#
# Static dielectric constant tensor:
#      x y z
#    x 1.676630 0.022180 -0.004480 
#    y 0.022180 1.692450 0.017310 
#    z -0.004480 0.017310 1.677570 
# 
# From -- ./inp_files/305728.got.cif
#   From: 2010.05.17/outbox.cif.g08.bks.cpg/sg2_153_cif.got.tgz:305728.got - 2010.06.03 11:33:40.
