data_PCOD9104153
_publ_section_title
;
Structure prediction by ZEFSAII (Michael W. Deem and Ramdas Pophale) SiO2 
 PCOD9104153
Probable space group: P -1
;
_chemical_formula_sum "Si O2"
_cell_formula_units_Z 16
_cell_length_a 18.775055
_cell_length_b 7.602104
_cell_length_c 8.785689
_cell_angle_alpha 89.010389
_cell_angle_beta 131.079579
_cell_angle_gamma 125.552057
_cell_volume 618.194514
_symmetry_space_group_name_H-M "P -1"
_symmetry_group_IT_number 2
_symmetry_cell_setting 'triclinic'
loop_
_space_group_symop_operation_xyz
x,y,z
-x,-y,-z
loop_
_atom_site_type_symbol
_atom_site_label
_atom_site_fract_x
_atom_site_fract_y
_atom_site_fract_z
Si Si1 0.241162 0.824248 0.024335
Si Si2 0.653941 0.327074 0.636467
Si Si3 0.928924 0.282820 0.712292
Si Si4 0.394166 0.119749 0.741350
Si Si5 0.053276 0.256532 0.139866
Si Si6 0.660894 0.364157 0.987414
Si Si7 0.536190 0.669195 0.820145
Si Si8 0.107400 0.138961 0.509253
O O1 0.094642 0.932857 0.412051
O O2 0.257520 0.707272 0.909129
O O3 0.074857 0.576156 0.846105
O O4 0.349539 0.880981 0.300116
O O5 0.794920 0.509247 0.730944
O O6 0.554531 0.311101 0.396230
O O7 0.672697 0.445069 0.827705
O O8 0.775068 0.161116 0.494863
O O9 0.952499 0.258657 0.921139
O O10 0.443270 0.359386 0.705503
O O11 0.497300 0.114251 0.818541
O O12 0.434130 0.227980 0.967673
O O13 0.066998 0.238139 0.335556
O O14 0.000000 0.000000 0.000000
O O15 0.735169 0.599788 0.206280
O O16 0.689456 0.896888 0.940324
O O17 0.000000 0.000000 0.500000
#
# Coordination Sequence:
#
# PCOD9104153 Si02
#       8
#     2   2   2   2   2   2   2   2
#     4   9  21  39  67  86 114 162 212 251 291 365
#     4   9  19  37  61  90 113 157 209 253 294 352
#     4  10  20  39  58  87 121 163 203 241 307 366
#     4  11  24  37  60  92 128 160 194 252 310 367
#     4   9  16  30  55  84 116 155 197 250 294 350
#     4  10  21  38  59  95 120 152 204 259 302 349
#     4  11  21  40  61  88 122 165 203 243 306 373
#     4  11  17  31  59  91 122 149 206 260 293 348
#
# _framework density 25.881824999999999
#
# number of rings (size 3 to 8) (size 9 to 14) (size 15 to 20)
#    0.750    1.250    1.250    4.875    0.000    1.500 
#    0.000    1.250    0.000    2.250    0.000    0.000 
#    0.000    0.000    0.000    0.000    0.000    0.000 
#
# Total GULP energy -89418.053545 kJ/mol
# GULP energy per Si atom -5588.628347 kJ/mol
# Density = 2.582292 g / cm^3
# Si number density = 25.881825 Si / 1000 Ang^3
#
#
#
# Elastic Constant Matrix: (Units=GPa)
#
#
# Indices 1 2 3 4 5 6 
#
# 1 118.5859 38.4957 31.7510 3.6326 0.0942 3.6575
# 2 38.4957 146.2911 38.8983 -18.5412 -10.8821 -0.1653
# 3 31.7510 38.8983 119.5173 -4.4725 -9.3431 14.0627
# 4 3.6326 -18.5412 -4.4725 27.0977 14.0190 -8.5394
# 5 0.0942 -10.8821 -9.3431 14.0190 23.3024 0.4736
# 6 3.6575 -0.1653 14.0627 -8.5394 0.4736 39.3956
#
#
#
# Elastic Compliance Matrix: (Units=1/GPa)
#
#
# Indices 1 2 3 4 5 6 
#
# 1 0.009912 -0.002618 -0.001755 -0.004034 0.000485 -0.001185
# 2 -0.002618 0.009048 -0.002409 0.007813 -0.001488 0.002852
# 3 -0.001755 -0.002409 0.010432 -0.003982 0.005552 -0.004501
# 4 -0.004034 0.007813 -0.003982 0.067637 -0.038967 0.016958
# 5 0.000485 -0.001488 0.005552 -0.038967 0.068116 -0.011298
# 6 -0.001185 0.002852 -0.004501 0.016958 -0.011298 0.030924
#
#
# Mechanical properties :
#
#
# Convention : Reuss Voigt Hill
#
# Bulk Modulus (GPa) = 63.17852 66.96492 65.07172
# Shear Modulus (GPa) = 23.26572 36.30908 29.78740
#
# Velocity S-wave (km/s) = 3.00145 3.74957 3.39617
# Velocity P-wave (km/s) = 6.03945 6.68395 6.36986
#
# Compressibility (1/GPa) = 0.01582816
#
# Stress axis : x y z
#
# Youngs Moduli (GPa) = 100.88502 110.52225 95.86205
#
# Poissons Ratio (x) = 0.28939 0.16821
# Poissons Ratio (y) = 0.26416 0.23091
# Poissons Ratio (z) = 0.17703 0.26622
#
# Static dielectric constant tensor:
#      x y z
#    x 2.033000 -0.050840 0.012340 
#    y -0.050840 1.998930 0.052080 
#    z 0.012340 0.052080 2.122680 
# 
# From -- ./inp_files/353803.got.cif
#   From: 2010.05.17/outbox.cif.g08.bks.cpg/sg2_177_cif.got.tgz:353803.got - 2010.06.03 11:33:40.
