data_PCOD9104014
_publ_section_title
;
Structure prediction by ZEFSAII (Michael W. Deem and Ramdas Pophale) SiO2 
 PCOD9104014
Probable space group: P -1
;
_chemical_formula_sum "Si O2"
_cell_formula_units_Z 15
_cell_length_a 16.025570
_cell_length_b 5.692902
_cell_length_c 9.115040
_cell_angle_alpha 126.002515
_cell_angle_beta 106.148321
_cell_angle_gamma 56.841989
_cell_volume 562.040936
_symmetry_space_group_name_H-M "P -1"
_symmetry_group_IT_number 2
_symmetry_cell_setting 'triclinic'
loop_
_space_group_symop_operation_xyz
x,y,z
-x,-y,-z
loop_
_atom_site_type_symbol
_atom_site_label
_atom_site_fract_x
_atom_site_fract_y
_atom_site_fract_z
Si Si1 0.500000 0.000000 0.000000
Si Si2 0.723687 0.130009 0.470033
Si Si3 0.816822 0.765524 0.652054
Si Si4 0.918204 0.923867 0.998851
Si Si5 0.559822 0.497499 0.336307
Si Si6 0.307005 0.489622 0.851942
Si Si7 0.612799 0.109457 0.811279
Si Si8 0.913327 0.060789 0.366648
O O1 0.430481 0.955367 0.086606
O O2 0.533972 0.203562 0.200300
O O3 0.763310 0.087874 0.640020
O O4 0.699690 0.837566 0.305332
O O5 0.616697 0.453292 0.500967
O O6 0.820642 0.058715 0.398152
O O7 0.865807 0.454687 0.451751
O O8 0.723215 0.812725 0.719814
O O9 0.901807 0.710911 0.787912
O O10 0.805013 0.233055 0.062572
O O11 0.942691 0.845777 0.154101
O O12 0.000000 0.000000 0.000000
O O13 0.648356 0.441125 0.246753
O O14 0.460685 0.807965 0.333150
O O15 0.374736 0.549628 0.031152
O O16 0.000000 0.000000 0.500000
#
# Coordination Sequence:
#
# PCOD9104014 Si02
#       8
#     1   2   2   2   2   2   2   2
#     4  10  20  38  72 104 150 202 238 308 364 426
#     4  12  23  44  75 100 152 201 234 309 376 425
#     4  11  27  49  71 111 151 190 249 307 363 456
#     4  11  24  48  77 105 144 193 245 308 377 439
#     4  11  20  39  68 109 145 195 247 294 367 431
#     4  10  21  43  69 103 151 192 240 303 364 432
#     4  10  23  42  70 113 149 194 254 297 365 444
#     4  12  28  50  74 109 147 191 252 315 371 437
#
# _framework density 26.688448000000001
#
# number of rings (size 3 to 8) (size 9 to 14) (size 15 to 20)
#    0.000    1.067    2.667    4.000    1.867    3.200 
#    4.800    4.667    0.000    2.400    0.000    0.000 
#    0.000    0.000    0.000    0.000    0.000    0.000 
#
# Total GULP energy -83660.108428 kJ/mol
# GULP energy per Si atom -5577.340562 kJ/mol
# Density = 2.662770 g / cm^3
# Si number density = 26.688448 Si / 1000 Ang^3
#
#
#
# Elastic Constant Matrix: (Units=GPa)
#
#
# Indices 1 2 3 4 5 6 
#
# 1 161.3126 42.1207 56.5779 -14.4464 32.4676 -0.0354
# 2 42.1207 72.6601 54.3011 -32.5383 22.8676 -13.7150
# 3 56.5779 54.3011 184.0611 -32.5508 20.6679 -3.5023
# 4 -14.4464 -32.5383 -32.5508 61.6637 -11.3313 7.2046
# 5 32.4676 22.8676 20.6679 -11.3313 57.3042 -2.2478
# 6 -0.0354 -13.7150 -3.5023 7.2046 -2.2478 33.6861
#
#
#
# Elastic Compliance Matrix: (Units=1/GPa)
#
#
# Indices 1 2 3 4 5 6 
#
# 1 0.008086 -0.003512 -0.001327 -0.001024 -0.002964 -0.001538
# 2 -0.003512 0.025974 -0.004344 0.008790 -0.004760 0.007922
# 3 -0.001327 -0.004344 0.007344 0.001440 0.000070 -0.001310
# 4 -0.001024 0.008790 0.001440 0.021620 0.000795 -0.000844
# 5 -0.002964 -0.004760 0.000070 0.000795 0.021135 -0.000694
# 6 -0.001538 0.007922 -0.001310 -0.000844 -0.000694 0.032908
#
#
# Mechanical properties :
#
#
# Convention : Reuss Voigt Hill
#
# Bulk Modulus (GPa) = 43.40335 80.44815 61.92575
# Shear Modulus (GPa) = 34.93767 48.19976 41.56871
#
# Velocity S-wave (km/s) = 3.62206 4.25433 3.95087
# Velocity P-wave (km/s) = 5.81298 7.37166 6.63823
#
# Compressibility (1/GPa) = 0.02303969
#
# Stress axis : x y z
#
# Youngs Moduli (GPa) = 123.66873 38.49946 136.16148
#
# Poissons Ratio (x) = 0.13520 0.18070
# Poissons Ratio (y) = 0.43429 0.59144
# Poissons Ratio (z) = 0.16412 0.16723
#
# Static dielectric constant tensor:
#      x y z
#    x 2.002430 -0.110610 0.014040 
#    y -0.110610 0.525310 0.536020 
#    z 0.014040 0.536020 2.041500 
# 
# From -- ./inp_files/289298.got.cif
#   From: 2010.05.17/outbox.cif.g08.bks.cpg/sg2_145_cif.got.tgz:289298.got - 2010.06.03 11:33:40.
