data_PCOD9104884
_publ_section_title
;
Structure prediction by ZEFSAII (Michael W. Deem and Ramdas Pophale) SiO2 
 PCOD9104884
Probable space group: P -1
;
_chemical_formula_sum "Si O2"
_cell_formula_units_Z 16
_cell_length_a 9.693820
_cell_length_b 19.599437
_cell_length_c 12.615515
_cell_angle_alpha 155.010269
_cell_angle_beta 129.843050
_cell_angle_gamma 59.001849
_cell_volume 761.339157
_symmetry_space_group_name_H-M "P -1"
_symmetry_group_IT_number 2
_symmetry_cell_setting 'triclinic'
loop_
_space_group_symop_operation_xyz
x,y,z
-x,-y,-z
loop_
_atom_site_type_symbol
_atom_site_label
_atom_site_fract_x
_atom_site_fract_y
_atom_site_fract_z
Si Si1 0.668826 0.139289 0.232987
Si Si2 0.881828 0.227349 0.027491
Si Si3 0.746977 0.528897 0.374147
Si Si4 0.521202 0.681017 0.317727
Si Si5 0.163520 0.812664 0.396892
Si Si6 0.898551 0.838795 0.146071
Si Si7 0.209975 0.987369 0.112888
Si Si8 0.452422 0.407597 0.453490
O O1 0.822961 0.169200 0.443594
O O2 0.605522 0.312406 0.433632
O O3 0.500000 0.000000 0.000000
O O4 0.720607 0.082627 0.061890
O O5 0.774387 0.355347 0.096847
O O6 0.057959 0.353999 0.340850
O O7 0.950965 0.124529 0.822725
O O8 0.793307 0.123357 0.938577
O O9 0.636147 0.649608 0.432780
O O10 0.619556 0.471914 0.331935
O O11 0.330630 0.731645 0.326845
O O12 0.655048 0.836750 0.549229
O O13 0.500000 0.500000 0.000000
O O14 0.974740 0.739215 0.138487
O O15 0.173468 0.000269 0.625555
O O16 0.726285 0.730941 0.851880
O O17 0.000000 0.000000 0.000000
O O18 0.500000 0.500000 0.500000
#
# Coordination Sequence:
#
# PCOD9104884 Si02
#       8
#     2   2   2   2   2   2   2   2
#     4  12  21  41  71  95 131 177 229 276 326 407
#     4  10  21  39  66  97 132 173 229 280 331 402
#     4  10  20  39  62  93 132 177 215 270 344 395
#     4  12  24  42  65  97 137 178 215 280 353 402
#     4  11  22  41  69  94 129 182 225 267 344 409
#     4  10  22  41  66  96 133 180 223 278 342 400
#     4  12  23  40  69 106 128 174 243 281 323 407
#     4  11  21  38  64  96 129 171 224 273 328 400
#
# _framework density 21.015602000000001
#
# number of rings (size 3 to 8) (size 9 to 14) (size 15 to 20)
#    0.000    1.000    5.000    2.250    0.000    0.000 
#    2.250    6.875    0.000    0.000    0.000    0.000 
#    0.000    0.000    0.000    0.000    0.000    0.000 
#
# Total GULP energy -89112.688170 kJ/mol
# GULP energy per Si atom -5569.543011 kJ/mol
# Density = 2.096777 g / cm^3
# Si number density = 21.015602 Si / 1000 Ang^3
#
#
#
# Elastic Constant Matrix: (Units=GPa)
#
#
# Indices 1 2 3 4 5 6 
#
# 1 94.7987 30.8340 35.7957 19.6953 -18.8906 10.0609
# 2 30.8340 126.6248 18.3481 8.1134 -3.3406 -5.0427
# 3 35.7957 18.3481 57.7592 9.2848 -24.4512 -1.4211
# 4 19.6953 8.1134 9.2848 36.2083 -0.0939 -0.6737
# 5 -18.8906 -3.3406 -24.4512 -0.0939 22.0929 5.1342
# 6 10.0609 -5.0427 -1.4211 -0.6737 5.1342 49.8208
#
#
#
# Elastic Compliance Matrix: (Units=1/GPa)
#
#
# Indices 1 2 3 4 5 6 
#
# 1 0.017484 -0.003094 -0.003921 -0.007880 0.011325 -0.005229
# 2 -0.003094 0.009026 -0.003239 0.000514 -0.005329 0.002002
# 3 -0.003921 -0.003239 0.038460 -0.006950 0.039294 -0.002582
# 4 -0.007880 0.000514 -0.006950 0.033596 -0.015010 0.003446
# 5 0.011325 -0.005329 0.039294 -0.015010 0.100414 -0.012256
# 6 -0.005229 0.002002 -0.002582 0.003446 -0.012256 0.022567
#
#
# Mechanical properties :
#
#
# Convention : Reuss Voigt Hill
#
# Bulk Modulus (GPa) = 22.49066 49.90426 36.19746
# Shear Modulus (GPa) = 19.46464 34.57138 27.01801
#
# Velocity S-wave (km/s) = 3.04665 4.06030 3.58944
# Velocity P-wave (km/s) = 4.80638 6.76604 5.86858
#
# Compressibility (1/GPa) = 0.04446291
#
# Stress axis : x y z
#
# Youngs Moduli (GPa) = 57.19450 110.78735 26.00100
#
# Poissons Ratio (x) = 0.34278 0.10194
# Poissons Ratio (y) = 0.17696 0.08422
# Poissons Ratio (z) = 0.22424 0.35885
#
# Static dielectric constant tensor:
#      x y z
#    x 1.930040 -0.041170 0.011780 
#    y -0.041170 1.877080 -0.107490 
#    z 0.011780 -0.107490 1.802070 
# 
# From -- ./inp_files/402537.got.cif
#   From: 2010.05.17/outbox.cif.g08.bks.cpg/sg2_202_cif.got.tgz:402537.got - 2010.06.03 11:33:40.
