data_PCOD9104142
_publ_section_title
;
Structure prediction by ZEFSAII (Michael W. Deem and Ramdas Pophale) SiO2 
 PCOD9104142
Probable space group: P -1
;
_chemical_formula_sum "Si O2"
_cell_formula_units_Z 14
_cell_length_a 5.043019
_cell_length_b 5.428013
_cell_length_c 21.021328
_cell_angle_alpha 86.884153
_cell_angle_beta 95.827974
_cell_angle_gamma 90.614125
_cell_volume 571.600500
_symmetry_space_group_name_H-M "P -1"
_symmetry_group_IT_number 2
_symmetry_cell_setting 'triclinic'
loop_
_space_group_symop_operation_xyz
x,y,z
-x,-y,-z
loop_
_atom_site_type_symbol
_atom_site_label
_atom_site_fract_x
_atom_site_fract_y
_atom_site_fract_z
Si Si1 0.786893 0.279394 0.487467
Si Si2 0.822222 0.076285 0.054134
Si Si3 0.596083 0.566866 0.089608
Si Si4 0.559952 0.378374 0.604654
Si Si5 0.161683 0.987682 0.635937
Si Si6 0.300595 0.258204 0.300992
Si Si7 0.898016 0.635728 0.844744
O O1 0.686657 0.205407 0.556163
O O2 0.531578 0.392102 0.443549
O O3 0.881693 0.095489 0.437477
O O4 0.000000 0.500000 0.500000
O O5 0.624642 0.848673 0.064970
O O6 0.685064 0.348536 0.045169
O O7 0.013484 0.116127 0.119398
O O8 0.000000 0.000000 0.000000
O O9 0.311656 0.501947 0.112640
O O10 0.828431 0.519411 0.148961
O O11 0.739823 0.494329 0.661940
O O12 0.299762 0.253730 0.630106
O O13 0.397557 0.827348 0.677273
O O14 0.902373 0.942810 0.672330
O O15 0.234133 0.307992 0.226017
#
# Coordination Sequence:
#
# PCOD9104142 Si02
#       7
#     2   2   2   2   2   2   2
#     4  10  20  39  58  85 124 152 212 257 323 386
#     4  10  24  44  71 106 139 180 226 279 335 396
#     4  10  24  42  71  99 140 179 224 279 333 394
#     4  10  23  38  59  88 120 163 200 270 317 390
#     4  11  24  38  66  88 122 162 210 259 329 377
#     4  11  24  43  60  93 122 163 214 262 313 395
#     4  10  25  42  67  95 137 178 228 272 337 396
#
# _framework density 24.492632
#
# number of rings (size 3 to 8) (size 9 to 14) (size 15 to 20)
#    0.857    0.857    1.429    1.714    4.000    4.000 
#    0.000    0.000    0.000    0.000    0.000    0.000 
#    0.000    0.000    0.000    0.000    0.000    0.000 
#
# Total GULP energy -78282.948418 kJ/mol
# GULP energy per Si atom -5591.639173 kJ/mol
# Density = 2.443689 g / cm^3
# Si number density = 24.492632 Si / 1000 Ang^3
#
#
#
# Elastic Constant Matrix: (Units=GPa)
#
#
# Indices 1 2 3 4 5 6 
#
# 1 82.8406 26.0655 8.3116 7.9719 3.3474 6.2005
# 2 26.0655 134.6294 38.9510 -0.4721 -5.8047 19.8514
# 3 8.3116 38.9510 117.8663 17.6165 15.0966 9.1210
# 4 7.9719 -0.4721 17.6165 25.6037 12.0422 -2.9212
# 5 3.3474 -5.8047 15.0966 12.0422 34.5978 -5.6245
# 6 6.2005 19.8514 9.1210 -2.9212 -5.6245 55.3311
#
#
#
# Elastic Compliance Matrix: (Units=1/GPa)
#
#
# Indices 1 2 3 4 5 6 
#
# 1 0.013387 -0.002726 0.000799 -0.004563 -0.000669 -0.000963
# 2 -0.002726 0.009335 -0.003310 0.002005 0.002224 -0.002166
# 3 0.000799 -0.003310 0.011034 -0.006448 -0.003432 -0.001410
# 4 -0.004563 0.002005 -0.006448 0.051828 -0.014097 0.002158
# 5 -0.000669 0.002224 -0.003432 -0.014097 0.036197 0.002778
# 6 -0.000963 -0.002166 -0.001410 0.002158 0.002778 0.019587
#
#
# Mechanical properties :
#
#
# Convention : Reuss Voigt Hill
#
# Bulk Modulus (GPa) = 42.94868 53.55472 48.25170
# Shear Modulus (GPa) = 31.32766 40.57373 35.95069
#
# Velocity S-wave (km/s) = 3.58028 4.07451 3.83537
# Velocity P-wave (km/s) = 5.88767 6.63692 6.27349
#
# Compressibility (1/GPa) = 0.02328360
#
# Stress axis : x y z
#
# Youngs Moduli (GPa) = 74.69839 107.11800 90.62784
#
# Poissons Ratio (x) = 0.29200 -0.07242
# Poissons Ratio (y) = 0.20363 0.29995
# Poissons Ratio (z) = -0.05969 0.35453
#
# Static dielectric constant tensor:
#      x y z
#    x 2.039710 -0.109110 0.032200 
#    y -0.109110 2.016690 0.015980 
#    z 0.032200 0.015980 1.928100 
# 
# From -- ./inp_files/10011.got.cif
#   From: 2010.05.17/outbox.cif.g08.bks.cpg/sg2_6_cif.got.tgz:10011.got - 2010.06.03 11:33:40.
