data_PCOD9104898
_publ_section_title
;
Structure prediction by ZEFSAII (Michael W. Deem and Ramdas Pophale) SiO2 
 PCOD9104898
Probable space group: P -1
;
_chemical_formula_sum "Si O2"
_cell_formula_units_Z 16
_cell_length_a 7.486209
_cell_length_b 9.599028
_cell_length_c 14.682947
_cell_angle_alpha 139.610534
_cell_angle_beta 64.679926
_cell_angle_gamma 106.447233
_cell_volume 616.379103
_symmetry_space_group_name_H-M "P -1"
_symmetry_group_IT_number 2
_symmetry_cell_setting 'triclinic'
loop_
_space_group_symop_operation_xyz
x,y,z
-x,-y,-z
loop_
_atom_site_type_symbol
_atom_site_label
_atom_site_fract_x
_atom_site_fract_y
_atom_site_fract_z
Si Si1 0.836107 0.537254 0.681561
Si Si2 0.520732 0.659431 0.488525
Si Si3 0.017206 0.817048 0.230960
Si Si4 0.356645 0.151792 0.999727
Si Si5 0.795350 0.764601 0.619041
Si Si6 0.307837 0.698064 0.863965
Si Si7 0.860780 0.644107 0.003836
Si Si8 0.306255 0.879280 0.495145
O O1 0.834015 0.732378 0.848105
O O2 0.738638 0.646831 0.666003
O O3 0.719437 0.348452 0.659508
O O4 0.040474 0.410829 0.545806
O O5 0.500000 0.500000 0.500000
O O6 0.652722 0.822561 0.594154
O O7 0.633785 0.522667 0.314746
O O8 0.329414 0.788903 0.550297
O O9 0.151236 0.611924 0.131947
O O10 0.879166 0.954320 0.400053
O O11 0.867637 0.713038 0.141632
O O12 0.125774 0.009392 0.256380
O O13 0.543826 0.246997 0.057505
O O14 0.317001 0.225882 0.943535
O O15 0.343751 0.898896 0.889637
O O16 0.081470 0.692942 0.943794
O O17 0.500000 0.000000 0.500000
#
# Coordination Sequence:
#
# PCOD9104898 Si02
#       8
#     2   2   2   2   2   2   2   2
#     4  10  20  39  62  94 131 168 219 277 322 397
#     4  12  23  40  67 101 134 172 223 281 337 401
#     4  10  25  45  65  97 130 182 224 275 331 408
#     4  11  23  40  67  97 134 175 218 278 337 392
#     4  10  21  39  66  94 131 172 223 274 335 394
#     4  11  24  41  67 103 132 174 227 280 329 409
#     4  11  24  46  67  92 139 178 227 273 341 403
#     4  11  23  41  67  93 137 170 214 276 334 390
#
# _framework density 25.958051000000001
#
# number of rings (size 3 to 8) (size 9 to 14) (size 15 to 20)
#    0.000    1.250    2.500    2.625    1.750    2.000 
#    0.000    4.375    0.000    0.000    0.000    0.000 
#    0.000    0.000    0.000    0.000    0.000    0.000 
#
# Total GULP energy -89395.769843 kJ/mol
# GULP energy per Si atom -5587.235615 kJ/mol
# Density = 2.589897 g / cm^3
# Si number density = 25.958051 Si / 1000 Ang^3
#
#
#
# Elastic Constant Matrix: (Units=GPa)
#
#
# Indices 1 2 3 4 5 6 
#
# 1 65.7135 19.8589 16.4846 4.0421 4.5427 -27.4477
# 2 19.8589 80.1277 13.1788 31.7269 4.3214 0.7422
# 3 16.4846 13.1788 107.1584 24.7919 -14.0266 -3.8250
# 4 4.0421 31.7269 24.7919 43.3609 -9.2713 0.5812
# 5 4.5427 4.3214 -14.0266 -9.2713 34.5646 -5.4880
# 6 -27.4477 0.7422 -3.8250 0.5812 -5.4880 43.7165
#
#
#
# Elastic Compliance Matrix: (Units=1/GPa)
#
#
# Indices 1 2 3 4 5 6 
#
# 1 0.024362 -0.007642 -0.003436 0.005109 0.000123 0.015072
# 2 -0.007642 0.021269 0.001436 -0.016990 -0.006523 -0.005626
# 3 -0.003436 0.001436 0.011613 -0.006703 0.003077 -0.000690
# 4 0.005109 -0.016990 -0.006703 0.041006 0.010313 0.003659
# 5 0.000123 -0.006523 0.003077 0.010313 0.034484 0.004649
# 6 0.015072 -0.005626 -0.000690 0.003659 0.004649 0.032908
#
#
# Mechanical properties :
#
#
# Convention : Reuss Voigt Hill
#
# Bulk Modulus (GPa) = 26.34333 39.11602 32.72967
# Shear Modulus (GPa) = 25.30640 37.89357 31.59999
#
# Velocity S-wave (km/s) = 3.12572 3.82488 3.49284
# Velocity P-wave (km/s) = 4.81636 5.88285 5.37611
#
# Compressibility (1/GPa) = 0.03796027
#
# Stress axis : x y z
#
# Youngs Moduli (GPa) = 41.04818 47.01627 86.11155
#
# Poissons Ratio (x) = 0.35930 0.29586
# Poissons Ratio (y) = 0.31369 -0.12366
# Poissons Ratio (z) = 0.14103 -0.06752
#
# Static dielectric constant tensor:
#      x y z
#    x 2.230910 0.080980 0.062460 
#    y 0.080980 2.073860 -0.007550 
#    z 0.062460 -0.007550 2.025930 
# 
# From -- ./inp_files/495806.got.cif
#   From: 2010.05.17/outbox.cif.g08.bks.cpg/sg2_248_cif.got.tgz:495806.got - 2010.06.03 11:33:40.
