data_PCOD9104876
_publ_section_title
;
Structure prediction by ZEFSAII (Michael W. Deem and Ramdas Pophale) SiO2 
 PCOD9104876
Probable space group: P -1
;
_chemical_formula_sum "Si O2"
_cell_formula_units_Z 12
_cell_length_a 12.936734
_cell_length_b 8.190824
_cell_length_c 10.046814
_cell_angle_alpha 137.005058
_cell_angle_beta 42.337347
_cell_angle_gamma 111.462126
_cell_volume 452.157663
_symmetry_space_group_name_H-M "P -1"
_symmetry_group_IT_number 2
_symmetry_cell_setting 'triclinic'
loop_
_space_group_symop_operation_xyz
x,y,z
-x,-y,-z
loop_
_atom_site_type_symbol
_atom_site_label
_atom_site_fract_x
_atom_site_fract_y
_atom_site_fract_z
Si Si1 0.544958 0.619126 0.840874
Si Si2 0.991325 0.508921 0.819360
Si Si3 0.440925 0.858801 0.801646
Si Si4 0.073027 0.860569 0.159491
Si Si5 0.390169 0.276685 0.710785
Si Si6 0.105176 0.762737 0.660407
O O1 0.542043 0.731722 0.762025
O O2 0.394596 0.520654 0.936232
O O3 0.700882 0.357477 0.567363
O O4 0.550879 0.858617 0.061467
O O5 0.999212 0.234072 0.699874
O O6 0.053939 0.531880 0.626338
O O7 0.797178 0.690701 0.114754
O O8 0.085986 0.626814 0.903351
O O9 0.527502 0.703175 0.496266
O O10 0.252507 0.877906 0.009731
O O11 0.947438 0.117506 0.362000
O O12 0.500000 0.000000 0.500000
O O13 0.000000 0.000000 0.000000
#
# Coordination Sequence:
#
# PCOD9104876 Si02
#       6
#     2   2   2   2   2   2
#     4  11  25  45  66  99 134 178 223 271 337 404
#     4  10  21  35  65  99 127 165 227 274 328 396
#     4  11  25  44  69  94 136 181 220 271 337 403
#     4  10  20  39  62  93 126 175 216 267 334 384
#     4  12  23  41  71  99 133 175 221 282 335 394
#     4  10  21  40  64  94 131 170 224 270 329 396
#
# _framework density 26.539415999999999
#
# number of rings (size 3 to 8) (size 9 to 14) (size 15 to 20)
#    0.000    1.333    1.667    5.500    7.000    1.333 
#    0.000    2.500    0.000    0.000    0.000    0.000 
#    0.000    0.000    0.000    0.000    0.000    0.000 
#
# Total GULP energy -67222.102600 kJ/mol
# GULP energy per Si atom -5601.841883 kJ/mol
# Density = 2.647901 g / cm^3
# Si number density = 26.539416 Si / 1000 Ang^3
#
#
#
# Elastic Constant Matrix: (Units=GPa)
#
#
# Indices 1 2 3 4 5 6 
#
# 1 98.7927 57.5582 41.2727 13.7610 -26.9874 -9.4473
# 2 57.5582 151.2007 9.3888 10.8658 6.6940 -9.7491
# 3 41.2727 9.3888 69.9333 11.0142 -11.8060 8.4979
# 4 13.7610 10.8658 11.0142 50.3801 4.5415 5.6027
# 5 -26.9874 6.6940 -11.8060 4.5415 37.8545 19.5146
# 6 -9.4473 -9.7491 8.4979 5.6027 19.5146 75.7319
#
#
#
# Elastic Compliance Matrix: (Units=1/GPa)
#
#
# Indices 1 2 3 4 5 6 
#
# 1 0.024912 -0.009445 -0.009677 -0.004095 0.017543 -0.001240
# 2 -0.009445 0.010588 0.002287 0.000366 -0.009093 0.002244
# 3 -0.009677 0.002287 0.020628 -0.002086 0.001112 -0.003360
# 4 -0.004095 0.000366 -0.002086 0.021927 -0.006125 -0.000274
# 5 0.017543 -0.009093 0.001112 -0.006125 0.047188 -0.010813
# 6 -0.001240 0.002244 -0.003360 -0.000274 -0.010813 0.016522
#
#
# Mechanical properties :
#
#
# Convention : Reuss Voigt Hill
#
# Bulk Modulus (GPa) = 44.52686 59.59623 52.06155
# Shear Modulus (GPa) = 27.33432 46.90711 37.12071
#
# Velocity S-wave (km/s) = 3.21277 4.20867 3.74398
# Velocity P-wave (km/s) = 5.52961 6.79129 6.19267
#
# Compressibility (1/GPa) = 0.02245835
#
# Stress axis : x y z
#
# Youngs Moduli (GPa) = 40.14202 94.44669 48.47770
#
# Poissons Ratio (x) = 0.89201 0.46912
# Poissons Ratio (y) = 0.37912 -0.11086
# Poissons Ratio (z) = 0.38845 -0.21599
#
# Static dielectric constant tensor:
#      x y z
#    x 2.192390 0.054060 0.081740 
#    y 0.054060 2.148600 0.065370 
#    z 0.081740 0.065370 2.028250 
# 
# From -- ./inp_files/180518.got.cif
#   From: 2010.05.17/outbox.cif.g08.bks.cpg/sg2_91_cif.got.tgz:180518.got - 2010.06.03 11:33:40.
