data_PCOD9104445
_publ_section_title
;
Structure prediction by ZEFSAII (Michael W. Deem and Ramdas Pophale) SiO2 
 PCOD9104445
Probable space group: P -1
;
_chemical_formula_sum "Si O2"
_cell_formula_units_Z 16
_cell_length_a 9.655025
_cell_length_b 7.947045
_cell_length_c 13.615480
_cell_angle_alpha 123.630529
_cell_angle_beta 132.953800
_cell_angle_gamma 83.530280
_cell_volume 573.444234
_symmetry_space_group_name_H-M "P -1"
_symmetry_group_IT_number 2
_symmetry_cell_setting 'triclinic'
loop_
_space_group_symop_operation_xyz
x,y,z
-x,-y,-z
loop_
_atom_site_type_symbol
_atom_site_label
_atom_site_fract_x
_atom_site_fract_y
_atom_site_fract_z
Si Si1 0.317860 0.564396 0.874602
Si Si2 0.735700 0.992275 0.018001
Si Si3 0.189325 0.739733 0.183529
Si Si4 0.188529 0.264420 0.303918
Si Si5 0.629730 0.269419 0.541006
Si Si6 0.505187 0.931283 0.225137
Si Si7 0.899786 0.847349 0.223518
Si Si8 0.876025 0.652310 0.477724
O O1 0.299533 0.443386 0.722236
O O2 0.162857 0.368803 0.808881
O O3 0.245697 0.758910 0.870974
O O4 0.506208 0.725836 0.093615
O O5 0.722823 0.844453 0.058417
O O6 0.965584 0.057681 0.104922
O O7 0.538971 0.909695 0.823978
O O8 0.370962 0.752892 0.349906
O O9 0.297084 0.810094 0.152860
O O10 0.085064 0.860555 0.243063
O O11 0.000000 0.500000 0.000000
O O12 0.400342 0.236017 0.384039
O O13 0.210317 0.477404 0.321017
O O14 0.199430 0.334472 0.445293
O O15 0.672142 0.092307 0.436086
O O16 0.970648 0.086541 0.388309
O O17 0.000000 0.500000 0.500000
#
# Coordination Sequence:
#
# PCOD9104445 Si02
#       8
#     2   2   2   2   2   2   2   2
#     4  10  20  39  60  97 133 170 221 278 313 388
#     4   9  20  39  62  95 131 167 227 258 319 392
#     4  12  23  40  67  97 134 168 225 281 328 406
#     4  10  21  40  64  97 131 180 218 271 342 381
#     4  11  24  40  63  98 137 172 217 277 338 406
#     4  10  21  39  60  93 137 173 210 277 326 387
#     4  11  21  36  68  99 124 179 216 275 340 368
#     4  11  20  39  67  97 136 171 230 279 311 397
#
# _framework density 27.901579999999999
#
# number of rings (size 3 to 8) (size 9 to 14) (size 15 to 20)
#    0.750    0.750    3.750    3.750    0.000    4.000 
#    0.000    0.625    0.000    3.000    0.000    0.000 
#    0.000    0.000    0.000    0.000    0.000    0.000 
#
# Total GULP energy -89378.395260 kJ/mol
# GULP energy per Si atom -5586.149704 kJ/mol
# Density = 2.783807 g / cm^3
# Si number density = 27.901580 Si / 1000 Ang^3
#
#
#
# Elastic Constant Matrix: (Units=GPa)
#
#
# Indices 1 2 3 4 5 6 
#
# 1 87.1877 20.2318 10.6853 -0.5068 -27.5233 1.2088
# 2 20.2318 86.8812 30.1671 -4.4839 -12.7691 9.0346
# 3 10.6853 30.1671 137.7489 -3.6115 -23.8218 -12.1908
# 4 -0.5068 -4.4839 -3.6115 50.7324 2.6948 -6.0696
# 5 -27.5233 -12.7691 -23.8218 2.6948 48.9830 -5.5217
# 6 1.2088 9.0346 -12.1908 -6.0696 -5.5217 37.6045
#
#
#
# Elastic Compliance Matrix: (Units=1/GPa)
#
#
# Indices 1 2 3 4 5 6 
#
# 1 0.014525 -0.002727 0.001021 -0.000256 0.008150 0.001675
# 2 -0.002727 0.013692 -0.003138 0.000463 0.000019 -0.004142
# 3 0.001021 -0.003138 0.009081 0.000666 0.004638 0.004454
# 4 -0.000256 0.000463 0.000666 0.020216 -0.000438 0.003312
# 5 0.008150 0.000019 0.004638 -0.000438 0.027872 0.005259
# 6 0.001675 -0.004142 0.004454 0.003312 0.005259 0.030284
#
#
# Mechanical properties :
#
#
# Convention : Reuss Voigt Hill
#
# Bulk Modulus (GPa) = 36.21658 48.22067 42.21863
# Shear Modulus (GPa) = 37.15760 44.17955 40.66858
#
# Velocity S-wave (km/s) = 3.65326 3.98352 3.82196
# Velocity P-wave (km/s) = 5.55008 6.20305 5.88563
#
# Compressibility (1/GPa) = 0.02761166
#
# Stress axis : x y z
#
# Youngs Moduli (GPa) = 68.84565 73.03592 110.11692
#
# Poissons Ratio (x) = 0.19914 -0.11248
# Poissons Ratio (y) = 0.18771 0.34557
# Poissons Ratio (z) = -0.07032 0.22920
#
# Static dielectric constant tensor:
#      x y z
#    x 2.208720 -0.105170 0.065320 
#    y -0.105170 2.284700 0.014480 
#    z 0.065320 0.014480 2.131520 
# 
# From -- ./inp_files/514632.got.cif
#   From: 2010.05.17/outbox.cif.g08.bks.cpg/sg2_258_cif.got.tgz:514632.got - 2010.06.03 11:33:40.
