data_PCOD9104007
_publ_section_title
;
Structure prediction by ZEFSAII (Michael W. Deem and Ramdas Pophale) SiO2 
 PCOD9104007
Probable space group: P -1
;
_chemical_formula_sum "Si O2"
_cell_formula_units_Z 16
_cell_length_a 17.317696
_cell_length_b 11.316229
_cell_length_c 8.723120
_cell_angle_alpha 93.929148
_cell_angle_beta 135.425893
_cell_angle_gamma 54.121526
_cell_volume 767.573097
_symmetry_space_group_name_H-M "P -1"
_symmetry_group_IT_number 2
_symmetry_cell_setting 'triclinic'
loop_
_space_group_symop_operation_xyz
x,y,z
-x,-y,-z
loop_
_atom_site_type_symbol
_atom_site_label
_atom_site_fract_x
_atom_site_fract_y
_atom_site_fract_z
Si Si1 0.563400 0.707321 0.920994
Si Si2 0.624548 0.986879 0.763578
Si Si3 0.378161 0.337451 0.643738
Si Si4 0.443862 0.563226 0.106193
Si Si5 0.905876 0.378764 0.963626
Si Si6 0.869590 0.592955 0.184420
Si Si7 0.243026 0.964853 0.309003
Si Si8 0.705992 0.317880 0.802802
O O1 0.625951 0.669535 0.180122
O O2 0.696491 0.669055 0.002888
O O3 0.558037 0.572842 0.862726
O O4 0.365955 0.899520 0.619692
O O5 0.500000 0.000000 0.500000
O O6 0.519580 0.127882 0.767998
O O7 0.663394 0.060399 0.709344
O O8 0.797717 0.776613 0.036803
O O9 0.436351 0.423080 0.690908
O O10 0.205604 0.467188 0.313946
O O11 0.279963 0.732088 0.001090
O O12 0.500000 0.500000 0.000000
O O13 0.798835 0.364178 0.899224
O O14 0.949834 0.444596 0.153092
O O15 0.065895 0.177831 0.101622
O O16 0.000000 0.500000 0.500000
O O17 0.226894 0.838808 0.234090
O O18 0.500000 0.500000 0.500000
#
# Coordination Sequence:
#
# PCOD9104007 Si02
#       8
#     2   2   2   2   2   2   2   2
#     4  11  23  44  70  97 134 176 220 271 340 399
#     4  12  24  46  69  93 130 179 234 266 332 403
#     4  11  23  42  72  99 131 176 220 273 334 402
#     4  10  20  38  72 102 127 166 221 269 331 397
#     4  12  25  43  67 103 137 173 224 278 332 393
#     4  12  28  46  67  95 132 179 228 279 329 389
#     4  12  25  41  69 105 134 175 221 276 334 398
#     4  12  19  42  73  97 135 177 218 267 337 405
#
# _framework density 20.844919000000001
#
# number of rings (size 3 to 8) (size 9 to 14) (size 15 to 20)
#    0.000    0.500    7.500    0.375    3.500    2.000 
#    0.000    0.000    0.000    4.500    0.000    0.000 
#    0.000    0.000    0.000    0.000    0.000    0.000 
#
# Total GULP energy -89122.366414 kJ/mol
# GULP energy per Si atom -5570.147901 kJ/mol
# Density = 2.079748 g / cm^3
# Si number density = 20.844919 Si / 1000 Ang^3
#
#
#
# Elastic Constant Matrix: (Units=GPa)
#
#
# Indices 1 2 3 4 5 6 
#
# 1 45.1008 -12.1835 -8.4389 6.2159 -9.8975 -6.9245
# 2 -12.1835 123.6603 38.3013 8.3677 -10.5665 -14.6012
# 3 -8.4389 38.3013 70.6857 5.2359 -21.7947 -4.6557
# 4 6.2159 8.3677 5.2359 32.7922 -7.0498 -0.6442
# 5 -9.8975 -10.5665 -21.7947 -7.0498 27.1298 4.4610
# 6 -6.9245 -14.6012 -4.6557 -0.6442 4.4610 39.6256
#
#
#
# Elastic Compliance Matrix: (Units=1/GPa)
#
#
# Indices 1 2 3 4 5 6 
#
# 1 0.029138 0.002778 0.007496 -0.003916 0.015870 0.005146
# 2 0.002778 0.010491 -0.004969 -0.002363 -0.000122 0.003743
# 3 0.007496 -0.004969 0.023905 0.000350 0.020089 0.000032
# 4 -0.003916 -0.002363 0.000350 0.033223 0.006852 -0.001745
# 5 0.015870 -0.000122 0.020089 0.006852 0.060791 -0.001644
# 6 0.005146 0.003743 0.000032 -0.001745 -0.001644 0.027675
#
#
# Mechanical properties :
#
#
# Convention : Reuss Voigt Hill
#
# Bulk Modulus (GPa) = 13.48752 30.53386 22.01069
# Shear Modulus (GPa) = 25.08435 34.69406 29.88920
#
# Velocity S-wave (km/s) = 3.47274 4.08412 3.79077
# Velocity P-wave (km/s) = 4.75019 6.07618 5.45364
#
# Compressibility (1/GPa) = 0.07414261
#
# Stress axis : x y z
#
# Youngs Moduli (GPa) = 34.31952 95.32240 41.83294
#
# Poissons Ratio (x) = -0.26478 -0.31357
# Poissons Ratio (y) = -0.09533 0.20786
# Poissons Ratio (z) = -0.25725 0.47364
#
# Static dielectric constant tensor:
#      x y z
#    x 1.779240 -0.014660 -0.037910 
#    y -0.014660 1.789170 -0.024310 
#    z -0.037910 -0.024310 1.815450 
# 
# From -- ./inp_files/245998.got.cif
#   From: 2010.05.17/outbox.cif.g08.bks.cpg/sg2_123_cif.got.tgz:245998.got - 2010.06.03 11:33:40.
