data_PCOD9104463
_publ_section_title
;
Structure prediction by ZEFSAII (Michael W. Deem and Ramdas Pophale) SiO2 
 PCOD9104463
Probable space group: P -1
;
_chemical_formula_sum "Si O2"
_cell_formula_units_Z 16
_cell_length_a 17.178914
_cell_length_b 13.580490
_cell_length_c 11.434968
_cell_angle_alpha 137.396569
_cell_angle_beta 142.617399
_cell_angle_gamma 31.010951
_cell_volume 821.450259
_symmetry_space_group_name_H-M "P -1"
_symmetry_group_IT_number 2
_symmetry_cell_setting 'triclinic'
loop_
_space_group_symop_operation_xyz
x,y,z
-x,-y,-z
loop_
_atom_site_type_symbol
_atom_site_label
_atom_site_fract_x
_atom_site_fract_y
_atom_site_fract_z
Si Si1 0.572024 0.680457 0.237143
Si Si2 0.790116 0.407278 0.443858
Si Si3 0.350520 0.970102 0.038216
Si Si4 0.977394 0.991224 0.327169
Si Si5 0.803127 0.606238 0.850092
Si Si6 0.654161 0.299761 0.575485
Si Si7 0.577168 0.411712 0.846922
Si Si8 0.515630 0.815749 0.858820
O O1 0.423146 0.721873 0.178278
O O2 0.372742 0.577865 0.731124
O O3 0.479241 0.869858 0.214406
O O4 0.634202 0.510065 0.070851
O O5 0.797410 0.481339 0.640655
O O6 0.731902 0.570951 0.421218
O O7 0.940621 0.181807 0.399623
O O8 0.454274 0.823678 0.923107
O O9 0.177569 0.004654 0.877685
O O10 0.295159 0.176431 0.124169
O O11 0.158525 0.799279 0.330310
O O12 0.000000 0.000000 0.500000
O O13 0.705793 0.638839 0.882956
O O14 0.000000 0.500000 0.000000
O O15 0.500000 0.500000 0.500000
O O16 0.649061 0.326026 0.731132
O O17 0.611699 0.166760 0.368806
O O18 0.500000 0.000000 0.000000
#
# Coordination Sequence:
#
# PCOD9104463 Si02
#       8
#     2   2   2   2   2   2   2   2
#     4   9  18  38  64  81 117 159 203 232 300 348
#     4  10  20  39  61  82 118 160 194 237 302 348
#     4  11  21  39  59  89 118 160 200 243 291 359
#     4  12  22  35  59  93 121 152 195 251 302 347
#     4  11  24  38  61  90 123 152 198 250 302 354
#     4  12  23  35  60  92 119 153 203 244 298 356
#     4   9  17  36  60  85 115 152 198 241 289 351
#     4  10  22  38  56  85 121 158 189 243 308 351
#
# _framework density 19.477747999999998
#
# number of rings (size 3 to 8) (size 9 to 14) (size 15 to 20)
#    0.750    0.750    3.750    2.250    3.500    0.500 
#    0.000    2.500    0.000    0.750    0.000    0.000 
#    0.000    0.000    0.000    0.000    0.000    0.000 
#
# Total GULP energy -89082.774880 kJ/mol
# GULP energy per Si atom -5567.673430 kJ/mol
# Density = 1.943342 g / cm^3
# Si number density = 19.477748 Si / 1000 Ang^3
#
#
#
# Elastic Constant Matrix: (Units=GPa)
#
#
# Indices 1 2 3 4 5 6 
#
# 1 97.4490 46.9688 18.6330 -2.5653 -20.9954 -14.7126
# 2 46.9688 101.1548 10.5328 -2.3316 -3.9400 -0.3994
# 3 18.6330 10.5328 55.6850 4.8986 -10.2972 -8.3020
# 4 -2.5653 -2.3316 4.8986 25.1797 -1.5483 2.8072
# 5 -20.9954 -3.9400 -10.2972 -1.5483 32.5529 1.1952
# 6 -14.7126 -0.3994 -8.3020 2.8072 1.1952 34.0932
#
#
#
# Elastic Compliance Matrix: (Units=1/GPa)
#
#
# Indices 1 2 3 4 5 6 
#
# 1 0.017208 -0.007384 -0.001756 0.001272 0.009472 0.006475
# 2 -0.007384 0.013319 -0.001241 0.000881 -0.003380 -0.003287
# 3 -0.001756 -0.001241 0.020754 -0.004530 0.004902 0.004482
# 4 0.001272 0.000881 -0.004530 0.041352 0.001608 -0.004005
# 5 0.009472 -0.003380 0.004902 0.001608 0.037908 0.003780
# 6 0.006475 -0.003287 0.004482 -0.004005 0.003780 0.033376
#
#
# Mechanical properties :
#
#
# Convention : Reuss Voigt Hill
#
# Bulk Modulus (GPa) = 32.76666 45.17309 38.96987
# Shear Modulus (GPa) = 25.66049 30.24213 27.95131
#
# Velocity S-wave (km/s) = 3.63357 3.94464 3.79230
# Velocity P-wave (km/s) = 5.87051 6.63245 6.26308
#
# Compressibility (1/GPa) = 0.03051883
#
# Stress axis : x y z
#
# Youngs Moduli (GPa) = 58.11180 75.08003 48.18384
#
# Poissons Ratio (x) = 0.55435 0.08463
# Poissons Ratio (y) = 0.42907 0.05981
# Poissons Ratio (z) = 0.10207 0.09319
#
# Static dielectric constant tensor:
#      x y z
#    x 1.722590 0.021430 0.080050 
#    y 0.021430 1.705720 0.117270 
#    z 0.080050 0.117270 1.310840 
# 
# From -- ./inp_files/465646.got.cif
#   From: 2010.05.17/outbox.cif.g08.bks.cpg/sg2_233_cif.got.tgz:465646.got - 2010.06.03 11:33:40.
