data_PCOD9104438
_publ_section_title
;
Structure prediction by ZEFSAII (Michael W. Deem and Ramdas Pophale) SiO2 
 PCOD9104438
Probable space group: P -1
;
_chemical_formula_sum "Si O2"
_cell_formula_units_Z 14
_cell_length_a 11.507943
_cell_length_b 14.150911
_cell_length_c 11.575017
_cell_angle_alpha 45.275219
_cell_angle_beta 56.631432
_cell_angle_gamma 31.284424
_cell_volume 688.688369
_symmetry_space_group_name_H-M "P -1"
_symmetry_group_IT_number 2
_symmetry_cell_setting 'triclinic'
loop_
_space_group_symop_operation_xyz
x,y,z
-x,-y,-z
loop_
_atom_site_type_symbol
_atom_site_label
_atom_site_fract_x
_atom_site_fract_y
_atom_site_fract_z
Si Si1 0.240353 0.241594 0.081686
Si Si2 0.569941 0.302262 0.177840
Si Si3 0.097926 0.371361 0.702481
Si Si4 0.764711 0.490835 0.608136
Si Si5 0.371371 0.185548 0.314436
Si Si6 0.674771 0.019994 0.926792
Si Si7 0.069908 0.921490 0.165286
O O1 0.345738 0.149715 0.230904
O O2 0.245309 0.093331 0.144698
O O3 0.409712 0.201912 0.942934
O O4 0.000000 0.500000 0.000000
O O5 0.436150 0.373185 0.307594
O O6 0.491899 0.238838 0.194082
O O7 0.500000 0.500000 0.000000
O O8 0.837809 0.098394 0.211165
O O9 0.266729 0.363001 0.586167
O O10 0.992482 0.369530 0.653932
O O11 0.880213 0.599302 0.686394
O O12 0.207742 0.178640 0.886295
O O13 0.816992 0.307385 0.688987
O O14 0.500000 0.000000 0.500000
O O15 0.768148 0.088856 0.861706
O O16 0.000000 0.000000 0.000000
#
# Coordination Sequence:
#
# PCOD9104438 Si02
#       7
#     2   2   2   2   2   2   2
#     4  11  25  43  65  96 132 174 214 267 324 389
#     4  11  22  35  58  98 127 162 212 266 324 375
#     4  10  20  39  60  96 130 163 214 264 321 376
#     4  10  22  34  56  94 135 160 199 275 319 368
#     4  11  23  40  69 100 128 167 219 272 320 376
#     4  11  24  41  67  94 127 173 221 259 321 392
#     4  12  20  36  61  93 129 165 213 268 321 376
#
# _framework density 20.328496999999999
#
# number of rings (size 3 to 8) (size 9 to 14) (size 15 to 20)
#    0.000    1.143    4.286    2.571    6.000    0.000 
#    0.000    0.000    0.000    8.571    0.000    0.000 
#    0.000    0.000    0.000    0.000    0.000    0.000 
#
# Total GULP energy -78204.022617 kJ/mol
# GULP energy per Si atom -5586.001616 kJ/mol
# Density = 2.028223 g / cm^3
# Si number density = 20.328497 Si / 1000 Ang^3
#
#
#
# Elastic Constant Matrix: (Units=GPa)
#
#
# Indices 1 2 3 4 5 6 
#
# 1 147.6433 44.0591 46.8961 -1.9171 -26.2567 27.4727
# 2 44.0591 126.1438 21.3840 -8.5687 -18.4740 -0.9063
# 3 46.8961 21.3840 88.4236 -5.9128 -20.5862 14.6595
# 4 -1.9171 -8.5687 -5.9128 26.2394 -4.0708 -7.6966
# 5 -26.2567 -18.4740 -20.5862 -4.0708 36.8485 0.9445
# 6 27.4727 -0.9063 14.6595 -7.6966 0.9445 33.8294
#
#
#
# Elastic Compliance Matrix: (Units=1/GPa)
#
#
# Indices 1 2 3 4 5 6 
#
# 1 0.010875 -0.002873 -0.002747 -0.002501 0.004714 -0.008419
# 2 -0.002873 0.009775 -0.000465 0.004433 0.002988 0.003722
# 3 -0.002747 -0.000465 0.015312 0.003001 0.006796 -0.003924
# 4 -0.002501 0.004433 0.003001 0.044242 0.006730 0.010727
# 5 0.004714 0.002988 0.006796 0.006730 0.036694 -0.006186
# 6 -0.008419 0.003722 -0.003924 0.010727 -0.006186 0.040810
#
#
# Mechanical properties :
#
#
# Convention : Reuss Voigt Hill
#
# Bulk Modulus (GPa) = 42.03073 65.20989 53.62031
# Shear Modulus (GPa) = 28.11997 36.04157 32.08077
#
# Velocity S-wave (km/s) = 3.72328 4.21522 3.97686
# Velocity P-wave (km/s) = 6.26134 7.47251 6.89358
#
# Compressibility (1/GPa) = 0.02379211
#
# Stress axis : x y z
#
# Youngs Moduli (GPa) = 91.95156 102.29979 65.30829
#
# Poissons Ratio (x) = 0.29389 0.17941
# Poissons Ratio (y) = 0.26416 0.03039
# Poissons Ratio (z) = 0.25260 0.04760
#
# Static dielectric constant tensor:
#      x y z
#    x 1.753540 0.038660 -0.042690 
#    y 0.038660 1.748510 0.067850 
#    z -0.042690 0.067850 1.509870 
# 
# From -- ./inp_files/432424.got.cif
#   From: 2010.05.17/outbox.cif.g08.bks.cpg/sg2_217_cif.got.tgz:432424.got - 2010.06.03 11:33:40.
