data_PCOD9104975
_publ_section_title
;
Structure prediction by ZEFSAII (Michael W. Deem and Ramdas Pophale) SiO2 
 PCOD9104975
Probable space group: P -1
;
_chemical_formula_sum "Si O2"
_cell_formula_units_Z 16
_cell_length_a 20.376493
_cell_length_b 13.099579
_cell_length_c 21.063345
_cell_angle_alpha 32.304634
_cell_angle_beta 156.545751
_cell_angle_gamma 159.396045
_cell_volume 783.829822
_symmetry_space_group_name_H-M "P -1"
_symmetry_group_IT_number 2
_symmetry_cell_setting 'triclinic'
loop_
_space_group_symop_operation_xyz
x,y,z
-x,-y,-z
loop_
_atom_site_type_symbol
_atom_site_label
_atom_site_fract_x
_atom_site_fract_y
_atom_site_fract_z
Si Si1 0.567749 0.972893 0.301884
Si Si2 0.430750 0.425760 0.127608
Si Si3 0.175095 0.393765 0.806763
Si Si4 0.057270 0.385591 0.162474
Si Si5 0.808160 0.438937 0.077232
Si Si6 0.403555 0.830766 0.087733
Si Si7 0.018892 0.108974 0.679757
Si Si8 0.752014 0.110279 0.683781
O O1 0.316475 0.682950 0.268013
O O2 0.495763 0.859181 0.224793
O O3 0.638161 0.259192 0.216946
O O4 0.806815 0.063706 0.488655
O O5 0.726796 0.659867 0.257624
O O6 0.320759 0.158728 0.211581
O O7 0.312684 0.349144 0.992888
O O8 0.331885 0.528065 0.021116
O O9 0.087517 0.237481 0.743826
O O10 0.938108 0.255469 0.712077
O O11 0.075657 0.192345 0.250618
O O12 0.000000 0.500000 0.000000
O O13 0.800560 0.175545 0.084915
O O14 0.085527 0.659401 0.235142
O O15 0.657221 0.113317 0.128952
O O16 0.755109 0.447672 0.952526
O O17 0.500000 0.000000 0.500000
#
# Coordination Sequence:
#
# PCOD9104975 Si02
#       8
#     2   2   2   2   2   2   2   2
#     4  11  22  40  64  94 129 160 208 270 316 370
#     4  11  22  40  65  91 123 166 211 255 313 381
#     4  11  23  43  64  93 129 169 213 258 317 387
#     4  10  22  40  60  88 123 166 208 254 308 378
#     4  10  20  39  63  86 119 166 209 243 310 375
#     4  10  20  39  64  85 120 166 205 251 303 380
#     4  12  24  40  65  95 130 166 209 266 323 368
#     4  11  24  41  64  95 130 160 206 269 318 367
#
# _framework density 20.412595
#
# number of rings (size 3 to 8) (size 9 to 14) (size 15 to 20)
#    0.000    1.250    3.750    4.125    0.000    6.000 
#    0.000    1.875    0.000    0.000    0.000    0.000 
#    0.000    0.000    0.000    0.000    0.000    0.000 
#
# Total GULP energy -89204.189534 kJ/mol
# GULP energy per Si atom -5575.261846 kJ/mol
# Density = 2.036613 g / cm^3
# Si number density = 20.412595 Si / 1000 Ang^3
#
#
#
# Elastic Constant Matrix: (Units=GPa)
#
#
# Indices 1 2 3 4 5 6 
#
# 1 68.9082 27.7412 26.4645 6.0185 -17.1623 -19.8481
# 2 27.7412 108.3791 26.6043 15.2564 -4.6780 0.9020
# 3 26.4645 26.6043 107.4277 30.0448 -6.0300 -9.9608
# 4 6.0185 15.2564 30.0448 33.0076 1.9502 -1.5022
# 5 -17.1623 -4.6780 -6.0300 1.9502 24.3709 7.8510
# 6 -19.8481 0.9020 -9.9608 -1.5022 7.8510 14.3518
#
#
#
# Elastic Compliance Matrix: (Units=1/GPa)
#
#
# Indices 1 2 3 4 5 6 
#
# 1 0.031132 -0.007580 -0.002136 0.001050 0.007617 0.037992
# 2 -0.007580 0.012168 -0.001240 -0.003787 0.001241 -0.013183
# 3 -0.002136 -0.001240 0.013879 -0.011502 0.001000 0.005006
# 4 0.001050 -0.003787 -0.011502 0.042821 -0.006891 0.001959
# 5 0.007617 0.001241 0.001000 -0.006891 0.053502 -0.018838
# 6 0.037992 -0.013183 0.005006 0.001959 -0.018838 0.137033
#
#
# Mechanical properties :
#
#
# Convention : Reuss Voigt Hill
#
# Bulk Modulus (GPa) = 28.35367 49.59277 38.97322
# Shear Modulus (GPa) = 15.42254 27.93974 21.68114
#
# Velocity S-wave (km/s) = 2.75169 3.70368 3.26259
# Velocity P-wave (km/s) = 4.90063 6.52974 5.77294
#
# Compressibility (1/GPa) = 0.03526881
#
# Stress axis : x y z
#
# Youngs Moduli (GPa) = 32.12093 82.18506 72.05266
#
# Poissons Ratio (x) = 0.62294 0.15388
# Poissons Ratio (y) = 0.24347 0.08932
# Poissons Ratio (z) = 0.06860 0.10188
#
# Static dielectric constant tensor:
#      x y z
#    x 1.856750 0.015440 -0.005430 
#    y 0.015440 1.795150 0.016260 
#    z -0.005430 0.016260 1.698090 
# 
# From -- ./inp_files/614158.got.cif
#   From: 2010.05.17/outbox.cif.g08.bks.cpg/sg2_308_cif.got.tgz:614158.got - 2010.06.03 11:33:40.
