data_PCOD9104348
_publ_section_title
;
Structure prediction by ZEFSAII (Michael W. Deem and Ramdas Pophale) SiO2 
 PCOD9104348
Probable space group: P -1
;
_chemical_formula_sum "Si O2"
_cell_formula_units_Z 15
_cell_length_a 18.929347
_cell_length_b 9.144782
_cell_length_c 16.217211
_cell_angle_alpha 54.932845
_cell_angle_beta 159.154463
_cell_angle_gamma 137.203698
_cell_volume 602.629836
_symmetry_space_group_name_H-M "P -1"
_symmetry_group_IT_number 2
_symmetry_cell_setting 'triclinic'
loop_
_space_group_symop_operation_xyz
x,y,z
-x,-y,-z
loop_
_atom_site_type_symbol
_atom_site_label
_atom_site_fract_x
_atom_site_fract_y
_atom_site_fract_z
Si Si1 0.771878 0.779378 0.702112
Si Si2 0.628909 0.236764 0.323303
Si Si3 0.424910 0.680980 0.014230
Si Si4 0.829695 0.167790 0.405245
Si Si5 0.500000 0.500000 0.000000
Si Si6 0.033888 0.951624 0.753746
Si Si7 0.701706 0.969079 0.706085
Si Si8 0.592173 0.449296 0.357518
O O1 0.500000 0.500000 0.500000
O O2 0.875412 0.866618 0.694202
O O3 0.728146 0.942037 0.647416
O O4 0.011773 0.835826 0.999421
O O5 0.652789 0.447873 0.241590
O O6 0.691232 0.332619 0.454142
O O7 0.307189 0.015139 0.047734
O O8 0.742369 0.168645 0.402323
O O9 0.561645 0.705098 0.070840
O O10 0.186406 0.665546 0.724677
O O11 0.606162 0.907757 0.200809
O O12 0.382240 0.462484 0.081947
O O13 0.082595 0.183815 0.693821
O O14 0.852600 0.725950 0.568789
O O15 0.560878 0.709088 0.677148
O O16 0.500000 0.000000 0.500000
#
# Coordination Sequence:
#
# PCOD9104348 Si02
#       8
#     2   2   2   2   1   2   2   2
#     4  11  24  45  68  96 132 171 216 279 338 382
#     4  10  20  39  60  87 129 165 208 269 314 376
#     4   8  16  35  59  88 128 163 203 265 306 381
#     4   9  19  36  61  93 123 167 215 249 313 388
#     4   8  16  34  60  82 124 168 196 264 316 358
#     4  11  22  39  65  92 126 172 210 265 326 385
#     4  11  25  44  68  97 128 171 222 273 331 402
#     4  10  20  40  61  90 130 161 210 267 323 374
#
# _framework density 24.890900999999999
#
# number of rings (size 3 to 8) (size 9 to 14) (size 15 to 20)
#    0.000    2.133    2.667    0.000    1.867    0.533 
#    2.400   34.000    0.000    0.000    0.000    0.000 
#    0.000    0.000    0.000    0.000    0.000    0.000 
#
# Total GULP energy -83555.972038 kJ/mol
# GULP energy per Si atom -5570.398136 kJ/mol
# Density = 2.483425 g / cm^3
# Si number density = 24.890901 Si / 1000 Ang^3
#
#
#
# Elastic Constant Matrix: (Units=GPa)
#
#
# Indices 1 2 3 4 5 6 
#
# 1 113.6536 34.8138 21.6786 7.5637 -3.2372 -33.4197
# 2 34.8138 85.5947 47.7968 8.0436 6.3056 -13.8675
# 3 21.6786 47.7968 80.3564 0.7791 9.9085 -47.3519
# 4 7.5637 8.0436 0.7791 41.5139 -13.5316 -1.7885
# 5 -3.2372 6.3056 9.9085 -13.5316 33.2276 -2.4803
# 6 -33.4197 -13.8675 -47.3519 -1.7885 -2.4803 49.8036
#
#
#
# Elastic Compliance Matrix: (Units=1/GPa)
#
#
# Indices 1 2 3 4 5 6 
#
# 1 0.016112 -0.011953 0.016133 0.000349 0.000877 0.022879
# 2 -0.011953 0.030572 -0.033187 -0.004933 -0.001416 -0.031309
# 3 0.016133 -0.033187 0.066766 0.003098 -0.005935 0.064880
# 4 0.000349 -0.004933 0.003098 0.029023 0.012123 0.003453
# 5 0.000877 -0.001416 -0.005935 0.012123 0.036920 -0.003175
# 6 0.022879 -0.031309 0.064880 0.003453 -0.003175 0.088365
#
#
# Mechanical properties :
#
#
# Convention : Reuss Voigt Hill
#
# Bulk Modulus (GPa) = 18.03870 54.24257 36.14064
# Shear Modulus (GPa) = 14.52435 36.59671 25.56053
#
# Velocity S-wave (km/s) = 2.41824 3.83859 3.20801
# Velocity P-wave (km/s) = 3.88072 6.44095 5.31723
#
# Compressibility (1/GPa) = 0.05543636
#
# Stress axis : x y z
#
# Youngs Moduli (GPa) = 62.06594 32.70983 14.97770
#
# Poissons Ratio (x) = 0.39098 -0.24164
# Poissons Ratio (y) = 0.74187 0.49706
# Poissons Ratio (z) = -1.00132 1.08554
#
# Static dielectric constant tensor:
#      x y z
#    x 2.055930 0.003660 -0.001460 
#    y 0.003660 1.957230 -0.023460 
#    z -0.001460 -0.023460 2.063920 
# 
# From -- ./inp_files/337343.got.cif
#   From: 2010.05.17/outbox.cif.g08.bks.cpg/sg2_169_cif.got.tgz:337343.got - 2010.06.03 11:33:40.
