data_PCOD9104688
_publ_section_title
;
Structure prediction by ZEFSAII (Michael W. Deem and Ramdas Pophale) SiO2 
 PCOD9104688
Probable space group: P -1
;
_chemical_formula_sum "Si O2"
_cell_formula_units_Z 16
_cell_length_a 6.344954
_cell_length_b 7.166913
_cell_length_c 21.249668
_cell_angle_alpha 132.174744
_cell_angle_beta 68.368071
_cell_angle_gamma 118.575281
_cell_volume 627.217356
_symmetry_space_group_name_H-M "P -1"
_symmetry_group_IT_number 2
_symmetry_cell_setting 'triclinic'
loop_
_space_group_symop_operation_xyz
x,y,z
-x,-y,-z
loop_
_atom_site_type_symbol
_atom_site_label
_atom_site_fract_x
_atom_site_fract_y
_atom_site_fract_z
Si Si1 0.808135 0.262104 0.618281
Si Si2 0.306705 0.054229 0.647349
Si Si3 0.246795 0.049693 0.944786
Si Si4 0.925592 0.091341 0.781129
Si Si5 0.920370 0.310856 0.234977
Si Si6 0.897414 0.722593 0.524242
Si Si7 0.743562 0.393027 0.969940
Si Si8 0.480355 0.268969 0.349612
O O1 0.536890 0.223634 0.620534
O O2 0.854690 0.426632 0.715675
O O3 0.995887 0.395314 0.572141
O O4 0.840636 0.979190 0.561971
O O5 0.159704 0.207861 0.737658
O O6 0.420629 0.910035 0.654366
O O7 0.116571 0.846457 0.576296
O O8 0.519014 0.143611 0.965685
O O9 0.174772 0.808206 0.848939
O O10 0.302860 0.326044 0.962712
O O11 0.000000 0.000000 0.000000
O O12 0.812951 0.290917 0.872531
O O13 0.005586 0.916378 0.785899
O O14 0.723390 0.903794 0.714998
O O15 0.710070 0.395264 0.309709
O O16 0.654771 0.575592 0.557004
O O17 0.000000 0.500000 0.000000
#
# Coordination Sequence:
#
# PCOD9104688 Si02
#       8
#     2   2   2   2   2   2   2   2
#     4  10  21  35  58  88 126 156 203 266 309 373
#     4   9  19  35  60  85 116 159 206 252 305 378
#     4  11  26  43  66 101 132 165 220 278 325 391
#     4  10  20  39  62  84 118 166 208 244 321 387
#     4  11  22  39  58  89 126 157 205 266 313 377
#     4   9  19  38  58  85 117 167 208 246 321 375
#     4  11  23  45  70  90 131 177 208 270 332 393
#     4   9  19  37  59  82 117 157 204 250 297 377
#
# _framework density 25.509495999999999
#
# number of rings (size 3 to 8) (size 9 to 14) (size 15 to 20)
#    0.000    2.000    2.500    0.375    0.000    6.000 
#    2.250    5.625    0.000    0.000    0.000    0.000 
#    0.000    0.000    0.000    0.000    0.000    0.000 
#
# Total GULP energy -89281.505630 kJ/mol
# GULP energy per Si atom -5580.094102 kJ/mol
# Density = 2.545144 g / cm^3
# Si number density = 25.509496 Si / 1000 Ang^3
#
#
#
# Elastic Constant Matrix: (Units=GPa)
#
#
# Indices 1 2 3 4 5 6 
#
# 1 118.6910 33.4789 43.5555 -2.0232 1.1847 28.0854
# 2 33.4789 74.6882 35.8259 -8.6040 -1.9977 24.4150
# 3 43.5555 35.8259 128.6300 2.2230 3.0229 30.0728
# 4 -2.0232 -8.6040 2.2230 31.0593 9.2403 -5.4354
# 5 1.1847 -1.9977 3.0229 9.2403 44.9078 11.5683
# 6 28.0854 24.4150 30.0728 -5.4354 11.5683 46.5205
#
#
#
# Elastic Compliance Matrix: (Units=1/GPa)
#
#
# Indices 1 2 3 4 5 6 
#
# 1 0.010869 -0.002610 -0.001959 -0.000931 0.001026 -0.004290
# 2 -0.002610 0.018468 -0.002882 0.003442 0.002013 -0.006352
# 3 -0.001959 -0.002882 0.010326 -0.002746 0.000963 -0.004541
# 4 -0.000931 0.003442 -0.002746 0.037260 -0.009148 0.007159
# 5 0.001026 0.002013 0.000963 -0.009148 0.026727 -0.010013
# 6 -0.004290 -0.006352 -0.004541 0.007159 -0.010013 0.033682
#
#
# Mechanical properties :
#
#
# Convention : Reuss Voigt Hill
#
# Bulk Modulus (GPa) = 40.38250 60.85887 50.62068
# Shear Modulus (GPa) = 31.15503 38.44079 34.79791
#
# Velocity S-wave (km/s) = 3.49852 3.88612 3.69740
# Velocity P-wave (km/s) = 5.67312 6.63664 6.17371
#
# Compressibility (1/GPa) = 0.02476320
#
# Stress axis : x y z
#
# Youngs Moduli (GPa) = 92.00344 54.14776 96.83824
#
# Poissons Ratio (x) = 0.14133 0.18966
# Poissons Ratio (y) = 0.24014 0.27904
# Poissons Ratio (z) = 0.18019 0.15603
#
# Static dielectric constant tensor:
#      x y z
#    x 2.217030 -0.018060 0.077280 
#    y -0.018060 2.074860 -0.022380 
#    z 0.077280 -0.022380 1.965130 
# 
# From -- ./inp_files/582572.got.cif
#   From: 2010.05.17/outbox.cif.g08.bks.cpg/sg2_292_cif.got.tgz:582572.got - 2010.06.03 11:33:40.
