data_PCOD9104112
_publ_section_title
;
Structure prediction by ZEFSAII (Michael W. Deem and Ramdas Pophale) SiO2 
 PCOD9104112
Probable space group: P -1
;
_chemical_formula_sum "Si O2"
_cell_formula_units_Z 8
_cell_length_a 7.666977
_cell_length_b 8.119405
_cell_length_c 7.099097
_cell_angle_alpha 55.459854
_cell_angle_beta 56.595716
_cell_angle_gamma 65.187305
_cell_volume 300.157148
_symmetry_space_group_name_H-M "P -1"
_symmetry_group_IT_number 2
_symmetry_cell_setting 'triclinic'
loop_
_space_group_symop_operation_xyz
x,y,z
-x,-y,-z
loop_
_atom_site_type_symbol
_atom_site_label
_atom_site_fract_x
_atom_site_fract_y
_atom_site_fract_z
Si Si1 0.384310 0.697368 0.764463
Si Si2 0.012460 0.768915 0.208202
Si Si3 0.220182 0.366058 0.888639
Si Si4 0.238619 0.116816 0.386146
O O1 0.397772 0.496152 0.761964
O O2 0.575889 0.781340 0.695038
O O3 0.277500 0.882652 0.574013
O O4 0.228146 0.663874 0.053971
O O5 0.819061 0.688521 0.266845
O O6 0.971471 0.774025 0.450999
O O7 0.000000 0.000000 0.000000
O O8 0.241435 0.164417 0.134186
O O9 0.000000 0.500000 0.000000
#
# Coordination Sequence:
#
# PCOD9104112 Si02
#       4
#     2   2   2   2
#     4   9  20  37  57  83 109 142 184 221 269 326
#     4   9  20  37  56  81 109 144 184 219 270 325
#     4  10  21  36  57  84 109 142 186 222 266 328
#     4  10  20  39  58  77 115 145 172 231 274 309
#
# _framework density 26.652705000000001
#
# number of rings (size 3 to 8) (size 9 to 14) (size 15 to 20)
#    0.000    2.500    0.000    0.750    0.000   14.000 
#    0.000   18.750    0.000    0.000    0.000    0.000 
#    0.000    0.000    0.000    0.000    0.000    0.000 
#
# Total GULP energy -44772.162785 kJ/mol
# GULP energy per Si atom -5596.520348 kJ/mol
# Density = 2.659204 g / cm^3
# Si number density = 26.652705 Si / 1000 Ang^3
#
#
#
# Elastic Constant Matrix: (Units=GPa)
#
#
# Indices 1 2 3 4 5 6 
#
# 1 67.5034 14.9645 7.9624 -14.2360 -9.9085 28.0921
# 2 14.9645 67.0061 23.7431 -23.8467 7.3749 21.2766
# 3 7.9624 23.7431 95.6722 -14.4473 5.0329 -9.2787
# 4 -14.2360 -23.8467 -14.4473 45.9163 -5.1269 -0.8933
# 5 -9.9085 7.3749 5.0329 -5.1269 34.9019 -18.8953
# 6 28.0921 21.2766 -9.2787 -0.8933 -18.8953 40.2338
#
#
#
# Elastic Compliance Matrix: (Units=1/GPa)
#
#
# Indices 1 2 3 4 5 6 
#
# 1 0.025582 0.008706 -0.005067 0.009574 -0.006866 -0.026647
# 2 0.008706 0.036129 -0.009872 0.015207 -0.021709 -0.037319
# 3 -0.005067 -0.009872 0.014265 -0.001178 0.006605 0.015124
# 4 0.009574 0.015207 -0.001178 0.031437 -0.004625 -0.016472
# 5 -0.006866 -0.021709 0.006605 -0.004625 0.052615 0.042405
# 6 -0.026647 -0.037319 0.015124 -0.016472 0.042405 0.086233
#
#
# Mechanical properties :
#
#
# Convention : Reuss Voigt Hill
#
# Bulk Modulus (GPa) = 15.74517 35.94684 25.84601
# Shear Modulus (GPa) = 17.86364 36.44450 27.15407
#
# Velocity S-wave (km/s) = 2.59170 3.70183 3.19534
# Velocity P-wave (km/s) = 3.85698 5.63807 4.83032
#
# Compressibility (1/GPa) = 0.06351153
#
# Stress axis : x y z
#
# Youngs Moduli (GPa) = 39.08980 27.67849 70.09935
#
# Poissons Ratio (x) = -0.24098 0.35520
# Poissons Ratio (y) = -0.34033 0.69201
# Poissons Ratio (z) = 0.19807 0.27324
#
# Static dielectric constant tensor:
#      x y z
#    x 2.150490 -0.046960 -0.054580 
#    y -0.046960 2.060470 -0.002490 
#    z -0.054580 -0.002490 2.071690 
# 
# From -- ./inp_files/15153.got.cif
#   From: 2010.05.17/outbox.cif.g08.bks.cpg/sg2_8_cif.got.tgz:15153.got - 2010.06.03 11:33:40.
