data_PCOD9104074
_publ_section_title
;
Structure prediction by ZEFSAII (Michael W. Deem and Ramdas Pophale) SiO2 
 PCOD9104074
Probable space group: P -1
;
_chemical_formula_sum "Si O2"
_cell_formula_units_Z 14
_cell_length_a 18.582595
_cell_length_b 24.141365
_cell_length_c 6.735948
_cell_angle_alpha 60.227617
_cell_angle_beta 118.678562
_cell_angle_gamma 167.316237
_cell_volume 575.755593
_symmetry_space_group_name_H-M "P -1"
_symmetry_group_IT_number 2
_symmetry_cell_setting 'triclinic'
loop_
_space_group_symop_operation_xyz
x,y,z
-x,-y,-z
loop_
_atom_site_type_symbol
_atom_site_label
_atom_site_fract_x
_atom_site_fract_y
_atom_site_fract_z
Si Si1 0.777374 0.750561 0.024520
Si Si2 0.186007 0.836025 0.505192
Si Si3 0.856512 0.538217 0.253969
Si Si4 0.188096 0.309569 0.479861
Si Si5 0.423944 0.889032 0.841731
Si Si6 0.448946 0.126130 0.668959
Si Si7 0.586652 0.715726 0.151193
O O1 0.645609 0.709693 0.058175
O O2 0.500000 0.500000 0.000000
O O3 0.948725 0.829591 0.261620
O O4 0.061917 0.994397 0.831957
O O5 0.504218 0.076669 0.351447
O O6 0.268250 0.948473 0.578044
O O7 0.902036 0.624776 0.339166
O O8 0.163276 0.749194 0.732875
O O9 0.630185 0.392467 0.039093
O O10 0.228207 0.813965 0.173467
O O11 0.707041 0.364980 0.474721
O O12 0.500000 0.500000 0.500000
O O13 0.881695 0.085005 0.321005
O O14 0.374078 0.516993 0.381261
O O15 0.395813 0.805755 0.089025
#
# Coordination Sequence:
#
# PCOD9104074 Si02
#       7
#     2   2   2   2   2   2   2
#     4  10  22  36  60  83 112 151 202 243 295 358
#     4   9  22  42  60  92 125 153 205 252 299 364
#     4  10  21  38  61  90 121 158 199 249 302 358
#     4  10  21  38  58  86 117 154 198 242 298 351
#     4   9  21  44  58  92 129 149 201 265 289 357
#     4  12  21  39  67  86 121 168 199 243 312 359
#     4  10  20  39  57  80 121 152 187 255 295 340
#
# _framework density 24.315874999999998
#
# number of rings (size 3 to 8) (size 9 to 14) (size 15 to 20)
#    0.857    1.143    2.857    0.429    2.000    1.714 
#    2.571    2.857    0.000    0.000    0.000    0.000 
#    0.000    0.000    0.000    0.000    0.000    0.000 
#
# Total GULP energy -78026.719867 kJ/mol
# GULP energy per Si atom -5573.337133 kJ/mol
# Density = 2.426053 g / cm^3
# Si number density = 24.315875 Si / 1000 Ang^3
#
#
#
# Elastic Constant Matrix: (Units=GPa)
#
#
# Indices 1 2 3 4 5 6 
#
# 1 40.4458 1.5214 -12.6731 2.5671 -5.6629 -13.6855
# 2 1.5214 78.3503 -3.0563 -14.0313 13.0003 -4.1756
# 3 -12.6731 -3.0563 106.9644 -20.0005 24.6273 6.6394
# 4 2.5671 -14.0313 -20.0005 46.1773 -1.8455 1.4729
# 5 -5.6629 13.0003 24.6273 -1.8455 22.4956 2.1359
# 6 -13.6855 -4.1756 6.6394 1.4729 2.1359 21.4074
#
#
#
# Elastic Compliance Matrix: (Units=1/GPa)
#
#
# Indices 1 2 3 4 5 6 
#
# 1 0.032761 -0.000843 0.000919 -0.002094 0.005650 0.020074
# 2 -0.000843 0.016752 0.004914 0.006597 -0.014944 0.002242
# 3 0.000919 0.004914 0.015406 0.007428 -0.018687 -0.001879
# 4 -0.002094 0.006597 0.007428 0.026697 -0.009977 -0.003197
# 5 0.005650 -0.014944 -0.018687 -0.009977 0.074172 -0.000221
# 6 0.020074 0.002242 -0.001879 -0.003197 -0.000221 0.060808
#
#
# Mechanical properties :
#
#
# Convention : Reuss Voigt Hill
#
# Bulk Modulus (GPa) = 13.35156 21.92718 17.63937
# Shear Modulus (GPa) = 20.69692 34.01396 27.35544
#
# Velocity S-wave (km/s) = 2.92064 3.74416 3.35775
# Velocity P-wave (km/s) = 4.10808 5.26582 4.72256
#
# Compressibility (1/GPa) = 0.07489762
#
# Stress axis : x y z
#
# Youngs Moduli (GPa) = 30.52443 59.69557 64.90950
#
# Poissons Ratio (x) = 0.05032 -0.05964
# Poissons Ratio (y) = 0.02573 -0.31895
# Poissons Ratio (z) = -0.02805 -0.29333
#
# Static dielectric constant tensor:
#      x y z
#    x 2.136370 0.094240 0.037340 
#    y 0.094240 1.976270 0.025080 
#    z 0.037340 0.025080 1.963540 
# 
# From -- ./inp_files/355682.got.cif
#   From: 2010.05.17/outbox.cif.g08.bks.cpg/sg2_178_cif.got.tgz:355682.got - 2010.06.03 11:33:40.
