data_PCOD9104163
_publ_section_title
;
Structure prediction by ZEFSAII (Michael W. Deem and Ramdas Pophale) SiO2 
 PCOD9104163
Probable space group: P -1
;
_chemical_formula_sum "Si O2"
_cell_formula_units_Z 16
_cell_length_a 13.720593
_cell_length_b 12.815975
_cell_length_c 8.443423
_cell_angle_alpha 69.854889
_cell_angle_beta 128.887590
_cell_angle_gamma 141.161817
_cell_volume 692.218286
_symmetry_space_group_name_H-M "P -1"
_symmetry_group_IT_number 2
_symmetry_cell_setting 'triclinic'
loop_
_space_group_symop_operation_xyz
x,y,z
-x,-y,-z
loop_
_atom_site_type_symbol
_atom_site_label
_atom_site_fract_x
_atom_site_fract_y
_atom_site_fract_z
Si Si1 0.302827 0.145973 0.252266
Si Si2 0.927157 0.525912 0.561346
Si Si3 0.158734 0.231141 0.471135
Si Si4 0.459710 0.236564 0.777368
Si Si5 0.470573 0.803437 0.783377
Si Si6 0.075218 0.104233 0.785830
Si Si7 0.333133 0.916424 0.744867
Si Si8 0.274455 0.549872 0.315805
O O1 0.362311 0.083108 0.236856
O O2 0.109626 0.998112 0.236260
O O3 0.500044 0.306458 0.465537
O O4 0.250804 0.203371 0.036067
O O5 0.707703 0.401293 0.339284
O O6 0.854789 0.453391 0.708431
O O7 0.000000 0.500000 0.500000
O O8 0.114426 0.733073 0.666816
O O9 0.344121 0.273432 0.626482
O O10 0.987002 0.049053 0.296961
O O11 0.188635 0.369274 0.348613
O O12 0.119074 0.215702 0.626746
O O13 0.680544 0.391508 0.851420
O O14 0.354989 0.062184 0.671713
O O15 0.459239 0.196322 0.978482
O O16 0.388479 0.871892 0.681829
O O17 0.500000 0.000000 0.000000
#
# Coordination Sequence:
#
# PCOD9104163 Si02
#       8
#     2   2   2   2   2   2   2   2
#     4  10  20  39  58  89 121 150 196 251 292 355
#     4   9  20  41  61  87 118 152 194 251 297 347
#     4  11  23  39  58  86 122 163 198 244 289 351
#     4  11  21  40  59  90 118 162 200 240 294 351
#     4   9  19  40  63  88 120 154 194 251 298 348
#     4  10  22  37  60  86 121 153 203 242 293 346
#     4   9  20  38  67  86 113 152 199 245 297 345
#     4  11  24  38  61  86 124 161 200 238 292 355
#
# _framework density 23.114097999999998
#
# number of rings (size 3 to 8) (size 9 to 14) (size 15 to 20)
#    0.000    2.000    2.500    0.375    3.500    0.500 
#    0.000   13.750    0.000    0.000    0.000    0.000 
#    0.000    0.000    0.000    0.000    0.000    0.000 
#
# Total GULP energy -89094.244872 kJ/mol
# GULP energy per Si atom -5568.390305 kJ/mol
# Density = 2.306149 g / cm^3
# Si number density = 23.114098 Si / 1000 Ang^3
#
#
#
# Elastic Constant Matrix: (Units=GPa)
#
#
# Indices 1 2 3 4 5 6 
#
# 1 127.9473 39.2581 11.8968 -11.8388 -8.6356 43.2213
# 2 39.2581 91.1879 5.8073 4.0411 -12.3687 16.9449
# 3 11.8968 5.8073 47.7784 3.9120 -2.6847 0.6227
# 4 -11.8388 4.0411 3.9120 26.9786 11.1294 -7.1537
# 5 -8.6356 -12.3687 -2.6847 11.1294 22.7018 -2.8551
# 6 43.2213 16.9449 0.6227 -7.1537 -2.8551 35.6699
#
#
#
# Elastic Compliance Matrix: (Units=1/GPa)
#
#
# Indices 1 2 3 4 5 6 
#
# 1 0.014703 -0.003448 -0.003346 0.003498 -0.000338 -0.015445
# 2 -0.003448 0.015096 0.000478 -0.009495 0.011120 -0.004016
# 3 -0.003346 0.000478 0.022457 -0.006167 0.004994 0.002598
# 4 0.003498 -0.009495 -0.006167 0.056103 -0.030925 0.009157
# 5 -0.000338 0.011120 0.004994 -0.030925 0.064980 -0.005960
# 6 -0.015445 -0.004016 0.002598 0.009157 -0.005960 0.049971
#
#
# Mechanical properties :
#
#
# Convention : Reuss Voigt Hill
#
# Bulk Modulus (GPa) = 25.23704 42.31535 33.77620
# Shear Modulus (GPa) = 20.06834 31.06684 25.56759
#
# Velocity S-wave (km/s) = 2.94977 3.67013 3.32949
# Velocity P-wave (km/s) = 4.74802 6.02550 5.42450
#
# Compressibility (1/GPa) = 0.03962429
#
# Stress axis : x y z
#
# Youngs Moduli (GPa) = 68.01415 66.24469 44.53014
#
# Poissons Ratio (x) = 0.22839 0.14900
# Poissons Ratio (y) = 0.23449 -0.02130
# Poissons Ratio (z) = 0.22758 -0.03168
#
# Static dielectric constant tensor:
#      x y z
#    x 1.998130 0.039520 -0.044530 
#    y 0.039520 1.893890 -0.047060 
#    z -0.044530 -0.047060 1.954470 
# 
# From -- ./inp_files/314985.got.cif
#   From: 2010.05.17/outbox.cif.g08.bks.cpg/sg2_158_cif.got.tgz:314985.got - 2010.06.03 11:33:40.
