data_PCOD9104373
_publ_section_title
;
Structure prediction by ZEFSAII (Michael W. Deem and Ramdas Pophale) SiO2 
 PCOD9104373
Probable space group: P -1
;
_chemical_formula_sum "Si O2"
_cell_formula_units_Z 16
_cell_length_a 8.403646
_cell_length_b 17.942327
_cell_length_c 9.038986
_cell_angle_alpha 137.988993
_cell_angle_beta 66.218876
_cell_angle_gamma 128.588806
_cell_volume 708.244995
_symmetry_space_group_name_H-M "P -1"
_symmetry_group_IT_number 2
_symmetry_cell_setting 'triclinic'
loop_
_space_group_symop_operation_xyz
x,y,z
-x,-y,-z
loop_
_atom_site_type_symbol
_atom_site_label
_atom_site_fract_x
_atom_site_fract_y
_atom_site_fract_z
Si Si1 0.208487 0.650817 0.391788
Si Si2 0.749478 0.466482 0.335923
Si Si3 0.172407 0.807769 0.389579
Si Si4 0.763922 0.550136 0.122366
Si Si5 0.526458 0.831734 0.105872
Si Si6 0.938107 0.975767 0.316541
Si Si7 0.786410 0.928093 0.888230
Si Si8 0.482391 0.354469 0.534588
O O1 0.194790 0.763975 0.480953
O O2 0.382214 0.696028 0.514816
O O3 0.991665 0.542739 0.385320
O O4 0.255138 0.574077 0.133672
O O5 0.746080 0.532068 0.280134
O O6 0.628214 0.465494 0.524979
O O7 0.626095 0.313818 0.113530
O O8 0.383656 0.858601 0.300469
O O9 0.101594 0.909913 0.549943
O O10 0.990566 0.672444 0.185551
O O11 0.600668 0.593189 0.228468
O O12 0.720125 0.849935 0.157195
O O13 0.622985 0.921449 0.055377
O O14 0.136885 0.996541 0.184729
O O15 0.000000 0.000000 0.500000
O O16 0.702644 0.774658 0.663476
O O17 0.000000 0.000000 0.000000
#
# Coordination Sequence:
#
# PCOD9104373 Si02
#       8
#     2   2   2   2   2   2   2   2
#     4  11  22  38  63  91 132 159 204 258 294 377
#     4  10  20  39  60  89 128 168 199 242 316 367
#     4  11  21  40  63  89 123 167 202 247 322 357
#     4  11  20  38  62  90 128 165 204 249 300 372
#     4  10  20  40  65  82 125 167 197 249 313 369
#     4  11  24  41  67  92 116 155 218 265 296 365
#     4   9  21  41  63  85 123 162 202 256 306 358
#     4  11  22  36  64  93 124 163 210 253 302 359
#
# _framework density 22.591049999999999
#
# number of rings (size 3 to 8) (size 9 to 14) (size 15 to 20)
#    0.000    1.500    3.750    2.250    1.750    0.000 
#    2.250    0.625   13.750    0.000    0.000    0.000 
#    0.000    0.000    0.000    0.000    0.000    0.000 
#
# Total GULP energy -89204.304366 kJ/mol
# GULP energy per Si atom -5575.269023 kJ/mol
# Density = 2.253963 g / cm^3
# Si number density = 22.591050 Si / 1000 Ang^3
#
#
#
# Elastic Constant Matrix: (Units=GPa)
#
#
# Indices 1 2 3 4 5 6 
#
# 1 81.4521 53.6723 15.8093 -4.5552 2.1769 15.5534
# 2 53.6723 121.3547 40.2093 -22.9289 -0.8507 34.7609
# 3 15.8093 40.2093 58.3622 -0.6806 14.0047 10.4761
# 4 -4.5552 -22.9289 -0.6806 43.4062 -2.8241 -11.9293
# 5 2.1769 -0.8507 14.0047 -2.8241 17.4106 -8.2891
# 6 15.5534 34.7609 10.4761 -11.9293 -8.2891 37.0665
#
#
#
# Elastic Compliance Matrix: (Units=1/GPa)
#
#
# Indices 1 2 3 4 5 6 
#
# 1 0.018266 -0.009359 0.004019 -0.004404 -0.008253 -0.003287
# 2 -0.009359 0.019971 -0.012589 0.008374 0.010700 -0.006156
# 3 0.004019 -0.012589 0.035723 -0.011406 -0.037423 -0.012016
# 4 -0.004404 0.008374 -0.011406 0.031496 0.020978 0.012046
# 5 -0.008253 0.010700 -0.037423 0.020978 0.109249 0.035188
# 6 -0.003287 -0.006156 -0.012016 0.012046 0.035188 0.049272
#
#
# Mechanical properties :
#
#
# Convention : Reuss Voigt Hill
#
# Bulk Modulus (GPa) = 26.24516 53.39457 39.81986
# Shear Modulus (GPa) = 15.99810 29.67520 22.83665
#
# Velocity S-wave (km/s) = 2.66402 3.62827 3.18287
# Velocity P-wave (km/s) = 4.59406 6.42176 5.58321
#
# Compressibility (1/GPa) = 0.03810227
#
# Stress axis : x y z
#
# Youngs Moduli (GPa) = 54.74711 50.07180 27.99285
#
# Poissons Ratio (x) = 0.46860 -0.11250
# Poissons Ratio (y) = 0.51236 0.35241
# Poissons Ratio (z) = -0.22002 0.63037
#
# Static dielectric constant tensor:
#      x y z
#    x 1.917320 0.011810 -0.006320 
#    y 0.011810 1.892830 -0.030720 
#    z -0.006320 -0.030720 1.879880 
# 
# From -- ./inp_files/215816.got.cif
#   From: 2010.05.17/outbox.cif.g08.bks.cpg/sg2_108_cif.got.tgz:215816.got - 2010.06.03 11:33:40.
