data_PCOD9104587
_publ_section_title
;
Structure prediction by ZEFSAII (Michael W. Deem and Ramdas Pophale) SiO2 
 PCOD9104587
Probable space group: P -1
;
_chemical_formula_sum "Si O2"
_cell_formula_units_Z 16
_cell_length_a 13.928320
_cell_length_b 12.275642
_cell_length_c 8.062758
_cell_angle_alpha 88.283730
_cell_angle_beta 37.477685
_cell_angle_gamma 99.602284
_cell_volume 796.187743
_symmetry_space_group_name_H-M "P -1"
_symmetry_group_IT_number 2
_symmetry_cell_setting 'triclinic'
loop_
_space_group_symop_operation_xyz
x,y,z
-x,-y,-z
loop_
_atom_site_type_symbol
_atom_site_label
_atom_site_fract_x
_atom_site_fract_y
_atom_site_fract_z
Si Si1 0.164094 0.313634 0.490353
Si Si2 0.389107 0.051079 0.264263
Si Si3 0.698592 0.996310 0.228180
Si Si4 0.817264 0.504802 0.794723
Si Si5 0.886932 0.409078 0.032701
Si Si6 0.587238 0.205846 0.402868
Si Si7 0.954714 0.958877 0.378803
Si Si8 0.506317 0.692662 0.804404
O O1 0.199805 0.378794 0.261812
O O2 0.101054 0.178205 0.556009
O O3 0.331514 0.343927 0.371704
O O4 0.017006 0.352748 0.772766
O O5 0.201774 0.004690 0.459591
O O6 0.464319 0.188974 0.142459
O O7 0.365621 0.022924 0.493647
O O8 0.500000 0.000000 0.000000
O O9 0.685115 0.121472 0.194410
O O10 0.575592 0.890336 0.297687
O O11 0.883158 0.993165 0.958455
O O12 0.813896 0.479678 0.995898
O O13 0.000000 0.500000 0.500000
O O14 0.667897 0.404560 0.919075
O O15 0.725100 0.302425 0.312742
O O16 0.000000 0.500000 0.000000
O O17 0.514374 0.270587 0.359082
O O18 0.000000 0.000000 0.500000
#
# Coordination Sequence:
#
# PCOD9104587 Si02
#       8
#     2   2   2   2   2   2   2   2
#     4  10  20  40  58  86 124 158 201 263 307 371
#     4  10  23  39  62  92 125 162 208 257 315 377
#     4  10  20  40  64  86 126 166 207 256 315 364
#     4   9  19  36  60  82 110 156 198 248 306 361
#     4  10  20  39  61  90 118 159 209 251 314 373
#     4   9  19  36  65  84 118 163 204 250 315 360
#     4  11  24  39  62  92 126 164 210 258 312 369
#     4   9  19  37  61  83 115 162 204 252 314 363
#
# _framework density 20.095762000000001
#
# number of rings (size 3 to 8) (size 9 to 14) (size 15 to 20)
#    0.000    2.250    1.250    0.750    5.250    0.000 
#    6.750    3.750    0.000    0.000    0.000    0.000 
#    0.000    0.000    0.000    0.000    0.000    0.000 
#
# Total GULP energy -89074.879221 kJ/mol
# GULP energy per Si atom -5567.179951 kJ/mol
# Density = 2.005002 g / cm^3
# Si number density = 20.095762 Si / 1000 Ang^3
#
#
#
# Elastic Constant Matrix: (Units=GPa)
#
#
# Indices 1 2 3 4 5 6 
#
# 1 103.9940 32.2165 42.2015 -3.9068 -31.0889 8.2493
# 2 32.2165 60.5178 42.5229 -14.0302 -11.8120 9.1403
# 3 42.2015 42.5229 114.0756 -9.9013 -30.5928 4.2990
# 4 -3.9068 -14.0302 -9.9013 34.8169 7.1520 -10.9661
# 5 -31.0889 -11.8120 -30.5928 7.1520 36.7895 -4.3006
# 6 8.2493 9.1403 4.2990 -10.9661 -4.3006 38.3664
#
#
#
# Elastic Compliance Matrix: (Units=1/GPa)
#
#
# Indices 1 2 3 4 5 6 
#
# 1 0.014914 -0.005981 -0.000693 -0.003602 0.010627 -0.001543
# 2 -0.005981 0.026827 -0.008414 0.008061 -0.005292 -0.002451
# 3 -0.000693 -0.008414 0.014468 -0.000798 0.009054 0.001319
# 4 -0.003602 0.008061 -0.000798 0.035388 -0.007033 0.008270
# 5 0.010627 -0.005292 0.009054 -0.007033 0.043455 0.000822
# 6 -0.001543 -0.002451 0.001319 0.008270 0.000822 0.029288
#
#
# Mechanical properties :
#
#
# Convention : Reuss Voigt Hill
#
# Bulk Modulus (GPa) = 38.41304 56.94101 47.67703
# Shear Modulus (GPa) = 24.60731 32.77100 28.68916
#
# Velocity S-wave (km/s) = 3.50309 4.04263 3.78249
# Velocity P-wave (km/s) = 5.95975 7.08426 6.54620
#
# Compressibility (1/GPa) = 0.02603283
#
# Stress axis : x y z
#
# Youngs Moduli (GPa) = 67.05313 37.27655 69.11884
#
# Poissons Ratio (x) = 0.22294 0.04787
# Poissons Ratio (y) = 0.40102 0.58159
# Poissons Ratio (z) = 0.04644 0.31366
#
# Static dielectric constant tensor:
#      x y z
#    x 1.766440 -0.024370 -0.003710 
#    y -0.024370 1.726250 -0.036210 
#    z -0.003710 -0.036210 1.736950 
# 
# From -- ./inp_files/307461.got.cif
#   From: 2010.05.17/outbox.cif.g08.bks.cpg/sg2_154_cif.got.tgz:307461.got - 2010.06.03 11:33:40.
