data_PCOD9104231
_publ_section_title
;
Structure prediction by ZEFSAII (Michael W. Deem and Ramdas Pophale) SiO2 
 PCOD9104231
Probable space group: P -1
;
_chemical_formula_sum "Si O2"
_cell_formula_units_Z 16
_cell_length_a 11.210348
_cell_length_b 13.738535
_cell_length_c 7.896912
_cell_angle_alpha 99.687256
_cell_angle_beta 103.270170
_cell_angle_gamma 39.805381
_cell_volume 757.756734
_symmetry_space_group_name_H-M "P -1"
_symmetry_group_IT_number 2
_symmetry_cell_setting 'triclinic'
loop_
_space_group_symop_operation_xyz
x,y,z
-x,-y,-z
loop_
_atom_site_type_symbol
_atom_site_label
_atom_site_fract_x
_atom_site_fract_y
_atom_site_fract_z
Si Si1 0.539828 0.090897 0.548611
Si Si2 0.553502 0.353547 0.462662
Si Si3 0.318235 0.003805 0.791333
Si Si4 0.785271 0.559449 0.520736
Si Si5 0.748374 0.126777 0.780492
Si Si6 0.259874 0.246734 0.998431
Si Si7 0.811462 0.121397 0.173086
Si Si8 0.932533 0.483358 0.208173
O O1 0.672958 0.028378 0.412278
O O2 0.340982 0.267506 0.514500
O O3 0.644263 0.083354 0.732680
O O4 0.500000 0.000000 0.500000
O O5 0.500000 0.500000 0.500000
O O6 0.352768 0.421068 0.407004
O O7 0.651024 0.250353 0.635515
O O8 0.684814 0.247544 0.314796
O O9 0.200178 0.990333 0.837755
O O10 0.254566 0.154217 0.850067
O O11 0.535416 0.869190 0.885445
O O12 0.844081 0.478397 0.334675
O O13 0.964292 0.486595 0.660114
O O14 0.734334 0.185543 0.977059
O O15 0.971099 0.979325 0.774624
O O16 0.215370 0.375776 0.924701
O O17 0.097018 0.331660 0.110452
#
# Coordination Sequence:
#
# PCOD9104231 Si02
#       8
#     2   2   2   2   2   2   2   2
#     4  11  22  40  66  97 130 168 213 264 330 387
#     4  11  24  45  68  92 131 175 219 272 328 387
#     4  11  22  38  64  94 131 168 216 266 329 383
#     4  10  21  40  58  90 124 170 209 263 319 383
#     4  10  25  44  70  98 129 173 218 277 324 383
#     4  10  22  36  59  99 128 173 207 266 325 385
#     4  11  23  46  69  95 133 169 224 275 323 392
#     4  10  20  39  59  86 135 163 212 261 317 384
#
# _framework density 21.114954000000001
#
# number of rings (size 3 to 8) (size 9 to 14) (size 15 to 20)
#    0.000    1.500    3.750    1.125    7.000    1.500 
#    9.000    0.000    0.000    0.000    0.000    0.000 
#    0.000    0.000    0.000    0.000    0.000    0.000 
#
# Total GULP energy -89373.186747 kJ/mol
# GULP energy per Si atom -5585.824172 kJ/mol
# Density = 2.106690 g / cm^3
# Si number density = 21.114954 Si / 1000 Ang^3
#
#
#
# Elastic Constant Matrix: (Units=GPa)
#
#
# Indices 1 2 3 4 5 6 
#
# 1 71.4512 36.1806 12.3443 3.3669 6.2359 -0.7447
# 2 36.1806 54.4658 17.4472 5.9969 9.6398 -4.4236
# 3 12.3443 17.4472 88.3742 0.4935 -9.2402 -7.8082
# 4 3.3669 5.9969 0.4935 17.9766 -6.4174 -5.0020
# 5 6.2359 9.6398 -9.2402 -6.4174 34.3135 11.1772
# 6 -0.7447 -4.4236 -7.8082 -5.0020 11.1772 20.7186
#
#
#
# Elastic Compliance Matrix: (Units=1/GPa)
#
#
# Indices 1 2 3 4 5 6 
#
# 1 0.021241 -0.014548 -0.000232 0.000491 0.001224 -0.002972
# 2 -0.014548 0.033980 -0.005181 -0.010614 -0.013351 0.009420
# 3 -0.000232 -0.005181 0.013055 0.003776 0.005075 0.001979
# 4 0.000491 -0.010614 0.003776 0.066023 0.013750 0.007696
# 5 0.001224 -0.013351 0.005075 0.013750 0.043456 -0.021018
# 6 -0.002972 0.009420 0.001979 0.007696 -0.021018 0.064113
#
#
# Mechanical properties :
#
#
# Convention : Reuss Voigt Hill
#
# Bulk Modulus (GPa) = 35.26747 38.47060 36.86904
# Shear Modulus (GPa) = 17.16784 24.48969 20.82877
#
# Velocity S-wave (km/s) = 2.85452 3.40932 3.14418
# Velocity P-wave (km/s) = 5.25388 5.81008 5.53897
#
# Compressibility (1/GPa) = 0.02835474
#
# Stress axis : x y z
#
# Youngs Moduli (GPa) = 47.07803 29.42880 76.59792
#
# Poissons Ratio (x) = 0.42813 0.01779
# Poissons Ratio (y) = 0.68489 0.39684
# Poissons Ratio (z) = 0.01093 0.15247
#
# Static dielectric constant tensor:
#      x y z
#    x 1.789130 0.009470 -0.046140 
#    y 0.009470 1.731660 -0.001690 
#    z -0.046140 -0.001690 1.812140 
# 
# From -- ./inp_files/270711.got.cif
#   From: 2010.05.17/outbox.cif.g08.bks.cpg/sg2_136_cif.got.tgz:270711.got - 2010.06.03 11:33:40.
