data_PCOD9104195
_publ_section_title
;
Structure prediction by ZEFSAII (Michael W. Deem and Ramdas Pophale) SiO2 
 PCOD9104195
Probable space group: P -1
;
_chemical_formula_sum "Si O2"
_cell_formula_units_Z 16
_cell_length_a 15.327029
_cell_length_b 9.924274
_cell_length_c 15.614029
_cell_angle_alpha 141.896238
_cell_angle_beta 141.349603
_cell_angle_gamma 60.070499
_cell_volume 873.220388
_symmetry_space_group_name_H-M "P -1"
_symmetry_group_IT_number 2
_symmetry_cell_setting 'triclinic'
loop_
_space_group_symop_operation_xyz
x,y,z
-x,-y,-z
loop_
_atom_site_type_symbol
_atom_site_label
_atom_site_fract_x
_atom_site_fract_y
_atom_site_fract_z
Si Si1 0.191620 0.865052 0.613244
Si Si2 0.672555 0.012461 0.540651
Si Si3 0.677660 0.157924 0.811708
Si Si4 0.670952 0.316400 0.531963
Si Si5 0.680951 0.824105 0.797145
Si Si6 0.836927 0.684418 0.433579
Si Si7 0.185446 0.805723 0.775240
Si Si8 0.154509 0.318860 0.757963
O O1 0.283492 0.791895 0.572823
O O2 0.226585 0.810743 0.709420
O O3 0.020688 0.734775 0.396545
O O4 0.204387 0.133760 0.757629
O O5 0.497637 0.895476 0.339178
O O6 0.755052 0.824081 0.496299
O O7 0.703240 0.110572 0.708671
O O8 0.718459 0.204502 0.597279
O O9 0.723474 0.988463 0.828607
O O10 0.762158 0.420048 0.027865
O O11 0.727712 0.592838 0.711612
O O12 0.495143 0.250510 0.369415
O O13 0.741428 0.970967 0.001478
O O14 0.779651 0.412747 0.266852
O O15 0.816042 0.734642 0.344004
O O16 0.010284 0.760156 0.622583
#
# Coordination Sequence:
#
# PCOD9104195 Si02
#       8
#     2   2   2   2   2   2   2   2
#     4  10  22  37  58  86 115 148 184 231 284 335
#     4  10  22  39  60  84 111 149 193 234 276 328
#     4  10  22  39  60  84 111 149 193 234 276 328
#     4  10  22  40  58  82 117 150 186 232 281 334
#     4  10  22  40  58  82 117 150 186 232 281 334
#     4  10  20  39  59  83 115 145 190 236 276 331
#     4  10  22  37  58  86 115 148 184 231 284 335
#     4  10  20  39  59  83 115 145 190 236 276 331
#
# _framework density 18.322980999999999
#
# number of rings (size 3 to 8) (size 9 to 14) (size 15 to 20)
#    0.000    2.000    2.500    0.000    3.500    3.000 
#    0.000    2.500    0.000    0.000    0.000    0.000 
#    0.000    0.000    0.000    0.000    0.000    0.000 
#
# Total GULP energy -89277.148558 kJ/mol
# GULP energy per Si atom -5579.821785 kJ/mol
# Density = 1.828128 g / cm^3
# Si number density = 18.322981 Si / 1000 Ang^3
#
#
#
# Elastic Constant Matrix: (Units=GPa)
#
#
# Indices 1 2 3 4 5 6 
#
# 1 96.7588 38.4992 12.7567 5.1624 -18.9677 6.2146
# 2 38.4992 64.1310 27.5239 18.0003 -6.6128 5.1326
# 3 12.7567 27.5239 78.2086 29.2294 -11.8190 -3.6636
# 4 5.1624 18.0003 29.2294 25.3267 3.4835 -1.6617
# 5 -18.9677 -6.6128 -11.8190 3.4835 12.4965 7.8581
# 6 6.2146 5.1326 -3.6636 -1.6617 7.8581 19.4292
#
#
#
# Elastic Compliance Matrix: (Units=1/GPa)
#
#
# Indices 1 2 3 4 5 6 
#
# 1 -0.024526 -0.022183 -0.060093 0.123621 -0.199015 0.093438
# 2 -0.022183 0.022365 -0.022995 0.026175 -0.067466 0.026377
# 3 -0.060093 -0.022995 -0.068119 0.159214 -0.306540 0.150047
# 4 0.123621 0.026175 0.159214 -0.291881 0.616172 -0.290606
# 5 -0.199015 -0.067466 -0.306540 0.616172 -1.029214 0.492638
# 6 0.093438 0.026377 0.150047 -0.290606 0.492638 -0.181192
#
#
# Mechanical properties :
#
#
# Convention : Reuss Voigt Hill
#
# Bulk Modulus (GPa) = -3.56097 44.07312 20.25607
# Shear Modulus (GPa) = -3.43493 22.13839 9.35173
#
# Velocity S-wave (km/s) = -1.37067 3.47973 2.26162
# Velocity P-wave (km/s) = 2.11013 6.34432 4.23071
#
# Compressibility (1/GPa) = -0.28082209
#
# Stress axis : x y z
#
# Youngs Moduli (GPa) = -40.77294 44.71354 -14.68014
#
# Poissons Ratio (x) = 0.99188 -0.88217
# Poissons Ratio (y) = -0.90447 -0.33757
# Poissons Ratio (z) = -2.45016 1.02818
#
# Static dielectric constant tensor:
#      x y z
#    x 1.611590 0.015490 0.022370 
#    y 0.015490 1.625740 0.001650 
#    z 0.022370 0.001650 1.603010 
# 
# From -- ./inp_files/217309.got.cif
#   From: 2010.05.17/outbox.cif.g08.bks.cpg/sg2_109_cif.got.tgz:217309.got - 2010.06.03 11:33:40.
