data_PCOD9104139
_publ_section_title
;
Structure prediction by ZEFSAII (Michael W. Deem and Ramdas Pophale) SiO2 
 PCOD9104139
Probable space group: P -1
;
_chemical_formula_sum "Si O2"
_cell_formula_units_Z 14
_cell_length_a 6.252224
_cell_length_b 14.340163
_cell_length_c 27.668527
_cell_angle_alpha 19.443357
_cell_angle_beta 68.813637
_cell_angle_gamma 78.711926
_cell_volume 680.696467
_symmetry_space_group_name_H-M "P -1"
_symmetry_group_IT_number 2
_symmetry_cell_setting 'triclinic'
loop_
_space_group_symop_operation_xyz
x,y,z
-x,-y,-z
loop_
_atom_site_type_symbol
_atom_site_label
_atom_site_fract_x
_atom_site_fract_y
_atom_site_fract_z
Si Si1 0.753044 0.396370 0.427188
Si Si2 0.617009 0.262304 0.957310
Si Si3 0.309959 0.084154 0.405973
Si Si4 0.803661 0.319733 0.296534
Si Si5 0.716090 0.751682 0.161697
Si Si6 0.848127 0.182829 0.727098
Si Si7 0.694963 0.661117 0.449703
O O1 0.734694 0.616652 0.278398
O O2 0.470194 0.224282 0.559592
O O3 0.966214 0.611910 0.343942
O O4 0.817309 0.143439 0.518325
O O5 0.627078 0.558158 0.783763
O O6 0.919196 0.416860 0.873796
O O7 0.562057 0.953429 0.080609
O O8 0.395727 0.128740 0.080794
O O9 0.600365 0.115474 0.372807
O O10 0.167376 0.900383 0.556587
O O11 0.655183 0.482130 0.258935
O O12 0.000000 0.000000 0.000000
O O13 0.741862 0.401398 0.602657
O O14 0.028895 0.119691 0.704992
O O15 0.500000 0.500000 0.500000
#
# Coordination Sequence:
#
# PCOD9104139 Si02
#       7
#     2   2   2   2   2   2   2
#     4  10  20  39  58  85 120 155 191 232 296 349
#     4  11  21  35  58  88 113 147 199 246 282 331
#     4  10  22  38  57  82 118 164 192 232 289 348
#     4   9  21  40  54  78 123 161 199 229 287 339
#     4   9  19  35  54  84 116 152 196 237 273 334
#     4  10  21  35  64  92 109 147 199 245 288 344
#     4   9  19  38  62  87 116 145 191 241 298 348
#
# _framework density 20.567167999999999
#
# number of rings (size 3 to 8) (size 9 to 14) (size 15 to 20)
#    0.000    2.286    1.429    0.429    4.000    1.714 
#    7.714    0.714    0.000    8.571    0.000    0.000 
#    0.000    0.000    0.000    0.000    0.000    0.000 
#
# Total GULP energy -77967.488733 kJ/mol
# GULP energy per Si atom -5569.106338 kJ/mol
# Density = 2.052036 g / cm^3
# Si number density = 20.567168 Si / 1000 Ang^3
#
#
#
# Elastic Constant Matrix: (Units=GPa)
#
#
# Indices 1 2 3 4 5 6 
#
# 1 52.3870 26.9475 38.8645 14.4004 -11.4901 -0.5735
# 2 26.9475 73.4871 39.3152 15.7688 6.9209 -0.9640
# 3 38.8645 39.3152 131.0714 17.8985 -8.6348 -13.5750
# 4 14.4004 15.7688 17.8985 32.7738 -16.9789 -5.4039
# 5 -11.4901 6.9209 -8.6348 -16.9789 39.5981 2.2955
# 6 -0.5735 -0.9640 -13.5750 -5.4039 2.2955 35.6080
#
#
#
# Elastic Compliance Matrix: (Units=1/GPa)
#
#
# Indices 1 2 3 4 5 6 
#
# 1 0.030032 -0.008126 -0.005912 -0.002393 0.007986 -0.002868
# 2 -0.008126 0.022087 -0.003618 -0.011527 -0.011840 -0.001898
# 3 -0.005912 -0.003618 0.011004 -0.000603 0.000834 0.003857
# 4 -0.002393 -0.011527 -0.000603 0.049886 0.022257 0.005555
# 5 0.007986 -0.011840 0.000834 0.022257 0.039309 0.000970
# 6 -0.002868 -0.001898 0.003857 0.005555 0.000970 0.030237
#
#
# Mechanical properties :
#
#
# Convention : Reuss Voigt Hill
#
# Bulk Modulus (GPa) = 35.95574 51.91110 43.93342
# Shear Modulus (GPa) = 22.01300 31.71720 26.86510
#
# Velocity S-wave (km/s) = 3.27509 3.93125 3.61808
# Velocity P-wave (km/s) = 5.64107 6.77502 6.23388
#
# Compressibility (1/GPa) = 0.02781197
#
# Stress axis : x y z
#
# Youngs Moduli (GPa) = 33.29728 45.27553 90.87325
#
# Poissons Ratio (x) = 0.36792 0.53722
# Poissons Ratio (y) = 0.27058 0.32878
# Poissons Ratio (z) = 0.19684 0.16381
#
# Static dielectric constant tensor:
#      x y z
#    x 1.838610 -0.035640 -0.002250 
#    y -0.035640 1.792930 -0.022440 
#    z -0.002250 -0.022440 1.733130 
# 
# From -- ./inp_files/323584.got.cif
#   From: 2010.05.17/outbox.cif.g08.bks.cpg/sg2_162_cif.got.tgz:323584.got - 2010.06.03 11:33:40.
