data_PCOD9104923
_publ_section_title
;
Structure prediction by ZEFSAII (Michael W. Deem and Ramdas Pophale) SiO2 
 PCOD9104923
Probable space group: P -1
;
_chemical_formula_sum "Si O2"
_cell_formula_units_Z 16
_cell_length_a 16.711686
_cell_length_b 9.230998
_cell_length_c 11.758601
_cell_angle_alpha 52.960961
_cell_angle_beta 40.877940
_cell_angle_gamma 84.179875
_cell_volume 696.788964
_symmetry_space_group_name_H-M "P -1"
_symmetry_group_IT_number 2
_symmetry_cell_setting 'triclinic'
loop_
_space_group_symop_operation_xyz
x,y,z
-x,-y,-z
loop_
_atom_site_type_symbol
_atom_site_label
_atom_site_fract_x
_atom_site_fract_y
_atom_site_fract_z
Si Si1 0.130367 0.976595 0.459589
Si Si2 0.956988 0.718972 0.550376
Si Si3 0.809942 0.884575 0.277175
Si Si4 0.375056 0.875345 0.031111
Si Si5 0.325438 0.606428 0.419126
Si Si6 0.844746 0.210093 0.896395
Si Si7 0.332649 0.022490 0.417034
Si Si8 0.136420 0.491835 0.895935
O O1 0.112132 0.918513 0.373465
O O2 0.259316 0.985327 0.386913
O O3 0.154041 0.213595 0.345917
O O4 0.949961 0.733761 0.819723
O O5 0.004558 0.735710 0.359686
O O6 0.889252 0.452983 0.782511
O O7 0.674849 0.593001 0.537158
O O8 0.760281 0.922629 0.433031
O O9 0.787200 0.020009 0.145637
O O10 0.000000 0.000000 0.000000
O O11 0.272127 0.683679 0.336068
O O12 0.280884 0.879156 0.029699
O O13 0.473270 0.806638 0.896902
O O14 0.509205 0.142428 0.821720
O O15 0.197104 0.461878 0.729243
O O16 0.282674 0.775545 0.640898
O O17 0.000000 0.500000 0.000000
#
# Coordination Sequence:
#
# PCOD9104923 Si02
#       8
#     2   2   2   2   2   2   2   2
#     4  10  20  39  62  97 123 166 215 268 321 372
#     4  10  23  38  62  92 133 163 213 270 326 372
#     4  12  25  42  69  99 128 164 218 272 323 373
#     4  10  25  43  64  92 131 178 214 250 322 393
#     4  10  23  41  65  93 128 173 217 256 310 397
#     4  11  25  41  63  94 130 170 207 274 321 375
#     4  10  22  39  65  93 128 170 214 258 316 390
#     4   9  17  33  61  89 121 158 212 258 310 362
#
# _framework density 22.962474
#
# number of rings (size 3 to 8) (size 9 to 14) (size 15 to 20)
#    0.000    1.750    0.000    3.750   12.250    1.500 
#    0.000    0.000    0.000    0.000    0.000    0.000 
#    0.000    0.000    0.000    0.000    0.000    0.000 
#
# Total GULP energy -89297.442285 kJ/mol
# GULP energy per Si atom -5581.090143 kJ/mol
# Density = 2.291021 g / cm^3
# Si number density = 22.962474 Si / 1000 Ang^3
#
#
#
# Elastic Constant Matrix: (Units=GPa)
#
#
# Indices 1 2 3 4 5 6 
#
# 1 91.6095 24.5196 2.5629 -3.6217 8.2854 0.9240
# 2 24.5196 142.5934 31.6787 -8.6111 7.3994 7.0976
# 3 2.5629 31.6787 38.3261 2.7066 15.1135 -0.7867
# 4 -3.6217 -8.6111 2.7066 40.9426 -4.6797 6.7313
# 5 8.2854 7.3994 15.1135 -4.6797 27.1418 -1.8983
# 6 0.9240 7.0976 -0.7867 6.7313 -1.8983 27.1116
#
#
#
# Elastic Compliance Matrix: (Units=1/GPa)
#
#
# Indices 1 2 3 4 5 6 
#
# 1 0.011925 -0.002531 0.003193 -0.000246 -0.004765 0.000076
# 2 -0.002531 0.009797 -0.009788 0.003483 0.003918 -0.003353
# 3 0.003193 -0.009788 0.044072 -0.008097 -0.023959 0.004065
# 4 -0.000246 0.003483 -0.008097 0.027805 0.007904 -0.007488
# 5 -0.004765 0.003918 -0.023959 0.007904 0.051942 0.000116
# 6 0.000076 -0.003353 0.004065 -0.007488 0.000116 0.039745
#
#
# Mechanical properties :
#
#
# Convention : Reuss Voigt Hill
#
# Bulk Modulus (GPa) = 21.03499 43.33904 32.18701
# Shear Modulus (GPa) = 22.79104 33.29040 28.04072
#
# Velocity S-wave (km/s) = 3.15387 3.81172 3.49829
# Velocity P-wave (km/s) = 4.73740 6.18766 5.51045
#
# Compressibility (1/GPa) = 0.04753983
#
# Stress axis : x y z
#
# Youngs Moduli (GPa) = 83.86091 102.07645 22.69020
#
# Poissons Ratio (x) = 0.25837 -0.07244
# Poissons Ratio (y) = 0.21226 0.22209
# Poissons Ratio (z) = -0.26774 0.99913
#
# Static dielectric constant tensor:
#      x y z
#    x 1.814150 -0.067280 -0.059900 
#    y -0.067280 1.533490 -0.046320 
#    z -0.059900 -0.046320 1.940110 
# 
# From -- ./inp_files/461900.got.cif
#   From: 2010.05.17/outbox.cif.g08.bks.cpg/sg2_231_cif.got.tgz:461900.got - 2010.06.03 11:33:40.
