data_PCOD9104025
_publ_section_title
;
Structure prediction by ZEFSAII (Michael W. Deem and Ramdas Pophale) SiO2 
 PCOD9104025
Probable space group: P -1
;
_chemical_formula_sum "Si O2"
_cell_formula_units_Z 15
_cell_length_a 25.740098
_cell_length_b 8.343771
_cell_length_c 25.936888
_cell_angle_alpha 133.718237
_cell_angle_beta 11.066944
_cell_angle_gamma 133.342778
_cell_volume 771.500805
_symmetry_space_group_name_H-M "P -1"
_symmetry_group_IT_number 2
_symmetry_cell_setting 'triclinic'
loop_
_space_group_symop_operation_xyz
x,y,z
-x,-y,-z
loop_
_atom_site_type_symbol
_atom_site_label
_atom_site_fract_x
_atom_site_fract_y
_atom_site_fract_z
Si Si1 0.778848 0.543676 0.768588
Si Si2 0.205796 0.702548 0.553058
Si Si3 0.555082 0.226369 0.555566
Si Si4 0.934104 0.962646 0.782764
Si Si5 0.768700 0.154501 0.775129
Si Si6 0.540955 0.747004 0.693925
Si Si7 0.000000 0.000000 0.000000
Si Si8 0.682025 0.410157 0.016183
O O1 0.778763 0.361698 0.773168
O O2 0.000000 0.500000 0.500000
O O3 0.831352 0.778839 0.799509
O O4 0.500000 0.500000 0.000000
O O5 0.372803 0.810709 0.462494
O O6 0.076985 0.846740 0.666078
O O7 0.948307 0.571062 0.801822
O O8 0.425319 0.546775 0.278429
O O9 0.548432 0.492785 0.611458
O O10 0.262996 0.116304 0.801324
O O11 0.786784 0.126110 0.273322
O O12 0.165424 0.129568 0.569937
O O13 0.683840 0.099966 0.077262
O O14 0.784173 0.246790 0.837829
O O15 0.000000 0.000000 0.500000
O O16 0.500000 0.000000 0.000000
O O17 0.435534 0.719450 0.848871
#
# Coordination Sequence:
#
# PCOD9104025 Si02
#       8
#     2   2   2   2   2   2   1   2
#     4  12  28  46  61  88 129 172 220 270 340 400
#     4  11  22  42  68  91 128 166 217 260 313 372
#     4  10  21  41  67 102 127 170 208 254 299 381
#     4  12  25  42  66  93 129 174 209 278 329 376
#     4  12  27  43  63  87 120 168 216 280 327 390
#     4  11  24  40  68  98 128 163 217 268 315 374
#     4  10  20  38  72  98 136 164 206 246 308 368
#     4  11  23  42  63  88 123 163 221 274 316 375
#
# _framework density 19.442623000000001
#
# number of rings (size 3 to 8) (size 9 to 14) (size 15 to 20)
#    0.000    0.800    1.333    7.200    7.467    0.000 
#    0.000    0.000    0.000   16.000    0.000    0.000 
#    0.000    0.000    0.000    0.000    0.000    0.000 
#
# Total GULP energy -83550.067819 kJ/mol
# GULP energy per Si atom -5570.004521 kJ/mol
# Density = 1.939837 g / cm^3
# Si number density = 19.442623 Si / 1000 Ang^3
#
#
#
# Elastic Constant Matrix: (Units=GPa)
#
#
# Indices 1 2 3 4 5 6 
#
# 1 69.2678 62.6805 31.8660 -5.4332 -9.1983 26.0166
# 2 62.6805 45.2934 27.4437 -13.0466 -0.6033 23.1888
# 3 31.8660 27.4437 164.0763 -8.7910 -10.0871 21.9409
# 4 -5.4332 -13.0466 -8.7910 44.8352 2.4406 0.0681
# 5 -9.1983 -0.6033 -10.0871 2.4406 35.2298 -2.8827
# 6 26.0166 23.1888 21.9409 0.0681 -2.8827 30.3960
#
#
#
# Elastic Compliance Matrix: (Units=1/GPa)
#
#
# Indices 1 2 3 4 5 6 
#
# 1 -0.035135 0.062371 -0.001138 0.014287 -0.010873 -0.017751
# 2 0.062371 -0.067446 -0.000556 -0.013041 0.015874 0.000005
# 3 -0.001138 -0.000556 0.007019 0.001009 0.001343 -0.003544
# 4 0.014287 -0.013041 0.001009 0.020325 0.002155 -0.002849
# 5 -0.010873 0.015874 0.001343 0.002155 0.025945 -0.001317
# 6 -0.017751 0.000005 -0.003544 -0.002849 -0.001317 0.050528
#
#
# Mechanical properties :
#
#
# Convention : Reuss Voigt Hill
#
# Bulk Modulus (GPa) = 38.77089 58.06867 48.41978
# Shear Modulus (GPa) = -44.83513 32.53535 -6.14989
#
# Velocity S-wave (km/s) = -4.80732 4.09516 -1.78044
# Velocity P-wave (km/s) = 3.29078 7.23132 4.55317
#
# Compressibility (1/GPa) = 0.02579255
#
# Stress axis : x y z
#
# Youngs Moduli (GPa) = -28.46151 -14.82673 142.46705
#
# Poissons Ratio (x) = 0.92475 0.16209
# Poissons Ratio (y) = 1.77516 0.07916
# Poissons Ratio (z) = -0.03238 -0.00824
#
# Static dielectric constant tensor:
#      x y z
#    x 1.697450 -0.010140 -0.043420 
#    y -0.010140 1.699220 0.018430 
#    z -0.043420 0.018430 1.667710 
# 
# From -- ./inp_files/621104.got.cif
#   From: 2010.05.17/outbox.cif.g08.bks.cpg/sg2_311_cif.got.tgz:621104.got - 2010.06.03 11:33:40.
