data_PCOD9104902
_publ_section_title
;
Structure prediction by ZEFSAII (Michael W. Deem and Ramdas Pophale) SiO2 
 PCOD9104902
Probable space group: P -1
;
_chemical_formula_sum "Si O2"
_cell_formula_units_Z 16
_cell_length_a 17.110426
_cell_length_b 6.471834
_cell_length_c 7.715776
_cell_angle_alpha 111.434683
_cell_angle_beta 52.765355
_cell_angle_gamma 104.385349
_cell_volume 632.772672
_symmetry_space_group_name_H-M "P -1"
_symmetry_group_IT_number 2
_symmetry_cell_setting 'triclinic'
loop_
_space_group_symop_operation_xyz
x,y,z
-x,-y,-z
loop_
_atom_site_type_symbol
_atom_site_label
_atom_site_fract_x
_atom_site_fract_y
_atom_site_fract_z
Si Si1 0.443445 0.436006 0.382708
Si Si2 0.033810 0.810163 0.697899
Si Si3 0.681132 0.001355 0.531639
Si Si4 0.851954 0.809727 0.470830
Si Si5 0.705240 0.205268 0.200924
Si Si6 0.898164 0.362059 0.115015
Si Si7 0.357245 0.652376 0.030869
Si Si8 0.845768 0.591619 0.762457
O O1 0.500000 0.500000 0.500000
O O2 0.353286 0.597877 0.565643
O O3 0.535907 0.450390 0.134730
O O4 0.401995 0.185097 0.371983
O O5 0.079237 0.824258 0.832308
O O6 0.097763 0.626314 0.452141
O O7 0.923936 0.702590 0.824437
O O8 0.047631 0.046024 0.656289
O O9 0.696729 0.021876 0.309754
O O10 0.774709 0.930586 0.494614
O O11 0.656839 0.227314 0.731345
O O12 0.842462 0.556382 0.346352
O O13 0.838571 0.781699 0.683703
O O14 0.821495 0.272521 0.048197
O O15 0.655633 0.182700 0.069952
O O16 0.000000 0.500000 0.000000
O O17 0.265244 0.481605 0.067369
#
# Coordination Sequence:
#
# PCOD9104902 Si02
#       8
#     2   2   2   2   2   2   2   2
#     4  10  25  47  71 101 136 178 225 280 344 398
#     4  10  20  39  62  94 133 181 220 272 341 388
#     4  12  23  47  72  98 139 179 223 282 337 406
#     4  11  21  40  67  95 134 183 223 271 347 393
#     4  11  24  47  69  96 146 175 220 289 336 397
#     4  11  22  39  64  93 134 183 224 275 336 401
#     4  11  24  45  69 106 129 180 236 273 338 405
#     4  10  21  39  63  95 139 167 224 284 321 402
#
# _framework density 25.285543000000001
#
# number of rings (size 3 to 8) (size 9 to 14) (size 15 to 20)
#    0.000    1.250    3.750    2.250    0.000    3.000 
#    9.000    0.000    0.000    0.000    0.000    0.000 
#    0.000    0.000    0.000    0.000    0.000    0.000 
#
# Total GULP energy -89333.432484 kJ/mol
# GULP energy per Si atom -5583.339530 kJ/mol
# Density = 2.522799 g / cm^3
# Si number density = 25.285543 Si / 1000 Ang^3
#
#
#
# Elastic Constant Matrix: (Units=GPa)
#
#
# Indices 1 2 3 4 5 6 
#
# 1 110.2278 20.0912 29.4081 -11.3750 -10.6246 13.9771
# 2 20.0912 76.3167 17.0457 -8.8844 -4.5420 6.2339
# 3 29.4081 17.0457 62.6117 -15.5164 -8.3532 0.5171
# 4 -11.3750 -8.8844 -15.5164 27.4061 7.4370 0.7280
# 5 -10.6246 -4.5420 -8.3532 7.4370 52.2172 -15.0958
# 6 13.9771 6.2339 0.5171 0.7280 -15.0958 41.2202
#
#
#
# Elastic Compliance Matrix: (Units=1/GPa)
#
#
# Indices 1 2 3 4 5 6 
#
# 1 0.011135 -0.001465 -0.004349 0.001722 0.000198 -0.003458
# 2 -0.001465 0.014525 -0.002615 0.002774 -0.000385 -0.001857
# 3 -0.004349 -0.002615 0.021105 0.008809 0.001598 0.002035
# 4 0.001722 0.002774 0.008809 0.044685 -0.005495 -0.003916
# 5 0.000198 -0.000385 0.001598 -0.005495 0.022609 0.008348
# 6 -0.003458 -0.001857 0.002035 -0.003916 0.008348 0.028814
#
#
# Mechanical properties :
#
#
# Convention : Reuss Voigt Hill
#
# Bulk Modulus (GPa) = 33.43747 42.47182 37.95464
# Shear Modulus (GPa) = 29.46376 36.34279 32.90327
#
# Velocity S-wave (km/s) = 3.41727 3.79528 3.61122
# Velocity P-wave (km/s) = 5.36870 6.00324 5.69481
#
# Compressibility (1/GPa) = 0.02990657
#
# Stress axis : x y z
#
# Youngs Moduli (GPa) = 89.80904 68.84815 47.38127
#
# Poissons Ratio (x) = 0.10088 0.20607
# Poissons Ratio (y) = 0.13159 0.12389
# Poissons Ratio (z) = 0.39060 0.18001
#
# Static dielectric constant tensor:
#      x y z
#    x 1.889510 -0.109670 0.023410 
#    y -0.109670 2.019110 0.129240 
#    z 0.023410 0.129240 2.094550 
# 
# From -- ./inp_files/323832.got.cif
#   From: 2010.05.17/outbox.cif.g08.bks.cpg/sg2_162_cif.got.tgz:323832.got - 2010.06.03 11:33:40.
