data_PCOD9104436
_publ_section_title
;
Structure prediction by ZEFSAII (Michael W. Deem and Ramdas Pophale) SiO2 
 PCOD9104436
Probable space group: P -1
;
_chemical_formula_sum "Si O2"
_cell_formula_units_Z 16
_cell_length_a 8.708854
_cell_length_b 27.655010
_cell_length_c 12.566362
_cell_angle_alpha 28.734541
_cell_angle_beta 40.582075
_cell_angle_gamma 29.798012
_cell_volume 723.044528
_symmetry_space_group_name_H-M "P -1"
_symmetry_group_IT_number 2
_symmetry_cell_setting 'triclinic'
loop_
_space_group_symop_operation_xyz
x,y,z
-x,-y,-z
loop_
_atom_site_type_symbol
_atom_site_label
_atom_site_fract_x
_atom_site_fract_y
_atom_site_fract_z
Si Si1 0.944519 0.585244 0.264647
Si Si2 0.827102 0.348527 0.506056
Si Si3 0.760823 0.653552 0.557541
Si Si4 0.404324 0.658017 0.137035
Si Si5 0.151545 0.706387 0.819121
Si Si6 0.248109 0.195509 0.915857
Si Si7 0.236440 0.018642 0.383111
Si Si8 0.796645 0.748948 0.710488
O O1 0.705572 0.735631 0.144159
O O2 0.000000 0.500000 0.500000
O O3 0.955103 0.497331 0.337665
O O4 0.205990 0.592915 0.081156
O O5 0.567102 0.505563 0.332746
O O6 0.720082 0.303952 0.746297
O O7 0.132866 0.318350 0.449019
O O8 0.938180 0.294911 0.431533
O O9 0.475914 0.661325 0.706957
O O10 0.659290 0.764845 0.310845
O O11 0.105669 0.736298 0.065297
O O12 0.645186 0.678332 0.935580
O O13 0.965342 0.845104 0.709074
O O14 0.946046 0.728780 0.784907
O O15 0.388722 0.049111 0.153686
O O16 0.501155 0.897546 0.548866
O O17 0.000000 0.000000 0.500000
#
# Coordination Sequence:
#
# PCOD9104436 Si02
#       8
#     2   2   2   2   2   2   2   2
#     4   9  19  35  61  89 127 164 199 254 316 378
#     4  10  23  40  64  96 129 166 213 260 324 385
#     4  10  20  39  60  96 127 162 212 257 320 388
#     4  10  21  40  64  95 129 163 213 267 316 381
#     4  11  24  39  62  97 127 164 216 264 317 381
#     4   9  20  38  63  94 121 168 212 265 313 376
#     4  11  22  44  66  88 122 172 222 262 316 376
#     4  12  24  42  65  92 130 170 214 265 324 369
#
# _framework density 22.12865
#
# number of rings (size 3 to 8) (size 9 to 14) (size 15 to 20)
#    0.000    1.750    1.250    2.625    3.500    1.000 
#    9.000    2.500    0.000    0.000    0.000    0.000 
#    0.000    0.000    0.000    0.000    0.000    0.000 
#
# Total GULP energy -89099.702506 kJ/mol
# GULP energy per Si atom -5568.731407 kJ/mol
# Density = 2.207828 g / cm^3
# Si number density = 22.128650 Si / 1000 Ang^3
#
#
#
# Elastic Constant Matrix: (Units=GPa)
#
#
# Indices 1 2 3 4 5 6 
#
# 1 51.7908 17.7709 22.2829 17.8681 -0.4637 1.3049
# 2 17.7709 54.2261 24.8316 8.9191 -2.0999 1.6346
# 3 22.2829 24.8316 143.4166 7.7512 -5.3168 -5.5571
# 4 17.8681 8.9191 7.7512 30.1944 -2.3422 -3.6869
# 5 -0.4637 -2.0999 -5.3168 -2.3422 25.8724 2.3981
# 6 1.3049 1.6346 -5.5571 -3.6869 2.3981 36.7042
#
#
#
# Elastic Compliance Matrix: (Units=1/GPa)
#
#
# Indices 1 2 3 4 5 6 
#
# 1 0.027282 -0.005341 -0.002695 -0.014299 -0.001564 -0.002474
# 2 -0.005341 0.022037 -0.002862 -0.002727 0.001003 -0.001564
# 3 -0.002695 -0.002862 0.007953 0.000670 0.001284 0.001411
# 4 -0.014299 -0.002727 0.000670 0.043047 0.003107 0.004852
# 5 -0.001564 0.001003 0.001284 0.003107 0.039441 -0.002059
# 6 -0.002474 -0.001564 0.001411 0.004852 -0.002059 0.028238
#
#
# Mechanical properties :
#
#
# Convention : Reuss Voigt Hill
#
# Bulk Modulus (GPa) = 28.18785 42.13382 35.16083
# Shear Modulus (GPa) = 24.79936 30.85741 27.82838
#
# Velocity S-wave (km/s) = 3.35130 3.73829 3.55007
# Velocity P-wave (km/s) = 5.26695 6.14124 5.72082
#
# Compressibility (1/GPa) = 0.03547628
#
# Stress axis : x y z
#
# Youngs Moduli (GPa) = 36.65418 45.37904 125.73952
#
# Poissons Ratio (x) = 0.24236 0.33889
# Poissons Ratio (y) = 0.19576 0.35983
# Poissons Ratio (z) = 0.09879 0.12986
#
# Static dielectric constant tensor:
#      x y z
#    x 1.831850 0.046430 0.020320 
#    y 0.046430 1.887710 0.070510 
#    z 0.020320 0.070510 1.837900 
# 
# From -- ./inp_files/407319.got.cif
#   From: 2010.05.17/outbox.cif.g08.bks.cpg/sg2_204_cif.got.tgz:407319.got - 2010.06.03 11:33:40.
