data_PCOD9104314
_publ_section_title
;
Structure prediction by ZEFSAII (Michael W. Deem and Ramdas Pophale) SiO2 
 PCOD9104314
Probable space group: P -1
;
_chemical_formula_sum "Si O2"
_cell_formula_units_Z 16
_cell_length_a 11.377704
_cell_length_b 18.390016
_cell_length_c 6.816079
_cell_angle_alpha 60.700630
_cell_angle_beta 121.168883
_cell_angle_gamma 135.143395
_cell_volume 842.804333
_symmetry_space_group_name_H-M "P -1"
_symmetry_group_IT_number 2
_symmetry_cell_setting 'triclinic'
loop_
_space_group_symop_operation_xyz
x,y,z
-x,-y,-z
loop_
_atom_site_type_symbol
_atom_site_label
_atom_site_fract_x
_atom_site_fract_y
_atom_site_fract_z
Si Si1 0.812500 0.446444 0.317105
Si Si2 0.936702 0.677954 0.681606
Si Si3 0.495930 0.943849 0.265539
Si Si4 0.316284 0.337645 0.215357
Si Si5 0.247975 0.679898 0.936271
Si Si6 0.681258 0.556692 0.272726
Si Si7 0.478541 0.746640 0.420127
Si Si8 0.261001 0.857028 0.520331
O O1 0.800353 0.412946 0.127147
O O2 0.758807 0.519691 0.231073
O O3 0.671075 0.336898 0.448657
O O4 0.000000 0.500000 0.500000
O O5 0.848475 0.693112 0.763702
O O6 0.790344 0.591799 0.518969
O O7 0.068911 0.654281 0.897605
O O8 0.061919 0.781374 0.515924
O O9 0.528512 0.860196 0.351692
O O10 0.312644 0.882423 0.304539
O O11 0.636764 0.034704 0.415154
O O12 0.500000 0.000000 0.000000
O O13 0.483770 0.455355 0.269384
O O14 0.367718 0.262328 0.408546
O O15 0.305592 0.351557 0.954375
O O16 0.322491 0.787581 0.738251
O O17 0.384595 0.704989 0.183868
#
# Coordination Sequence:
#
# PCOD9104314 Si02
#       8
#     2   2   2   2   2   2   2   2
#     4  11  21  36  57  89 121 149 201 249 289 342
#     4  10  20  39  60  85 119 155 204 243 294 352
#     4  11  19  38  64  90 121 147 193 253 309 348
#     4  10  24  39  57  83 123 168 199 233 295 364
#     4  10  21  36  61  91 115 151 199 251 293 342
#     4  10  22  39  59  82 120 170 198 241 294 351
#     4  11  23  38  59  92 119 156 199 243 299 357
#     4   9  21  35  61  93 112 149 195 247 308 349
#
# _framework density 18.98424
#
# number of rings (size 3 to 8) (size 9 to 14) (size 15 to 20)
#    0.750    1.000    3.750    0.375    1.750    6.500 
#    0.000    0.625    0.000    1.500    0.000    0.000 
#    0.000    0.000    0.000    0.000    0.000    0.000 
#
# Total GULP energy -89233.441917 kJ/mol
# GULP energy per Si atom -5577.090120 kJ/mol
# Density = 1.894103 g / cm^3
# Si number density = 18.984240 Si / 1000 Ang^3
#
#
#
# Elastic Constant Matrix: (Units=GPa)
#
#
# Indices 1 2 3 4 5 6 
#
# 1 71.0719 7.6994 14.6464 -16.9269 -13.9955 -0.4168
# 2 7.6994 53.8030 13.3571 -9.2322 -5.5705 -12.4603
# 3 14.6464 13.3571 62.3849 -17.4043 1.9523 -18.7260
# 4 -16.9269 -9.2322 -17.4043 32.1637 1.1975 -5.0807
# 5 -13.9955 -5.5705 1.9523 1.1975 23.0921 -2.9951
# 6 -0.4168 -12.4603 -18.7260 -5.0807 -2.9951 31.8273
#
#
#
# Elastic Compliance Matrix: (Units=1/GPa)
#
#
# Indices 1 2 3 4 5 6 
#
# 1 0.018799 0.001014 -0.001818 0.009103 0.011594 0.002118
# 2 0.001014 0.023293 0.000564 0.009088 0.007218 0.011595
# 3 -0.001818 0.000564 0.026453 0.016462 -0.001691 0.018230
# 4 0.009103 0.009088 0.016462 0.050640 0.006553 0.022063
# 5 0.011594 0.007218 -0.001691 0.006553 0.052915 0.008008
# 6 0.002118 0.011595 0.018230 0.022063 0.008008 0.050988
#
#
# Mechanical properties :
#
#
# Convention : Reuss Voigt Hill
#
# Bulk Modulus (GPa) = 14.69159 28.74065 21.71612
# Shear Modulus (GPa) = 20.30414 27.52041 23.91227
#
# Velocity S-wave (km/s) = 3.27391 3.81155 3.55291
# Velocity P-wave (km/s) = 4.69542 5.87730 5.31928
#
# Compressibility (1/GPa) = 0.06806614
#
# Stress axis : x y z
#
# Youngs Moduli (GPa) = 53.19500 42.93130 37.80261
#
# Poissons Ratio (x) = -0.04354 0.06873
# Poissons Ratio (y) = -0.05395 -0.02134
# Poissons Ratio (z) = 0.09671 -0.02423
#
# Static dielectric constant tensor:
#      x y z
#    x 1.718700 0.012740 -0.049240 
#    y 0.012740 1.666900 -0.031630 
#    z -0.049240 -0.031630 1.728140 
# 
# From -- ./inp_files/81309.got.cif
#   From: 2010.05.17/outbox.cif.g08.bks.cpg/sg2_41_cif.got.tgz:81309.got - 2010.06.03 11:33:40.
