data_PCOD9104875
_publ_section_title
;
Structure prediction by ZEFSAII (Michael W. Deem and Ramdas Pophale) SiO2 
 PCOD9104875
Probable space group: P -1
;
_chemical_formula_sum "Si O2"
_cell_formula_units_Z 16
_cell_length_a 14.722553
_cell_length_b 7.417847
_cell_length_c 28.658877
_cell_angle_alpha 41.540407
_cell_angle_beta 18.871267
_cell_angle_gamma 37.517535
_cell_volume 616.473949
_symmetry_space_group_name_H-M "P -1"
_symmetry_group_IT_number 2
_symmetry_cell_setting 'triclinic'
loop_
_space_group_symop_operation_xyz
x,y,z
-x,-y,-z
loop_
_atom_site_type_symbol
_atom_site_label
_atom_site_fract_x
_atom_site_fract_y
_atom_site_fract_z
Si Si1 0.495608 0.710084 0.697402
Si Si2 0.490784 0.379820 0.094033
Si Si3 0.872334 0.912096 0.124820
Si Si4 0.953343 0.138447 0.599336
Si Si5 0.656189 0.003086 0.999374
Si Si6 0.269782 0.831852 0.693145
Si Si7 0.729647 0.230593 0.555322
Si Si8 0.845330 0.220189 0.745040
O O1 0.239125 0.801938 0.842899
O O2 0.787514 0.755691 0.566737
O O3 0.380754 0.936440 0.666272
O O4 0.633933 0.359947 0.689226
O O5 0.529779 0.103199 0.094500
O O6 0.317408 0.457251 0.213494
O O7 0.332787 0.689544 0.083752
O O8 0.839565 0.336458 0.942316
O O9 0.585133 0.824014 0.277377
O O10 0.000000 0.000000 0.000000
O O11 0.938238 0.193472 0.651035
O O12 0.106811 0.810179 0.567348
O O13 0.416702 0.911626 0.105805
O O14 0.994221 0.766584 0.866227
O O15 0.585667 0.570412 0.574773
O O16 0.115449 0.018246 0.686828
O O17 0.000000 0.000000 0.500000
#
# Coordination Sequence:
#
# PCOD9104875 Si02
#       8
#     2   2   2   2   2   2   2   2
#     4  10  21  41  63  85 126 168 206 253 324 382
#     4  10  20  39  62  93 126 167 201 263 327 371
#     4  11  22  38  64  93 122 163 217 262 313 387
#     4  10  23  42  60  88 127 167 209 262 310 380
#     4  10  21  39  65  92 125 164 210 259 322 381
#     4  11  21  41  64  89 123 168 210 257 320 383
#     4  11  23  41  64  88 128 173 207 261 332 376
#     4  11  23  40  64  97 128 160 216 268 309 378
#
# _framework density 25.954056999999999
#
# number of rings (size 3 to 8) (size 9 to 14) (size 15 to 20)
#    0.000    1.500    2.500    3.750    0.000    2.000 
#    2.250    1.250    0.000    0.000    0.000    0.000 
#    0.000    0.000    0.000    0.000    0.000    0.000 
#
# Total GULP energy -89195.830116 kJ/mol
# GULP energy per Si atom -5574.739382 kJ/mol
# Density = 2.589498 g / cm^3
# Si number density = 25.954057 Si / 1000 Ang^3
#
#
#
# Elastic Constant Matrix: (Units=GPa)
#
#
# Indices 1 2 3 4 5 6 
#
# 1 161.2709 39.1837 66.6455 27.5616 27.8619 0.5076
# 2 39.1837 42.9982 38.4345 22.3800 8.7133 11.3559
# 3 66.6455 38.4345 118.7980 45.2412 24.9563 4.0450
# 4 27.5616 22.3800 45.2412 56.7015 8.7778 0.5170
# 5 27.8619 8.7133 24.9563 8.7778 72.9611 12.0984
# 6 0.5076 11.3559 4.0450 0.5170 12.0984 35.3196
#
#
#
# Elastic Compliance Matrix: (Units=1/GPa)
#
#
# Indices 1 2 3 4 5 6 
#
# 1 0.009294 -0.006535 -0.003019 0.000806 -0.002348 0.003106
# 2 -0.006535 0.043115 -0.007273 -0.008399 0.003148 -0.013891
# 3 -0.003019 -0.007273 0.016062 -0.008064 -0.002769 0.001609
# 4 0.000806 -0.008399 -0.008064 0.027017 -0.000350 0.003337
# 5 -0.002348 0.003148 -0.002769 -0.000350 0.016248 -0.006222
# 6 0.003106 -0.013891 0.001609 0.003337 -0.006222 0.034632
#
#
# Mechanical properties :
#
#
# Convention : Reuss Voigt Hill
#
# Bulk Modulus (GPa) = 28.72098 67.95495 48.33796
# Shear Modulus (GPa) = 26.09224 44.91667 35.50445
#
# Velocity S-wave (km/s) = 3.17412 4.16459 3.70262
# Velocity P-wave (km/s) = 4.95212 7.02600 6.07817
#
# Compressibility (1/GPa) = 0.03481776
#
# Stress axis : x y z
#
# Youngs Moduli (GPa) = 107.59160 23.19394 62.25836
#
# Poissons Ratio (x) = 0.15157 0.18797
# Poissons Ratio (y) = 0.70309 0.45279
# Poissons Ratio (z) = 0.32484 0.16868
#
# Static dielectric constant tensor:
#      x y z
#    x 2.163730 0.120900 0.024550 
#    y 0.120900 2.366270 0.001680 
#    z 0.024550 0.001680 2.074250 
# 
# From -- ./inp_files/623408.got.cif
#   From: 2010.05.17/outbox.cif.g08.bks.cpg/sg2_312_cif.got.tgz:623408.got - 2010.06.03 11:33:40.
