data_PCOD9104176
_publ_section_title
;
Structure prediction by ZEFSAII (Michael W. Deem and Ramdas Pophale) SiO2 
 PCOD9104176
Probable space group: P -1
;
_chemical_formula_sum "Si O2"
_cell_formula_units_Z 14
_cell_length_a 8.594731
_cell_length_b 10.694550
_cell_length_c 8.653538
_cell_angle_alpha 73.933978
_cell_angle_beta 62.465683
_cell_angle_gamma 107.288359
_cell_volume 587.391851
_symmetry_space_group_name_H-M "P -1"
_symmetry_group_IT_number 2
_symmetry_cell_setting 'triclinic'
loop_
_space_group_symop_operation_xyz
x,y,z
-x,-y,-z
loop_
_atom_site_type_symbol
_atom_site_label
_atom_site_fract_x
_atom_site_fract_y
_atom_site_fract_z
Si Si1 0.720890 0.021174 0.907417
Si Si2 0.152722 0.273126 0.534787
Si Si3 0.881596 0.853705 0.708247
Si Si4 0.299140 0.175933 0.768800
Si Si5 0.072283 0.316011 0.011255
Si Si6 0.874007 0.454067 0.841735
Si Si7 0.264587 0.603913 0.410588
O O1 0.725189 0.886915 0.857459
O O2 0.776419 0.986242 0.064285
O O3 0.908595 0.176339 0.705265
O O4 0.500000 0.000000 0.000000
O O5 0.210117 0.278035 0.328851
O O6 0.233697 0.179865 0.624224
O O7 0.248898 0.441910 0.490810
O O8 0.014309 0.819287 0.778397
O O9 0.000000 0.000000 0.500000
O O10 0.538228 0.263914 0.650343
O O11 0.218491 0.275774 0.860386
O O12 0.176461 0.462190 0.027076
O O13 0.932428 0.345726 0.948603
O O14 0.735248 0.375132 0.782808
O O15 0.071705 0.577107 0.610716
#
# Coordination Sequence:
#
# PCOD9104176 Si02
#       7
#     2   2   2   2   2   2   2
#     4  10  24  42  64  90 121 160 213 264 309 365
#     4  11  21  43  63  89 126 168 202 251 317 368
#     4   9  20  40  65  87 122 168 208 248 312 377
#     4  11  24  40  63  91 125 166 211 249 307 379
#     4  10  20  39  58  93 123 165 201 257 307 369
#     4  10  22  37  61  90 131 160 200 259 313 358
#     4  11  23  39  63  94 125 167 205 252 310 368
#
# _framework density 23.834173
#
# number of rings (size 3 to 8) (size 9 to 14) (size 15 to 20)
#    0.000    1.714    2.857    0.857    4.000    0.571 
#    0.000    2.143    0.000    0.000    0.000    0.000 
#    0.000    0.000    0.000    0.000    0.000    0.000 
#
# Total GULP energy -78142.520868 kJ/mol
# GULP energy per Si atom -5581.608633 kJ/mol
# Density = 2.377993 g / cm^3
# Si number density = 23.834173 Si / 1000 Ang^3
#
#
#
# Elastic Constant Matrix: (Units=GPa)
#
#
# Indices 1 2 3 4 5 6 
#
# 1 119.0796 8.6472 49.3082 -6.5119 34.3802 -10.2297
# 2 8.6472 73.8422 16.3646 3.9476 5.7601 -11.1613
# 3 49.3082 16.3646 71.9651 -11.6264 40.4034 0.1585
# 4 -6.5119 3.9476 -11.6264 35.5817 4.3641 9.5127
# 5 34.3802 5.7601 40.4034 4.3641 49.5480 -11.3824
# 6 -10.2297 -11.1613 0.1585 9.5127 -11.3824 36.7556
#
#
#
# Elastic Compliance Matrix: (Units=1/GPa)
#
#
# Indices 1 2 3 4 5 6 
#
# 1 0.012336 0.001289 -0.008868 -0.001876 -0.000338 0.004244
# 2 0.001289 0.017810 -0.013120 -0.010678 0.011463 0.012137
# 3 -0.008868 -0.013120 0.053005 0.030216 -0.044717 -0.028349
# 4 -0.001876 -0.010678 0.030216 0.050040 -0.032700 -0.026972
# 5 -0.000338 0.011463 -0.044717 -0.032700 0.065882 0.032445
# 6 0.004244 0.012137 -0.028349 -0.026972 0.032445 0.049223
#
#
# Mechanical properties :
#
#
# Convention : Reuss Voigt Hill
#
# Bulk Modulus (GPa) = 23.95080 45.94743 34.94912
# Shear Modulus (GPa) = 16.46837 37.08153 26.77495
#
# Velocity S-wave (km/s) = 2.63146 3.94866 3.35533
# Velocity P-wave (km/s) = 4.39357 6.33317 5.45035
#
# Compressibility (1/GPa) = 0.04175226
#
# Stress axis : x y z
#
# Youngs Moduli (GPa) = 81.06604 56.14722 18.86628
#
# Poissons Ratio (x) = -0.07236 0.16730
# Poissons Ratio (y) = -0.10447 0.24753
# Poissons Ratio (z) = 0.71886 0.73667
#
# Static dielectric constant tensor:
#      x y z
#    x 1.939590 -0.002570 0.059300 
#    y -0.002570 1.994510 0.042730 
#    z 0.059300 0.042730 1.965260 
# 
# From -- ./inp_files/175929.got.cif
#   From: 2010.05.17/outbox.cif.g08.bks.cpg/sg2_88_cif.got.tgz:175929.got - 2010.06.03 11:33:40.
