data_PCOD9104325
_publ_section_title
;
Structure prediction by ZEFSAII (Michael W. Deem and Ramdas Pophale) SiO2 
 PCOD9104325
Probable space group: P -1
;
_chemical_formula_sum "Si O2"
_cell_formula_units_Z 16
_cell_length_a 9.144065
_cell_length_b 11.937803
_cell_length_c 15.707716
_cell_angle_alpha 153.961377
_cell_angle_beta 80.797296
_cell_angle_gamma 106.925157
_cell_volume 698.681844
_symmetry_space_group_name_H-M "P -1"
_symmetry_group_IT_number 2
_symmetry_cell_setting 'triclinic'
loop_
_space_group_symop_operation_xyz
x,y,z
-x,-y,-z
loop_
_atom_site_type_symbol
_atom_site_label
_atom_site_fract_x
_atom_site_fract_y
_atom_site_fract_z
Si Si1 0.523207 0.815174 0.188805
Si Si2 0.200780 0.638703 0.175652
Si Si3 0.548298 0.658327 0.714021
Si Si4 0.743001 0.752274 0.604488
Si Si5 0.060652 0.624604 0.671131
Si Si6 0.193690 0.725671 0.428499
Si Si7 0.983706 0.861981 0.251566
Si Si8 0.378500 0.071829 0.938237
O O1 0.357158 0.830882 0.246727
O O2 0.658139 0.064349 0.392303
O O3 0.558281 0.844491 0.104870
O O4 0.500000 0.500000 0.000000
O O5 0.231187 0.638214 0.272549
O O6 0.051377 0.731795 0.232602
O O7 0.151957 0.350685 0.936000
O O8 0.706958 0.727471 0.691231
O O9 0.429559 0.361441 0.498673
O O10 0.466142 0.868504 0.828234
O O11 0.577058 0.693861 0.835269
O O12 0.828160 0.543768 0.425006
O O13 0.868174 0.031033 0.753830
O O14 0.188778 0.923035 0.854308
O O15 0.000000 0.500000 0.500000
O O16 0.910906 0.536005 0.686395
O O17 0.081288 0.908630 0.553459
#
# Coordination Sequence:
#
# PCOD9104325 Si02
#       8
#     2   2   2   2   2   2   2   2
#     4  12  24  43  61  91 137 170 208 263 313 385
#     4  11  24  41  65  93 121 179 212 255 320 368
#     4   9  19  38  61  94 115 158 208 258 317 363
#     4   9  19  36  60  87 123 152 197 263 310 365
#     4  10  20  39  60  86 120 158 196 255 318 362
#     4  11  23  43  66  91 128 166 214 262 316 382
#     4  10  22  42  63  93 129 159 215 272 303 377
#     4  10  21  38  64  90 122 161 208 256 313 374
#
# _framework density 22.900265999999998
#
# number of rings (size 3 to 8) (size 9 to 14) (size 15 to 20)
#    0.000    1.750    2.500    1.500    1.750    1.000 
#   13.500    0.625    0.000    0.000    0.000    0.000 
#    0.000    0.000    0.000    0.000    0.000    0.000 
#
# Total GULP energy -89333.549504 kJ/mol
# GULP energy per Si atom -5583.346844 kJ/mol
# Density = 2.284814 g / cm^3
# Si number density = 22.900266 Si / 1000 Ang^3
#
#
#
# Elastic Constant Matrix: (Units=GPa)
#
#
# Indices 1 2 3 4 5 6 
#
# 1 66.1568 38.5282 28.4535 -4.6796 17.6142 16.2737
# 2 38.5282 169.8077 64.7306 -25.0811 38.9096 21.0490
# 3 28.4535 64.7306 70.5120 -29.2243 23.4300 7.7073
# 4 -4.6796 -25.0811 -29.2243 39.0072 -8.5550 3.7333
# 5 17.6142 38.9096 23.4300 -8.5550 34.2025 5.3557
# 6 16.2737 21.0490 7.7073 3.7333 5.3557 34.6810
#
#
#
# Elastic Compliance Matrix: (Units=1/GPa)
#
#
# Indices 1 2 3 4 5 6 
#
# 1 0.021346 -0.000640 -0.007015 -0.003609 -0.005288 -0.006864
# 2 -0.000640 0.010607 -0.006636 0.000722 -0.006424 -0.003748
# 3 -0.007015 -0.006636 0.033000 0.018227 -0.006739 -0.000936
# 4 -0.003609 0.000722 0.018227 0.039917 -0.000363 -0.007036
# 5 -0.005288 -0.006424 -0.006739 -0.000363 0.043610 0.001182
# 6 -0.006864 -0.003748 -0.000936 -0.007036 0.001182 0.035113
#
#
# Mechanical properties :
#
#
# Convention : Reuss Voigt Hill
#
# Bulk Modulus (GPa) = 27.49277 63.32235 45.40756
# Shear Modulus (GPa) = 22.29172 33.22909 27.76040
#
# Velocity S-wave (km/s) = 3.12336 3.81338 3.48549
# Velocity P-wave (km/s) = 5.00387 6.86298 6.00580
#
# Compressibility (1/GPa) = 0.03637320
#
# Stress axis : x y z
#
# Youngs Moduli (GPa) = 46.84637 94.27805 30.30274
#
# Poissons Ratio (x) = 0.06032 0.21257
# Poissons Ratio (y) = 0.02997 0.20108
# Poissons Ratio (z) = 0.32862 0.62559
#
# Static dielectric constant tensor:
#      x y z
#    x 1.968790 -0.042920 -0.051200 
#    y -0.042920 1.852830 0.055690 
#    z -0.051200 0.055690 1.840110 
# 
# From -- ./inp_files/455256.got.cif
#   From: 2010.05.17/outbox.cif.g08.bks.cpg/sg2_228_cif.got.tgz:455256.got - 2010.06.03 11:33:40.
