data_PCOD9104917
_publ_section_title
;
Structure prediction by ZEFSAII (Michael W. Deem and Ramdas Pophale) SiO2 
 PCOD9104917
Probable space group: P -1
;
_chemical_formula_sum "Si O2"
_cell_formula_units_Z 14
_cell_length_a 8.743850
_cell_length_b 14.620390
_cell_length_c 15.706361
_cell_angle_alpha 26.854277
_cell_angle_beta 103.480904
_cell_angle_gamma 122.682668
_cell_volume 577.546992
_symmetry_space_group_name_H-M "P -1"
_symmetry_group_IT_number 2
_symmetry_cell_setting 'triclinic'
loop_
_space_group_symop_operation_xyz
x,y,z
-x,-y,-z
loop_
_atom_site_type_symbol
_atom_site_label
_atom_site_fract_x
_atom_site_fract_y
_atom_site_fract_z
Si Si1 0.665063 0.319615 0.334926
Si Si2 0.930233 0.299920 0.073949
Si Si3 0.196358 0.893730 0.093992
Si Si4 0.927435 0.251046 0.514997
Si Si5 0.751267 0.822016 0.573288
Si Si6 0.030771 0.033194 0.100949
Si Si7 0.350142 0.679575 0.087976
O O1 0.401748 0.151031 0.422033
O O2 0.691537 0.131909 0.543941
O O3 0.844644 0.497953 0.129194
O O4 0.771538 0.595664 0.182575
O O5 0.827393 0.991665 0.352441
O O6 0.712128 0.194114 0.084066
O O7 0.000000 0.500000 0.000000
O O8 0.057169 0.554508 0.334562
O O9 0.061592 0.893523 0.148903
O O10 0.450312 0.091555 0.005308
O O11 0.201139 0.052825 0.881411
O O12 0.100773 0.389296 0.342962
O O13 0.934672 0.056203 0.733313
O O14 0.597025 0.467699 0.838048
O O15 0.000000 0.000000 0.500000
#
# Coordination Sequence:
#
# PCOD9104917 Si02
#       7
#     2   2   2   2   2   2   2
#     4  10  24  43  67  96 132 171 216 267 326 387
#     4  11  25  46  65  95 129 168 222 277 320 383
#     4  10  21  36  63  96 133 163 215 262 314 394
#     4  10  22  39  65  97 128 175 209 257 329 387
#     4  12  25  44  67  94 127 174 220 268 328 381
#     4  10  20  39  62  96 132 166 212 260 319 392
#     4  11  23  43  62  95 132 165 221 267 316 390
#
# _framework density 24.240451
#
# number of rings (size 3 to 8) (size 9 to 14) (size 15 to 20)
#    0.000    1.429    2.857    1.714    2.000    2.857 
#    0.000    0.000    0.000    0.000    0.000    0.000 
#    0.000    0.000    0.000    0.000    0.000    0.000 
#
# Total GULP energy -78213.538854 kJ/mol
# GULP energy per Si atom -5586.681347 kJ/mol
# Density = 2.418528 g / cm^3
# Si number density = 24.240451 Si / 1000 Ang^3
#
#
#
# Elastic Constant Matrix: (Units=GPa)
#
#
# Indices 1 2 3 4 5 6 
#
# 1 109.7554 69.5959 26.5447 9.1005 0.0427 41.2114
# 2 69.5959 107.8317 29.3542 9.8475 14.8414 38.1573
# 3 26.5447 29.3542 68.3340 28.6659 20.1084 26.0851
# 4 9.1005 9.8475 28.6659 47.9995 5.0715 20.5880
# 5 0.0427 14.8414 20.1084 5.0715 47.6018 6.7375
# 6 41.2114 38.1573 26.0851 20.5880 6.7375 70.0807
#
#
#
# Elastic Compliance Matrix: (Units=1/GPa)
#
#
# Indices 1 2 3 4 5 6 
#
# 1 0.017707 -0.009632 -0.003107 0.002159 0.004793 -0.005107
# 2 -0.009632 0.017596 -0.001779 0.001096 -0.004396 -0.003153
# 3 -0.003107 -0.001779 0.024996 -0.012175 -0.008404 -0.002123
# 4 0.002159 0.001096 -0.012175 0.029938 0.002512 -0.006371
# 5 0.004793 -0.004396 -0.008404 0.002512 0.025728 -0.000508
# 6 -0.005107 -0.003153 -0.002123 -0.006371 -0.000508 0.021700
#
#
# Mechanical properties :
#
#
# Convention : Reuss Voigt Hill
#
# Bulk Modulus (GPa) = 31.98807 59.65676 45.82242
# Shear Modulus (GPa) = 28.22898 43.83148 36.03023
#
# Velocity S-wave (km/s) = 3.41624 4.25690 3.85953
# Velocity P-wave (km/s) = 5.36523 6.98752 6.22941
#
# Compressibility (1/GPa) = 0.03126166
#
# Stress axis : x y z
#
# Youngs Moduli (GPa) = 56.47466 56.83238 40.00583
#
# Poissons Ratio (x) = 0.54742 0.12430
# Poissons Ratio (y) = 0.54398 0.07118
# Poissons Ratio (z) = 0.17548 0.10112
#
# Static dielectric constant tensor:
#      x y z
#    x 2.006860 0.033840 -0.030820 
#    y 0.033840 1.986660 -0.002950 
#    z -0.030820 -0.002950 1.913150 
# 
# From -- ./inp_files/196668.got.cif
#   From: 2010.05.17/outbox.cif.g08.bks.cpg/sg2_99_cif.got.tgz:196668.got - 2010.06.03 11:33:40.
