data_PCOD9104254
_publ_section_title
;
Structure prediction by ZEFSAII (Michael W. Deem and Ramdas Pophale) SiO2 
 PCOD9104254
Probable space group: P -1
;
_chemical_formula_sum "Si O2"
_cell_formula_units_Z 16
_cell_length_a 19.859540
_cell_length_b 9.186130
_cell_length_c 9.232681
_cell_angle_alpha 135.559261
_cell_angle_beta 139.742860
_cell_angle_gamma 61.086888
_cell_volume 755.055880
_symmetry_space_group_name_H-M "P -1"
_symmetry_group_IT_number 2
_symmetry_cell_setting 'triclinic'
loop_
_space_group_symop_operation_xyz
x,y,z
-x,-y,-z
loop_
_atom_site_type_symbol
_atom_site_label
_atom_site_fract_x
_atom_site_fract_y
_atom_site_fract_z
Si Si1 0.259948 0.735471 0.113846
Si Si2 0.900053 0.683568 0.511750
Si Si3 0.963006 0.146393 0.669665
Si Si4 0.535925 0.247667 0.718459
Si Si5 0.971579 0.586368 0.275585
Si Si6 0.216665 0.716947 0.359161
Si Si7 0.831786 0.855278 0.800742
Si Si8 0.648613 0.496061 0.350962
O O1 0.376697 0.724268 0.242632
O O2 0.259210 0.782657 0.317090
O O3 0.209287 0.921655 0.081895
O O4 0.188636 0.514516 0.805218
O O5 0.948774 0.748525 0.480847
O O6 0.857642 0.844710 0.664509
O O7 0.988461 0.594411 0.690915
O O8 0.951525 0.340584 0.677187
O O9 0.855309 0.129160 0.571049
O O10 0.063374 0.175514 0.961014
O O11 0.000000 0.000000 0.500000
O O12 0.436294 0.371560 0.622687
O O13 0.500000 0.000000 0.500000
O O14 0.593258 0.351387 0.029722
O O15 0.863956 0.494255 0.957054
O O16 0.304154 0.652213 0.562652
O O17 0.740875 0.666661 0.557954
#
# Coordination Sequence:
#
# PCOD9104254 Si02
#       8
#     2   2   2   2   2   2   2   2
#     4  11  25  41  66  99 129 168 218 271 320 382
#     4  10  21  38  62  90 135 171 212 257 319 375
#     4  12  25  36  61  97 137 175 218 258 311 383
#     4  11  24  46  71  97 121 163 223 275 334 390
#     4  10  20  39  59  89 130 178 208 256 310 381
#     4  11  24  43  62  96 136 168 217 263 319 387
#     4  12  22  40  67  95 131 174 213 262 315 388
#     4  11  24  43  73  94 124 171 214 274 331 383
#
# _framework density 21.190484000000001
#
# number of rings (size 3 to 8) (size 9 to 14) (size 15 to 20)
#    0.000    1.000    5.000    1.875    3.500    1.000 
#    0.000    0.625    0.000    0.000    0.000    0.000 
#    0.000    0.000    0.000    0.000    0.000    0.000 
#
# Total GULP energy -89368.668534 kJ/mol
# GULP energy per Si atom -5585.541783 kJ/mol
# Density = 2.114225 g / cm^3
# Si number density = 21.190484 Si / 1000 Ang^3
#
#
#
# Elastic Constant Matrix: (Units=GPa)
#
#
# Indices 1 2 3 4 5 6 
#
# 1 178.2215 54.4262 44.5667 -11.6029 -12.8918 -19.2012
# 2 54.4262 89.7261 33.9395 -17.5071 -6.9225 -22.9464
# 3 44.5667 33.9395 78.4802 -4.1775 -4.6749 -9.3609
# 4 -11.6029 -17.5071 -4.1775 34.6136 -1.3869 0.2724
# 5 -12.8918 -6.9225 -4.6749 -1.3869 39.0629 0.5708
# 6 -19.2012 -22.9464 -9.3609 0.2724 0.5708 40.8913
#
#
#
# Elastic Compliance Matrix: (Units=1/GPa)
#
#
# Indices 1 2 3 4 5 6 
#
# 1 0.007479 -0.002931 -0.002697 0.000755 0.001635 0.001222
# 2 -0.002931 0.018396 -0.004841 0.007752 0.001875 0.007761
# 3 -0.002697 -0.004841 0.016273 -0.001380 0.000154 -0.000251
# 4 0.000755 0.007752 -0.001380 0.032968 0.002568 0.004133
# 5 0.001635 0.001875 0.000154 0.002568 0.026560 0.001468
# 6 0.001222 0.007761 -0.000251 0.004133 0.001468 0.029279
#
#
# Mechanical properties :
#
#
# Convention : Reuss Voigt Hill
#
# Bulk Modulus (GPa) = 47.14495 68.03251 57.58873
# Shear Modulus (GPa) = 31.45407 37.14661 34.30034
#
# Velocity S-wave (km/s) = 3.85690 4.19141 4.02763
# Velocity P-wave (km/s) = 6.49082 7.45646 6.99033
#
# Compressibility (1/GPa) = 0.02121118
#
# Stress axis : x y z
#
# Youngs Moduli (GPa) = 133.69929 54.36001 61.45244
#
# Poissons Ratio (x) = 0.15932 0.16571
# Poissons Ratio (y) = 0.39185 0.29750
# Poissons Ratio (z) = 0.36052 0.26316
#
# Static dielectric constant tensor:
#      x y z
#    x 1.786820 -0.007980 -0.017800 
#    y -0.007980 1.851950 0.076710 
#    z -0.017800 0.076710 1.776240 
# 
# From -- ./inp_files/217750.got.cif
#   From: 2010.05.17/outbox.cif.g08.bks.cpg/sg2_109_cif.got.tgz:217750.got - 2010.06.03 11:33:40.
