data_PCOD9104770
_publ_section_title
;
Structure prediction by ZEFSAII (Michael W. Deem and Ramdas Pophale) SiO2 
 PCOD9104770
Probable space group: P -1
;
_chemical_formula_sum "Si O2"
_cell_formula_units_Z 16
_cell_length_a 13.261497
_cell_length_b 9.165647
_cell_length_c 16.217983
_cell_angle_alpha 102.660970
_cell_angle_beta 38.789133
_cell_angle_gamma 131.254117
_cell_volume 724.048099
_symmetry_space_group_name_H-M "P -1"
_symmetry_group_IT_number 2
_symmetry_cell_setting 'triclinic'
loop_
_space_group_symop_operation_xyz
x,y,z
-x,-y,-z
loop_
_atom_site_type_symbol
_atom_site_label
_atom_site_fract_x
_atom_site_fract_y
_atom_site_fract_z
Si Si1 0.615158 0.213097 0.574062
Si Si2 0.872694 0.827649 0.383080
Si Si3 0.753651 0.642832 0.609939
Si Si4 0.157066 0.239128 0.985315
Si Si5 0.549737 0.299273 0.458236
Si Si6 0.900942 0.550091 0.636693
Si Si7 0.145506 0.686669 0.854115
Si Si8 0.363241 0.252627 0.017183
O O1 0.674350 0.419523 0.598175
O O2 0.483767 0.148375 0.561114
O O3 0.890142 0.324471 0.407670
O O4 0.426115 0.981058 0.727864
O O5 0.890057 0.829415 0.471132
O O6 0.696304 0.554401 0.432310
O O7 0.700957 0.836642 0.454811
O O8 0.165569 0.034532 0.182438
O O9 0.464624 0.495262 0.795024
O O10 0.910971 0.714785 0.601613
O O11 0.176585 0.174917 0.053140
O O12 0.026203 0.304126 0.071119
O O13 0.000000 0.000000 0.000000
O O14 0.765467 0.371981 0.274847
O O15 0.000000 0.500000 0.500000
O O16 0.599101 0.324981 0.837190
O O17 0.000000 0.500000 0.000000
O O18 0.500000 0.500000 0.000000
#
# Coordination Sequence:
#
# PCOD9104770 Si02
#       8
#     2   2   2   2   2   2   2   2
#     4  10  20  39  62  88 130 168 215 268 341 395
#     4  10  22  42  67  94 131 170 229 277 344 402
#     4   9  19  41  65  91 123 179 219 265 335 408
#     4  11  23  43  70  95 139 181 226 274 345 413
#     4  10  23  38  66  96 127 174 216 284 340 394
#     4   9  21  41  64  88 126 178 219 260 337 412
#     4  12  25  36  62 102 130 164 229 289 328 388
#     4  11  26  43  69 100 132 180 228 281 335 411
#
# _framework density 22.09798
#
# number of rings (size 3 to 8) (size 9 to 14) (size 15 to 20)
#    0.000    1.750    1.250    1.875    8.750    0.000 
#    2.250    6.875    0.000    0.000    0.000    0.000 
#    0.000    0.000    0.000    0.000    0.000    0.000 
#
# Total GULP energy -89310.190758 kJ/mol
# GULP energy per Si atom -5581.886922 kJ/mol
# Density = 2.204768 g / cm^3
# Si number density = 22.097980 Si / 1000 Ang^3
#
#
#
# Elastic Constant Matrix: (Units=GPa)
#
#
# Indices 1 2 3 4 5 6 
#
# 1 121.3049 9.0795 60.7887 4.8751 -4.8049 -13.0172
# 2 9.0795 52.9221 3.7808 5.5272 -2.5926 -12.0113
# 3 60.7887 3.7808 147.9210 6.8691 11.3372 -36.4556
# 4 4.8751 5.5272 6.8691 40.4728 -15.8029 -1.3038
# 5 -4.8049 -2.5926 11.3372 -15.8029 46.4693 3.9959
# 6 -13.0172 -12.0113 -36.4556 -1.3038 3.9959 28.3660
#
#
#
# Elastic Compliance Matrix: (Units=1/GPa)
#
#
# Indices 1 2 3 4 5 6 
#
# 1 0.010897 -0.002209 -0.005542 0.000985 0.002986 -0.003433
# 2 -0.002209 0.022464 0.004185 -0.004070 -0.002589 0.014054
# 3 -0.005542 0.004185 0.014134 -0.004389 -0.006842 0.018155
# 4 0.000985 -0.004070 -0.004389 0.030291 0.011865 -0.007191
# 5 0.002986 -0.002589 -0.006842 0.011865 0.028418 -0.011976
# 6 -0.003433 0.014054 0.018155 -0.007191 -0.011976 0.064318
#
#
# Mechanical properties :
#
#
# Convention : Reuss Voigt Hill
#
# Bulk Modulus (GPa) = 24.77669 52.16065 38.46867
# Shear Modulus (GPa) = 26.16319 39.62823 32.89571
#
# Velocity S-wave (km/s) = 3.44461 4.23933 3.86246
# Velocity P-wave (km/s) = 5.20163 6.90058 6.11044
#
# Compressibility (1/GPa) = 0.04036052
#
# Stress axis : x y z
#
# Youngs Moduli (GPa) = 91.77110 44.51614 70.75367
#
# Poissons Ratio (x) = 0.09835 0.39214
# Poissons Ratio (y) = 0.20275 -0.29609
# Poissons Ratio (z) = 0.50862 -0.18629
#
# Static dielectric constant tensor:
#      x y z
#    x 1.856590 0.016880 0.052770 
#    y 0.016880 1.792780 0.107220 
#    z 0.052770 0.107220 1.675110 
# 
# From -- ./inp_files/565911.got.cif
#   From: 2010.05.17/outbox.cif.g08.bks.cpg/sg2_283_cif.got.tgz:565911.got - 2010.06.03 11:33:40.
