data_PCOD9104546
_publ_section_title
;
Structure prediction by ZEFSAII (Michael W. Deem and Ramdas Pophale) SiO2 
 PCOD9104546
Probable space group: P -1
;
_chemical_formula_sum "Si O2"
_cell_formula_units_Z 14
_cell_length_a 10.391483
_cell_length_b 11.285945
_cell_length_c 6.994997
_cell_angle_alpha 90.612444
_cell_angle_beta 123.472318
_cell_angle_gamma 58.610127
_cell_volume 538.283970
_symmetry_space_group_name_H-M "P -1"
_symmetry_group_IT_number 2
_symmetry_cell_setting 'triclinic'
loop_
_space_group_symop_operation_xyz
x,y,z
-x,-y,-z
loop_
_atom_site_type_symbol
_atom_site_label
_atom_site_fract_x
_atom_site_fract_y
_atom_site_fract_z
Si Si1 0.585904 0.027941 0.339699
Si Si2 0.800061 0.145503 0.663759
Si Si3 0.223388 0.257170 0.270920
Si Si4 0.456747 0.533424 0.691203
Si Si5 0.891381 0.472633 0.571899
Si Si6 0.091702 0.134782 0.669397
Si Si7 0.131696 0.734600 0.911093
O O1 0.716173 0.054535 0.581225
O O2 0.365952 0.173852 0.204604
O O3 0.639099 0.871339 0.455832
O O4 0.683731 0.990084 0.210576
O O5 0.658204 0.288304 0.407748
O O6 0.009993 0.074693 0.741967
O O7 0.810525 0.193195 0.885373
O O8 0.160520 0.417072 0.291219
O O9 0.023351 0.277702 0.112095
O O10 0.500000 0.500000 0.500000
O O11 0.316713 0.492157 0.636702
O O12 0.664221 0.429342 0.961177
O O13 0.031312 0.291737 0.703233
O O14 0.000000 0.500000 0.500000
O O15 0.969589 0.186535 0.370638
#
# Coordination Sequence:
#
# PCOD9104546 Si02
#       7
#     2   2   2   2   2   2   2
#     4  10  20  39  61  88 126 163 197 249 309 369
#     4  10  21  38  60  89 124 159 200 253 305 363
#     4  10  21  36  64  91 119 164 205 244 313 362
#     4   9  20  37  60  86 120 159 200 247 306 356
#     4  11  19  38  60  90 122 156 203 256 302 354
#     4  10  22  39  66  90 120 161 209 248 305 362
#     4  10  20  39  62  90 121 160 206 252 298 366
#
# _framework density 26.008576000000001
#
# number of rings (size 3 to 8) (size 9 to 14) (size 15 to 20)
#    0.000    2.000    2.857    2.143    0.000    4.571 
#    0.000   12.143    0.000    1.714    0.000    0.000 
#    0.000    0.000    0.000    0.000    0.000    0.000 
#
# Total GULP energy -78279.609121 kJ/mol
# GULP energy per Si atom -5591.400651 kJ/mol
# Density = 2.594938 g / cm^3
# Si number density = 26.008576 Si / 1000 Ang^3
#
#
#
# Elastic Constant Matrix: (Units=GPa)
#
#
# Indices 1 2 3 4 5 6 
#
# 1 139.6659 52.6317 29.9644 -19.2320 23.0918 -29.5352
# 2 52.6317 175.5706 48.8307 7.9247 14.9944 -16.9848
# 3 29.9644 48.8307 109.8180 -12.5100 7.0783 -3.6008
# 4 -19.2320 7.9247 -12.5100 21.0456 -9.6104 2.2255
# 5 23.0918 14.9944 7.0783 -9.6104 40.3616 -7.8190
# 6 -29.5352 -16.9848 -3.6008 2.2255 -7.8190 55.9448
#
#
#
# Elastic Compliance Matrix: (Units=1/GPa)
#
#
# Indices 1 2 3 4 5 6 
#
# 1 0.010894 -0.003062 -0.000252 0.009627 -0.001955 0.004149
# 2 -0.003062 0.008411 -0.003791 -0.009597 -0.002863 0.000675
# 3 -0.000252 -0.003791 0.011761 0.008939 0.001488 -0.000675
# 4 0.009627 -0.009597 0.008939 0.071365 0.013839 0.001839
# 5 -0.001955 -0.002863 0.001488 0.013839 0.030358 0.001887
# 6 0.004149 0.000675 -0.000675 0.001839 0.001887 0.020417
#
#
# Mechanical properties :
#
#
# Convention : Reuss Voigt Hill
#
# Bulk Modulus (GPa) = 59.32851 76.43422 67.88137
# Shear Modulus (GPa) = 28.89583 43.04559 35.97071
#
# Velocity S-wave (km/s) = 3.33680 4.07265 3.72295
# Velocity P-wave (km/s) = 6.14055 7.18103 6.68107
#
# Compressibility (1/GPa) = 0.01685530
#
# Stress axis : x y z
#
# Youngs Moduli (GPa) = 91.79199 118.89343 85.02822
#
# Poissons Ratio (x) = 0.36402 0.02146
# Poissons Ratio (y) = 0.28104 0.32235
# Poissons Ratio (z) = 0.02317 0.45074
#
# Static dielectric constant tensor:
#      x y z
#    x 2.044960 -0.067700 0.006840 
#    y -0.067700 2.104960 -0.019830 
#    z 0.006840 -0.019830 2.055490 
# 
# From -- ./inp_files/259185.got.cif
#   From: 2010.05.17/outbox.cif.g08.bks.cpg/sg2_130_cif.got.tgz:259185.got - 2010.06.03 11:33:40.
