data_PCOD9104647
_publ_section_title
;
Structure prediction by ZEFSAII (Michael W. Deem and Ramdas Pophale) SiO2 
 PCOD9104647
Probable space group: P -1
;
_chemical_formula_sum "Si O2"
_cell_formula_units_Z 16
_cell_length_a 12.966422
_cell_length_b 9.829098
_cell_length_c 16.032425
_cell_angle_alpha 42.293777
_cell_angle_beta 36.662192
_cell_angle_gamma 33.836519
_cell_volume 662.592775
_symmetry_space_group_name_H-M "P -1"
_symmetry_group_IT_number 2
_symmetry_cell_setting 'triclinic'
loop_
_space_group_symop_operation_xyz
x,y,z
-x,-y,-z
loop_
_atom_site_type_symbol
_atom_site_label
_atom_site_fract_x
_atom_site_fract_y
_atom_site_fract_z
Si Si1 0.357582 0.907902 0.399214
Si Si2 0.662750 0.604147 0.015543
Si Si3 0.623801 0.112191 0.780939
Si Si4 0.933859 0.251356 0.308431
Si Si5 0.064602 0.822313 0.846845
Si Si6 0.485298 0.810152 0.541979
Si Si7 0.946062 0.462815 0.367137
Si Si8 0.124386 0.774854 0.088917
O O1 0.156269 0.198094 0.382596
O O2 0.485712 0.797510 0.279284
O O3 0.269746 0.746888 0.548846
O O4 0.468074 0.893340 0.419187
O O5 0.679900 0.459220 0.985654
O O6 0.644531 0.855656 0.897066
O O7 0.477460 0.706284 0.157766
O O8 0.866017 0.396073 0.033504
O O9 0.867732 0.012295 0.662040
O O10 0.984333 0.236700 0.184848
O O11 0.918289 0.445526 0.293862
O O12 0.276247 0.821212 0.696781
O O13 0.873035 0.084311 0.894538
O O14 0.722235 0.550403 0.513305
O O15 0.500000 0.000000 0.500000
O O16 0.992984 0.668137 0.251806
O O17 0.000000 0.000000 0.000000
#
# Coordination Sequence:
#
# PCOD9104647 Si02
#       8
#     2   2   2   2   2   2   2   2
#     4  10  23  40  65  96 132 156 209 273 320 379
#     4  10  21  37  64  84 123 175 208 263 304 373
#     4  10  20  39  61  94 124 162 217 257 320 372
#     4  10  22  39  61  98 123 162 210 267 325 378
#     4  10  23  39  62  91 129 161 213 265 317 379
#     4  11  24  41  63  99 123 163 212 256 323 394
#     4  11  21  41  69  88 128 172 205 262 327 366
#     4  10  20  42  60  85 129 175 207 258 313 375
#
# _framework density 24.147563000000002
#
# number of rings (size 3 to 8) (size 9 to 14) (size 15 to 20)
#    0.000    1.750    3.750    1.500    5.250    2.000 
#    0.000    0.625    0.000    0.000    0.000    0.000 
#    0.000    0.000    0.000    0.000    0.000    0.000 
#
# Total GULP energy -89259.363341 kJ/mol
# GULP energy per Si atom -5578.710209 kJ/mol
# Density = 2.409260 g / cm^3
# Si number density = 24.147563 Si / 1000 Ang^3
#
#
#
# Elastic Constant Matrix: (Units=GPa)
#
#
# Indices 1 2 3 4 5 6 
#
# 1 67.0105 23.6778 10.7356 -2.6022 18.6166 11.6148
# 2 23.6778 141.0948 34.3352 22.0048 9.6984 12.7642
# 3 10.7356 34.3352 79.7396 1.4850 17.2470 5.7671
# 4 -2.6022 22.0048 1.4850 47.7511 2.2154 8.4139
# 5 18.6166 9.6984 17.2470 2.2154 26.4881 6.1113
# 6 11.6148 12.7642 5.7671 8.4139 6.1113 27.9342
#
#
#
# Elastic Compliance Matrix: (Units=1/GPa)
#
#
# Indices 1 2 3 4 5 6 
#
# 1 0.020674 -0.003103 0.001837 0.004158 -0.013592 -0.005837
# 2 -0.003103 0.009155 -0.003771 -0.004132 0.001928 -0.001292
# 3 0.001837 -0.003771 0.016192 0.001939 -0.010459 -0.000680
# 4 0.004158 -0.004132 0.001939 0.024373 -0.003119 -0.006900
# 5 -0.013592 0.001928 -0.010459 -0.003119 0.054611 -0.004078
# 6 -0.005837 -0.001292 -0.000680 -0.006900 -0.004078 0.041926
#
#
# Mechanical properties :
#
#
# Convention : Reuss Voigt Hill
#
# Bulk Modulus (GPa) = 27.81780 47.26024 37.53902
# Shear Modulus (GPa) = 26.45681 35.04110 30.74896
#
# Velocity S-wave (km/s) = 3.31362 3.81349 3.57231
# Velocity P-wave (km/s) = 5.11713 6.24534 5.70917
#
# Compressibility (1/GPa) = 0.03594821
#
# Stress axis : x y z
#
# Youngs Moduli (GPa) = 48.36958 109.23578 61.75749
#
# Poissons Ratio (x) = 0.33893 -0.11345
# Poissons Ratio (y) = 0.15008 0.23287
# Poissons Ratio (z) = -0.08885 0.41189
#
# Static dielectric constant tensor:
#      x y z
#    x 1.946530 -0.042080 -0.013470 
#    y -0.042080 2.005000 0.056710 
#    z -0.013470 0.056710 1.959950 
# 
# From -- ./inp_files/392711.got.cif
#   From: 2010.05.17/outbox.cif.g08.bks.cpg/sg2_197_cif.got.tgz:392711.got - 2010.06.03 11:33:40.
