data_PCOD9104347
_publ_section_title
;
Structure prediction by ZEFSAII (Michael W. Deem and Ramdas Pophale) SiO2 
 PCOD9104347
Probable space group: P -1
;
_chemical_formula_sum "Si O2"
_cell_formula_units_Z 16
_cell_length_a 13.101897
_cell_length_b 9.126867
_cell_length_c 20.637301
_cell_angle_alpha 104.586224
_cell_angle_beta 158.894704
_cell_angle_gamma 87.017039
_cell_volume 731.992919
_symmetry_space_group_name_H-M "P -1"
_symmetry_group_IT_number 2
_symmetry_cell_setting 'triclinic'
loop_
_space_group_symop_operation_xyz
x,y,z
-x,-y,-z
loop_
_atom_site_type_symbol
_atom_site_label
_atom_site_fract_x
_atom_site_fract_y
_atom_site_fract_z
Si Si1 0.225632 0.941689 0.088176
Si Si2 0.353157 0.317857 0.793684
Si Si3 0.754291 0.130975 0.520323
Si Si4 0.603523 0.176619 0.016538
Si Si5 0.597559 0.691246 0.607894
Si Si6 0.461299 0.690190 0.866891
Si Si7 0.082306 0.029873 0.278492
Si Si8 0.818079 0.146010 0.357934
O O1 0.470845 0.961295 0.293282
O O2 0.509600 0.065428 0.217163
O O3 0.944575 0.772697 0.862871
O O4 0.000000 0.000000 0.000000
O O5 0.448993 0.510018 0.848825
O O6 0.081716 0.244637 0.682705
O O7 0.151653 0.195253 0.599123
O O8 0.656680 0.313409 0.005933
O O9 0.644662 0.274210 0.486812
O O10 0.807121 0.041297 0.604263
O O11 0.552197 0.243417 0.061431
O O12 0.880228 0.127159 0.186163
O O13 0.292392 0.998708 0.780508
O O14 0.500000 0.500000 0.500000
O O15 0.651032 0.827384 0.596440
O O16 0.176510 0.689696 0.655537
O O17 0.811310 0.846147 0.062563
#
# Coordination Sequence:
#
# PCOD9104347 Si02
#       8
#     2   2   2   2   2   2   2   2
#     4   9  19  40  63  86 119 162 200 247 307 361
#     4  11  23  36  60  97 124 163 203 244 310 359
#     4  10  23  39  64  88 125 164 203 244 306 375
#     4  11  22  38  61  89 127 163 199 254 295 365
#     4  11  23  41  67  91 116 156 212 263 302 357
#     4  11  22  37  61  90 128 159 200 255 293 372
#     4  11  22  40  61  88 122 164 206 246 313 344
#     4  10  20  39  60  87 125 163 203 244 307 370
#
# _framework density 21.858135999999998
#
# number of rings (size 3 to 8) (size 9 to 14) (size 15 to 20)
#    0.000    1.500    3.750    3.000    1.750    0.000 
#    0.000    0.625    0.000    0.000    0.000    0.000 
#    0.000    0.000    0.000    0.000    0.000    0.000 
#
# Total GULP energy -89149.188204 kJ/mol
# GULP energy per Si atom -5571.824263 kJ/mol
# Density = 2.180839 g / cm^3
# Si number density = 21.858136 Si / 1000 Ang^3
#
#
#
# Elastic Constant Matrix: (Units=GPa)
#
#
# Indices 1 2 3 4 5 6 
#
# 1 56.7786 23.8212 27.7029 3.0855 -8.2941 -11.3708
# 2 23.8212 126.8091 27.3105 5.9291 -3.5494 2.9933
# 3 27.7029 27.3105 75.1236 -7.5574 -25.2038 -4.4434
# 4 3.0855 5.9291 -7.5574 34.3741 4.1539 -8.9077
# 5 -8.2941 -3.5494 -25.2038 4.1539 35.0238 -5.7959
# 6 -11.3708 2.9933 -4.4434 -8.9077 -5.7959 39.5946
#
#
#
# Elastic Compliance Matrix: (Units=1/GPa)
#
#
# Indices 1 2 3 4 5 6 
#
# 1 0.023824 -0.002985 -0.007008 -0.001765 0.001516 0.006106
# 2 -0.002985 0.009333 -0.003562 -0.002577 -0.002500 -0.002908
# 3 -0.007008 -0.003562 0.022853 0.005609 0.014454 0.004199
# 4 -0.001765 -0.002577 0.005609 0.032863 0.000754 0.007821
# 5 0.001516 -0.002500 0.014454 0.000754 0.040347 0.008322
# 6 0.006106 -0.002908 0.004199 0.007821 0.008322 0.030678
#
#
# Mechanical properties :
#
#
# Convention : Reuss Voigt Hill
#
# Bulk Modulus (GPa) = 34.60316 46.26450 40.43383
# Shear Modulus (GPa) = 25.42689 33.79027 29.60858
#
# Velocity S-wave (km/s) = 3.41437 3.93605 3.68445
# Velocity P-wave (km/s) = 5.60438 6.47058 6.05299
#
# Compressibility (1/GPa) = 0.02889909
#
# Stress axis : x y z
#
# Youngs Moduli (GPa) = 41.97407 107.14738 43.75861
#
# Poissons Ratio (x) = 0.31986 0.30666
# Poissons Ratio (y) = 0.12530 0.15587
# Poissons Ratio (z) = 0.29416 0.38166
#
# Static dielectric constant tensor:
#      x y z
#    x 1.866330 -0.010730 0.029650 
#    y -0.010730 1.853260 -0.018210 
#    z 0.029650 -0.018210 1.898690 
# 
# From -- ./inp_files/611677.got.cif
#   From: 2010.05.17/outbox.cif.g08.bks.cpg/sg2_306_cif.got.tgz:611677.got - 2010.06.03 11:33:40.
