data_PCOD9104882
_publ_section_title
;
Structure prediction by ZEFSAII (Michael W. Deem and Ramdas Pophale) SiO2 
 PCOD9104882
Probable space group: P -1
;
_chemical_formula_sum "Si O2"
_cell_formula_units_Z 16
_cell_length_a 10.908821
_cell_length_b 15.251946
_cell_length_c 5.075646
_cell_angle_alpha 126.727406
_cell_angle_beta 81.930812
_cell_angle_gamma 118.089822
_cell_volume 585.095864
_symmetry_space_group_name_H-M "P -1"
_symmetry_group_IT_number 2
_symmetry_cell_setting 'triclinic'
loop_
_space_group_symop_operation_xyz
x,y,z
-x,-y,-z
loop_
_atom_site_type_symbol
_atom_site_label
_atom_site_fract_x
_atom_site_fract_y
_atom_site_fract_z
Si Si1 0.216190 0.923019 0.338699
Si Si2 0.267302 0.403029 0.914745
Si Si3 0.958660 0.896132 0.055951
Si Si4 0.656452 0.771265 0.774674
Si Si5 0.354287 0.568187 0.673187
Si Si6 0.762146 0.293597 0.388074
Si Si7 0.027717 0.720512 0.404031
Si Si8 0.530270 0.895795 0.678651
O O1 0.160087 0.848952 0.491684
O O2 0.086125 0.943653 0.312874
O O3 0.372664 0.041685 0.493243
O O4 0.227841 0.818417 0.967485
O O5 0.311871 0.307457 0.599664
O O6 0.311648 0.509291 0.867066
O O7 0.096935 0.342369 0.883190
O O8 0.339721 0.463190 0.276360
O O9 0.791546 0.839870 0.046061
O O10 0.958063 0.770916 0.726010
O O11 0.000000 0.000000 0.000000
O O12 0.513696 0.680563 0.807445
O O13 0.629981 0.869040 0.792245
O O14 0.257198 0.620636 0.666632
O O15 0.904288 0.357410 0.632304
O O16 0.621368 0.229519 0.499530
O O17 0.500000 0.000000 0.000000
#
# Coordination Sequence:
#
# PCOD9104882 Si02
#       8
#     2   2   2   2   2   2   2   2
#     4  10  20  39  64  91 134 169 216 270 330 402
#     4  11  26  44  69  97 134 176 230 280 333 384
#     4  10  20  39  62  93 131 172 215 269 332 398
#     4  10  21  42  66  98 133 174 220 278 331 399
#     4  11  25  46  68 100 131 178 228 279 334 388
#     4   9  22  40  64  92 132 169 222 271 332 395
#     4  10  24  39  61  96 130 173 224 276 325 401
#     4   9  18  38  66  94 130 172 216 267 333 407
#
# _framework density 27.345946000000001
#
# number of rings (size 3 to 8) (size 9 to 14) (size 15 to 20)
#    0.000    2.000    1.250    0.750    7.000    2.000 
#    2.250    1.250    0.000    0.000    0.000    0.000 
#    0.000    0.000    0.000    0.000    0.000    0.000 
#
# Total GULP energy -89705.705933 kJ/mol
# GULP energy per Si atom -5606.606621 kJ/mol
# Density = 2.728370 g / cm^3
# Si number density = 27.345946 Si / 1000 Ang^3
#
#
#
# Elastic Constant Matrix: (Units=GPa)
#
#
# Indices 1 2 3 4 5 6 
#
# 1 149.5074 38.7751 26.2219 4.0888 -22.6095 -15.5103
# 2 38.7751 121.3295 24.5844 -10.3755 -5.8255 -3.1717
# 3 26.2219 24.5844 92.0416 13.3722 3.5496 4.2722
# 4 4.0888 -10.3755 13.3722 39.6478 -0.4792 -4.0078
# 5 -22.6095 -5.8255 3.5496 -0.4792 36.5643 5.8664
# 6 -15.5103 -3.1717 4.2722 -4.0078 5.8664 49.9817
#
#
#
# Elastic Compliance Matrix: (Units=1/GPa)
#
#
# Indices 1 2 3 4 5 6 
#
# 1 0.008551 -0.002057 -0.002106 -0.000439 0.004821 0.002102
# 2 -0.002057 0.009780 -0.002604 0.003701 0.000517 0.000441
# 3 -0.002106 -0.002604 0.013104 -0.005122 -0.002731 -0.002029
# 4 -0.000439 0.003701 -0.005122 0.028247 0.000750 0.002713
# 5 0.004821 0.000517 -0.002731 0.000750 0.030978 -0.001814
# 6 0.002102 0.000441 -0.002029 0.002713 -0.001814 0.021291
#
#
# Mechanical properties :
#
#
# Convention : Reuss Voigt Hill
#
# Bulk Modulus (GPa) = 55.86760 60.22682 58.04721
# Shear Modulus (GPa) = 38.03655 43.45858 40.74757
#
# Velocity S-wave (km/s) = 3.73358 3.99082 3.86434
# Velocity P-wave (km/s) = 6.24983 6.58083 6.41747
#
# Compressibility (1/GPa) = 0.01789946
#
# Stress axis : x y z
#
# Youngs Moduli (GPa) = 116.94994 102.25079 76.31276
#
# Poissons Ratio (x) = 0.21033 0.16074
# Poissons Ratio (y) = 0.24056 0.19874
# Poissons Ratio (z) = 0.24633 0.26628
#
# Static dielectric constant tensor:
#      x y z
#    x 2.110970 0.004930 -0.026670 
#    y 0.004930 2.120120 0.040520 
#    z -0.026670 0.040520 2.186320 
# 
# From -- ./inp_files/81685.got.cif
#   From: 2010.05.17/outbox.cif.g08.bks.cpg/sg2_41_cif.got.tgz:81685.got - 2010.06.03 11:33:40.
