data_PCOD9104210
_publ_section_title
;
Structure prediction by ZEFSAII (Michael W. Deem and Ramdas Pophale) SiO2 
 PCOD9104210
Probable space group: P -1
;
_chemical_formula_sum "Si O2"
_cell_formula_units_Z 16
_cell_length_a 12.057868
_cell_length_b 5.259082
_cell_length_c 17.652011
_cell_angle_alpha 101.597648
_cell_angle_beta 117.808643
_cell_angle_gamma 56.617620
_cell_volume 824.397479
_symmetry_space_group_name_H-M "P -1"
_symmetry_group_IT_number 2
_symmetry_cell_setting 'triclinic'
loop_
_space_group_symop_operation_xyz
x,y,z
-x,-y,-z
loop_
_atom_site_type_symbol
_atom_site_label
_atom_site_fract_x
_atom_site_fract_y
_atom_site_fract_z
Si Si1 0.887544 0.345919 0.508796
Si Si2 0.893650 0.764607 0.643087
Si Si3 0.189221 0.572011 0.671165
Si Si4 0.150601 0.224474 0.195322
Si Si5 0.925495 0.356369 0.017823
Si Si6 0.640422 0.261878 0.481775
Si Si7 0.297368 0.516267 0.160601
Si Si8 0.626780 0.116868 0.297647
O O1 0.947762 0.438733 0.603522
O O2 0.859383 0.509182 0.429258
O O3 0.730965 0.410980 0.490497
O O4 0.000000 0.000000 0.500000
O O5 0.844343 0.777366 0.713124
O O6 0.038414 0.785582 0.681925
O O7 0.758741 0.995538 0.559406
O O8 0.273692 0.744828 0.687251
O O9 0.296142 0.239183 0.720096
O O10 0.216427 0.410617 0.188373
O O11 0.982459 0.362872 0.120194
O O12 0.243267 0.870404 0.177667
O O13 0.760020 0.510090 0.942544
O O14 0.000000 0.500000 0.000000
O O15 0.000000 0.000000 0.000000
O O16 0.500000 0.500000 0.500000
O O17 0.602412 0.158150 0.384415
O O18 0.469567 0.309840 0.218632
#
# Coordination Sequence:
#
# PCOD9104210 Si02
#       8
#     2   2   2   2   2   2   2   2
#     4  11  22  40  59  76 111 165 205 236 285 343
#     4  12  23  37  59  80 117 151 199 248 286 339
#     4  11  23  39  57  79 107 159 207 233 273 342
#     4  10  22  34  61  90 116 146 188 239 303 347
#     4   8  16  34  57  84 112 148 185 226 287 367
#     4  11  24  36  54  83 118 150 191 247 301 336
#     4  10  20  39  59  85 120 149 184 237 301 356
#     4  11  23  38  57  81 113 152 200 234 281 355
#
# _framework density 19.408114999999999
#
# number of rings (size 3 to 8) (size 9 to 14) (size 15 to 20)
#    0.000    1.500    2.500    3.375    3.500    1.500 
#    0.000    0.000    0.000    1.500    0.000    0.000 
#    0.000    0.000    0.000    0.000    0.000    0.000 
#
# Total GULP energy -89204.370222 kJ/mol
# GULP energy per Si atom -5575.273139 kJ/mol
# Density = 1.936394 g / cm^3
# Si number density = 19.408115 Si / 1000 Ang^3
#
#
#
# Elastic Constant Matrix: (Units=GPa)
#
#
# Indices 1 2 3 4 5 6 
#
# 1 59.7980 17.4178 -2.4463 -6.5857 10.5631 -7.3427
# 2 17.4178 73.4842 5.4477 -19.7198 6.6736 -0.5778
# 3 -2.4463 5.4477 81.9650 -30.5312 19.9419 -4.6159
# 4 -6.5857 -19.7198 -30.5312 28.6571 -2.1141 7.8365
# 5 10.5631 6.6736 19.9419 -2.1141 22.8740 -9.4285
# 6 -7.3427 -0.5778 -4.6159 7.8365 -9.4285 30.4567
#
#
#
# Elastic Compliance Matrix: (Units=1/GPa)
#
#
# Indices 1 2 3 4 5 6 
#
# 1 0.022317 0.000565 0.012326 0.018174 -0.021174 -0.003972
# 2 0.000565 0.024712 0.018207 0.038610 -0.025772 -0.014548
# 3 0.012326 0.018207 0.051904 0.073424 -0.060346 -0.026390
# 4 0.018174 0.038610 0.073424 0.151037 -0.090594 -0.050665
# 5 -0.021174 -0.025772 -0.060346 -0.090594 0.124697 0.047173
# 6 -0.003972 -0.014548 -0.026390 -0.050665 0.047173 0.055240
#
#
# Mechanical properties :
#
#
# Convention : Reuss Voigt Hill
#
# Bulk Modulus (GPa) = 6.20620 28.45394 17.33007
# Shear Modulus (GPa) = 11.86466 29.38609 20.62537
#
# Velocity S-wave (km/s) = 2.47518 3.89538 3.26347
# Velocity P-wave (km/s) = 3.37244 5.90971 4.81134
#
# Compressibility (1/GPa) = 0.16112917
#
# Stress axis : x y z
#
# Youngs Moduli (GPa) = 44.80953 40.46642 19.26639
#
# Poissons Ratio (x) = -0.02287 -0.23748
# Poissons Ratio (y) = -0.02533 -0.35079
# Poissons Ratio (z) = -0.55232 -0.73678
#
# Static dielectric constant tensor:
#      x y z
#    x 1.697110 0.053010 0.045140 
#    y 0.053010 1.690790 -0.049870 
#    z 0.045140 -0.049870 1.686460 
# 
# From -- ./inp_files/43273.got.cif
#   From: 2010.05.17/outbox.cif.g08.bks.cpg/sg2_22_cif.got.tgz:43273.got - 2010.06.03 11:33:40.
