data_PCOD9104664
_publ_section_title
;
Structure prediction by ZEFSAII (Michael W. Deem and Ramdas Pophale) SiO2 
 PCOD9104664
Probable space group: P -1
;
_chemical_formula_sum "Si O2"
_cell_formula_units_Z 16
_cell_length_a 18.946289
_cell_length_b 7.301588
_cell_length_c 7.669665
_cell_angle_alpha 122.337060
_cell_angle_beta 118.919733
_cell_angle_gamma 101.839902
_cell_volume 611.148550
_symmetry_space_group_name_H-M "P -1"
_symmetry_group_IT_number 2
_symmetry_cell_setting 'triclinic'
loop_
_space_group_symop_operation_xyz
x,y,z
-x,-y,-z
loop_
_atom_site_type_symbol
_atom_site_label
_atom_site_fract_x
_atom_site_fract_y
_atom_site_fract_z
Si Si1 0.071714 0.147667 0.830253
Si Si2 0.235515 0.200356 0.861538
Si Si3 0.543863 0.604893 0.410331
Si Si4 0.816520 0.255610 0.880705
Si Si5 0.343097 0.765347 0.131780
Si Si6 0.679133 0.445056 0.378975
Si Si7 0.114169 0.074708 0.281103
Si Si8 0.351697 0.053864 0.760143
O O1 0.994565 0.010969 0.829988
O O2 0.160644 0.120957 0.891175
O O3 0.125318 0.470053 0.029383
O O4 0.000000 0.000000 0.500000
O O5 0.172297 0.129092 0.567226
O O6 0.283673 0.045150 0.830207
O O7 0.324251 0.535053 0.125771
O O8 0.500000 0.500000 0.500000
O O9 0.573265 0.905465 0.571543
O O10 0.640006 0.604006 0.492644
O O11 0.457105 0.361744 0.054632
O O12 0.768378 0.294802 0.011236
O O13 0.888670 0.168290 0.933969
O O14 0.714115 0.019627 0.528500
O O15 0.363198 0.686767 0.930802
O O16 0.639665 0.184337 0.319026
O O17 0.802849 0.653608 0.596823
#
# Coordination Sequence:
#
# PCOD9104664 Si02
#       8
#     2   2   2   2   2   2   2   2
#     4   9  17  34  63  92 123 164 207 250 315 383
#     4   8  19  37  58  93 129 154 207 261 315 360
#     4  12  25  42  67  91 123 174 222 249 318 380
#     4  10  20  39  61  97 128 159 207 266 318 360
#     4  10  21  42  64  90 125 166 216 259 300 379
#     4  11  23  44  64  92 129 166 223 252 306 390
#     4   9  17  35  63  89 119 165 207 255 299 380
#     4  11  24  40  61  92 132 170 204 273 316 360
#
# _framework density 26.180216999999999
#
# number of rings (size 3 to 8) (size 9 to 14) (size 15 to 20)
#    0.000    2.000    2.500    1.500    0.000    3.000 
#    0.000    1.250    0.000    0.000    0.000    0.000 
#    0.000    0.000    0.000    0.000    0.000    0.000 
#
# Total GULP energy -89551.637101 kJ/mol
# GULP energy per Si atom -5596.977319 kJ/mol
# Density = 2.612063 g / cm^3
# Si number density = 26.180217 Si / 1000 Ang^3
#
#
#
# Elastic Constant Matrix: (Units=GPa)
#
#
# Indices 1 2 3 4 5 6 
#
# 1 149.5516 43.7932 32.9254 -1.6698 -16.6694 15.6910
# 2 43.7932 80.0724 23.2574 5.5567 -17.0955 13.7558
# 3 32.9254 23.2574 85.2055 10.7500 -4.0458 9.3370
# 4 -1.6698 5.5567 10.7500 33.7366 3.4195 -10.0455
# 5 -16.6694 -17.0955 -4.0458 3.4195 44.7752 3.0688
# 6 15.6910 13.7558 9.3370 -10.0455 3.0688 47.7361
#
#
#
# Elastic Compliance Matrix: (Units=1/GPa)
#
#
# Indices 1 2 3 4 5 6 
#
# 1 0.008545 -0.003548 -0.002281 0.001217 0.001609 -0.001188
# 2 -0.003548 0.017372 -0.002022 -0.004391 0.005789 -0.004740
# 3 -0.002281 -0.002022 0.014088 -0.005033 0.000207 -0.002496
# 4 0.001217 -0.004391 -0.005033 0.035405 -0.005041 0.009624
# 5 0.001609 0.005789 0.000207 -0.005041 0.025887 -0.004963
# 6 -0.001188 -0.004740 -0.002496 0.009624 -0.004963 0.025537
#
#
# Mechanical properties :
#
#
# Convention : Reuss Voigt Hill
#
# Bulk Modulus (GPa) = 41.14793 57.19794 49.17294
# Shear Modulus (GPa) = 33.19230 39.57317 36.38273
#
# Velocity S-wave (km/s) = 3.56454 3.89211 3.73192
# Velocity P-wave (km/s) = 5.71774 6.48793 6.11497
#
# Compressibility (1/GPa) = 0.02430256
#
# Stress axis : x y z
#
# Youngs Moduli (GPa) = 117.02344 57.56522 70.98276
#
# Poissons Ratio (x) = 0.20425 0.16189
# Poissons Ratio (y) = 0.41521 0.14355
# Poissons Ratio (z) = 0.26689 0.11642
#
# Static dielectric constant tensor:
#      x y z
#    x 2.114920 0.222370 0.026890 
#    y 0.222370 3.420130 -0.026640 
#    z 0.026890 -0.026640 2.126260 
# 
# From -- ./inp_files/315668.got.cif
#   From: 2010.05.17/outbox.cif.g08.bks.cpg/sg2_158_cif.got.tgz:315668.got - 2010.06.03 11:33:40.
