data_PCOD9104931
_publ_section_title
;
Structure prediction by ZEFSAII (Michael W. Deem and Ramdas Pophale) SiO2 
 PCOD9104931
Probable space group: P -1
;
_chemical_formula_sum "Si O2"
_cell_formula_units_Z 16
_cell_length_a 11.083761
_cell_length_b 7.147132
_cell_length_c 11.100125
_cell_angle_alpha 47.376909
_cell_angle_beta 70.726784
_cell_angle_gamma 74.208488
_cell_volume 609.264284
_symmetry_space_group_name_H-M "P -1"
_symmetry_group_IT_number 2
_symmetry_cell_setting 'triclinic'
loop_
_space_group_symop_operation_xyz
x,y,z
-x,-y,-z
loop_
_atom_site_type_symbol
_atom_site_label
_atom_site_fract_x
_atom_site_fract_y
_atom_site_fract_z
Si Si1 0.942755 0.204277 0.088620
Si Si2 0.609870 0.891100 0.414930
Si Si3 0.966539 0.757189 0.724480
Si Si4 0.207439 0.372411 0.352282
Si Si5 0.795031 0.044112 0.986105
Si Si6 0.419736 0.542706 0.882126
Si Si7 0.540761 0.751127 0.243001
Si Si8 0.706472 0.894140 0.785250
O O1 0.917667 0.186903 0.248909
O O2 0.091154 0.108256 0.057907
O O3 0.858548 0.047546 0.096066
O O4 0.935390 0.487557 0.911757
O O5 0.734413 0.733023 0.497175
O O6 0.568003 0.718413 0.391652
O O7 0.500000 0.000000 0.500000
O O8 0.631754 0.167724 0.231359
O O9 0.933669 0.701224 0.618860
O O10 0.850926 0.971480 0.694875
O O11 0.528328 0.544720 0.229829
O O12 0.218897 0.669677 0.189286
O O13 0.659506 0.918340 0.090923
O O14 0.500000 0.500000 0.000000
O O15 0.694024 0.786739 0.701457
O O16 0.691308 0.646384 0.978501
O O17 0.404447 0.908989 0.223535
#
# Coordination Sequence:
#
# PCOD9104931 Si02
#       8
#     2   2   2   2   2   2   2   2
#     4   9  17  35  62  97 124 163 226 280 319 371
#     4  12  24  43  60  90 142 181 215 259 326 408
#     4   8  17  35  62  93 124 169 213 273 323 379
#     4   9  20  39  60  95 131 173 206 267 328 390
#     4  10  21  37  66  99 126 171 222 281 323 378
#     4  12  25  41  63  91 133 178 219 269 320 391
#     4  12  25  41  67  99 134 173 220 267 332 404
#     4  10  20  39  62  98 129 162 213 267 331 389
#
# _framework density 26.261182000000002
#
# number of rings (size 3 to 8) (size 9 to 14) (size 15 to 20)
#    0.750    1.000    2.500    1.875    1.750    0.500 
#    2.250    0.000    0.000    7.500    0.000    0.000 
#    0.000    0.000    0.000    0.000    0.000    0.000 
#
# Total GULP energy -89086.435131 kJ/mol
# GULP energy per Si atom -5567.902196 kJ/mol
# Density = 2.620141 g / cm^3
# Si number density = 26.261182 Si / 1000 Ang^3
#
#
#
# Elastic Constant Matrix: (Units=GPa)
#
#
# Indices 1 2 3 4 5 6 
#
# 1 83.2434 44.9138 30.6013 -6.0717 16.6174 13.9473
# 2 44.9138 154.9374 36.9454 6.8975 18.7209 11.9160
# 3 30.6013 36.9454 128.7065 7.8563 44.2076 22.2296
# 4 -6.0717 6.8975 7.8563 35.8087 1.2305 17.1571
# 5 16.6174 18.7209 44.2076 1.2305 44.0441 11.8804
# 6 13.9473 11.9160 22.2296 17.1571 11.8804 46.2261
#
#
#
# Elastic Compliance Matrix: (Units=1/GPa)
#
#
# Indices 1 2 3 4 5 6 
#
# 1 0.016479 -0.004072 -0.001729 0.006447 -0.001560 -0.005083
# 2 -0.004072 0.008038 -0.000967 -0.002358 -0.001051 0.000767
# 3 -0.001729 -0.000967 0.012707 -0.001612 -0.011139 -0.001879
# 4 0.006447 -0.002358 -0.001612 0.036955 0.003231 -0.015109
# 5 -0.001560 -0.001051 -0.011139 0.003231 0.036005 -0.004354
# 6 -0.005083 0.000767 -0.001879 -0.015109 -0.004354 0.030599
#
#
# Mechanical properties :
#
#
# Convention : Reuss Voigt Hill
#
# Bulk Modulus (GPa) = 42.21431 65.75648 53.98539
# Shear Modulus (GPa) = 30.82327 42.17755 36.50041
#
# Velocity S-wave (km/s) = 3.42968 4.01194 3.73218
# Velocity P-wave (km/s) = 5.63855 6.82310 6.25891
#
# Compressibility (1/GPa) = 0.02368865
#
# Stress axis : x y z
#
# Youngs Moduli (GPa) = 60.68326 124.40587 78.69591
#
# Poissons Ratio (x) = 0.50662 0.13605
# Poissons Ratio (y) = 0.24712 0.07607
# Poissons Ratio (z) = 0.10491 0.12026
#
# Static dielectric constant tensor:
#      x y z
#    x 2.161310 0.049970 -0.022930 
#    y 0.049970 2.069470 0.090430 
#    z -0.022930 0.090430 2.175430 
# 
# From -- ./inp_files/444046.got.cif
#   From: 2010.05.17/outbox.cif.g08.bks.cpg/sg2_223_cif.got.tgz:444046.got - 2010.06.03 11:33:40.
