data_PCOD9104044
_publ_section_title
;
Structure prediction by ZEFSAII (Michael W. Deem and Ramdas Pophale) SiO2 
 PCOD9104044
Probable space group: P -1
;
_chemical_formula_sum "Si O2"
_cell_formula_units_Z 13
_cell_length_a 7.615390
_cell_length_b 6.550951
_cell_length_c 11.991057
_cell_angle_alpha 102.822344
_cell_angle_beta 124.764544
_cell_angle_gamma 72.271797
_cell_volume 467.201359
_symmetry_space_group_name_H-M "P -1"
_symmetry_group_IT_number 2
_symmetry_cell_setting 'triclinic'
loop_
_space_group_symop_operation_xyz
x,y,z
-x,-y,-z
loop_
_atom_site_type_symbol
_atom_site_label
_atom_site_fract_x
_atom_site_fract_y
_atom_site_fract_z
Si Si1 0.021731 0.530003 0.317852
Si Si2 0.500000 0.500000 0.500000
Si Si3 0.647778 0.014760 0.421806
Si Si4 0.181945 0.353764 0.124820
Si Si5 0.536698 0.620346 0.232288
Si Si6 0.920741 0.025879 0.301402
Si Si7 0.320836 0.915059 0.996923
O O1 0.093276 0.381282 0.219792
O O2 0.248473 0.521435 0.462701
O O3 0.796533 0.525197 0.298479
O O4 0.972382 0.768835 0.274483
O O5 0.526224 0.238343 0.456751
O O6 0.395390 0.459701 0.209436
O O7 0.861590 0.918603 0.562699
O O8 0.512756 0.833582 0.325154
O O9 0.742332 0.060242 0.339788
O O10 0.221581 0.112111 0.066282
O O11 0.000000 0.500000 0.000000
O O12 0.429803 0.709829 0.085301
O O13 0.838562 0.118039 0.163754
O O14 0.500000 0.000000 0.000000
#
# Coordination Sequence:
#
# PCOD9104044 Si02
#       7
#     2   1   2   2   2   2   2
#     4  10  21  43  68 105 143 186 234 303 347 425
#     4  10  20  38  76 104 144 188 238 298 362 418
#     4   9  18  38  67 102 139 192 235 291 364 425
#     4  12  26  46  75 106 148 189 243 299 355 427
#     4  11  25  47  75 107 146 194 240 291 368 431
#     4   9  18  37  67  95 146 187 228 299 363 412
#     4  12  22  42  72 106 141 193 234 299 361 426
#
# _framework density 27.82526
#
# number of rings (size 3 to 8) (size 9 to 14) (size 15 to 20)
#    0.000    1.538    4.615    1.846    0.000    3.077 
#    0.000    8.462    3.385    0.000    0.000    0.000 
#    0.000    0.000    0.000    0.000    0.000    0.000 
#
# Total GULP energy -72723.525835 kJ/mol
# GULP energy per Si atom -5594.117372 kJ/mol
# Density = 2.776193 g / cm^3
# Si number density = 27.825260 Si / 1000 Ang^3
#
#
#
# Elastic Constant Matrix: (Units=GPa)
#
#
# Indices 1 2 3 4 5 6 
#
# 1 203.0753 57.6442 79.8595 -11.1686 8.3420 14.1437
# 2 57.6442 140.1892 58.4476 24.4565 5.1900 -21.2375
# 3 79.8595 58.4476 174.5684 4.4797 8.2316 0.2009
# 4 -11.1686 24.4565 4.4797 49.7520 -13.3214 3.4600
# 5 8.3420 5.1900 8.2316 -13.3214 48.8745 4.6354
# 6 14.1437 -21.2375 0.2009 3.4600 4.6354 52.7087
#
#
#
# Elastic Compliance Matrix: (Units=1/GPa)
#
#
# Indices 1 2 3 4 5 6 
#
# 1 0.007190 -0.003233 -0.002346 0.003907 0.000914 -0.003560
# 2 -0.003233 0.011741 -0.002124 -0.007552 -0.002999 0.006366
# 3 -0.002346 -0.002124 0.007556 -0.000345 -0.000725 -0.000169
# 4 0.003907 -0.007552 -0.000345 0.027400 0.008289 -0.006617
# 5 0.000914 -0.002999 -0.000725 0.008289 0.023389 -0.004052
# 6 -0.003560 0.006366 -0.000169 -0.006617 -0.004052 0.023284
#
#
# Mechanical properties :
#
#
# Convention : Reuss Voigt Hill
#
# Bulk Modulus (GPa) = 90.24628 101.08170 95.66399
# Shear Modulus (GPa) = 41.78560 51.72582 46.75571
#
# Velocity S-wave (km/s) = 3.87940 4.31623 4.10363
# Velocity P-wave (km/s) = 7.25051 7.82598 7.54374
#
# Compressibility (1/GPa) = 0.01108079
#
# Stress axis : x y z
#
# Youngs Moduli (GPa) = 139.08710 85.17145 132.34502
#
# Poissons Ratio (x) = 0.27535 0.31047
# Poissons Ratio (y) = 0.44966 0.28112
# Poissons Ratio (z) = 0.32628 0.18092
#
# Static dielectric constant tensor:
#      x y z
#    x 2.147830 0.015340 0.025620 
#    y 0.015340 2.147840 -0.027790 
#    z 0.025620 -0.027790 2.291880 
# 
# From -- ./inp_files/413286.got.cif
#   From: 2010.05.17/outbox.cif.g08.bks.cpg/sg2_207_cif.got.tgz:413286.got - 2010.06.03 11:33:40.
