data_PCOD9104822
_publ_section_title
;
Structure prediction by ZEFSAII (Michael W. Deem and Ramdas Pophale) SiO2 
 PCOD9104822
Probable space group: P -1
;
_chemical_formula_sum "Si O2"
_cell_formula_units_Z 16
_cell_length_a 11.629055
_cell_length_b 8.787971
_cell_length_c 11.254274
_cell_angle_alpha 81.096448
_cell_angle_beta 54.107914
_cell_angle_gamma 57.150132
_cell_volume 759.912260
_symmetry_space_group_name_H-M "P -1"
_symmetry_group_IT_number 2
_symmetry_cell_setting 'triclinic'
loop_
_space_group_symop_operation_xyz
x,y,z
-x,-y,-z
loop_
_atom_site_type_symbol
_atom_site_label
_atom_site_fract_x
_atom_site_fract_y
_atom_site_fract_z
Si Si1 0.455796 0.962569 0.842691
Si Si2 0.237617 0.241399 0.154979
Si Si3 0.678993 0.402625 0.527982
Si Si4 0.777969 0.002631 0.216431
Si Si5 0.319090 0.967628 0.471232
Si Si6 0.288109 0.630763 0.752845
Si Si7 0.016846 0.174579 0.469105
Si Si8 0.932036 0.428102 0.947193
O O1 0.617046 0.792594 0.836109
O O2 0.537727 0.035084 0.692541
O O3 0.336616 0.927360 0.840630
O O4 0.337966 0.115846 0.994507
O O5 0.131035 0.170883 0.291962
O O6 0.113904 0.449394 0.157089
O O7 0.484586 0.566920 0.653381
O O8 0.726905 0.431102 0.362863
O O9 0.824892 0.354459 0.540491
O O10 0.672569 0.220079 0.539462
O O11 0.671205 0.017877 0.395962
O O12 0.930119 0.789116 0.133089
O O13 0.831998 0.144899 0.194124
O O14 0.131436 0.141335 0.518913
O O15 0.236640 0.546362 0.896675
O O16 0.000000 0.000000 0.500000
O O17 0.000000 0.500000 0.000000
#
# Coordination Sequence:
#
# PCOD9104822 Si02
#       8
#     2   2   2   2   2   2   2   2
#     4  10  20  39  62  91 123 160 200 256 305 362
#     4  10  21  38  63  93 120 158 214 249 298 367
#     4   9  18  35  63  86 117 163 209 246 296 366
#     4  11  23  40  61  93 125 167 198 255 309 363
#     4   9  19  37  61  91 123 156 205 251 303 362
#     4  10  22  39  59  90 125 159 207 253 302 362
#     4   9  18  37  62  92 120 162 203 251 302 363
#     4  12  23  40  64  90 123 162 205 254 304 364
#
# _framework density 21.055064000000002
#
# number of rings (size 3 to 8) (size 9 to 14) (size 15 to 20)
#    0.000    2.000    1.250    2.250    0.000    1.000 
#   11.250    1.875    0.000    0.000    0.000    0.000 
#    0.000    0.000    0.000    0.000    0.000    0.000 
#
# Total GULP energy -89309.697017 kJ/mol
# GULP energy per Si atom -5581.856064 kJ/mol
# Density = 2.100714 g / cm^3
# Si number density = 21.055064 Si / 1000 Ang^3
#
#
#
# Elastic Constant Matrix: (Units=GPa)
#
#
# Indices 1 2 3 4 5 6 
#
# 1 64.0841 25.5422 20.0364 4.2584 6.1889 -22.8374
# 2 25.5422 83.5960 34.4894 2.3074 1.3895 -20.6412
# 3 20.0364 34.4894 80.4621 -13.5700 4.5343 2.4260
# 4 4.2584 2.3074 -13.5700 36.0472 -3.2850 0.4391
# 5 6.1889 1.3895 4.5343 -3.2850 24.5335 -1.9335
# 6 -22.8374 -20.6412 2.4260 0.4391 -1.9335 24.6592
#
#
#
# Elastic Compliance Matrix: (Units=1/GPa)
#
#
# Indices 1 2 3 4 5 6 
#
# 1 0.029961 0.003598 -0.011190 -0.008766 -0.004371 0.031673
# 2 0.003598 0.021603 -0.011998 -0.006510 0.001011 0.022791
# 3 -0.011190 -0.011998 0.022951 0.010910 -0.001087 -0.022944
# 4 -0.008766 -0.006510 0.010910 0.033840 0.003918 -0.014937
# 5 -0.004371 0.001011 -0.001087 0.003918 0.042545 0.000171
# 6 0.031673 0.022791 -0.022944 -0.014937 0.000171 0.091500
#
#
# Mechanical properties :
#
#
# Convention : Reuss Voigt Hill
#
# Bulk Modulus (GPa) = 28.30110 43.14202 35.72156
# Shear Modulus (GPa) = 17.04392 26.91959 21.98176
#
# Velocity S-wave (km/s) = 2.84825 3.57954 3.23462
# Velocity P-wave (km/s) = 4.92822 6.13341 5.56354
#
# Compressibility (1/GPa) = 0.03533431
#
# Stress axis : x y z
#
# Youngs Moduli (GPa) = 33.37637 46.28889 43.57178
#
# Poissons Ratio (x) = -0.16653 0.48757
# Poissons Ratio (y) = -0.12007 0.52278
# Poissons Ratio (z) = 0.37348 0.55538
#
# Static dielectric constant tensor:
#      x y z
#    x 1.759490 -0.031310 -0.021750 
#    y -0.031310 1.774210 0.003880 
#    z -0.021750 0.003880 1.747390 
# 
# From -- ./inp_files/417057.got.cif
#   From: 2010.05.17/outbox.cif.g08.bks.cpg/sg2_209_cif.got.tgz:417057.got - 2010.06.03 11:33:40.
