data_PCOD9104744
_publ_section_title
;
Structure prediction by ZEFSAII (Michael W. Deem and Ramdas Pophale) SiO2 
 PCOD9104744
Probable space group: P -1
;
_chemical_formula_sum "Si O2"
_cell_formula_units_Z 15
_cell_length_a 24.294465
_cell_length_b 5.113350
_cell_length_c 8.751543
_cell_angle_alpha 84.905483
_cell_angle_beta 36.994287
_cell_angle_gamma 64.907717
_cell_volume 526.478337
_symmetry_space_group_name_H-M "P -1"
_symmetry_group_IT_number 2
_symmetry_cell_setting 'triclinic'
loop_
_space_group_symop_operation_xyz
x,y,z
-x,-y,-z
loop_
_atom_site_type_symbol
_atom_site_label
_atom_site_fract_x
_atom_site_fract_y
_atom_site_fract_z
Si Si1 0.689053 0.151022 0.176620
Si Si2 0.139134 0.011599 0.715174
Si Si3 0.102356 0.535037 0.254483
Si Si4 0.682251 0.998963 0.855301
Si Si5 0.967109 0.151607 0.308079
Si Si6 0.680184 0.494616 0.444133
Si Si7 0.508360 0.870299 0.314079
Si Si8 0.500000 0.500000 0.000000
O O1 0.562935 0.270883 0.484747
O O2 0.711622 0.381888 0.204250
O O3 0.786374 0.791055 0.041228
O O4 0.701592 0.109668 0.969282
O O5 0.209380 0.136112 0.485392
O O6 0.220570 0.667441 0.644680
O O7 0.086854 0.947831 0.691125
O O8 0.042096 0.234987 0.043987
O O9 0.000000 0.500000 0.500000
O O10 0.053096 0.842891 0.240616
O O11 0.120972 0.593937 0.385255
O O12 0.629344 0.794435 0.999625
O O13 0.580545 0.332765 0.983399
O O14 0.575110 0.872303 0.648938
O O15 0.615025 0.346805 0.654178
O O16 0.500000 0.000000 0.500000
#
# Coordination Sequence:
#
# PCOD9104744 Si02
#       8
#     2   2   2   2   2   2   2   1
#     4  11  22  37  64  94 122 165 212 257 311 371
#     4  10  20  40  63  89 125 167 204 252 321 368
#     4  11  23  42  66  95 124 160 211 260 311 370
#     4   9  19  37  59  87 123 161 204 251 303 367
#     4  10  23  42  66  91 124 164 208 261 309 371
#     4  10  20  39  62  87 126 163 202 258 308 364
#     4   9  20  37  59  91 122 157 207 251 301 365
#     4   8  18  36  56  82 120 162 196 240 306 360
#
# _framework density 28.491202000000001
#
# number of rings (size 3 to 8) (size 9 to 14) (size 15 to 20)
#    0.000    2.133    0.000    2.400    0.000    8.000 
#    0.000   31.333    0.000    1.600    0.000    0.000 
#    0.000    0.000    0.000    0.000    0.000    0.000 
#
# Total GULP energy -83628.019633 kJ/mol
# GULP energy per Si atom -5575.201309 kJ/mol
# Density = 2.842635 g / cm^3
# Si number density = 28.491202 Si / 1000 Ang^3
#
#
#
# Elastic Constant Matrix: (Units=GPa)
#
#
# Indices 1 2 3 4 5 6 
#
# 1 136.5120 36.7216 15.7332 -10.7095 -3.4953 -31.9905
# 2 36.7216 76.2276 33.7132 -7.4168 -5.0727 -13.8782
# 3 15.7332 33.7132 203.6350 -37.0894 -9.8928 5.6499
# 4 -10.7095 -7.4168 -37.0894 34.8696 -7.4291 -9.1880
# 5 -3.4953 -5.0727 -9.8928 -7.4291 39.6668 -8.2095
# 6 -31.9905 -13.8782 5.6499 -9.1880 -8.2095 43.4989
#
#
#
# Elastic Compliance Matrix: (Units=1/GPa)
#
#
# Indices 1 2 3 4 5 6 
#
# 1 0.010786 -0.003001 0.000838 0.006782 0.003916 0.009038
# 2 -0.003001 0.016671 -0.002153 0.002025 0.002602 0.004310
# 3 0.000838 -0.002153 0.006799 0.008097 0.003296 0.001379
# 4 0.006782 0.002025 0.008097 0.047729 0.015453 0.017580
# 5 0.003916 0.002602 0.003296 0.015453 0.032217 0.012627
# 6 0.009038 0.004310 0.001379 0.017580 0.012627 0.036928
#
#
# Mechanical properties :
#
#
# Convention : Reuss Voigt Hill
#
# Bulk Modulus (GPa) = 39.02306 65.41228 52.21767
# Shear Modulus (GPa) = 29.70826 45.62085 37.66455
#
# Velocity S-wave (km/s) = 3.23262 4.00587 3.63984
# Velocity P-wave (km/s) = 5.25921 6.66368 6.00266
#
# Compressibility (1/GPa) = 0.02562587
#
# Stress axis : x y z
#
# Youngs Moduli (GPa) = 92.71032 59.98383 147.08093
#
# Poissons Ratio (x) = 0.18001 -0.12328
# Poissons Ratio (y) = 0.27821 0.31660
# Poissons Ratio (z) = -0.07771 0.12912
#
# Static dielectric constant tensor:
#      x y z
#    x 2.164970 0.002590 -0.022670 
#    y 0.002590 2.357400 0.055310 
#    z -0.022670 0.055310 2.247740 
# 
# From -- ./inp_files/350736.got.cif
#   From: 2010.05.17/outbox.cif.g08.bks.cpg/sg2_176_cif.got.tgz:350736.got - 2010.06.03 11:33:40.
