data_PCOD9104592
_publ_section_title
;
Structure prediction by ZEFSAII (Michael W. Deem and Ramdas Pophale) SiO2 
 PCOD9104592
Probable space group: P -1
;
_chemical_formula_sum "Si O2"
_cell_formula_units_Z 16
_cell_length_a 16.058273
_cell_length_b 8.221867
_cell_length_c 9.610045
_cell_angle_alpha 70.633790
_cell_angle_beta 35.117045
_cell_angle_gamma 71.564090
_cell_volume 686.209303
_symmetry_space_group_name_H-M "P -1"
_symmetry_group_IT_number 2
_symmetry_cell_setting 'triclinic'
loop_
_space_group_symop_operation_xyz
x,y,z
-x,-y,-z
loop_
_atom_site_type_symbol
_atom_site_label
_atom_site_fract_x
_atom_site_fract_y
_atom_site_fract_z
Si Si1 0.952702 0.773393 0.010313
Si Si2 0.630700 0.406852 0.259116
Si Si3 0.774445 0.257791 0.546312
Si Si4 0.055828 0.669535 0.448683
Si Si5 0.893397 0.180979 0.957211
Si Si6 0.534650 0.567613 0.082655
Si Si7 0.786331 0.739476 0.985019
Si Si8 0.649542 0.912736 0.884030
O O1 0.819388 0.731654 0.106156
O O2 0.098156 0.711948 0.743851
O O3 0.991099 0.724807 0.131048
O O4 0.931391 0.979565 0.978460
O O5 0.500000 0.500000 0.500000
O O6 0.727396 0.234925 0.217607
O O7 0.576802 0.410536 0.173509
O O8 0.747421 0.548149 0.059067
O O9 0.813479 0.346915 0.613971
O O10 0.618501 0.336399 0.683105
O O11 0.762058 0.051780 0.647300
O O12 0.000000 0.500000 0.500000
O O13 0.928752 0.763751 0.691266
O O14 0.096588 0.779055 0.229731
O O15 0.500000 0.500000 0.000000
O O16 0.650237 0.715169 0.882114
O O17 0.666395 0.875822 0.038387
O O18 0.500000 0.000000 0.000000
#
# Coordination Sequence:
#
# PCOD9104592 Si02
#       8
#     2   2   2   2   2   2   2   2
#     4  10  23  40  61  90 120 165 199 255 308 370
#     4  11  23  41  59  84 123 164 197 250 306 366
#     4  10  20  39  61  90 123 161 205 249 317 363
#     4  11  21  37  64  95 120 155 199 266 304 356
#     4  11  22  40  62  89 126 154 209 248 307 363
#     4  10  21  37  60  90 121 158 210 255 299 362
#     4  10  21  40  61  89 122 156 207 247 313 360
#     4   9  19  35  59  85 120 162 200 247 295 361
#
# _framework density 23.316503000000001
#
# number of rings (size 3 to 8) (size 9 to 14) (size 15 to 20)
#    0.000    1.750    1.250    3.000    1.750    3.500 
#    2.250    1.875    0.000    0.000    0.000    0.000 
#    0.000    0.000    0.000    0.000    0.000    0.000 
#
# Total GULP energy -89199.752524 kJ/mol
# GULP energy per Si atom -5574.984533 kJ/mol
# Density = 2.326343 g / cm^3
# Si number density = 23.316503 Si / 1000 Ang^3
#
#
#
# Elastic Constant Matrix: (Units=GPa)
#
#
# Indices 1 2 3 4 5 6 
#
# 1 148.9576 5.3481 3.7139 7.6898 9.9421 -0.8351
# 2 5.3481 25.8064 -12.0820 7.8054 -0.6810 -2.3799
# 3 3.7139 -12.0820 36.3352 15.0215 4.4491 -0.3240
# 4 7.6898 7.8054 15.0215 22.8823 4.7479 -6.7458
# 5 9.9421 -0.6810 4.4491 4.7479 27.7112 2.2973
# 6 -0.8351 -2.3799 -0.3240 -6.7458 2.2973 36.7744
#
#
#
# Elastic Compliance Matrix: (Units=1/GPa)
#
#
# Indices 1 2 3 4 5 6 
#
# 1 0.006983 -0.001358 -0.000416 -0.001138 -0.002277 0.000001
# 2 -0.001358 0.086063 0.056661 -0.069423 0.005986 -0.007071
# 3 -0.000416 0.056661 0.075858 -0.072175 0.002480 -0.009069
# 4 -0.001138 -0.069423 -0.072175 0.123060 -0.012302 0.018188
# 5 -0.002277 0.005986 0.002480 -0.012302 0.039120 -0.004343
# 6 0.000001 -0.007071 -0.009069 0.018188 -0.004343 0.030263
#
#
# Mechanical properties :
#
#
# Convention : Reuss Voigt Hill
#
# Bulk Modulus (GPa) = 3.58838 22.78435 13.18636
# Shear Modulus (GPa) = 14.51519 31.74820 23.13169
#
# Velocity S-wave (km/s) = 2.49776 3.69402 3.15314
# Velocity P-wave (km/s) = 3.14018 5.29030 4.35018
#
# Compressibility (1/GPa) = 0.27867734
#
# Stress axis : x y z
#
# Youngs Moduli (GPa) = 143.20148 11.61945 13.18248
#
# Poissons Ratio (x) = 0.01578 0.00549
# Poissons Ratio (y) = 0.19445 -0.74693
# Poissons Ratio (z) = 0.05959 -0.65837
#
# Static dielectric constant tensor:
#      x y z
#    x 2.010800 -0.029900 -0.073180 
#    y -0.029900 1.940580 0.097850 
#    z -0.073180 0.097850 2.041360 
# 
# From -- ./inp_files/297752.got.cif
#   From: 2010.05.17/outbox.cif.g08.bks.cpg/sg2_149_cif.got.tgz:297752.got - 2010.06.03 11:33:40.
