data_PCOD9104137
_publ_section_title
;
Structure prediction by ZEFSAII (Michael W. Deem and Ramdas Pophale) SiO2 
 PCOD9104137
Probable space group: P -1
;
_chemical_formula_sum "Si O2"
_cell_formula_units_Z 16
_cell_length_a 18.089666
_cell_length_b 11.386253
_cell_length_c 8.621489
_cell_angle_alpha 40.863035
_cell_angle_beta 45.990930
_cell_angle_gamma 47.164493
_cell_volume 789.318503
_symmetry_space_group_name_H-M "P -1"
_symmetry_group_IT_number 2
_symmetry_cell_setting 'triclinic'
loop_
_space_group_symop_operation_xyz
x,y,z
-x,-y,-z
loop_
_atom_site_type_symbol
_atom_site_label
_atom_site_fract_x
_atom_site_fract_y
_atom_site_fract_z
Si Si1 0.682953 0.352000 0.461544
Si Si2 0.875182 0.245959 0.523312
Si Si3 0.601482 0.959526 0.280778
Si Si4 0.320506 0.063819 0.123504
Si Si5 0.801146 0.610701 0.463543
Si Si6 0.320559 0.355777 0.091366
Si Si7 0.536251 0.370395 0.925999
Si Si8 0.103720 0.180253 0.110951
O O1 0.797481 0.303089 0.430463
O O2 0.591444 0.450758 0.626247
O O3 0.664154 0.154525 0.645406
O O4 0.685548 0.475359 0.186661
O O5 0.819965 0.401700 0.577545
O O6 0.993007 0.252798 0.296718
O O7 0.887314 0.028136 0.758812
O O8 0.500000 0.000000 0.500000
O O9 0.693473 0.775500 0.394374
O O10 0.623163 0.162890 0.048236
O O11 0.592038 0.926454 0.144296
O O12 0.326546 0.178222 0.152279
O O13 0.205522 0.151510 0.109727
O O14 0.780058 0.607254 0.680422
O O15 0.891099 0.683928 0.175220
O O16 0.430119 0.332059 0.051856
O O17 0.500000 0.500000 0.000000
#
# Coordination Sequence:
#
# PCOD9104137 Si02
#       8
#     2   2   2   2   2   2   2   2
#     4  10  22  39  58  89 121 156 201 248 306 364
#     4  10  20  41  70  90 119 157 205 261 300 351
#     4  10  20  39  58  85 114 159 207 249 289 348
#     4   9  22  39  60  85 125 155 203 251 303 360
#     4  11  22  37  60  91 122 157 205 248 303 365
#     4  12  24  38  58  88 129 167 189 253 314 358
#     4  11  24  40  61  85 115 165 215 250 297 359
#     4   9  20  41  69  94 113 157 210 253 303 361
#
# _framework density 20.270651999999998
#
# number of rings (size 3 to 8) (size 9 to 14) (size 15 to 20)
#    0.000    1.750    1.250    3.750    1.750    4.000 
#    0.000    2.500    0.000    4.500    0.000    0.000 
#    0.000    0.000    0.000    0.000    0.000    0.000 
#
# Total GULP energy -89299.448352 kJ/mol
# GULP energy per Si atom -5581.215522 kJ/mol
# Density = 2.022451 g / cm^3
# Si number density = 20.270652 Si / 1000 Ang^3
#
#
#
# Elastic Constant Matrix: (Units=GPa)
#
#
# Indices 1 2 3 4 5 6 
#
# 1 64.2249 46.8936 41.9074 9.3974 -0.8946 26.6017
# 2 46.8936 133.7081 47.1510 7.1513 11.9985 37.7270
# 3 41.9074 47.1510 103.1545 -1.8806 18.7575 24.6392
# 4 9.3974 7.1513 -1.8806 25.1323 -4.0026 2.7291
# 5 -0.8946 11.9985 18.7575 -4.0026 27.0352 9.3708
# 6 26.6017 37.7270 24.6392 2.7291 9.3708 33.6015
#
#
#
# Elastic Compliance Matrix: (Units=1/GPa)
#
#
# Indices 1 2 3 4 5 6 
#
# 1 0.034764 -0.004070 -0.010790 -0.008101 0.015751 -0.018775
# 2 -0.004070 0.012121 -0.001538 -0.001359 -0.001635 -0.008693
# 3 -0.010790 -0.001538 0.016649 0.003892 -0.010924 0.000791
# 4 -0.008101 -0.001359 0.003892 0.044097 0.004032 0.000379
# 5 0.015751 -0.001635 -0.010924 0.004032 0.052511 -0.017596
# 6 -0.018775 -0.008693 0.000791 0.000379 -0.017596 0.058681
#
#
# Mechanical properties :
#
#
# Convention : Reuss Voigt Hill
#
# Bulk Modulus (GPa) = 32.53322 63.66572 48.09947
# Shear Modulus (GPa) = 19.09383 28.16284 23.62833
#
# Velocity S-wave (km/s) = 3.07244 3.73143 3.41785
# Velocity P-wave (km/s) = 5.35451 7.07395 6.27342
#
# Compressibility (1/GPa) = 0.03073781
#
# Stress axis : x y z
#
# Youngs Moduli (GPa) = 28.76554 82.50222 60.06291
#
# Poissons Ratio (x) = 0.33577 0.64809
# Poissons Ratio (y) = 0.11707 0.09238
# Poissons Ratio (z) = 0.31038 0.12689
#
# Static dielectric constant tensor:
#      x y z
#    x 1.727330 -0.047620 -0.042180 
#    y -0.047620 1.813260 0.032500 
#    z -0.042180 0.032500 1.809300 
# 
# From -- ./inp_files/272723.got.cif
#   From: 2010.05.17/outbox.cif.g08.bks.cpg/sg2_137_cif.got.tgz:272723.got - 2010.06.03 11:33:40.
