data_PCOD9104051
_publ_section_title
;
Structure prediction by ZEFSAII (Michael W. Deem and Ramdas Pophale) SiO2 
 PCOD9104051
Probable space group: P -1
;
_chemical_formula_sum "Si O2"
_cell_formula_units_Z 16
_cell_length_a 6.503955
_cell_length_b 27.878858
_cell_length_c 5.293690
_cell_angle_alpha 91.216819
_cell_angle_beta 74.262737
_cell_angle_gamma 133.100056
_cell_volume 655.942563
_symmetry_space_group_name_H-M "P -1"
_symmetry_group_IT_number 2
_symmetry_cell_setting 'triclinic'
loop_
_space_group_symop_operation_xyz
x,y,z
-x,-y,-z
loop_
_atom_site_type_symbol
_atom_site_label
_atom_site_fract_x
_atom_site_fract_y
_atom_site_fract_z
Si Si1 0.848339 0.551269 0.450707
Si Si2 0.389349 0.929323 0.088730
Si Si3 0.403008 0.875810 0.579570
Si Si4 0.337425 0.186179 0.669988
Si Si5 0.715985 0.459313 0.859005
Si Si6 0.236803 0.328660 0.211098
Si Si7 0.874316 0.656453 0.253153
Si Si8 0.326243 0.238904 0.179725
O O1 0.500000 0.500000 0.500000
O O2 0.841199 0.530803 0.741435
O O3 0.980615 0.622827 0.327078
O O4 0.015232 0.535847 0.237641
O O5 0.487544 0.925174 0.328865
O O6 0.025999 0.873599 0.206019
O O7 0.496988 0.910955 0.825880
O O8 0.500000 0.000000 0.000000
O O9 0.039351 0.816955 0.707785
O O10 0.534664 0.844912 0.460052
O O11 0.412836 0.236045 0.429983
O O12 0.431051 0.220233 0.919023
O O13 0.482671 0.405287 0.707481
O O14 0.477683 0.410608 0.152587
O O15 0.087848 0.300684 0.528924
O O16 0.408962 0.306801 0.099355
O O17 0.020127 0.308092 0.049685
#
# Coordination Sequence:
#
# PCOD9104051 Si02
#       8
#     2   2   2   2   2   2   2   2
#     4   9  16  38  56  79 108 140 173 218 277 343
#     4  10  21  36  59  89 121 150 188 239 277 327
#     4  10  21  38  58  84 116 155 194 226 284 336
#     4  10  21  38  59  82 115 157 192 230 284 332
#     4   8  19  35  56  79 106 141 173 221 277 332
#     4  10  20  39  55  78 111 136 182 234 271 322
#     4   9  20  36  54  79 106 136 174 224 274 331
#     4  10  21  39  56  80 115 148 193 241 277 329
#
# _framework density 24.392377
#
# number of rings (size 3 to 8) (size 9 to 14) (size 15 to 20)
#    0.750    1.750    0.000    1.875    0.000    1.500 
#    6.750    3.125    0.000    0.000    0.000    0.000 
#    0.000    0.000    0.000    0.000    0.000    0.000 
#
# Total GULP energy -89343.567600 kJ/mol
# GULP energy per Si atom -5583.972975 kJ/mol
# Density = 2.433686 g / cm^3
# Si number density = 24.392377 Si / 1000 Ang^3
#
#
#
# Elastic Constant Matrix: (Units=GPa)
#
#
# Indices 1 2 3 4 5 6 
#
# 1 77.7411 25.9969 45.8415 -6.3861 -3.7245 -26.7566
# 2 25.9969 73.7623 39.7207 -3.0041 -0.0632 -25.5406
# 3 45.8415 39.7207 152.4086 10.9024 7.9146 -6.3075
# 4 -6.3861 -3.0041 10.9024 37.7341 -11.1009 -0.4001
# 5 -3.7245 -0.0632 7.9146 -11.1009 39.8858 6.8081
# 6 -26.7566 -25.5406 -6.3075 -0.4001 6.8081 35.2897
#
#
#
# Elastic Compliance Matrix: (Units=1/GPa)
#
#
# Indices 1 2 3 4 5 6 
#
# 1 0.023303 0.002178 -0.007516 0.007272 0.002715 0.017461
# 2 0.002178 0.021863 -0.005932 0.003905 -0.000318 0.016520
# 3 -0.007516 -0.005932 0.010636 -0.005825 -0.003155 -0.007548
# 4 0.007272 0.003905 -0.005825 0.032719 0.009966 0.005747
# 5 0.002715 -0.000318 -0.003155 0.009966 0.029459 -0.004306
# 6 0.017461 0.016520 -0.007548 0.005747 -0.004306 0.053078
#
#
# Mechanical properties :
#
#
# Convention : Reuss Voigt Hill
#
# Bulk Modulus (GPa) = 30.06314 58.55890 44.31102
# Shear Modulus (GPa) = 24.42778 35.40545 29.91661
#
# Velocity S-wave (km/s) = 3.16800 3.81398 3.50590
# Velocity P-wave (km/s) = 5.07279 6.59200 5.88165
#
# Compressibility (1/GPa) = 0.03326333
#
# Stress axis : x y z
#
# Youngs Moduli (GPa) = 42.91216 45.74025 94.02012
#
# Poissons Ratio (x) = -0.09964 0.70661
# Poissons Ratio (y) = -0.09348 0.55774
# Poissons Ratio (z) = 0.32251 0.27134
#
# Static dielectric constant tensor:
#      x y z
#    x 1.949560 0.018510 0.010350 
#    y 0.018510 1.940170 -0.045980 
#    z 0.010350 -0.045980 2.062860 
# 
# From -- ./inp_files/14098.got.cif
#   From: 2010.05.17/outbox.cif.g08.bks.cpg/sg2_8_cif.got.tgz:14098.got - 2010.06.03 11:33:40.
