data_PCOD9104983
_publ_section_title
;
Structure prediction by ZEFSAII (Michael W. Deem and Ramdas Pophale) SiO2 
 PCOD9104983
Probable space group: P -1
;
_chemical_formula_sum "Si O2"
_cell_formula_units_Z 14
_cell_length_a 9.668625
_cell_length_b 12.902595
_cell_length_c 12.631732
_cell_angle_alpha 126.026249
_cell_angle_beta 146.674036
_cell_angle_gamma 46.802008
_cell_volume 630.611944
_symmetry_space_group_name_H-M "P -1"
_symmetry_group_IT_number 2
_symmetry_cell_setting 'triclinic'
loop_
_space_group_symop_operation_xyz
x,y,z
-x,-y,-z
loop_
_atom_site_type_symbol
_atom_site_label
_atom_site_fract_x
_atom_site_fract_y
_atom_site_fract_z
Si Si1 0.653564 0.809310 0.407197
Si Si2 0.763858 0.926840 0.198580
Si Si3 0.070883 0.594679 0.184882
Si Si4 0.450868 0.342634 0.571675
Si Si5 0.351434 0.935278 0.561599
Si Si6 0.774037 0.399861 0.261973
Si Si7 0.221616 0.424668 0.829595
O O1 0.456948 0.769052 0.335321
O O2 0.694793 0.714883 0.271634
O O3 0.958138 0.742319 0.619573
O O4 0.574380 0.967559 0.413566
O O5 0.850170 0.759270 0.152057
O O6 0.040964 0.943901 0.349774
O O7 0.676023 0.997587 0.299878
O O8 0.500000 0.000000 0.000000
O O9 0.058522 0.537660 0.260120
O O10 0.342790 0.605459 0.322734
O O11 0.000000 0.500000 0.000000
O O12 0.428778 0.230071 0.406442
O O13 0.251718 0.483239 0.595033
O O14 0.811878 0.451707 0.200212
O O15 0.473243 0.399345 0.056964
#
# Coordination Sequence:
#
# PCOD9104983 Si02
#       7
#     2   2   2   2   2   2   2
#     4  11  22  41  65  89 123 163 206 243 310 362
#     4  10  23  43  60  91 124 160 202 247 305 368
#     4  11  21  39  65  91 122 161 201 255 307 350
#     4  10  21  39  60  94 125 157 202 256 296 362
#     4  10  22  40  64  86 125 163 197 250 305 358
#     4  10  22  40  63  91 122 161 206 250 299 367
#     4  10  20  39  63  86 126 160 198 251 311 344
#
# _framework density 22.200658000000001
#
# number of rings (size 3 to 8) (size 9 to 14) (size 15 to 20)
#    0.000    1.714    2.857    2.143    2.000    0.000 
#    5.143    2.857    0.000   11.143    0.000    0.000 
#    0.000    0.000    0.000    0.000    0.000    0.000 
#
# Total GULP energy -78074.402601 kJ/mol
# GULP energy per Si atom -5576.743043 kJ/mol
# Density = 2.215013 g / cm^3
# Si number density = 22.200658 Si / 1000 Ang^3
#
#
#
# Elastic Constant Matrix: (Units=GPa)
#
#
# Indices 1 2 3 4 5 6 
#
# 1 167.5965 25.3435 11.8569 11.8373 9.3111 -4.2502
# 2 25.3435 104.5974 30.4808 13.6591 6.1565 -10.7738
# 3 11.8569 30.4808 104.7369 2.3379 2.8040 -8.2560
# 4 11.8373 13.6591 2.3379 36.4865 -5.2202 0.2400
# 5 9.3111 6.1565 2.8040 -5.2202 23.1234 15.8691
# 6 -4.2502 -10.7738 -8.2560 0.2400 15.8691 39.3533
#
#
#
# Elastic Compliance Matrix: (Units=1/GPa)
#
#
# Indices 1 2 3 4 5 6 
#
# 1 0.006582 -0.000693 -0.000175 -0.002545 -0.004649 0.002375
# 2 -0.000693 0.012305 -0.002696 -0.005392 -0.007995 0.005985
# 3 -0.000175 -0.002696 0.010586 0.000080 -0.002048 0.002289
# 4 -0.002545 -0.005392 0.000080 0.032499 0.015367 -0.008129
# 5 -0.004649 -0.007995 -0.002048 0.015367 0.073515 -0.032859
# 6 0.002375 0.005985 0.002289 -0.008129 -0.032859 0.041086
#
#
# Mechanical properties :
#
#
# Convention : Reuss Voigt Hill
#
# Bulk Modulus (GPa) = 44.75456 56.92148 50.83802
# Shear Modulus (GPa) = 26.15742 40.40928 33.28335
#
# Velocity S-wave (km/s) = 3.43626 4.27099 3.87616
# Velocity P-wave (km/s) = 5.99555 7.07227 6.55605
#
# Compressibility (1/GPa) = 0.02234409
#
# Stress axis : x y z
#
# Youngs Moduli (GPa) = 151.92488 81.26490 94.46635
#
# Poissons Ratio (x) = 0.05633 0.01653
# Poissons Ratio (y) = 0.10532 0.25473
# Poissons Ratio (z) = 0.02658 0.21913
#
# Static dielectric constant tensor:
#      x y z
#    x 1.916760 0.017290 0.040750 
#    y 0.017290 1.851410 -0.020570 
#    z 0.040750 -0.020570 1.853760 
# 
# From -- ./inp_files/392918.got.cif
#   From: 2010.05.17/outbox.cif.g08.bks.cpg/sg2_197_cif.got.tgz:392918.got - 2010.06.03 11:33:40.
