data_PCOD9104668
_publ_section_title
;
Structure prediction by ZEFSAII (Michael W. Deem and Ramdas Pophale) SiO2 
 PCOD9104668
Probable space group: P -1
;
_chemical_formula_sum "Si O2"
_cell_formula_units_Z 16
_cell_length_a 9.129005
_cell_length_b 28.261626
_cell_length_c 5.263987
_cell_angle_alpha 112.530085
_cell_angle_beta 53.862540
_cell_angle_gamma 143.730321
_cell_volume 636.640667
_symmetry_space_group_name_H-M "P -1"
_symmetry_group_IT_number 2
_symmetry_cell_setting 'triclinic'
loop_
_space_group_symop_operation_xyz
x,y,z
-x,-y,-z
loop_
_atom_site_type_symbol
_atom_site_label
_atom_site_fract_x
_atom_site_fract_y
_atom_site_fract_z
Si Si1 0.225065 0.629878 0.279180
Si Si2 0.422432 0.157054 0.169331
Si Si3 0.185512 0.901851 0.833775
Si Si4 0.290521 0.321606 0.409864
Si Si5 0.773894 0.245772 0.492319
Si Si6 0.805965 0.026753 0.528972
Si Si7 0.562231 0.480496 0.648007
Si Si8 0.718179 0.758136 0.366548
O O1 0.222876 0.691202 0.369937
O O2 0.413941 0.666028 0.414809
O O3 0.898840 0.539900 0.433611
O O4 0.416562 0.640549 0.906937
O O5 0.625274 0.193682 0.280181
O O6 0.348459 0.201231 0.366250
O O7 0.105792 0.061295 0.290074
O O8 0.585441 0.186389 0.801700
O O9 0.167199 0.925315 0.629254
O O10 0.483594 0.935750 0.619849
O O11 0.205801 0.949947 0.132124
O O12 0.906916 0.809969 0.027673
O O13 0.360858 0.386905 0.638281
O O14 0.131748 0.245055 0.590139
O O15 0.095767 0.297675 0.326314
O O16 0.500000 0.500000 0.500000
O O17 0.500000 0.500000 0.000000
#
# Coordination Sequence:
#
# PCOD9104668 Si02
#       8
#     2   2   2   2   2   2   2   2
#     4  11  25  47  71 101 135 181 227 284 342 417
#     4  10  20  39  61  97 132 181 220 286 326 407
#     4   9  18  31  56  98 132 175 223 287 318 410
#     4  12  27  45  73 101 135 185 226 287 349 410
#     4  11  24  40  68  94 140 172 231 277 344 391
#     4   9  16  32  58  90 137 178 227 267 346 383
#     4  12  30  50  75 100 140 179 226 282 348 417
#     4  10  23  37  68  98 137 169 236 277 345 390
#
# _framework density 25.131916
#
# number of rings (size 3 to 8) (size 9 to 14) (size 15 to 20)
#    0.000    1.500    2.500    2.625   10.500    0.500 
#    0.000    0.000    0.000    1.500    0.000    0.000 
#    0.000    0.000    0.000    0.000    0.000    0.000 
#
# Total GULP energy -89568.191285 kJ/mol
# GULP energy per Si atom -5598.011955 kJ/mol
# Density = 2.507472 g / cm^3
# Si number density = 25.131916 Si / 1000 Ang^3
#
#
#
# Elastic Constant Matrix: (Units=GPa)
#
#
# Indices 1 2 3 4 5 6 
#
# 1 130.8713 48.9374 42.3770 2.1510 9.9047 12.1278
# 2 48.9374 61.4811 26.0076 2.5599 0.7690 16.7330
# 3 42.3770 26.0076 117.8472 6.3705 6.2820 3.6584
# 4 2.1510 2.5599 6.3705 40.5605 12.0062 -11.0369
# 5 9.9047 0.7690 6.2820 12.0062 41.8224 -2.1592
# 6 12.1278 16.7330 3.6584 -11.0369 -2.1592 51.3224
#
#
#
# Elastic Compliance Matrix: (Units=1/GPa)
#
#
# Indices 1 2 3 4 5 6 
#
# 1 0.011677 -0.008424 -0.002271 0.001106 -0.002573 0.000279
# 2 -0.008424 0.026007 -0.002442 -0.003446 0.002514 -0.006950
# 3 -0.002271 -0.002442 0.009915 -0.001000 -0.000599 0.000386
# 4 0.001106 -0.003446 -0.001000 0.029236 -0.008086 0.006881
# 5 -0.002573 0.002514 -0.000599 -0.008086 0.026845 -0.000779
# 6 0.000279 -0.006950 0.000386 0.006881 -0.000779 0.023104
#
#
# Mechanical properties :
#
#
# Convention : Reuss Voigt Hill
#
# Bulk Modulus (GPa) = 46.89374 60.53820 53.71597
# Shear Modulus (GPa) = 31.21724 39.59954 35.40839
#
# Velocity S-wave (km/s) = 3.52822 3.97377 3.75761
# Velocity P-wave (km/s) = 5.94115 6.72272 6.34398
#
# Compressibility (1/GPa) = 0.02132481
#
# Stress axis : x y z
#
# Youngs Moduli (GPa) = 85.63720 38.45131 100.85355
#
# Poissons Ratio (x) = 0.32390 0.22907
# Poissons Ratio (y) = 0.72138 0.24632
# Poissons Ratio (z) = 0.19451 0.09391
#
# Static dielectric constant tensor:
#      x y z
#    x 1.971390 0.017370 -0.030080 
#    y 0.017370 2.004030 -0.012800 
#    z -0.030080 -0.012800 1.963710 
# 
# From -- ./inp_files/56738.got.cif
#   From: 2010.05.17/outbox.cif.g08.bks.cpg/sg2_29_cif.got.tgz:56738.got - 2010.06.03 11:33:40.
