data_PCOD9104642
_publ_section_title
;
Structure prediction by ZEFSAII (Michael W. Deem and Ramdas Pophale) SiO2 
 PCOD9104642
Probable space group: P -1
;
_chemical_formula_sum "Si O2"
_cell_formula_units_Z 14
_cell_length_a 14.605286
_cell_length_b 13.934926
_cell_length_c 5.261916
_cell_angle_alpha 58.971764
_cell_angle_beta 108.663568
_cell_angle_gamma 141.047403
_cell_volume 570.396763
_symmetry_space_group_name_H-M "P -1"
_symmetry_group_IT_number 2
_symmetry_cell_setting 'triclinic'
loop_
_space_group_symop_operation_xyz
x,y,z
-x,-y,-z
loop_
_atom_site_type_symbol
_atom_site_label
_atom_site_fract_x
_atom_site_fract_y
_atom_site_fract_z
Si Si1 0.274580 0.111223 0.376084
Si Si2 0.688537 0.281325 0.323448
Si Si3 0.895028 0.572207 0.802835
Si Si4 0.151464 0.699113 0.177735
Si Si5 0.950697 0.858626 0.343189
Si Si6 0.597751 0.997431 0.307801
Si Si7 0.354137 0.299936 0.666561
O O1 0.360360 0.210492 0.577209
O O2 0.306147 0.012431 0.451788
O O3 0.328159 0.233440 0.020959
O O4 0.102627 0.979428 0.466955
O O5 0.829050 0.331958 0.479552
O O6 0.608955 0.129671 0.262382
O O7 0.568325 0.192314 0.559020
O O8 0.749008 0.445865 0.023113
O O9 0.869369 0.435597 0.810989
O O10 0.920030 0.700502 0.469037
O O11 0.029424 0.672890 0.983646
O O12 0.307422 0.899092 0.001181
O O13 0.794386 0.760083 0.448715
O O14 0.000000 0.000000 0.000000
O O15 0.500000 0.500000 0.500000
#
# Coordination Sequence:
#
# PCOD9104642 Si02
#       7
#     2   2   2   2   2   2   2
#     4  11  24  46  70 100 133 186 224 285 348 415
#     4  10  22  38  60  97 130 171 214 276 332 405
#     4  10  21  39  62  93 129 166 225 268 333 403
#     4  10  20  39  61  93 130 170 212 272 336 406
#     4  10  23  46  68  97 135 182 231 283 344 409
#     4  10  22  38  63  92 134 167 223 263 342 405
#     4  11  26  46  71  99 136 171 239 289 345 403
#
# _framework density 24.544319000000002
#
# number of rings (size 3 to 8) (size 9 to 14) (size 15 to 20)
#    0.000    1.714    1.429    1.714    4.000    1.143 
#   10.286    0.000    0.000    0.000    0.000    0.000 
#    0.000    0.000    0.000    0.000    0.000    0.000 
#
# Total GULP energy -77999.682687 kJ/mol
# GULP energy per Si atom -5571.405906 kJ/mol
# Density = 2.448846 g / cm^3
# Si number density = 24.544319 Si / 1000 Ang^3
#
#
#
# Elastic Constant Matrix: (Units=GPa)
#
#
# Indices 1 2 3 4 5 6 
#
# 1 72.4572 30.9578 33.9631 -21.7633 2.7393 18.1459
# 2 30.9578 94.0193 47.5783 -24.3147 -12.6393 12.3068
# 3 33.9631 47.5783 124.3503 -42.0793 3.6783 5.4723
# 4 -21.7633 -24.3147 -42.0793 41.0044 -0.1783 -5.7920
# 5 2.7393 -12.6393 3.6783 -0.1783 40.2682 -6.1828
# 6 18.1459 12.3068 5.4723 -5.7920 -6.1828 31.8115
#
#
#
# Elastic Compliance Matrix: (Units=1/GPa)
#
#
# Indices 1 2 3 4 5 6 
#
# 1 0.020404 -0.003652 -0.001796 0.005437 -0.003831 -0.009671
# 2 -0.003652 0.015574 -0.004054 0.002920 0.005261 -0.001690
# 3 -0.001796 -0.004054 0.013808 0.011061 -0.002082 0.001827
# 4 0.005437 0.002920 0.011061 0.040529 -0.000096 0.001227
# 5 -0.003831 0.005261 -0.002082 -0.000096 0.027841 0.005902
# 6 -0.009671 -0.001690 0.001827 0.001227 0.005902 0.038662
#
#
# Mechanical properties :
#
#
# Convention : Reuss Voigt Hill
#
# Bulk Modulus (GPa) = 32.48896 57.31390 44.90143
# Shear Modulus (GPa) = 26.86954 34.50533 30.68744
#
# Velocity S-wave (km/s) = 3.31227 3.75352 3.53978
# Velocity P-wave (km/s) = 5.28145 6.49516 5.91949
#
# Compressibility (1/GPa) = 0.03077968
#
# Stress axis : x y z
#
# Youngs Moduli (GPa) = 49.01042 64.20958 72.42171
#
# Poissons Ratio (x) = 0.23450 0.13010
# Poissons Ratio (y) = 0.17899 0.29363
# Poissons Ratio (z) = 0.08805 0.26034
#
# Static dielectric constant tensor:
#      x y z
#    x 2.050120 0.020800 -0.018320 
#    y 0.020800 1.964220 0.003740 
#    z -0.018320 0.003740 1.997540 
# 
# From -- ./inp_files/28512.got.cif
#   From: 2010.05.17/outbox.cif.g08.bks.cpg/sg2_15_cif.got.tgz:28512.got - 2010.06.03 11:33:40.
