data_PCOD9104539
_publ_section_title
;
Structure prediction by ZEFSAII (Michael W. Deem and Ramdas Pophale) SiO2 
 PCOD9104539
Probable space group: P -1
;
_chemical_formula_sum "Si O2"
_cell_formula_units_Z 16
_cell_length_a 19.598122
_cell_length_b 25.147139
_cell_length_c 8.956258
_cell_angle_alpha 150.587244
_cell_angle_beta 38.656033
_cell_angle_gamma 160.332139
_cell_volume 708.571201
_symmetry_space_group_name_H-M "P -1"
_symmetry_group_IT_number 2
_symmetry_cell_setting 'triclinic'
loop_
_space_group_symop_operation_xyz
x,y,z
-x,-y,-z
loop_
_atom_site_type_symbol
_atom_site_label
_atom_site_fract_x
_atom_site_fract_y
_atom_site_fract_z
Si Si1 0.764205 0.862014 0.663222
Si Si2 0.408145 0.152101 0.808139
Si Si3 0.480525 0.538012 0.788225
Si Si4 0.166397 0.132288 0.770681
Si Si5 0.555615 0.164728 0.230779
Si Si6 0.584602 0.070396 0.363763
Si Si7 0.121637 0.886689 0.395519
Si Si8 0.973936 0.594414 0.702259
O O1 0.706548 0.687297 0.368611
O O2 0.751316 0.859411 0.500002
O O3 0.626724 0.824543 0.911662
O O4 0.998729 0.072412 0.840732
O O5 0.550959 0.166023 0.599781
O O6 0.184882 0.931649 0.571580
O O7 0.504081 0.325103 0.958651
O O8 0.500000 0.500000 0.500000
O O9 0.659249 0.673663 0.941712
O O10 0.053879 0.949908 0.624850
O O11 0.760158 0.402202 0.508006
O O12 0.348297 0.056824 0.350925
O O13 0.500000 0.000000 0.000000
O O14 0.566696 0.137281 0.975463
O O15 0.818489 0.223348 0.310109
O O16 0.500000 0.000000 0.500000
O O17 0.980599 0.684843 0.049255
O O18 0.000000 0.500000 0.500000
#
# Coordination Sequence:
#
# PCOD9104539 Si02
#       8
#     2   2   2   2   2   2   2   2
#     4  10  22  39  62  87 127 155 204 256 314 368
#     4  10  20  39  61  88 123 160 203 256 301 362
#     4   9  20  38  61  87 115 155 206 252 296 361
#     4  10  22  39  61  89 122 163 198 255 315 371
#     4  11  20  41  62  89 125 160 210 256 303 372
#     4  11  24  39  62  92 133 163 201 263 313 366
#     4  10  21  36  61  92 118 162 210 254 304 370
#     4  11  20  38  66  88 119 168 209 247 310 370
#
# _framework density 22.580653000000002
#
# number of rings (size 3 to 8) (size 9 to 14) (size 15 to 20)
#    0.000    1.750    3.750    0.375    3.500    8.000 
#    0.000    5.000    0.000    0.000    0.000    0.000 
#    0.000    0.000    0.000    0.000    0.000    0.000 
#
# Total GULP energy -89135.174571 kJ/mol
# GULP energy per Si atom -5570.948411 kJ/mol
# Density = 2.252926 g / cm^3
# Si number density = 22.580653 Si / 1000 Ang^3
#
#
#
# Elastic Constant Matrix: (Units=GPa)
#
#
# Indices 1 2 3 4 5 6 
#
# 1 69.2754 17.2373 23.3161 6.6188 25.2916 4.2795
# 2 17.2373 60.3364 37.8661 8.2887 22.4324 8.3275
# 3 23.3161 37.8661 146.0508 5.5965 39.2983 8.3352
# 4 6.6188 8.2887 5.5965 40.4670 1.5223 13.7318
# 5 25.2916 22.4324 39.2983 1.5223 45.7814 0.5700
# 6 4.2795 8.3275 8.3352 13.7318 0.5700 32.1868
#
#
#
# Elastic Compliance Matrix: (Units=1/GPa)
#
#
# Indices 1 2 3 4 5 6 
#
# 1 0.018489 -0.001370 0.000117 -0.002027 -0.009562 -0.001100
# 2 -0.001370 0.022642 -0.003385 -0.002439 -0.007305 -0.003629
# 3 0.000117 -0.003385 0.009566 0.000127 -0.006602 -0.001554
# 4 -0.002027 -0.002439 0.000127 0.029451 0.001372 -0.011721
# 5 -0.009562 -0.007305 -0.006602 0.001372 0.036281 0.003643
# 6 -0.001100 -0.003629 -0.001554 -0.011721 0.003643 0.037492
#
#
# Mechanical properties :
#
#
# Convention : Reuss Voigt Hill
#
# Bulk Modulus (GPa) = 24.14287 48.05573 36.09930
# Shear Modulus (GPa) = 28.24769 36.83658 32.54214
#
# Velocity S-wave (km/s) = 3.54074 4.04336 3.80037
# Velocity P-wave (km/s) = 5.23745 6.56707 5.93958
#
# Compressibility (1/GPa) = 0.04142009
#
# Stress axis : x y z
#
# Youngs Moduli (GPa) = 54.08519 44.16648 104.53352
#
# Poissons Ratio (x) = 0.06052 -0.01222
# Poissons Ratio (y) = 0.07411 0.35388
# Poissons Ratio (z) = -0.00632 0.14952
#
# Static dielectric constant tensor:
#      x y z
#    x 1.946770 -0.000970 0.007340 
#    y -0.000970 1.868650 0.023570 
#    z 0.007340 0.023570 1.921030 
# 
# From -- ./inp_files/350204.got.cif
#   From: 2010.05.17/outbox.cif.g08.bks.cpg/sg2_176_cif.got.tgz:350204.got - 2010.06.03 11:33:40.
