data_PCOD9104282
_publ_section_title
;
Structure prediction by ZEFSAII (Michael W. Deem and Ramdas Pophale) SiO2 
 PCOD9104282
Probable space group: P -1
;
_chemical_formula_sum "Si O2"
_cell_formula_units_Z 14
_cell_length_a 7.007522
_cell_length_b 24.902694
_cell_length_c 5.177212
_cell_angle_alpha 74.353575
_cell_angle_beta 101.768337
_cell_angle_gamma 50.845928
_cell_volume 583.778263
_symmetry_space_group_name_H-M "P -1"
_symmetry_group_IT_number 2
_symmetry_cell_setting 'triclinic'
loop_
_space_group_symop_operation_xyz
x,y,z
-x,-y,-z
loop_
_atom_site_type_symbol
_atom_site_label
_atom_site_fract_x
_atom_site_fract_y
_atom_site_fract_z
Si Si1 0.935125 0.791342 0.974159
Si Si2 0.817416 0.693169 0.988078
Si Si3 0.432590 0.550250 0.164995
Si Si4 0.648771 0.240189 0.602785
Si Si5 0.641156 0.067806 0.613175
Si Si6 0.564430 0.643095 0.231708
Si Si7 0.194271 0.899331 0.885142
O O1 0.857067 0.743606 0.077709
O O2 0.680681 0.872272 0.645158
O O3 0.032462 0.802730 0.246070
O O4 0.229361 0.727459 0.971052
O O5 0.526475 0.753751 0.669786
O O6 0.790514 0.640920 0.201212
O O7 0.095269 0.632516 0.964754
O O8 0.500000 0.500000 0.500000
O O9 0.597840 0.574251 0.226180
O O10 0.500000 0.500000 0.000000
O O11 0.463854 0.334547 0.501018
O O12 0.673029 0.188146 0.901411
O O13 0.762856 0.086642 0.408793
O O14 0.670648 0.086245 0.885003
O O15 0.857925 0.971300 0.766095
#
# Coordination Sequence:
#
# PCOD9104282 Si02
#       7
#     2   2   2   2   2   2   2
#     4   9  21  39  62 100 129 178 229 273 327 398
#     4  11  22  45  70  93 142 174 214 289 325 395
#     4  11  28  48  72 104 136 173 221 271 337 413
#     4  10  22  39  65  99 126 179 228 267 332 401
#     4  10  20  39  59  96 132 183 218 286 329 385
#     4   9  24  42  67 101 127 176 223 262 336 404
#     4  10  21  36  65  91 135 177 230 267 345 385
#
# _framework density 23.981708000000001
#
# number of rings (size 3 to 8) (size 9 to 14) (size 15 to 20)
#    0.857    1.143    1.429    0.857    4.000    2.857 
#    2.571    0.000    0.000    6.000    0.000    0.000 
#    0.000    0.000    0.000    0.000    0.000    0.000 
#
# Total GULP energy -77996.028907 kJ/mol
# GULP energy per Si atom -5571.144922 kJ/mol
# Density = 2.392712 g / cm^3
# Si number density = 23.981708 Si / 1000 Ang^3
#
#
#
# Elastic Constant Matrix: (Units=GPa)
#
#
# Indices 1 2 3 4 5 6 
#
# 1 94.7883 23.3232 20.6435 12.8736 24.1385 21.0529
# 2 23.3232 89.4546 14.9748 15.0145 -0.4672 11.1428
# 3 20.6435 14.9748 91.2939 8.9301 8.9305 6.2660
# 4 12.8736 15.0145 8.9301 23.2122 1.6491 4.3455
# 5 24.1385 -0.4672 8.9305 1.6491 36.5524 -0.9292
# 6 21.0529 11.1428 6.2660 4.3455 -0.9292 35.2949
#
#
#
# Elastic Compliance Matrix: (Units=1/GPa)
#
#
# Indices 1 2 3 4 5 6 
#
# 1 0.016737 -0.002297 -0.001276 -0.004910 -0.010771 -0.008711
# 2 -0.002297 0.013325 -0.001103 -0.006751 0.002217 -0.001751
# 3 -0.001276 -0.001103 0.011949 -0.002903 -0.001978 -0.000707
# 4 -0.004910 -0.006751 -0.002903 0.051310 0.001533 -0.000702
# 5 -0.010771 0.002217 -0.001978 0.001533 0.035086 0.006811
# 6 -0.008711 -0.001751 -0.000707 -0.000702 0.006811 0.034473
#
#
# Mechanical properties :
#
#
# Convention : Reuss Voigt Hill
#
# Bulk Modulus (GPa) = 30.61905 43.71331 37.16618
# Shear Modulus (GPa) = 27.30472 33.45159 30.37815
#
# Velocity S-wave (km/s) = 3.37792 3.73886 3.56296
# Velocity P-wave (km/s) = 5.29237 6.07504 5.69716
#
# Compressibility (1/GPa) = 0.03265941
#
# Stress axis : x y z
#
# Youngs Moduli (GPa) = 59.74663 75.04587 83.68898
#
# Poissons Ratio (x) = 0.17241 0.10680
# Poissons Ratio (y) = 0.13726 0.09227
# Poissons Ratio (z) = 0.07624 0.08274
#
# Static dielectric constant tensor:
#      x y z
#    x 1.960760 -0.044410 -0.023900 
#    y -0.044410 1.979660 0.014950 
#    z -0.023900 0.014950 1.972880 
# 
# From -- ./inp_files/55530.got.cif
#   From: 2010.05.17/outbox.cif.g08.bks.cpg/sg2_28_cif.got.tgz:55530.got - 2010.06.03 11:33:40.
