data_PCOD9104534
_publ_section_title
;
Structure prediction by ZEFSAII (Michael W. Deem and Ramdas Pophale) SiO2 
 PCOD9104534
Probable space group: P -1
;
_chemical_formula_sum "Si O2"
_cell_formula_units_Z 14
_cell_length_a 8.086466
_cell_length_b 13.841737
_cell_length_c 7.085988
_cell_angle_alpha 84.015363
_cell_angle_beta 74.425754
_cell_angle_gamma 123.380161
_cell_volume 605.872936
_symmetry_space_group_name_H-M "P -1"
_symmetry_group_IT_number 2
_symmetry_cell_setting 'triclinic'
loop_
_space_group_symop_operation_xyz
x,y,z
-x,-y,-z
loop_
_atom_site_type_symbol
_atom_site_label
_atom_site_fract_x
_atom_site_fract_y
_atom_site_fract_z
Si Si1 0.889944 0.128158 0.248370
Si Si2 0.657183 0.235444 0.364626
Si Si3 0.385069 0.058657 0.951634
Si Si4 0.732755 0.843275 0.702828
Si Si5 0.231796 0.663143 0.313427
Si Si6 0.390580 0.566761 0.997145
Si Si7 0.991989 0.652072 0.061263
O O1 0.723471 0.145856 0.394260
O O2 0.034382 0.249513 0.042567
O O3 0.030065 0.120544 0.362822
O O4 0.771963 0.021299 0.154296
O O5 0.403382 0.165289 0.432869
O O6 0.778952 0.343164 0.457248
O O7 0.775722 0.294625 0.115154
O O8 0.565799 0.195571 0.802040
O O9 0.271675 0.073018 0.158056
O O10 0.500000 0.000000 0.000000
O O11 0.577518 0.701732 0.841825
O O12 0.289081 0.581531 0.212303
O O13 0.035855 0.649563 0.268263
O O14 0.196059 0.479214 0.930643
O O15 0.500000 0.500000 0.000000
#
# Coordination Sequence:
#
# PCOD9104534 Si02
#       7
#     2   2   2   2   2   2   2
#     4  10  20  39  61  88 120 159 196 249 296 347
#     4  10  22  41  59  90 126 152 200 246 297 357
#     4  11  18  39  65  88 117 162 199 242 300 352
#     4  11  21  39  62  88 125 155 200 251 292 355
#     4  11  23  38  65  88 117 164 196 242 307 351
#     4  11  20  39  63  88 120 156 204 245 295 356
#     4  10  20  40  62  83 121 159 196 246 296 351
#
# _framework density 23.107154999999999
#
# number of rings (size 3 to 8) (size 9 to 14) (size 15 to 20)
#    0.857    0.571    7.143    0.857    0.000    1.143 
#    2.571    1.429    0.000    0.000    0.000    0.000 
#    0.000    0.000    0.000    0.000    0.000    0.000 
#
# Total GULP energy -78147.671760 kJ/mol
# GULP energy per Si atom -5581.976554 kJ/mol
# Density = 2.305456 g / cm^3
# Si number density = 23.107155 Si / 1000 Ang^3
#
#
#
# Elastic Constant Matrix: (Units=GPa)
#
#
# Indices 1 2 3 4 5 6 
#
# 1 165.0055 46.2255 27.9351 17.7037 33.9795 2.0251
# 2 46.2255 125.6350 27.8619 27.2780 3.8708 7.6440
# 3 27.9351 27.8619 69.9286 23.7072 19.3572 3.4102
# 4 17.7037 27.2780 23.7072 42.8137 10.2795 9.2293
# 5 33.9795 3.8708 19.3572 10.2795 19.1621 10.7585
# 6 2.0251 7.6440 3.4102 9.2293 10.7585 44.6494
#
#
#
# Elastic Compliance Matrix: (Units=1/GPa)
#
#
# Indices 1 2 3 4 5 6 
#
# 1 0.013288 -0.005829 0.005156 0.001584 -0.032682 0.007549
# 2 -0.005829 0.012366 -0.005782 -0.005916 0.019611 -0.004913
# 3 0.005156 -0.005782 0.026178 -0.006179 -0.035993 0.008706
# 4 0.001584 -0.005916 -0.006179 0.033281 -0.011745 -0.002637
# 5 -0.032682 0.019611 -0.035993 -0.011745 0.169980 -0.037656
# 6 0.007549 -0.004913 0.008706 -0.002637 -0.037656 0.031849
#
#
# Mechanical properties :
#
#
# Convention : Reuss Voigt Hill
#
# Bulk Modulus (GPa) = 25.69228 62.73491 44.21360
# Shear Modulus (GPa) = 15.98338 38.56147 27.27243
#
# Velocity S-wave (km/s) = 2.63289 4.08954 3.43922
# Velocity P-wave (km/s) = 4.51505 7.03616 5.91157
#
# Compressibility (1/GPa) = 0.03892219
#
# Stress axis : x y z
#
# Youngs Moduli (GPa) = 75.25535 80.86927 38.20064
#
# Poissons Ratio (x) = 0.47137 -0.19696
# Poissons Ratio (y) = 0.43865 0.22086
# Poissons Ratio (z) = -0.38801 0.46756
#
# Static dielectric constant tensor:
#      x y z
#    x 1.901800 -0.021340 0.025540 
#    y -0.021340 1.861790 -0.044240 
#    z 0.025540 -0.044240 1.927100 
# 
# From -- ./inp_files/193055.got.cif
#   From: 2010.05.17/outbox.cif.g08.bks.cpg/sg2_97_cif.got.tgz:193055.got - 2010.06.03 11:33:40.
