data_PCOD9104480
_publ_section_title
;
Structure prediction by ZEFSAII (Michael W. Deem and Ramdas Pophale) SiO2 
 PCOD9104480
Probable space group: P -1
;
_chemical_formula_sum "Si O2"
_cell_formula_units_Z 12
_cell_length_a 10.595933
_cell_length_b 7.762940
_cell_length_c 8.281680
_cell_angle_alpha 99.678024
_cell_angle_beta 68.109890
_cell_angle_gamma 126.409933
_cell_volume 507.416063
_symmetry_space_group_name_H-M "P -1"
_symmetry_group_IT_number 2
_symmetry_cell_setting 'triclinic'
loop_
_space_group_symop_operation_xyz
x,y,z
-x,-y,-z
loop_
_atom_site_type_symbol
_atom_site_label
_atom_site_fract_x
_atom_site_fract_y
_atom_site_fract_z
Si Si1 0.683169 0.060839 0.119547
Si Si2 0.401105 0.669097 0.971681
Si Si3 0.788255 0.992927 0.402127
Si Si4 0.403227 0.384603 0.366580
Si Si5 0.036572 0.937756 0.143299
Si Si6 0.151635 0.360411 0.295092
O O1 0.640327 0.229194 0.137514
O O2 0.700632 0.005752 0.286906
O O3 0.540422 0.851600 0.054785
O O4 0.862445 0.158455 0.961589
O O5 0.472289 0.549512 0.833196
O O6 0.233587 0.520417 0.132854
O O7 0.866023 0.855722 0.304131
O O8 0.953895 0.233681 0.396522
O O9 0.680985 0.867001 0.588856
O O10 0.500000 0.500000 0.500000
O O11 0.277171 0.450275 0.397619
O O12 0.161153 0.161764 0.210435
O O13 0.000000 0.000000 0.000000
#
# Coordination Sequence:
#
# PCOD9104480 Si02
#       6
#     2   2   2   2   2   2
#     4  10  20  39  61  85 117 146 192 240 282 336
#     4  11  23  36  60  90 114 151 187 238 287 334
#     4   9  21  38  60  85 115 151 188 239 284 335
#     4  12  24  35  59  88 120 149 189 234 287 343
#     4   8  17  34  63  84 104 149 195 237 272 327
#     4  10  21  37  61  86 108 150 204 229 272 337
#
# _framework density 23.649232000000001
#
# number of rings (size 3 to 8) (size 9 to 14) (size 15 to 20)
#    1.000    1.000    1.667    2.000    4.667    1.333 
#    0.000    0.000    0.000    6.000    0.000    0.000 
#    0.000    0.000    0.000    0.000    0.000    0.000 
#
# Total GULP energy -66826.835202 kJ/mol
# GULP energy per Si atom -5568.902934 kJ/mol
# Density = 2.359541 g / cm^3
# Si number density = 23.649232 Si / 1000 Ang^3
#
#
#
# Elastic Constant Matrix: (Units=GPa)
#
#
# Indices 1 2 3 4 5 6 
#
# 1 101.5744 16.6405 13.7040 -10.9158 11.5001 4.5870
# 2 16.6405 29.3926 10.7854 -12.3831 9.5542 17.1659
# 3 13.7040 10.7854 62.2406 -27.0320 6.3587 -1.9885
# 4 -10.9158 -12.3831 -27.0320 31.3723 7.5267 3.4239
# 5 11.5001 9.5542 6.3587 7.5267 28.6840 -4.5037
# 6 4.5870 17.1659 -1.9885 3.4239 -4.5037 23.7384
#
#
#
# Elastic Compliance Matrix: (Units=1/GPa)
#
#
# Indices 1 2 3 4 5 6 
#
# 1 0.011144 -0.010226 -0.001595 -0.002331 0.000781 0.005592
# 2 -0.010226 -0.260635 -0.075292 -0.251273 0.214531 0.261084
# 3 -0.001595 -0.075292 0.009408 -0.040675 0.045297 0.070003
# 4 -0.002331 -0.251273 -0.040675 -0.171167 0.175737 0.236775
# 5 0.000781 0.214531 0.045297 0.175737 -0.124538 -0.200464
# 6 0.005592 0.261084 0.070003 0.236775 -0.200464 -0.214071
#
#
# Mechanical properties :
#
#
# Convention : Reuss Voigt Hill
#
# Bulk Modulus (GPa) = -2.41366 30.60748 14.09691
# Shear Modulus (GPa) = -7.00539 26.89746 9.94603
#
# Velocity S-wave (km/s) = -1.72297 3.37612 2.05299
# Velocity P-wave (km/s) = 2.23182 5.30735 3.40492
#
# Compressibility (1/GPa) = -0.41430925
#
# Stress axis : x y z
#
# Youngs Moduli (GPa) = 89.73486 -3.83678 106.29204
#
# Poissons Ratio (x) = -0.03923 0.16957
# Poissons Ratio (y) = 0.91759 8.00297
# Poissons Ratio (z) = 0.14316 -0.28888
#
# Static dielectric constant tensor:
#      x y z
#    x 2.305800 0.369630 0.149460 
#    y 0.369630 2.208750 0.151180 
#    z 0.149460 0.151180 1.976540 
# 
# From -- ./inp_files/234204.got.cif
#   From: 2010.05.17/outbox.cif.g08.bks.cpg/sg2_118_cif.got.tgz:234204.got - 2010.06.03 11:33:40.
