data_PCOD9104217
_publ_section_title
;
Structure prediction by ZEFSAII (Michael W. Deem and Ramdas Pophale) SiO2 
 PCOD9104217
Probable space group: P -1
;
_chemical_formula_sum "Si O2"
_cell_formula_units_Z 16
_cell_length_a 17.898250
_cell_length_b 8.394741
_cell_length_c 13.526849
_cell_angle_alpha 34.853478
_cell_angle_beta 48.748459
_cell_angle_gamma 44.288917
_cell_volume 797.750755
_symmetry_space_group_name_H-M "P -1"
_symmetry_group_IT_number 2
_symmetry_cell_setting 'triclinic'
loop_
_space_group_symop_operation_xyz
x,y,z
-x,-y,-z
loop_
_atom_site_type_symbol
_atom_site_label
_atom_site_fract_x
_atom_site_fract_y
_atom_site_fract_z
Si Si1 0.619087 0.516677 0.096068
Si Si2 0.751159 0.782091 0.944188
Si Si3 0.842653 0.827694 0.050490
Si Si4 0.941679 0.214647 0.035484
Si Si5 0.259050 0.204079 0.645801
Si Si6 0.118020 0.270598 0.553408
Si Si7 0.381896 0.528508 0.286971
Si Si8 0.717623 0.555017 0.786159
O O1 0.647861 0.697599 0.065805
O O2 0.497647 0.541117 0.187940
O O3 0.696867 0.159318 0.221369
O O4 0.650128 0.632935 0.906590
O O5 0.803064 0.740153 0.028456
O O6 0.844606 0.528667 0.926432
O O7 0.709853 0.137517 0.776980
O O8 0.789310 0.725766 0.239514
O O9 0.969218 0.707947 0.023719
O O10 0.799313 0.197052 0.902891
O O11 0.896351 0.029690 0.243560
O O12 0.000000 0.000000 0.000000
O O13 0.165823 0.365836 0.562447
O O14 0.359399 0.294919 0.496153
O O15 0.210143 0.256695 0.400598
O O16 0.000000 0.500000 0.500000
O O17 0.360657 0.435693 0.242176
#
# Coordination Sequence:
#
# PCOD9104217 Si02
#       8
#     2   2   2   2   2   2   2   2
#     4  11  20  40  66  87 119 167 207 242 302 357
#     4  11  24  39  59  90 125 161 198 249 309 361
#     4  10  20  39  59  85 126 162 189 246 309 358
#     4  12  21  40  65  87 119 165 203 239 307 370
#     4  10  21  40  62  91 119 159 208 248 290 361
#     4  11  20  34  62  94 118 146 204 253 289 352
#     4  10  22  40  61  91 124 156 203 262 298 344
#     4   9  20  36  63  91 119 154 204 250 291 358
#
# _framework density 20.056388999999999
#
# number of rings (size 3 to 8) (size 9 to 14) (size 15 to 20)
#    0.000    1.500    3.750    2.250    0.000    0.000 
#    2.250    1.250    0.000    0.000    0.000    0.000 
#    0.000    0.000    0.000    0.000    0.000    0.000 
#
# Total GULP energy -89275.490095 kJ/mol
# GULP energy per Si atom -5579.718131 kJ/mol
# Density = 2.001074 g / cm^3
# Si number density = 20.056389 Si / 1000 Ang^3
#
#
#
# Elastic Constant Matrix: (Units=GPa)
#
#
# Indices 1 2 3 4 5 6 
#
# 1 95.8753 23.7670 34.8365 12.5864 -19.1598 -6.3939
# 2 23.7670 51.1302 23.9891 5.2944 0.1889 3.7242
# 3 34.8365 23.9891 120.6313 25.8875 -10.3432 7.7825
# 4 12.5864 5.2944 25.8875 24.8865 -5.9443 -5.8281
# 5 -19.1598 0.1889 -10.3432 -5.9443 27.8834 0.0185
# 6 -6.3939 3.7242 7.7825 -5.8281 0.0185 24.3886
#
#
#
# Elastic Compliance Matrix: (Units=1/GPa)
#
#
# Indices 1 2 3 4 5 6 
#
# 1 0.015266 -0.006282 -0.002746 0.000122 0.009536 0.005860
# 2 -0.006282 0.024367 -0.002900 -0.001518 -0.005878 -0.004801
# 3 -0.002746 -0.002900 0.013010 -0.013276 0.000134 -0.007601
# 4 0.000122 -0.001518 -0.013276 0.060630 0.008082 0.018983
# 5 0.009536 -0.005878 0.000134 0.008082 0.044225 0.005253
# 6 0.005860 -0.004801 -0.007601 0.018983 0.005253 0.050230
#
#
# Mechanical properties :
#
#
# Convention : Reuss Voigt Hill
#
# Bulk Modulus (GPa) = 34.73766 48.09133 41.41449
# Shear Modulus (GPa) = 20.73140 27.76799 24.24969
#
# Velocity S-wave (km/s) = 3.21854 3.72492 3.48095
# Velocity P-wave (km/s) = 5.58297 6.52151 6.07041
#
# Compressibility (1/GPa) = 0.02878720
#
# Stress axis : x y z
#
# Youngs Moduli (GPa) = 65.50646 41.03841 76.86238
#
# Poissons Ratio (x) = 0.25782 0.21104
# Poissons Ratio (y) = 0.41154 0.22290
# Poissons Ratio (z) = 0.17986 0.11901
#
# Static dielectric constant tensor:
#      x y z
#    x 1.727320 -0.002050 -0.007090 
#    y -0.002050 1.731330 -0.002980 
#    z -0.007090 -0.002980 1.707730 
# 
# From -- ./inp_files/220317.got.cif
#   From: 2010.05.17/outbox.cif.g08.bks.cpg/sg2_111_cif.got.tgz:220317.got - 2010.06.03 11:33:40.
