data_PCOD9104066
_publ_section_title
;
Structure prediction by ZEFSAII (Michael W. Deem and Ramdas Pophale) SiO2 
 PCOD9104066
Probable space group: P -1
;
_chemical_formula_sum "Si O2"
_cell_formula_units_Z 16
_cell_length_a 12.354422
_cell_length_b 13.611882
_cell_length_c 9.077568
_cell_angle_alpha 41.069700
_cell_angle_beta 85.045269
_cell_angle_gamma 64.815620
_cell_volume 834.027337
_symmetry_space_group_name_H-M "P -1"
_symmetry_group_IT_number 2
_symmetry_cell_setting 'triclinic'
loop_
_space_group_symop_operation_xyz
x,y,z
-x,-y,-z
loop_
_atom_site_type_symbol
_atom_site_label
_atom_site_fract_x
_atom_site_fract_y
_atom_site_fract_z
Si Si1 0.105938 0.809921 0.631420
Si Si2 0.976444 0.655365 0.996332
Si Si3 0.969889 0.167078 0.716240
Si Si4 0.839912 0.729433 0.501068
Si Si5 0.654648 0.396426 0.959157
Si Si6 0.694267 0.853824 0.678460
Si Si7 0.841175 0.429215 0.684091
Si Si8 0.489441 0.263281 0.204875
O O1 0.092639 0.828582 0.437570
O O2 0.244426 0.732708 0.778772
O O3 0.000000 0.000000 0.500000
O O4 0.061883 0.680753 0.839615
O O5 0.036228 0.445401 0.238098
O O6 0.021722 0.691428 0.106086
O O7 0.826677 0.775876 0.840045
O O8 0.872800 0.352276 0.604954
O O9 0.104825 0.155141 0.688373
O O10 0.000000 0.000000 0.000000
O O11 0.732688 0.823890 0.533858
O O12 0.805128 0.630568 0.493213
O O13 0.738464 0.400398 0.811467
O O14 0.570891 0.592385 0.820125
O O15 0.562252 0.325611 0.019915
O O16 0.625109 0.748795 0.838397
O O17 0.593162 0.063969 0.475984
#
# Coordination Sequence:
#
# PCOD9104066 Si02
#       8
#     2   2   2   2   2   2   2   2
#     4  11  21  36  62  91 120 146 189 252 298 344
#     4   9  19  34  61  86 118 145 187 246 301 337
#     4  12  24  35  55  96 121 157 182 228 321 363
#     4  10  21  36  59  87 124 150 186 245 299 356
#     4  10  20  39  56  86 119 151 196 247 286 336
#     4  11  18  34  56  93 112 147 201 248 284 336
#     4   9  21  37  59  86 122 151 185 234 307 359
#     4  10  22  31  56  87 116 154 198 247 283 326
#
# _framework density 19.184024000000001
#
# number of rings (size 3 to 8) (size 9 to 14) (size 15 to 20)
#    0.750    1.000    2.500    3.000    3.500    0.000 
#    0.000    0.000    0.000    3.000    6.500    4.375 
#    0.000    0.000    0.000    0.000    0.000    0.000 
#
# Total GULP energy -89220.385056 kJ/mol
# GULP energy per Si atom -5576.274066 kJ/mol
# Density = 1.914036 g / cm^3
# Si number density = 19.184024 Si / 1000 Ang^3
#
#
#
# Elastic Constant Matrix: (Units=GPa)
#
#
# Indices 1 2 3 4 5 6 
#
# 1 99.8596 15.7012 10.8734 3.1652 -26.4578 -18.7594
# 2 15.7012 106.5173 18.4609 1.2192 8.7142 2.2998
# 3 10.8734 18.4609 52.8045 0.6463 -13.1188 -2.5338
# 4 3.1652 1.2192 0.6463 26.5228 -1.7349 2.3359
# 5 -26.4578 8.7142 -13.1188 -1.7349 29.2842 -7.4211
# 6 -18.7594 2.2998 -2.5338 2.3359 -7.4211 18.9629
#
#
#
# Elastic Compliance Matrix: (Units=1/GPa)
#
#
# Indices 1 2 3 4 5 6 
#
# 1 0.047033 -0.018452 0.020078 -0.007468 0.077493 0.082696
# 2 -0.018452 0.018354 -0.013789 0.002523 -0.037629 -0.037360
# 3 0.020078 -0.013789 0.033984 -0.003413 0.048822 0.045603
# 4 -0.007468 0.002523 -0.003413 0.039363 -0.011089 -0.017339
# 5 0.077493 -0.037629 0.048822 -0.011089 0.176680 0.158259
# 6 0.082696 -0.037360 0.045603 -0.017339 0.158259 0.209239
#
#
# Mechanical properties :
#
#
# Convention : Reuss Voigt Hill
#
# Bulk Modulus (GPa) = 13.32553 38.80584 26.06568
# Shear Modulus (GPa) = 8.71090 29.23037 18.97063
#
# Velocity S-wave (km/s) = 2.13320 3.90767 3.14805
# Velocity P-wave (km/s) = 3.60952 6.37432 5.17980
#
# Compressibility (1/GPa) = 0.07504394
#
# Stress axis : x y z
#
# Youngs Moduli (GPa) = 21.26173 54.48358 29.42597
#
# Poissons Ratio (x) = 1.00536 -0.59082
# Poissons Ratio (y) = 0.39233 0.40576
# Poissons Ratio (z) = -0.42690 0.75128
#
# Static dielectric constant tensor:
#      x y z
#    x 1.685120 0.016150 0.012020 
#    y 0.016150 1.686420 0.007090 
#    z 0.012020 0.007090 1.606750 
# 
# From -- ./inp_files/269459.got.cif
#   From: 2010.05.17/outbox.cif.g08.bks.cpg/sg2_135_cif.got.tgz:269459.got - 2010.06.03 11:33:40.
