data_PCOD9104892
_publ_section_title
;
Structure prediction by ZEFSAII (Michael W. Deem and Ramdas Pophale) SiO2 
 PCOD9104892
Probable space group: P -1
;
_chemical_formula_sum "Si O2"
_cell_formula_units_Z 14
_cell_length_a 14.419013
_cell_length_b 11.930602
_cell_length_c 17.765839
_cell_angle_alpha 27.613658
_cell_angle_beta 150.585412
_cell_angle_gamma 133.741214
_cell_volume 650.806291
_symmetry_space_group_name_H-M "P -1"
_symmetry_group_IT_number 2
_symmetry_cell_setting 'triclinic'
loop_
_space_group_symop_operation_xyz
x,y,z
-x,-y,-z
loop_
_atom_site_type_symbol
_atom_site_label
_atom_site_fract_x
_atom_site_fract_y
_atom_site_fract_z
Si Si1 0.118699 0.480193 0.787692
Si Si2 0.050888 0.921607 0.178041
Si Si3 0.440417 0.025946 0.354949
Si Si4 0.792901 0.515045 0.650143
Si Si5 0.234353 0.425273 0.226246
Si Si6 0.410478 0.844860 0.087024
Si Si7 0.006098 0.750089 0.399521
O O1 0.027013 0.287668 0.791824
O O2 0.968723 0.588593 0.687843
O O3 0.106835 0.684314 0.591874
O O4 0.334989 0.312712 0.074884
O O5 0.106009 0.871912 0.334789
O O6 0.253629 0.920800 0.282540
O O7 0.877920 0.204133 0.886113
O O8 0.500000 0.000000 0.500000
O O9 0.625619 0.850289 0.541479
O O10 0.754100 0.566177 0.680366
O O11 0.589588 0.675541 0.368123
O O12 0.313767 0.634655 0.117095
O O13 0.000000 0.500000 0.000000
O O14 0.500000 0.000000 0.000000
O O15 0.223786 0.061033 0.866181
O O16 0.000000 0.500000 0.500000
#
# Coordination Sequence:
#
# PCOD9104892 Si02
#       7
#     2   2   2   2   2   2   2
#     4  10  20  39  62  94 127 163 212 265 319 373
#     4  10  20  39  63  93 124 167 214 265 309 382
#     4  11  24  41  65  88 125 170 218 258 318 390
#     4  11  21  38  66  95 127 167 223 266 315 376
#     4  12  26  43  67  96 131 171 216 268 325 383
#     4  12  24  41  67 100 132 167 216 271 322 374
#     4  10  22  36  63  93 135 161 207 263 331 367
#
# _framework density 21.511776999999999
#
# number of rings (size 3 to 8) (size 9 to 14) (size 15 to 20)
#    0.000    1.143    2.857    5.571    6.000    0.000 
#    0.000    1.429    0.000    0.000    0.000    0.000 
#    0.000    0.000    0.000    0.000    0.000    0.000 
#
# Total GULP energy -78145.864036 kJ/mol
# GULP energy per Si atom -5581.847431 kJ/mol
# Density = 2.146281 g / cm^3
# Si number density = 21.511777 Si / 1000 Ang^3
#
#
#
# Elastic Constant Matrix: (Units=GPa)
#
#
# Indices 1 2 3 4 5 6 
#
# 1 141.3319 14.3515 43.9380 7.9994 -14.1972 -6.5167
# 2 14.3515 39.7991 23.5658 13.7936 -4.5680 -3.9413
# 3 43.9380 23.5658 156.0707 14.8688 5.2878 -1.2519
# 4 7.9994 13.7936 14.8688 20.8244 -6.1129 2.8344
# 5 -14.1972 -4.5680 5.2878 -6.1129 55.4305 -6.4742
# 6 -6.5167 -3.9413 -1.2519 2.8344 -6.4742 28.8147
#
#
#
# Elastic Compliance Matrix: (Units=1/GPa)
#
#
# Indices 1 2 3 4 5 6 
#
# 1 0.008232 -0.000990 -0.002182 -0.000538 0.002436 0.002232
# 2 -0.000990 0.035606 -0.003034 -0.021572 0.001403 0.006952
# 3 -0.002182 -0.003034 0.007851 -0.003250 -0.001998 -0.000696
# 4 -0.000538 -0.021572 -0.003250 0.067441 0.004808 -0.008767
# 5 0.002436 0.001403 -0.001998 0.004808 0.020049 0.004688
# 6 0.002232 0.006952 -0.000696 -0.008767 0.004688 0.038046
#
#
# Mechanical properties :
#
#
# Convention : Reuss Voigt Hill
#
# Bulk Modulus (GPa) = 25.45944 55.65691 40.55818
# Shear Modulus (GPa) = 24.66354 38.03701 31.35028
#
# Velocity S-wave (km/s) = 3.38969 4.20955 3.82167
# Velocity P-wave (km/s) = 5.21352 7.03961 6.19423
#
# Compressibility (1/GPa) = 0.03927817
#
# Stress axis : x y z
#
# Youngs Moduli (GPa) = 121.47159 28.08539 127.36631
#
# Poissons Ratio (x) = 0.02780 0.27786
# Poissons Ratio (y) = 0.12023 0.38646
# Poissons Ratio (z) = 0.26500 0.08522
#
# Static dielectric constant tensor:
#      x y z
#    x 1.833210 0.033840 -0.058630 
#    y 0.033840 1.829320 -0.036010 
#    z -0.058630 -0.036010 1.800610 
# 
# From -- ./inp_files/308431.got.cif
#   From: 2010.05.17/outbox.cif.g08.bks.cpg/sg2_155_cif.got.tgz:308431.got - 2010.06.03 11:33:40.
