data_PCOD9104888
_publ_section_title
;
Structure prediction by ZEFSAII (Michael W. Deem and Ramdas Pophale) SiO2 
 PCOD9104888
Probable space group: P -1
;
_chemical_formula_sum "Si O2"
_cell_formula_units_Z 16
_cell_length_a 6.245191
_cell_length_b 14.861429
_cell_length_c 13.505406
_cell_angle_alpha 134.162385
_cell_angle_beta 53.887365
_cell_angle_gamma 101.632263
_cell_volume 677.551263
_symmetry_space_group_name_H-M "P -1"
_symmetry_group_IT_number 2
_symmetry_cell_setting 'triclinic'
loop_
_space_group_symop_operation_xyz
x,y,z
-x,-y,-z
loop_
_atom_site_type_symbol
_atom_site_label
_atom_site_fract_x
_atom_site_fract_y
_atom_site_fract_z
Si Si1 0.874634 0.383381 0.437692
Si Si2 0.252864 0.215807 0.371666
Si Si3 0.712200 0.696413 0.247444
Si Si4 0.213467 0.284336 0.992199
Si Si5 0.108490 0.847937 0.897849
Si Si6 0.130192 0.919776 0.553649
Si Si7 0.260693 0.443859 0.683658
Si Si8 0.843512 0.191235 0.761348
O O1 0.943416 0.260563 0.246381
O O2 0.540493 0.460806 0.579479
O O3 0.000000 0.500000 0.500000
O O4 0.987118 0.305168 0.448420
O O5 0.551762 0.186264 0.211880
O O6 0.265807 0.302647 0.530547
O O7 0.155479 0.093577 0.334183
O O8 0.427788 0.827270 0.450550
O O9 0.697549 0.573431 0.222594
O O10 0.016116 0.698462 0.199628
O O11 0.729152 0.695953 0.124215
O O12 0.057433 0.179630 0.982392
O O13 0.004560 0.433930 0.190062
O O14 0.522528 0.238650 0.922837
O O15 0.000000 0.000000 0.000000
O O16 0.151253 0.866889 0.394568
O O17 0.064510 0.076673 0.681128
#
# Coordination Sequence:
#
# PCOD9104888 Si02
#       8
#     2   2   2   2   2   2   2   2
#     4  11  24  43  71  98 130 183 229 281 336 399
#     4  11  22  41  71  92 129 175 225 282 336 393
#     4  11  22  40  64  97 130 177 216 276 339 403
#     4  11  25  41  61  96 136 175 218 275 342 407
#     4  11  26  46  67 101 138 175 230 286 341 405
#     4  10  20  39  62  94 122 165 223 271 330 402
#     4  11  23  42  65  99 135 171 231 276 334 412
#     4  10  22  38  61  90 131 168 212 271 335 397
#
# _framework density 23.614450999999999
#
# number of rings (size 3 to 8) (size 9 to 14) (size 15 to 20)
#    0.000    1.250    2.500    3.000    0.000    7.000 
#    0.000    0.000    0.000    0.000    0.000    0.000 
#    0.000    0.000    0.000    0.000    0.000    0.000 
#
# Total GULP energy -89261.394390 kJ/mol
# GULP energy per Si atom -5578.837149 kJ/mol
# Density = 2.356070 g / cm^3
# Si number density = 23.614451 Si / 1000 Ang^3
#
#
#
# Elastic Constant Matrix: (Units=GPa)
#
#
# Indices 1 2 3 4 5 6 
#
# 1 62.4154 5.7641 32.9628 -8.6160 -11.8661 4.4885
# 2 5.7641 104.7512 26.4994 -5.0505 -7.1809 5.0181
# 3 32.9628 26.4994 73.4747 -3.1328 -26.4094 2.0895
# 4 -8.6160 -5.0505 -3.1328 29.2615 -0.0612 -9.9305
# 5 -11.8661 -7.1809 -26.4094 -0.0612 40.6779 -2.3810
# 6 4.4885 5.0181 2.0895 -9.9305 -2.3810 35.9813
#
#
#
# Elastic Compliance Matrix: (Units=1/GPa)
#
#
# Indices 1 2 3 4 5 6 
#
# 1 0.022097 0.001683 -0.010249 0.005393 0.000044 -0.000905
# 2 0.001683 0.010742 -0.004826 0.001466 -0.000807 -0.001077
# 3 -0.010249 -0.004826 0.024160 -0.000867 0.011907 0.001097
# 4 0.005393 0.001466 -0.000867 0.039378 0.001924 0.010168
# 5 0.000044 -0.000807 0.011907 0.001924 0.032309 0.002084
# 6 -0.000905 -0.001077 0.001097 0.010168 0.002084 0.030936
#
#
# Mechanical properties :
#
#
# Convention : Reuss Voigt Hill
#
# Bulk Modulus (GPa) = 33.09584 41.23264 37.16424
# Shear Modulus (GPa) = 25.44845 32.87848 29.16346
#
# Velocity S-wave (km/s) = 3.28634 3.73541 3.51805
# Velocity P-wave (km/s) = 5.33344 6.00858 5.68105
#
# Compressibility (1/GPa) = 0.03021528
#
# Stress axis : x y z
#
# Youngs Moduli (GPa) = 45.25574 93.09579 41.39059
#
# Poissons Ratio (x) = -0.15669 0.42420
# Poissons Ratio (y) = -0.07617 0.19975
# Poissons Ratio (z) = 0.46381 0.44929
#
# Static dielectric constant tensor:
#      x y z
#    x 1.844850 -0.016760 0.040600 
#    y -0.016760 2.033340 -0.025790 
#    z 0.040600 -0.025790 1.960320 
# 
# From -- ./inp_files/71022.got.cif
#   From: 2010.05.17/outbox.cif.g08.bks.cpg/sg2_36_cif.got.tgz:71022.got - 2010.06.03 11:33:40.
