data_PCOD9104856
_publ_section_title
;
Structure prediction by ZEFSAII (Michael W. Deem and Ramdas Pophale) SiO2 
 PCOD9104856
Probable space group: P -1
;
_chemical_formula_sum "Si O2"
_cell_formula_units_Z 16
_cell_length_a 24.297658
_cell_length_b 6.517187
_cell_length_c 17.155899
_cell_angle_alpha 59.854928
_cell_angle_beta 16.739326
_cell_angle_gamma 62.701252
_cell_volume 673.917428
_symmetry_space_group_name_H-M "P -1"
_symmetry_group_IT_number 2
_symmetry_cell_setting 'triclinic'
loop_
_space_group_symop_operation_xyz
x,y,z
-x,-y,-z
loop_
_atom_site_type_symbol
_atom_site_label
_atom_site_fract_x
_atom_site_fract_y
_atom_site_fract_z
Si Si1 0.174385 0.811604 0.952250
Si Si2 0.028873 0.239800 0.482666
Si Si3 0.726015 0.028219 0.042096
Si Si4 0.583548 0.834639 0.673018
Si Si5 0.090409 0.316607 0.968672
Si Si6 0.400349 0.689175 0.518425
Si Si7 0.713815 0.111491 0.803824
Si Si8 0.853929 0.434369 0.416168
O O1 0.007977 0.599330 0.226982
O O2 0.318793 0.737269 0.705251
O O3 0.090028 0.050863 0.989256
O O4 0.262654 0.898027 0.898250
O O5 0.898494 0.203748 0.589191
O O6 0.000000 0.500000 0.500000
O O7 0.245524 0.167124 0.198798
O O8 0.928780 0.067857 0.717804
O O9 0.626273 0.766198 0.205828
O O10 0.585845 0.196953 0.155492
O O11 0.721651 0.627068 0.522591
O O12 0.668509 0.103325 0.484653
O O13 0.476809 0.843312 0.899304
O O14 0.972693 0.318495 0.208978
O O15 0.000000 0.500000 0.000000
O O16 0.308147 0.434813 0.664921
O O17 0.731658 0.245535 0.672175
#
# Coordination Sequence:
#
# PCOD9104856 Si02
#       8
#     2   2   2   2   2   2   2   2
#     4  11  21  38  64  89 124 164 212 255 306 366
#     4  10  20  39  62  92 122 160 205 253 307 369
#     4   9  20  38  61  89 121 159 204 253 313 362
#     4   9  20  39  60  88 127 163 201 252 311 362
#     4  11  23  38  62  90 122 167 211 256 310 371
#     4   9  21  40  58  90 124 161 204 255 311 363
#     4  10  21  38  63  89 122 163 204 249 314 366
#     4  11  22  39  64  91 126 164 205 257 305 371
#
# _framework density 23.741779000000001
#
# number of rings (size 3 to 8) (size 9 to 14) (size 15 to 20)
#    0.750    1.250    0.000    3.750    0.000    2.500 
#    2.250    3.750    0.000    8.250    0.000    0.000 
#    0.000    0.000    0.000    0.000    0.000    0.000 
#
# Total GULP energy -89404.244968 kJ/mol
# GULP energy per Si atom -5587.765311 kJ/mol
# Density = 2.368774 g / cm^3
# Si number density = 23.741779 Si / 1000 Ang^3
#
#
#
# Elastic Constant Matrix: (Units=GPa)
#
#
# Indices 1 2 3 4 5 6 
#
# 1 55.9089 -3.3964 -0.4752 -15.2613 11.5961 -13.3942
# 2 -3.3964 82.3173 5.1847 5.2642 2.0137 -7.0544
# 3 -0.4752 5.1847 59.2257 -7.5612 9.5544 -0.7963
# 4 -15.2613 5.2642 -7.5612 20.6495 -13.6043 1.1025
# 5 11.5961 2.0137 9.5544 -13.6043 30.6468 -2.7999
# 6 -13.3942 -7.0544 -0.7963 1.1025 -2.7999 31.1623
#
#
#
# Elastic Compliance Matrix: (Units=1/GPa)
#
#
# Indices 1 2 3 4 5 6 
#
# 1 0.025814 0.000650 0.002894 0.018354 -0.001604 0.010523
# 2 0.000650 0.012928 -0.001315 -0.005268 -0.002740 0.003113
# 3 0.002894 -0.001315 0.018494 0.006768 -0.003692 0.000847
# 4 0.018354 -0.005268 0.006768 0.084970 0.029606 0.006523
# 5 -0.001604 -0.002740 -0.003692 0.029606 0.047879 0.001851
# 6 0.010523 0.003113 0.000847 0.006523 0.001851 0.037275
#
#
# Mechanical properties :
#
#
# Convention : Reuss Voigt Hill
#
# Bulk Modulus (GPa) = 16.20927 22.23090 19.22008
# Shear Modulus (GPa) = 20.53655 29.56765 25.05210
#
# Velocity S-wave (km/s) = 2.94427 3.53283 3.25189
# Velocity P-wave (km/s) = 4.28958 5.10148 4.71304
#
# Compressibility (1/GPa) = 0.06169310
#
# Stress axis : x y z
#
# Youngs Moduli (GPa) = 38.73874 77.34875 54.07157
#
# Poissons Ratio (x) = -0.05029 -0.15646
# Poissons Ratio (y) = -0.02519 0.07112
# Poissons Ratio (z) = -0.11209 0.10174
#
# Static dielectric constant tensor:
#      x y z
#    x 1.927450 -0.024670 -0.020810 
#    y -0.024670 1.938500 -0.018330 
#    z -0.020810 -0.018330 1.929620 
# 
# From -- ./inp_files/579456.got.cif
#   From: 2010.05.17/outbox.cif.g08.bks.cpg/sg2_290_cif.got.tgz:579456.got - 2010.06.03 11:33:40.
