data_PCOD9104971
_publ_section_title
;
Structure prediction by ZEFSAII (Michael W. Deem and Ramdas Pophale) SiO2 
 PCOD9104971
Probable space group: P -1
;
_chemical_formula_sum "Si O2"
_cell_formula_units_Z 12
_cell_length_a 10.425430
_cell_length_b 10.350603
_cell_length_c 16.639614
_cell_angle_alpha 146.892112
_cell_angle_beta 36.379209
_cell_angle_gamma 139.112071
_cell_volume 562.969715
_symmetry_space_group_name_H-M "P -1"
_symmetry_group_IT_number 2
_symmetry_cell_setting 'triclinic'
loop_
_space_group_symop_operation_xyz
x,y,z
-x,-y,-z
loop_
_atom_site_type_symbol
_atom_site_label
_atom_site_fract_x
_atom_site_fract_y
_atom_site_fract_z
Si Si1 0.642410 0.758770 0.663576
Si Si2 0.038266 0.752528 0.219230
Si Si3 0.496455 0.730077 0.229776
Si Si4 0.364938 0.527456 0.827914
Si Si5 0.123375 0.430710 0.150423
Si Si6 0.347221 0.783831 0.675463
O O1 0.524042 0.718389 0.788603
O O2 0.490942 0.845045 0.717000
O O3 0.656624 0.490059 0.491202
O O4 0.874252 0.961683 0.658941
O O5 0.024333 0.603520 0.231217
O O6 0.811060 0.659761 0.236878
O O7 0.226011 0.670011 0.028196
O O8 0.514274 0.624601 0.253861
O O9 0.265919 0.587696 0.231102
O O10 0.541772 0.018969 0.344456
O O11 0.697892 0.667664 0.043120
O O12 0.911198 0.228683 0.183939
#
# Coordination Sequence:
#
# PCOD9104971 Si02
#       6
#     2   2   2   2   2   2
#     4  11  23  38  60  89 121 157 194 236 291 356
#     4  10  20  39  63  86 116 156 199 239 288 345
#     4  10  22  39  61  88 117 152 197 248 288 335
#     4  10  22  39  61  88 117 152 197 248 288 335
#     4  10  20  39  63  86 116 156 199 239 288 345
#     4  11  23  38  60  89 121 157 194 236 291 356
#
# _framework density 21.315534
#
# number of rings (size 3 to 8) (size 9 to 14) (size 15 to 20)
#    0.000    1.667    3.333    1.000    0.000    4.000 
#    0.000    1.667    0.000    0.000    0.000    0.000 
#    0.000    0.000    0.000    0.000    0.000    0.000 
#
# Total GULP energy -67102.415898 kJ/mol
# GULP energy per Si atom -5591.867992 kJ/mol
# Density = 2.126702 g / cm^3
# Si number density = 21.315534 Si / 1000 Ang^3
#
#
#
# Elastic Constant Matrix: (Units=GPa)
#
#
# Indices 1 2 3 4 5 6 
#
# 1 127.3477 23.4818 15.4651 15.6867 17.3467 -11.7396
# 2 23.4818 67.2472 7.7402 19.4852 10.9024 -11.0694
# 3 15.4651 7.7402 38.9858 7.2166 -0.2682 -2.7148
# 4 15.6867 19.4852 7.2166 34.5462 4.8967 4.8689
# 5 17.3467 10.9024 -0.2682 4.8967 13.5615 1.4648
# 6 -11.7396 -11.0694 -2.7148 4.8689 1.4648 31.5218
#
#
#
# Elastic Compliance Matrix: (Units=1/GPa)
#
#
# Indices 1 2 3 4 5 6 
#
# 1 0.010960 0.000679 -0.003597 -0.003356 -0.013983 0.005178
# 2 0.000679 0.022641 -0.001930 -0.011911 -0.015955 0.010619
# 3 -0.003597 -0.001930 0.028399 -0.004484 0.008254 0.000738
# 4 -0.003356 -0.011911 -0.004484 0.039710 0.000735 -0.011987
# 5 -0.013983 -0.015955 0.008254 0.000735 0.105983 -0.015138
# 6 0.005178 0.010619 0.000738 -0.011987 -0.015138 0.040000
#
#
# Mechanical properties :
#
#
# Convention : Reuss Voigt Hill
#
# Bulk Modulus (GPa) = 19.11916 36.32832 27.72374
# Shear Modulus (GPa) = 18.19348 28.38547 23.28947
#
# Velocity S-wave (km/s) = 2.92470 3.65318 3.30904
# Velocity P-wave (km/s) = 4.51599 5.90546 5.25683
#
# Compressibility (1/GPa) = 0.05230356
#
# Stress axis : x y z
#
# Youngs Moduli (GPa) = 91.24417 44.16710 35.21298
#
# Poissons Ratio (x) = -0.02998 0.12665
# Poissons Ratio (y) = -0.06194 0.06796
# Poissons Ratio (z) = 0.32818 0.08525
#
# Static dielectric constant tensor:
#      x y z
#    x 1.728300 -0.006060 -0.022090 
#    y -0.006060 1.737700 -0.013400 
#    z -0.022090 -0.013400 1.831710 
# 
# From -- ./inp_files/21104.got.cif
#   From: 2010.05.17/outbox.cif.g08.bks.cpg/sg2_11_cif.got.tgz:21104.got - 2010.06.03 11:33:40.
