data_PCOD9104883
_publ_section_title
;
Structure prediction by ZEFSAII (Michael W. Deem and Ramdas Pophale) SiO2 
 PCOD9104883
Probable space group: P -1
;
_chemical_formula_sum "Si O2"
_cell_formula_units_Z 16
_cell_length_a 25.129644
_cell_length_b 6.435012
_cell_length_c 6.944275
_cell_angle_alpha 115.404015
_cell_angle_beta 45.698647
_cell_angle_gamma 111.796309
_cell_volume 721.485235
_symmetry_space_group_name_H-M "P -1"
_symmetry_group_IT_number 2
_symmetry_cell_setting 'triclinic'
loop_
_space_group_symop_operation_xyz
x,y,z
-x,-y,-z
loop_
_atom_site_type_symbol
_atom_site_label
_atom_site_fract_x
_atom_site_fract_y
_atom_site_fract_z
Si Si1 0.375580 0.548865 0.468714
Si Si2 0.497118 0.253915 0.502446
Si Si3 0.970991 0.867312 0.715535
Si Si4 0.307088 0.724529 0.328304
Si Si5 0.105611 0.653989 0.359580
Si Si6 0.579714 0.899600 0.002077
Si Si7 0.165848 0.927502 0.941965
Si Si8 0.757720 0.570263 0.945917
O O1 0.429730 0.714421 0.532162
O O2 0.354759 0.668777 0.371688
O O3 0.299824 0.467655 0.745376
O O4 0.418475 0.326539 0.221652
O O5 0.500000 0.500000 0.500000
O O6 0.427796 0.193488 0.795923
O O7 0.511332 0.058858 0.234278
O O8 0.935808 0.606209 0.652888
O O9 0.043476 0.824637 0.642883
O O10 0.000000 0.000000 0.500000
O O11 0.900749 0.003953 0.001276
O O12 0.231325 0.815477 0.628065
O O13 0.287609 0.495500 0.159180
O O14 0.350077 0.923233 0.166391
O O15 0.180534 0.612934 0.267779
O O16 0.132445 0.751310 0.121217
O O17 0.201623 0.169558 0.043933
#
# Coordination Sequence:
#
# PCOD9104883 Si02
#       8
#     2   2   2   2   2   2   2   2
#     4  12  25  43  67  95 131 168 212 269 324 382
#     4  11  26  48  69  97 126 164 220 267 322 392
#     4   8  16  32  64  94 125 173 218 260 322 370
#     4  12  25  41  65  99 131 172 220 262 324 390
#     4   9  17  36  62  92 129 174 212 266 321 370
#     4  11  25  44  70  95 125 172 210 265 328 384
#     4  10  20  39  62  93 132 173 213 269 319 374
#     4  11  23  40  61  95 132 169 217 264 319 385
#
# _framework density 22.176473999999999
#
# number of rings (size 3 to 8) (size 9 to 14) (size 15 to 20)
#    0.000    1.500    3.750    1.125    0.000    5.000 
#    0.000    0.625    0.000   25.500    0.000    0.000 
#    0.000    0.000    0.000    0.000    0.000    0.000 
#
# Total GULP energy -89273.412349 kJ/mol
# GULP energy per Si atom -5579.588272 kJ/mol
# Density = 2.212600 g / cm^3
# Si number density = 22.176474 Si / 1000 Ang^3
#
#
#
# Elastic Constant Matrix: (Units=GPa)
#
#
# Indices 1 2 3 4 5 6 
#
# 1 88.8688 35.5490 45.5857 -3.8382 1.9580 -15.0408
# 2 35.5490 138.7128 55.1442 -19.0427 -4.4372 -8.9824
# 3 45.5857 55.1442 81.6321 -7.5407 -10.2863 -1.0853
# 4 -3.8382 -19.0427 -7.5407 42.4486 3.6279 -10.2449
# 5 1.9580 -4.4372 -10.2863 3.6279 28.4040 3.0164
# 6 -15.0408 -8.9824 -1.0853 -10.2449 3.0164 33.4778
#
#
#
# Elastic Compliance Matrix: (Units=1/GPa)
#
#
# Indices 1 2 3 4 5 6 
#
# 1 0.018719 0.000455 -0.011213 0.002797 -0.006659 0.009624
# 2 0.000455 0.010938 -0.007393 0.004925 -0.002117 0.004597
# 3 -0.011213 -0.007393 0.024361 -0.002742 0.009634 -0.007939
# 4 0.002797 0.004925 -0.002742 0.028837 -0.005353 0.011796
# 5 -0.006659 -0.002117 0.009634 -0.005353 0.040413 -0.008527
# 6 0.009624 0.004597 -0.007939 0.011796 -0.008527 0.039549
#
#
# Mechanical properties :
#
#
# Convention : Reuss Voigt Hill
#
# Bulk Modulus (GPa) = 56.45186 64.64128 60.54657
# Shear Modulus (GPa) = 24.38724 32.39506 28.39115
#
# Velocity S-wave (km/s) = 3.31975 3.82617 3.58192
# Velocity P-wave (km/s) = 6.34077 6.98078 6.66846
#
# Compressibility (1/GPa) = 0.01771421
#
# Stress axis : x y z
#
# Youngs Moduli (GPa) = 53.42198 91.42519 41.04887
#
# Poissons Ratio (x) = -0.04156 0.46028
# Poissons Ratio (y) = -0.02428 0.30349
# Poissons Ratio (z) = 0.59903 0.67594
#
# Static dielectric constant tensor:
#      x y z
#    x 1.856880 -0.034950 -0.041100 
#    y -0.034950 1.799580 0.007420 
#    z -0.041100 0.007420 1.822530 
# 
# From -- ./inp_files/125854.got.cif
#   From: 2010.05.17/outbox.cif.g08.bks.cpg/sg2_63_cif.got.tgz:125854.got - 2010.06.03 11:33:40.
