data_PCOD9104871
_publ_section_title
;
Structure prediction by ZEFSAII (Michael W. Deem and Ramdas Pophale) SiO2 
 PCOD9104871
Probable space group: P -1
;
_chemical_formula_sum "Si O2"
_cell_formula_units_Z 14
_cell_length_a 10.727748
_cell_length_b 11.376436
_cell_length_c 8.648700
_cell_angle_alpha 67.101610
_cell_angle_beta 50.309565
_cell_angle_gamma 43.648236
_cell_volume 555.300345
_symmetry_space_group_name_H-M "P -1"
_symmetry_group_IT_number 2
_symmetry_cell_setting 'triclinic'
loop_
_space_group_symop_operation_xyz
x,y,z
-x,-y,-z
loop_
_atom_site_type_symbol
_atom_site_label
_atom_site_fract_x
_atom_site_fract_y
_atom_site_fract_z
Si Si1 0.507327 0.368612 0.665170
Si Si2 0.245592 0.130409 0.105055
Si Si3 0.898190 0.530171 0.897058
Si Si4 0.345485 0.869589 0.586789
Si Si5 0.341621 0.689368 0.953262
Si Si6 0.860766 0.085190 0.731360
Si Si7 0.132310 0.184717 0.799583
O O1 0.500000 0.500000 0.500000
O O2 0.312377 0.446280 0.902001
O O3 0.506339 0.241950 0.621794
O O4 0.734850 0.251490 0.637499
O O5 0.156019 0.041558 0.272766
O O6 0.157091 0.295875 0.189689
O O7 0.193133 0.156850 0.948200
O O8 0.500000 0.000000 0.000000
O O9 0.000000 0.500000 0.000000
O O10 0.058464 0.370618 0.736917
O O11 0.419682 0.720642 0.723662
O O12 0.305988 0.021769 0.634925
O O13 0.101742 0.972251 0.663288
O O14 0.500000 0.500000 0.000000
O O15 0.297348 0.825477 0.040809
O O16 0.097786 0.766985 0.068972
#
# Coordination Sequence:
#
# PCOD9104871 Si02
#       7
#     2   2   2   2   2   2   2
#     4  12  25  40  62 103 138 165 217 280 339 383
#     4  11  20  37  67  91 125 171 236 256 306 396
#     4  10  23  40  63  92 124 178 217 262 311 401
#     4  11  22  40  64  97 135 164 208 295 336 369
#     4  11  20  34  65  94 129 170 219 275 324 389
#     4  11  21  40  64  98 127 176 222 262 328 404
#     4  10  20  39  62  93 124 169 224 264 312 394
#
# _framework density 25.211582
#
# number of rings (size 3 to 8) (size 9 to 14) (size 15 to 20)
#    0.000    1.143    4.286    3.857    2.000    0.000 
#    0.000    2.857    0.000    0.857    0.000    0.000 
#    0.000    0.000    0.000    0.000    0.000    0.000 
#
# Total GULP energy -78122.924259 kJ/mol
# GULP energy per Si atom -5580.208876 kJ/mol
# Density = 2.515420 g / cm^3
# Si number density = 25.211582 Si / 1000 Ang^3
#
#
#
# Elastic Constant Matrix: (Units=GPa)
#
#
# Indices 1 2 3 4 5 6 
#
# 1 108.6771 52.6641 19.7387 -7.3479 -9.3520 -10.2023
# 2 52.6641 169.8783 29.8679 -5.4267 11.7516 28.9021
# 3 19.7387 29.8679 48.2246 8.6651 19.0015 1.4762
# 4 -7.3479 -5.4267 8.6651 44.3850 8.1359 21.3464
# 5 -9.3520 11.7516 19.0015 8.1359 35.8042 11.3492
# 6 -10.2023 28.9021 1.4762 21.3464 11.3492 61.4086
#
#
#
# Elastic Compliance Matrix: (Units=1/GPa)
#
#
# Indices 1 2 3 4 5 6 
#
# 1 0.013025 -0.004002 -0.005628 0.000139 0.006756 0.002886
# 2 -0.004002 0.009154 -0.004337 0.004464 -0.000773 -0.006278
# 3 -0.005628 -0.004337 0.034211 -0.007846 -0.018455 0.006422
# 4 0.000139 0.004464 -0.007846 0.030698 -0.000275 -0.012509
# 5 0.006756 -0.000773 -0.018455 -0.000275 0.041600 -0.005663
# 6 0.002886 -0.006278 0.006422 -0.012509 -0.005663 0.024959
#
#
# Mechanical properties :
#
#
# Convention : Reuss Voigt Hill
#
# Bulk Modulus (GPa) = 35.14208 59.03570 47.08889
# Shear Modulus (GPa) = 26.16908 43.28685 34.72797
#
# Velocity S-wave (km/s) = 3.22526 4.14810 3.71544
# Velocity P-wave (km/s) = 5.27626 6.81243 6.09295
#
# Compressibility (1/GPa) = 0.02845591
#
# Stress axis : x y z
#
# Youngs Moduli (GPa) = 76.77603 109.24177 29.23058
#
# Poissons Ratio (x) = 0.43722 0.16450
# Poissons Ratio (y) = 0.30728 0.12677
# Poissons Ratio (z) = 0.43207 0.47377
#
# Static dielectric constant tensor:
#      x y z
#    x 2.070740 0.092800 -0.073500 
#    y 0.092800 2.102930 -0.048120 
#    z -0.073500 -0.048120 2.100610 
# 
# From -- ./inp_files/183179.got.cif
#   From: 2010.05.17/outbox.cif.g08.bks.cpg/sg2_92_cif.got.tgz:183179.got - 2010.06.03 11:33:40.
