data_PCOD9104609
_publ_section_title
;
Structure prediction by ZEFSAII (Michael W. Deem and Ramdas Pophale) SiO2 
 PCOD9104609
Probable space group: P -1
;
_chemical_formula_sum "Si O2"
_cell_formula_units_Z 16
_cell_length_a 6.058626
_cell_length_b 20.640183
_cell_length_c 8.729261
_cell_angle_alpha 82.796434
_cell_angle_beta 59.704522
_cell_angle_gamma 51.057797
_cell_volume 702.587226
_symmetry_space_group_name_H-M "P -1"
_symmetry_group_IT_number 2
_symmetry_cell_setting 'triclinic'
loop_
_space_group_symop_operation_xyz
x,y,z
-x,-y,-z
loop_
_atom_site_type_symbol
_atom_site_label
_atom_site_fract_x
_atom_site_fract_y
_atom_site_fract_z
Si Si1 0.104910 0.818142 0.952384
Si Si2 0.042923 0.630126 0.145010
Si Si3 0.565497 0.815294 0.288028
Si Si4 0.174638 0.464875 0.114473
Si Si5 0.471565 0.927556 0.565777
Si Si6 0.845007 0.082040 0.879758
Si Si7 0.123472 0.186176 0.264232
Si Si8 0.875594 0.668767 0.829759
O O1 0.967519 0.903379 0.068009
O O2 0.878904 0.796238 0.093578
O O3 0.480525 0.745807 0.906691
O O4 0.102211 0.819350 0.769274
O O5 0.079499 0.548504 0.206769
O O6 0.736514 0.719238 0.310267
O O7 0.416704 0.599846 0.034959
O O8 0.945207 0.649887 0.992323
O O9 0.465712 0.882312 0.434483
O O10 0.275571 0.859015 0.247997
O O11 0.053167 0.415507 0.238305
O O12 0.000000 0.500000 0.000000
O O13 0.779473 0.853789 0.590004
O O14 0.500000 0.000000 0.500000
O O15 0.106776 0.983773 0.761257
O O16 0.494024 0.119678 0.069705
O O17 0.980942 0.284656 0.285259
#
# Coordination Sequence:
#
# PCOD9104609 Si02
#       8
#     2   2   2   2   2   2   2   2
#     4  10  17  35  59  80 107 154 195 237 282 338
#     4  10  17  31  54  89 117 149 186 240 289 337
#     4  11  20  37  59  79 120 151 188 239 294 344
#     4   9  18  27  53  91 120 141 187 241 282 340
#     4  12  25  40  55  85 119 153 197 246 295 341
#     4  10  21  41  59  79 110 158 198 244 283 339
#     4  10  22  37  59  81 113 158 197 240 287 343
#     4  10  16  33  57  83 114 146 192 235 285 335
#
# _framework density 22.772973
#
# number of rings (size 3 to 8) (size 9 to 14) (size 15 to 20)
#    0.000    1.750    6.250    0.750    0.000    0.500 
#    9.000    0.000    0.000    0.750    0.000   12.250 
#    0.000    0.000    0.000    0.000    0.000    0.000 
#
# Total GULP energy -89236.244692 kJ/mol
# GULP energy per Si atom -5577.265293 kJ/mol
# Density = 2.272114 g / cm^3
# Si number density = 22.772973 Si / 1000 Ang^3
#
#
#
# Elastic Constant Matrix: (Units=GPa)
#
#
# Indices 1 2 3 4 5 6 
#
# 1 93.3876 35.8408 25.0454 -5.0228 24.9014 0.6076
# 2 35.8408 146.1174 33.6221 3.0048 21.2103 23.1328
# 3 25.0454 33.6221 36.2819 -7.8408 12.1095 15.1825
# 4 -5.0228 3.0048 -7.8408 24.3311 0.1547 9.6647
# 5 24.9014 21.2103 12.1095 0.1547 28.1352 4.1346
# 6 0.6076 23.1328 15.1825 9.6647 4.1346 46.4785
#
#
#
# Elastic Compliance Matrix: (Units=1/GPa)
#
#
# Indices 1 2 3 4 5 6 
#
# 1 0.016137 -0.001128 -0.008647 -0.000956 -0.010335 0.004293
# 2 -0.001128 0.009462 -0.007078 -0.003073 -0.002853 -0.001490
# 3 -0.008647 -0.007078 0.056386 0.024943 -0.008594 -0.019205
# 4 -0.000956 -0.003073 0.024943 0.056455 -0.005257 -0.017878
# 5 -0.010335 -0.002853 -0.008594 -0.005257 0.050426 0.000969
# 6 0.004293 -0.001490 -0.019205 -0.017878 0.000969 0.032105
#
#
# Mechanical properties :
#
#
# Convention : Reuss Voigt Hill
#
# Bulk Modulus (GPa) = 20.71371 51.64483 36.17927
# Shear Modulus (GPa) = 18.46577 31.87418 25.16997
#
# Velocity S-wave (km/s) = 2.85066 3.74525 3.32815
# Velocity P-wave (km/s) = 4.46659 6.43660 5.53987
#
# Compressibility (1/GPa) = 0.04827721
#
# Stress axis : x y z
#
# Youngs Moduli (GPa) = 61.97066 105.68085 17.73487
#
# Poissons Ratio (x) = 0.11922 0.15336
# Poissons Ratio (y) = 0.06991 0.12554
# Poissons Ratio (z) = 0.53588 0.74806
#
# Static dielectric constant tensor:
#      x y z
#    x 1.909460 0.060990 -0.018580 
#    y 0.060990 1.933010 -0.011710 
#    z -0.018580 -0.011710 1.883300 
# 
# From -- ./inp_files/141395.got.cif
#   From: 2010.05.17/outbox.cif.g08.bks.cpg/sg2_71_cif.got.tgz:141395.got - 2010.06.03 11:33:40.
