data_PCOD9104421
_publ_section_title
;
Structure prediction by ZEFSAII (Michael W. Deem and Ramdas Pophale) SiO2 
 PCOD9104421
Probable space group: P -1
;
_chemical_formula_sum "Si O2"
_cell_formula_units_Z 16
_cell_length_a 19.581224
_cell_length_b 20.467643
_cell_length_c 11.301037
_cell_angle_alpha 149.764824
_cell_angle_beta 31.167206
_cell_angle_gamma 159.122474
_cell_volume 782.633295
_symmetry_space_group_name_H-M "P -1"
_symmetry_group_IT_number 2
_symmetry_cell_setting 'triclinic'
loop_
_space_group_symop_operation_xyz
x,y,z
-x,-y,-z
loop_
_atom_site_type_symbol
_atom_site_label
_atom_site_fract_x
_atom_site_fract_y
_atom_site_fract_z
Si Si1 0.217187 0.616279 0.664703
Si Si2 0.121608 0.011423 0.986877
Si Si3 0.753500 0.967969 0.607819
Si Si4 0.266160 0.344865 0.140825
Si Si5 0.321260 0.718112 0.937492
Si Si6 0.667662 0.999892 0.532343
Si Si7 0.932004 0.635336 0.088598
Si Si8 0.068619 0.138321 0.724409
O O1 0.212304 0.456853 0.411595
O O2 0.431042 0.811889 0.600156
O O3 0.214088 0.642800 0.851616
O O4 0.055660 0.594638 0.814830
O O5 0.898487 0.827721 0.978200
O O6 0.250973 0.999025 0.707181
O O7 0.100218 0.979348 0.108408
O O8 0.216672 0.218959 0.131342
O O9 0.755905 0.986064 0.491883
O O10 0.759631 0.822661 0.410084
O O11 0.552045 0.883836 0.821378
O O12 0.931456 0.176337 0.732421
O O13 0.500000 0.500000 0.000000
O O14 0.276246 0.811921 0.227347
O O15 0.257193 0.548194 0.842963
O O16 0.884687 0.687100 0.125313
O O17 0.000000 0.000000 0.500000
#
# Coordination Sequence:
#
# PCOD9104421 Si02
#       8
#     2   2   2   2   2   2   2   2
#     4  11  21  38  65  97 131 156 208 266 312 379
#     4  11  24  42  64  91 134 166 205 261 323 369
#     4  10  20  39  60  93 129 155 206 265 308 370
#     4  11  23  39  66 102 126 158 206 267 325 371
#     4  11  22  35  67  98 125 161 206 264 322 362
#     4  11  20  40  66  97 128 157 201 274 326 361
#     4  11  22  39  60  89 124 170 215 243 307 373
#     4  10  25  43  63  86 128 177 214 253 302 382
#
# _framework density 20.443801000000001
#
# number of rings (size 3 to 8) (size 9 to 14) (size 15 to 20)
#    0.000    1.250    3.750    3.375    7.000    0.500 
#    0.000    5.625    0.000    0.000    0.000    0.000 
#    0.000    0.000    0.000    0.000    0.000    0.000 
#
# Total GULP energy -89345.206357 kJ/mol
# GULP energy per Si atom -5584.075397 kJ/mol
# Density = 2.039727 g / cm^3
# Si number density = 20.443801 Si / 1000 Ang^3
#
#
#
# Elastic Constant Matrix: (Units=GPa)
#
#
# Indices 1 2 3 4 5 6 
#
# 1 56.0582 14.2925 32.5453 6.0600 11.7345 -38.9192
# 2 14.2925 95.2249 33.8695 5.7936 12.4911 -23.0285
# 3 32.5453 33.8695 140.8387 -3.7121 -7.7917 -21.5009
# 4 6.0600 5.7936 -3.7121 32.4179 -20.3159 -1.4495
# 5 11.7345 12.4911 -7.7917 -20.3159 19.7112 2.6546
# 6 -38.9192 -23.0285 -21.5009 -1.4495 2.6546 32.1729
#
#
#
# Elastic Compliance Matrix: (Units=1/GPa)
#
#
# Indices 1 2 3 4 5 6 
#
# 1 -0.003338 -0.012217 0.005342 0.031913 0.046294 -0.011596
# 2 -0.012217 0.007837 0.000353 0.008010 0.011990 -0.009562
# 3 0.005342 0.000353 0.007223 -0.002960 -0.005194 0.011836
# 4 0.031913 0.008010 -0.002960 0.015624 -0.015108 0.044310
# 5 0.046294 0.011990 -0.005194 -0.015108 -0.010303 0.061282
# 6 -0.011596 -0.009562 0.011836 0.044310 0.061282 0.015061
#
#
# Mechanical properties :
#
#
# Convention : Reuss Voigt Hill
#
# Bulk Modulus (GPa) = -755.45893 50.39293 -352.53300
# Shear Modulus (GPa) = 111.83880 30.95472 71.39676
#
# Velocity S-wave (km/s) = 7.40434 3.89541 5.91602
# Velocity P-wave (km/s) = 17.24044 6.70338 11.23160
#
# Compressibility (1/GPa) = -0.00132370
#
# Stress axis : x y z
#
# Youngs Moduli (GPa) = -299.53714 127.59779 138.45258
#
# Poissons Ratio (x) = 1.55889 -0.73955
# Poissons Ratio (y) = -3.65951 -0.04889
# Poissons Ratio (z) = 1.60000 -0.04506
#
# Static dielectric constant tensor:
#      x y z
#    x 1.738210 -0.001110 -0.020520 
#    y -0.001110 1.744340 0.010990 
#    z -0.020520 0.010990 1.775070 
# 
# From -- ./inp_files/472679.got.cif
#   From: 2010.05.17/outbox.cif.g08.bks.cpg/sg2_237_cif.got.tgz:472679.got - 2010.06.03 11:33:40.
