data_PCOD9104172
_publ_section_title
;
Structure prediction by ZEFSAII (Michael W. Deem and Ramdas Pophale) SiO2 
 PCOD9104172
Probable space group: P -1
;
_chemical_formula_sum "Si O2"
_cell_formula_units_Z 16
_cell_length_a 11.338183
_cell_length_b 14.073420
_cell_length_c 19.267731
_cell_angle_alpha 145.794239
_cell_angle_beta 148.430557
_cell_angle_gamma 30.948547
_cell_volume 772.980563
_symmetry_space_group_name_H-M "P -1"
_symmetry_group_IT_number 2
_symmetry_cell_setting 'triclinic'
loop_
_space_group_symop_operation_xyz
x,y,z
-x,-y,-z
loop_
_atom_site_type_symbol
_atom_site_label
_atom_site_fract_x
_atom_site_fract_y
_atom_site_fract_z
Si Si1 0.693090 0.917588 0.260158
Si Si2 0.777018 0.984349 0.617824
Si Si3 0.498172 0.102252 0.132726
Si Si4 0.438691 0.838220 0.525393
Si Si5 0.266299 0.625477 0.592793
Si Si6 0.329191 0.896050 0.218397
Si Si7 0.885879 0.839884 0.912004
Si Si8 0.077041 0.399315 0.709495
O O1 0.708075 0.961894 0.213757
O O2 0.696331 0.065524 0.409692
O O3 0.384806 0.980499 0.146660
O O4 0.877068 0.699808 0.251371
O O5 0.755864 0.071727 0.583540
O O6 0.777441 0.100856 0.755633
O O7 0.500000 0.000000 0.500000
O O8 0.024932 0.762304 0.606267
O O9 0.555092 0.277846 0.258781
O O10 0.220629 0.175677 0.075163
O O11 0.500000 0.000000 0.000000
O O12 0.573371 0.605181 0.449965
O O13 0.650939 0.908251 0.662842
O O14 0.125005 0.639686 0.457219
O O15 0.632686 0.722469 0.253799
O O16 0.123328 0.876280 0.056566
O O17 0.972288 0.629956 0.794389
#
# Coordination Sequence:
#
# PCOD9104172 Si02
#       8
#     2   2   2   2   2   2   2   2
#     4   9  21  41  59  92 121 162 208 243 315 350
#     4  10  20  39  58  91 127 155 201 254 306 356
#     4  10  24  45  64  87 126 165 200 253 313 365
#     4  10  21  38  63  96 119 162 206 251 313 352
#     4  12  21  40  66  89 127 157 213 254 297 372
#     4  10  21  41  62  89 135 159 201 260 303 363
#     4  10  22  42  62  87 129 163 204 250 306 367
#     4  11  21  39  63  97 118 162 213 250 307 358
#
# _framework density 20.699096999999998
#
# number of rings (size 3 to 8) (size 9 to 14) (size 15 to 20)
#    0.750    1.000    5.000    1.125    0.000    6.500 
#    6.750    0.625    0.000    0.000    0.000    0.000 
#    0.000    0.000    0.000    0.000    0.000    0.000 
#
# Total GULP energy -89108.626296 kJ/mol
# GULP energy per Si atom -5569.289144 kJ/mol
# Density = 2.065198 g / cm^3
# Si number density = 20.699097 Si / 1000 Ang^3
#
#
#
# Elastic Constant Matrix: (Units=GPa)
#
#
# Indices 1 2 3 4 5 6 
#
# 1 87.3173 13.2020 51.5291 1.5060 -13.7533 0.8345
# 2 13.2020 62.3123 25.2810 3.5061 2.1038 9.0121
# 3 51.5291 25.2810 115.5042 4.6032 9.2647 2.4085
# 4 1.5060 3.5061 4.6032 12.2471 3.2336 0.0964
# 5 -13.7533 2.1038 9.2647 3.2336 41.7809 -9.0193
# 6 0.8345 9.0121 2.4085 0.0964 -9.0193 19.3448
#
#
#
# Elastic Compliance Matrix: (Units=1/GPa)
#
#
# Indices 1 2 3 4 5 6 
#
# 1 0.018140 -0.001355 -0.008595 -0.001068 0.009148 0.005190
# 2 -0.001355 0.019265 -0.003066 -0.003442 -0.002567 -0.009714
# 3 -0.008595 -0.003066 0.013783 -0.001583 -0.006215 -0.002807
# 4 -0.001068 -0.003442 -0.001583 0.085172 -0.006796 -0.001746
# 5 0.009148 -0.002567 -0.006215 -0.006796 0.032608 0.016812
# 6 0.005190 -0.009714 -0.002807 -0.001746 0.016812 0.064192
#
#
# Mechanical properties :
#
#
# Convention : Reuss Voigt Hill
#
# Bulk Modulus (GPa) = 39.75521 49.46198 44.60859
# Shear Modulus (GPa) = 18.68614 26.34934 22.51774
#
# Velocity S-wave (km/s) = 3.00784 3.57174 3.30185
# Velocity P-wave (km/s) = 5.59560 6.39980 6.01116
#
# Compressibility (1/GPa) = 0.02515394
#
# Stress axis : x y z
#
# Youngs Moduli (GPa) = 55.12811 51.90851 72.55068
#
# Poissons Ratio (x) = 0.07035 0.62359
# Poissons Ratio (y) = 0.07472 0.22246
# Poissons Ratio (z) = 0.47384 0.15917
#
# Static dielectric constant tensor:
#      x y z
#    x 1.841270 0.031010 -0.045810 
#    y 0.031010 1.740240 -0.029880 
#    z -0.045810 -0.029880 1.752440 
# 
# From -- ./inp_files/595552.got.cif
#   From: 2010.05.17/outbox.cif.g08.bks.cpg/sg2_298_cif.got.tgz:595552.got - 2010.06.03 11:33:40.
