data_PCOD9104486
_publ_section_title
;
Structure prediction by ZEFSAII (Michael W. Deem and Ramdas Pophale) SiO2 
 PCOD9104486
Probable space group: P -1
;
_chemical_formula_sum "Si O2"
_cell_formula_units_Z 15
_cell_length_a 14.258926
_cell_length_b 14.509681
_cell_length_c 11.826940
_cell_angle_alpha 60.693402
_cell_angle_beta 149.646091
_cell_angle_gamma 140.966744
_cell_volume 640.824414
_symmetry_space_group_name_H-M "P -1"
_symmetry_group_IT_number 2
_symmetry_cell_setting 'triclinic'
loop_
_space_group_symop_operation_xyz
x,y,z
-x,-y,-z
loop_
_atom_site_type_symbol
_atom_site_label
_atom_site_fract_x
_atom_site_fract_y
_atom_site_fract_z
Si Si1 0.052533 0.257473 0.960738
Si Si2 0.793463 0.586591 0.503756
Si Si3 0.107853 0.589796 0.379133
Si Si4 0.194875 0.063209 0.420020
Si Si5 0.195246 0.293324 0.334794
Si Si6 0.000000 0.000000 0.000000
Si Si7 0.365372 0.927114 0.777030
Si Si8 0.509217 0.236919 0.103928
O O1 0.894855 0.294230 0.739705
O O2 0.423433 0.437226 0.208087
O O3 0.000369 0.217987 0.063549
O O4 0.943910 0.102588 0.879039
O O5 0.924819 0.706397 0.678215
O O6 0.848964 0.485819 0.618709
O O7 0.998385 0.725265 0.530699
O O8 0.780721 0.419060 0.206574
O O9 0.387696 0.709607 0.689654
O O10 0.282862 0.210560 0.490511
O O11 0.181312 0.090829 0.258435
O O12 0.385382 0.047142 0.661044
O O13 0.835739 0.875894 0.194496
O O14 0.500000 0.500000 0.500000
O O15 0.504914 0.889416 0.880925
O O16 0.500000 0.000000 0.000000
#
# Coordination Sequence:
#
# PCOD9104486 Si02
#       8
#     2   2   2   2   2   1   2   2
#     4  10  20  39  61  85 120 160 199 245 294 350
#     4  10  21  39  59  87 120 155 199 245 302 355
#     4  10  21  37  62  89 119 154 197 248 297 356
#     4  11  22  42  64  85 124 160 193 250 301 349
#     4   9  21  38  58  85 118 161 205 241 292 353
#     4  10  22  40  64  90 118 162 204 236 294 360
#     4  11  24  39  63  94 119 153 201 248 301 358
#     4  10  22  39  60  93 120 150 198 246 303 358
#
# _framework density 23.407349
#
# number of rings (size 3 to 8) (size 9 to 14) (size 15 to 20)
#    0.000    1.867    0.000    3.200    0.000    6.933 
#    0.000   26.667    0.000    0.000    0.000    0.000 
#    0.000    0.000    0.000    0.000    0.000    0.000 
#
# Total GULP energy -83637.926169 kJ/mol
# GULP energy per Si atom -5575.861745 kJ/mol
# Density = 2.335407 g / cm^3
# Si number density = 23.407349 Si / 1000 Ang^3
#
#
#
# Elastic Constant Matrix: (Units=GPa)
#
#
# Indices 1 2 3 4 5 6 
#
# 1 77.0342 28.2723 10.9206 -4.6906 -11.3819 -36.2076
# 2 28.2723 126.9692 26.7431 -25.9443 0.7114 -40.8837
# 3 10.9206 26.7431 43.0253 -8.3934 9.8119 -10.6298
# 4 -4.6906 -25.9443 -8.3934 50.1361 0.6714 12.9809
# 5 -11.3819 0.7114 9.8119 0.6714 29.6832 14.6922
# 6 -36.2076 -40.8837 -10.6298 12.9809 14.6922 55.2405
#
#
#
# Elastic Compliance Matrix: (Units=1/GPa)
#
#
# Indices 1 2 3 4 5 6 
#
# 1 0.019197 -0.000388 -0.002754 -0.001881 0.002626 0.011509
# 2 -0.000388 0.012110 -0.004079 0.003540 -0.003087 0.007913
# 3 -0.002754 -0.004079 0.030926 0.001894 -0.013314 0.004223
# 4 -0.001881 0.003540 0.001894 0.022845 -0.000183 -0.003568
# 5 0.002626 -0.003087 -0.013314 -0.000183 0.046871 -0.015549
# 6 0.011509 0.007913 0.004223 -0.003568 -0.015549 0.037289
#
#
# Mechanical properties :
#
#
# Convention : Reuss Voigt Hill
#
# Bulk Modulus (GPa) = 20.92442 42.10009 31.51226
# Shear Modulus (GPa) = 25.04881 39.08480 32.06681
#
# Velocity S-wave (km/s) = 3.27483 4.09071 3.70529
# Velocity P-wave (km/s) = 4.82265 6.35112 5.63892
#
# Compressibility (1/GPa) = 0.04779104
#
# Stress axis : x y z
#
# Youngs Moduli (GPa) = 52.09126 82.57645 32.33570
#
# Poissons Ratio (x) = 0.03201 0.08905
# Poissons Ratio (y) = 0.02019 0.13190
# Poissons Ratio (z) = 0.14346 0.33685
#
# Static dielectric constant tensor:
#      x y z
#    x 1.933480 0.043010 0.026560 
#    y 0.043010 1.903350 0.061890 
#    z 0.026560 0.061890 1.880570 
# 
# From -- ./inp_files/124127.got.cif
#   From: 2010.05.17/outbox.cif.g08.bks.cpg/sg2_63_cif.got.tgz:124127.got - 2010.06.03 11:33:40.
