data_PCOD9104961
_publ_section_title
;
Structure prediction by ZEFSAII (Michael W. Deem and Ramdas Pophale) SiO2 
 PCOD9104961
Probable space group: P -1
;
_chemical_formula_sum "Si O2"
_cell_formula_units_Z 14
_cell_length_a 24.853158
_cell_length_b 16.171037
_cell_length_c 7.035925
_cell_angle_alpha 134.289473
_cell_angle_beta 39.710128
_cell_angle_gamma 159.937297
_cell_volume 615.943706
_symmetry_space_group_name_H-M "P -1"
_symmetry_group_IT_number 2
_symmetry_cell_setting 'triclinic'
loop_
_space_group_symop_operation_xyz
x,y,z
-x,-y,-z
loop_
_atom_site_type_symbol
_atom_site_label
_atom_site_fract_x
_atom_site_fract_y
_atom_site_fract_z
Si Si1 0.932566 0.221496 0.886703
Si Si2 0.680607 0.746030 0.004439
Si Si3 0.806242 0.268347 0.562449
Si Si4 0.067617 0.905211 0.665580
Si Si5 0.184758 0.471782 0.935026
Si Si6 0.486450 0.243322 0.319634
Si Si7 0.258904 0.342475 0.982756
O O1 0.926174 0.204712 0.649087
O O2 0.832645 0.215300 0.225211
O O3 0.115624 0.425977 0.839364
O O4 0.820702 0.973058 0.849812
O O5 0.626246 0.781924 0.354624
O O6 0.736514 0.698103 0.882907
O O7 0.500000 0.500000 0.000000
O O8 0.000000 0.500000 0.500000
O O9 0.654266 0.029048 0.721882
O O10 0.763582 0.351836 0.800047
O O11 0.987373 0.786550 0.903021
O O12 0.913534 0.790387 0.795610
O O13 0.231202 0.191067 0.691423
O O14 0.351604 0.589179 0.704822
O O15 0.578349 0.386945 0.102148
#
# Coordination Sequence:
#
# PCOD9104961 Si02
#       7
#     2   2   2   2   2   2   2
#     4  10  21  37  60  87 118 158 198 239 297 346
#     4  11  22  36  55  90 124 157 195 237 294 353
#     4   9  20  39  61  86 114 153 200 247 296 344
#     4  10  21  37  62  91 118 158 195 239 295 346
#     4  10  20  39  63  84 120 153 202 245 287 351
#     4  10  21  36  61  86 114 161 191 242 302 338
#     4  10  21  38  57  90 125 152 197 241 288 356
#
# _framework density 22.729348000000002
#
# number of rings (size 3 to 8) (size 9 to 14) (size 15 to 20)
#    0.000    2.000    1.429    1.714    2.000    1.143 
#    0.000    0.000    3.143    7.714    0.000    0.000 
#    0.000    0.000    0.000    0.000    0.000    0.000 
#
# Total GULP energy -78101.939101 kJ/mol
# GULP energy per Si atom -5578.709936 kJ/mol
# Density = 2.267762 g / cm^3
# Si number density = 22.729348 Si / 1000 Ang^3
#
#
#
# Elastic Constant Matrix: (Units=GPa)
#
#
# Indices 1 2 3 4 5 6 
#
# 1 22.6421 -0.8309 -3.1821 -1.7543 -11.6096 6.1966
# 2 -0.8309 113.7045 4.0286 -1.4400 0.8103 -12.5517
# 3 -3.1821 4.0286 55.4685 6.5677 -2.8130 1.6453
# 4 -1.7543 -1.4400 6.5677 29.5746 2.7594 -2.9965
# 5 -11.6096 0.8103 -2.8130 2.7594 29.7237 1.3659
# 6 6.1966 -12.5517 1.6453 -2.9965 1.3659 23.6166
#
#
#
# Elastic Compliance Matrix: (Units=1/GPa)
#
#
# Indices 1 2 3 4 5 6 
#
# 1 0.064025 -0.002197 0.006050 -0.002199 0.026773 -0.020215
# 2 -0.002197 0.009512 -0.001239 0.001367 -0.001637 0.005986
# 3 0.006050 -0.001239 0.019431 -0.004931 0.004901 -0.004509
# 4 -0.002199 0.001367 -0.004931 0.035969 -0.005001 0.006500
# 5 0.026773 -0.001637 0.004901 -0.005001 0.045602 -0.011508
# 6 -0.020215 0.005986 -0.004509 0.006500 -0.011508 0.052633
#
#
# Mechanical properties :
#
#
# Convention : Reuss Voigt Hill
#
# Bulk Modulus (GPa) = 10.18360 21.31625 15.74992
# Shear Modulus (GPa) = 19.63275 29.36962 24.50119
#
# Velocity S-wave (km/s) = 2.94217 3.59854 3.28678
# Velocity P-wave (km/s) = 4.00399 5.16378 4.62042
#
# Compressibility (1/GPa) = 0.09819714
#
# Stress axis : x y z
#
# Youngs Moduli (GPa) = 15.61895 105.12587 51.46289
#
# Poissons Ratio (x) = 0.23093 -0.31137
# Poissons Ratio (y) = 0.03431 0.06378
# Poissons Ratio (z) = -0.09450 0.13029
#
# Static dielectric constant tensor:
#      x y z
#    x 1.867220 0.007090 0.053710 
#    y 0.007090 1.866450 0.061610 
#    z 0.053710 0.061610 2.007340 
# 
# From -- ./inp_files/357560.got.cif
#   From: 2010.05.17/outbox.cif.g08.bks.cpg/sg2_179_cif.got.tgz:357560.got - 2010.06.03 11:33:40.
