data_PCOD9104076
_publ_section_title
;
Structure prediction by ZEFSAII (Michael W. Deem and Ramdas Pophale) SiO2 
 PCOD9104076
Probable space group: P -1
;
_chemical_formula_sum "Si O2"
_cell_formula_units_Z 14
_cell_length_a 10.455299
_cell_length_b 6.693054
_cell_length_c 11.495567
_cell_angle_alpha 115.776100
_cell_angle_beta 72.711524
_cell_angle_gamma 93.556311
_cell_volume 689.550727
_symmetry_space_group_name_H-M "P -1"
_symmetry_group_IT_number 2
_symmetry_cell_setting 'triclinic'
loop_
_space_group_symop_operation_xyz
x,y,z
-x,-y,-z
loop_
_atom_site_type_symbol
_atom_site_label
_atom_site_fract_x
_atom_site_fract_y
_atom_site_fract_z
Si Si1 0.070062 0.272471 0.158900
Si Si2 0.390129 0.474016 0.693840
Si Si3 0.778781 0.935805 0.313749
Si Si4 0.903189 0.774922 0.600385
Si Si5 0.686657 0.423879 0.529174
Si Si6 0.198944 0.872215 0.901204
Si Si7 0.056403 0.757010 0.312904
O O1 0.026834 0.254272 0.300535
O O2 0.940740 0.245365 0.106326
O O3 0.118059 0.518012 0.194443
O O4 0.175502 0.065691 0.051102
O O5 0.329877 0.243693 0.684681
O O6 0.550452 0.458650 0.648603
O O7 0.347847 0.524238 0.583713
O O8 0.317138 0.680360 0.836426
O O9 0.920845 0.823714 0.292821
O O10 0.739834 0.164672 0.451669
O O11 0.784254 0.002434 0.194194
O O12 0.790429 0.602207 0.581089
O O13 0.002363 0.738875 0.454919
O O14 0.853764 0.035633 0.669374
#
# Coordination Sequence:
#
# PCOD9104076 Si02
#       7
#     2   2   2   2   2   2   2
#     4  11  22  37  55  83 115 147 183 225 273 333
#     4  10  20  39  57  82 112 146 185 231 268 324
#     4  11  19  36  58  87 111 140 184 231 276 325
#     4  11  23  36  56  85 115 146 179 227 281 331
#     4  10  22  35  58  84 113 145 184 224 280 326
#     4  10  22  37  57  81 112 149 186 223 273 326
#     4  11  22  33  58  88 115 139 178 231 286 325
#
# _framework density 20.303076000000001
#
# number of rings (size 3 to 8) (size 9 to 14) (size 15 to 20)
#    0.000    1.429    4.286    1.714    4.000    1.714 
#    0.000    0.714    0.000    1.714    0.000    0.000 
#    0.000    0.000    0.000    0.000    0.000    0.000 
#
# Total GULP energy -78212.892834 kJ/mol
# GULP energy per Si atom -5586.635202 kJ/mol
# Density = 2.025687 g / cm^3
# Si number density = 20.303076 Si / 1000 Ang^3
#
#
#
# Elastic Constant Matrix: (Units=GPa)
#
#
# Indices 1 2 3 4 5 6 
#
# 1 50.5650 35.5691 18.5748 13.4121 -8.4723 11.2994
# 2 35.5691 138.2418 53.8869 43.7400 -7.6245 21.3906
# 3 18.5748 53.8869 79.3093 39.9770 -11.5443 2.9817
# 4 13.4121 43.7400 39.9770 40.5059 -6.4177 4.7539
# 5 -8.4723 -7.6245 -11.5443 -6.4177 23.6684 -1.8298
# 6 11.2994 21.3906 2.9817 4.7539 -1.8298 24.5940
#
#
#
# Elastic Compliance Matrix: (Units=1/GPa)
#
#
# Indices 1 2 3 4 5 6 
#
# 1 0.026427 -0.004529 -0.001792 -0.000185 0.006499 -0.007466
# 2 -0.004529 0.013874 -0.003736 -0.009196 -0.002079 -0.007911
# 3 -0.001792 -0.003736 0.027346 -0.022063 0.005933 0.005463
# 4 -0.000185 -0.009196 -0.022063 0.056715 0.001582 -0.000086
# 5 0.006499 -0.002079 0.005933 0.001582 0.047332 0.001319
# 6 -0.007466 -0.007911 0.005463 -0.000086 0.001319 0.050423
#
#
# Mechanical properties :
#
#
# Convention : Reuss Voigt Hill
#
# Bulk Modulus (GPa) = 21.03750 53.79753 37.41752
# Shear Modulus (GPa) = 19.37410 28.42601 23.90005
#
# Velocity S-wave (km/s) = 3.09244 3.74583 3.43470
# Velocity P-wave (km/s) = 4.80990 6.72778 5.84800
#
# Compressibility (1/GPa) = 0.04753416
#
# Stress axis : x y z
#
# Youngs Moduli (GPa) = 37.84006 72.07562 36.56799
#
# Poissons Ratio (x) = 0.32640 0.06554
# Poissons Ratio (y) = 0.17136 0.13662
# Poissons Ratio (z) = 0.06782 0.26927
#
# Static dielectric constant tensor:
#      x y z
#    x 1.725310 -0.015280 0.000250 
#    y -0.015280 1.753470 0.017270 
#    z 0.000250 0.017270 1.748500 
# 
# From -- ./inp_files/65459.got.cif
#   From: 2010.05.17/outbox.cif.g08.bks.cpg/sg2_33_cif.got.tgz:65459.got - 2010.06.03 11:33:40.
