data_PCOD9104672
_publ_section_title
;
Structure prediction by ZEFSAII (Michael W. Deem and Ramdas Pophale) SiO2 
 PCOD9104672
Probable space group: P -1
;
_chemical_formula_sum "Si O2"
_cell_formula_units_Z 14
_cell_length_a 10.117455
_cell_length_b 11.041880
_cell_length_c 7.584026
_cell_angle_alpha 60.599243
_cell_angle_beta 109.534343
_cell_angle_gamma 66.560888
_cell_volume 507.211723
_symmetry_space_group_name_H-M "P -1"
_symmetry_group_IT_number 2
_symmetry_cell_setting 'triclinic'
loop_
_space_group_symop_operation_xyz
x,y,z
-x,-y,-z
loop_
_atom_site_type_symbol
_atom_site_label
_atom_site_fract_x
_atom_site_fract_y
_atom_site_fract_z
Si Si1 0.505486 0.071962 0.261037
Si Si2 0.062906 0.753883 0.551260
Si Si3 0.574988 0.352408 0.797295
Si Si4 0.571957 0.605022 0.850947
Si Si5 0.917285 0.719643 0.159691
Si Si6 0.321713 0.311032 0.531343
Si Si7 0.968864 0.929478 0.759473
O O1 0.555438 0.197720 0.238618
O O2 0.500000 0.000000 0.500000
O O3 0.635708 0.880309 0.340715
O O4 0.287872 0.213111 0.991279
O O5 0.956977 0.751616 0.347392
O O6 0.958479 0.873246 0.598836
O O7 0.134764 0.852367 0.431055
O O8 0.228907 0.544734 0.848703
O O9 0.500000 0.500000 0.500000
O O10 0.524713 0.480408 0.853175
O O11 0.466896 0.281950 0.759395
O O12 0.805561 0.187913 0.018036
O O13 0.625472 0.649032 0.659470
O O14 0.102945 0.502275 0.342092
O O15 0.907151 0.857404 0.923493
#
# Coordination Sequence:
#
# PCOD9104672 Si02
#       7
#     2   2   2   2   2   2   2
#     4  10  24  42  69  95 134 180 221 273 336 398
#     4  10  21  37  63  99 137 169 221 279 333 389
#     4   9  15  34  64  87 130 169 205 278 327 363
#     4   9  19  40  61  91 137 177 205 276 338 377
#     4  12  22  40  72  97 124 184 227 262 342 403
#     4  10  20  40  68  97 130 174 223 275 325 396
#     4  10  20  39  62 101 138 172 218 281 332 395
#
# _framework density 27.601886
#
# number of rings (size 3 to 8) (size 9 to 14) (size 15 to 20)
#    0.000    2.000    4.286    1.286    0.000    2.857 
#    2.571    3.571   12.571    0.000    0.000    0.000 
#    0.000    0.000    0.000    0.000    0.000    0.000 
#
# Total GULP energy -78573.832299 kJ/mol
# GULP energy per Si atom -5612.416593 kJ/mol
# Density = 2.753906 g / cm^3
# Si number density = 27.601886 Si / 1000 Ang^3
#
#
#
# Elastic Constant Matrix: (Units=GPa)
#
#
# Indices 1 2 3 4 5 6 
#
# 1 129.3553 75.3072 43.6829 1.0173 2.5150 22.4414
# 2 75.3072 214.9124 89.7023 -0.7010 1.4424 40.5680
# 3 43.6829 89.7023 129.8998 15.6164 8.6805 16.7098
# 4 1.0173 -0.7010 15.6164 64.4582 -0.5667 -6.0780
# 5 2.5150 1.4424 8.6805 -0.5667 49.1495 -1.9276
# 6 22.4414 40.5680 16.7098 -6.0780 -1.9276 51.8367
#
#
#
# Elastic Compliance Matrix: (Units=1/GPa)
#
#
# Indices 1 2 3 4 5 6 
#
# 1 0.010024 -0.002611 -0.001299 -0.000053 -0.000282 -0.001894
# 2 -0.002611 0.008083 -0.004370 0.000847 0.000534 -0.003668
# 3 -0.001299 -0.004370 0.011650 -0.002883 -0.001903 -0.000182
# 4 -0.000053 0.000847 -0.002883 0.016441 0.000765 0.002246
# 5 -0.000282 0.000534 -0.001903 0.000765 0.020736 0.001178
# 6 -0.001894 -0.003668 -0.000182 0.002246 0.001178 0.023348
#
#
# Mechanical properties :
#
#
# Convention : Reuss Voigt Hill
#
# Bulk Modulus (GPa) = 75.76961 99.06139 87.41550
# Shear Modulus (GPa) = 44.94777 50.78722 47.86749
#
# Velocity S-wave (km/s) = 4.03976 4.29417 4.16890
# Velocity P-wave (km/s) = 7.01926 7.78163 7.41026
#
# Compressibility (1/GPa) = 0.01319790
#
# Stress axis : x y z
#
# Youngs Moduli (GPa) = 99.76188 123.71071 85.83925
#
# Poissons Ratio (x) = 0.32301 0.11150
# Poissons Ratio (y) = 0.26048 0.37508
# Poissons Ratio (z) = 0.12959 0.54056
#
# Static dielectric constant tensor:
#      x y z
#    x 2.232070 -0.014450 -0.027350 
#    y -0.014450 2.091680 0.004710 
#    z -0.027350 0.004710 2.097640 
# 
# From -- ./inp_files/305178.got.cif
#   From: 2010.05.17/outbox.cif.g08.bks.cpg/sg2_153_cif.got.tgz:305178.got - 2010.06.03 11:33:40.
