data_PCOD9104919
_publ_section_title
;
Structure prediction by ZEFSAII (Michael W. Deem and Ramdas Pophale) SiO2 
 PCOD9104919
Probable space group: P -1
;
_chemical_formula_sum "Si O2"
_cell_formula_units_Z 16
_cell_length_a 11.417480
_cell_length_b 9.047276
_cell_length_c 8.643464
_cell_angle_alpha 117.268332
_cell_angle_beta 98.926607
_cell_angle_gamma 102.016638
_cell_volume 743.298386
_symmetry_space_group_name_H-M "P -1"
_symmetry_group_IT_number 2
_symmetry_cell_setting 'triclinic'
loop_
_space_group_symop_operation_xyz
x,y,z
-x,-y,-z
loop_
_atom_site_type_symbol
_atom_site_label
_atom_site_fract_x
_atom_site_fract_y
_atom_site_fract_z
Si Si1 0.871108 0.525136 0.043641
Si Si2 0.509639 0.784591 0.421440
Si Si3 0.709858 0.375228 0.480064
Si Si4 0.116140 0.280524 0.149124
Si Si5 0.627579 0.217279 0.889646
Si Si6 0.906013 0.382513 0.298864
Si Si7 0.479282 0.591204 0.778810
Si Si8 0.692262 0.882165 0.777752
O O1 0.877825 0.511678 0.225160
O O2 0.867097 0.691504 0.019961
O O3 0.748079 0.360021 0.906331
O O4 0.000000 0.500000 0.000000
O O5 0.393921 0.757627 0.501680
O O6 0.476452 0.871519 0.303075
O O7 0.495151 0.587395 0.263027
O O8 0.638615 0.851257 0.575516
O O9 0.802537 0.528405 0.674078
O O10 0.785233 0.293700 0.336681
O O11 0.629030 0.461233 0.397271
O O12 0.174643 0.142720 0.171870
O O13 0.976376 0.263423 0.169566
O O14 0.677516 0.069541 0.904041
O O15 0.568783 0.316621 0.048198
O O16 0.000000 0.500000 0.500000
O O17 0.597236 0.732340 0.791368
#
# Coordination Sequence:
#
# PCOD9104919 Si02
#       8
#     2   2   2   2   2   2   2   2
#     4  10  20  37  59  87 113 150 204 245 283 348
#     4  11  21  37  61  87 118 161 200 243 284 358
#     4  10  16  33  59  83 107 146 203 239 278 335
#     4  10  18  36  59  85 114 154 196 244 287 348
#     4  12  23  36  58  92 121 155 195 250 302 342
#     4   9  19  32  59  90 107 144 196 254 285 333
#     4  11  20  36  59  81 119 155 202 238 286 354
#     4  11  22  38  57  89 128 155 189 241 308 353
#
# _framework density 21.525675
#
# number of rings (size 3 to 8) (size 9 to 14) (size 15 to 20)
#    0.000    1.500    5.000    1.875    0.000    0.000 
#    0.000    2.500    0.000    0.750    0.000    0.000 
#    0.000    0.000    0.000    0.000    0.000    0.000 
#
# Total GULP energy -89229.821883 kJ/mol
# GULP energy per Si atom -5576.863868 kJ/mol
# Density = 2.147668 g / cm^3
# Si number density = 21.525675 Si / 1000 Ang^3
#
#
#
# Elastic Constant Matrix: (Units=GPa)
#
#
# Indices 1 2 3 4 5 6 
#
# 1 90.1575 31.2830 25.9894 4.0464 -15.9001 -21.9452
# 2 31.2830 90.3676 32.1255 -2.1132 -12.5387 -33.9818
# 3 25.9894 32.1255 93.2833 -23.2296 -2.1436 -4.4970
# 4 4.0464 -2.1132 -23.2296 29.3707 -7.7276 10.8920
# 5 -15.9001 -12.5387 -2.1436 -7.7276 33.9070 -4.2449
# 6 -21.9452 -33.9818 -4.4970 10.8920 -4.2449 20.6947
#
#
#
# Elastic Compliance Matrix: (Units=1/GPa)
#
#
# Indices 1 2 3 4 5 6 
#
# 1 0.000411 -0.025675 0.012216 0.025423 -0.009547 -0.054408
# 2 -0.025675 -0.023095 0.022144 0.047347 -0.019565 -0.089270
# 3 0.012216 0.022144 -0.002016 -0.020665 0.016997 0.063241
# 4 0.025423 0.047347 -0.020665 -0.015185 0.039217 0.116251
# 5 -0.009547 -0.019565 0.016997 0.039217 0.020919 -0.054907
# 6 -0.054408 -0.089270 0.063241 0.116251 -0.054907 -0.214665
#
#
# Mechanical properties :
#
#
# Convention : Reuss Voigt Hill
#
# Bulk Modulus (GPa) = -136.44020 50.28936 -43.07542
# Shear Modulus (GPa) = -19.72807 29.08850 4.68022
#
# Velocity S-wave (km/s) = -3.03064 3.68005 1.47613
# Velocity P-wave (km/s) = 8.70453 6.43974 4.14117
#
# Compressibility (1/GPa) = -0.00732922
#
# Stress axis : x y z
#
# Youngs Moduli (GPa) = 2434.52430 -43.29974 -495.97236
#
# Poissons Ratio (x) = -1.11170 6.05887
# Poissons Ratio (y) = 62.50534 10.98279
# Poissons Ratio (z) = -29.74049 0.95883
#
# Static dielectric constant tensor:
#      x y z
#    x 1.821460 -0.030170 0.022540 
#    y -0.030170 1.803380 -0.004020 
#    z 0.022540 -0.004020 1.838580 
# 
# From -- ./inp_files/178729.got.cif
#   From: 2010.05.17/outbox.cif.g08.bks.cpg/sg2_90_cif.got.tgz:178729.got - 2010.06.03 11:33:40.
