data_PCOD9104266
_publ_section_title
;
Structure prediction by ZEFSAII (Michael W. Deem and Ramdas Pophale) SiO2 
 PCOD9104266
Probable space group: P -1
;
_chemical_formula_sum "Si O2"
_cell_formula_units_Z 16
_cell_length_a 23.809262
_cell_length_b 8.676538
_cell_length_c 13.963916
_cell_angle_alpha 70.286877
_cell_angle_beta 165.331153
_cell_angle_gamma 108.572657
_cell_volume 687.315503
_symmetry_space_group_name_H-M "P -1"
_symmetry_group_IT_number 2
_symmetry_cell_setting 'triclinic'
loop_
_space_group_symop_operation_xyz
x,y,z
-x,-y,-z
loop_
_atom_site_type_symbol
_atom_site_label
_atom_site_fract_x
_atom_site_fract_y
_atom_site_fract_z
Si Si1 0.294470 0.892639 0.260021
Si Si2 0.564803 0.467897 0.502187
Si Si3 0.474063 0.117533 0.841274
Si Si4 0.954174 0.716824 0.467568
Si Si5 0.917804 0.624756 0.920671
Si Si6 0.803677 0.387246 0.283466
Si Si7 0.207644 0.887874 0.333636
Si Si8 0.731334 0.044208 0.989435
O O1 0.403255 0.723322 0.434152
O O2 0.193578 0.861693 0.202429
O O3 0.150490 0.956969 0.919917
O O4 0.473471 0.029672 0.547860
O O5 0.500000 0.500000 0.500000
O O6 0.789054 0.549435 0.814626
O O7 0.377459 0.541450 0.106429
O O8 0.265413 0.248639 0.457816
O O9 0.422900 0.985471 0.700111
O O10 0.687257 0.231476 0.167780
O O11 0.500000 0.000000 0.000000
O O12 0.876309 0.551928 0.423807
O O13 0.982308 0.673017 0.411452
O O14 0.189475 0.791472 0.867380
O O15 0.798577 0.877447 0.189496
O O16 0.000000 0.500000 0.000000
O O17 0.140460 0.714870 0.302875
O O18 0.000000 0.000000 0.000000
#
# Coordination Sequence:
#
# PCOD9104266 Si02
#       8
#     2   2   2   2   2   2   2   2
#     4  11  21  39  64  93 135 168 223 271 341 399
#     4  11  22  39  68 100 134 173 222 274 345 397
#     4  10  23  44  66  96 131 183 232 280 347 410
#     4  10  20  39  59  91 134 173 213 270 338 399
#     4  10  21  43  71  98 137 175 229 293 335 406
#     4  10  21  40  62  89 136 173 216 277 336 394
#     4  10  22  41  67  92 127 178 228 280 340 398
#     4  10  22  36  62  97 130 170 215 273 336 401
#
# _framework density 23.278974000000002
#
# number of rings (size 3 to 8) (size 9 to 14) (size 15 to 20)
#    0.000    1.750    2.500    1.500    0.000    7.000 
#    6.750    0.625    0.000    0.000    0.000    0.000 
#    0.000    0.000    0.000    0.000    0.000    0.000 
#
# Total GULP energy -89134.357788 kJ/mol
# GULP energy per Si atom -5570.897362 kJ/mol
# Density = 2.322599 g / cm^3
# Si number density = 23.278974 Si / 1000 Ang^3
#
#
#
# Elastic Constant Matrix: (Units=GPa)
#
#
# Indices 1 2 3 4 5 6 
#
# 1 129.2199 64.6550 14.6604 4.1045 9.0654 4.3594
# 2 64.6550 192.1446 45.5355 41.7020 8.3006 15.8482
# 3 14.6604 45.5355 26.3685 8.2997 4.0810 3.4790
# 4 4.1045 41.7020 8.2997 52.5624 7.9325 5.9256
# 5 9.0654 8.3006 4.0810 7.9325 27.6786 5.0423
# 6 4.3594 15.8482 3.4790 5.9256 5.0423 46.3135
#
#
#
# Elastic Compliance Matrix: (Units=1/GPa)
#
#
# Indices 1 2 3 4 5 6 
#
# 1 0.009735 -0.004013 0.001094 0.002659 -0.002974 0.000358
# 2 -0.004013 0.011961 -0.016431 -0.006735 0.002423 -0.001883
# 3 0.001094 -0.016431 0.065454 0.003460 -0.006226 0.000838
# 4 0.002659 -0.006735 0.003460 0.024641 -0.006301 -0.000672
# 5 -0.002974 0.002423 -0.006226 -0.006301 0.039756 -0.003604
# 6 0.000358 -0.001883 0.000838 -0.000672 -0.003604 0.022618
#
#
# Mechanical properties :
#
#
# Convention : Reuss Voigt Hill
#
# Bulk Modulus (GPa) = 20.64008 66.38165 43.51087
# Shear Modulus (GPa) = 21.83255 40.16970 31.00113
#
# Velocity S-wave (km/s) = 3.06578 4.15852 3.65324
# Velocity P-wave (km/s) = 4.62792 7.18577 6.04371
#
# Compressibility (1/GPa) = 0.04844942
#
# Stress axis : x y z
#
# Youngs Moduli (GPa) = 102.72574 83.60439 15.27789
#
# Poissons Ratio (x) = 0.33551 -0.01671
# Poissons Ratio (y) = 0.41225 0.25103
# Poissons Ratio (z) = -0.11236 1.37369
#
# Static dielectric constant tensor:
#      x y z
#    x 1.933770 0.039490 -0.016840 
#    y 0.039490 1.963800 0.051160 
#    z -0.016840 0.051160 1.986240 
# 
# From -- ./inp_files/469966.got.cif
#   From: 2010.05.17/outbox.cif.g08.bks.cpg/sg2_235_cif.got.tgz:469966.got - 2010.06.03 11:33:40.
