data_PCOD9104525
_publ_section_title
;
Structure prediction by ZEFSAII (Michael W. Deem and Ramdas Pophale) SiO2 
 PCOD9104525
Probable space group: P -1
;
_chemical_formula_sum "Si O2"
_cell_formula_units_Z 16
_cell_length_a 8.720677
_cell_length_b 11.410183
_cell_length_c 10.892947
_cell_angle_alpha 93.712674
_cell_angle_beta 137.936856
_cell_angle_gamma 88.401864
_cell_volume 724.301943
_symmetry_space_group_name_H-M "P -1"
_symmetry_group_IT_number 2
_symmetry_cell_setting 'triclinic'
loop_
_space_group_symop_operation_xyz
x,y,z
-x,-y,-z
loop_
_atom_site_type_symbol
_atom_site_label
_atom_site_fract_x
_atom_site_fract_y
_atom_site_fract_z
Si Si1 0.331178 0.401119 0.329149
Si Si2 0.666408 0.940844 0.192138
Si Si3 0.465739 0.439641 0.132223
Si Si4 0.410897 0.289093 0.739501
Si Si5 0.633962 0.229572 0.622337
Si Si6 0.803359 0.082200 0.511270
Si Si7 0.103161 0.675739 0.563881
Si Si8 0.985637 0.428973 0.748903
O O1 0.500000 0.500000 0.500000
O O2 0.381277 0.401295 0.215499
O O3 0.411507 0.280822 0.425647
O O4 0.086498 0.450038 0.222713
O O5 0.607018 0.803343 0.166508
O O6 0.935137 0.956400 0.317663
O O7 0.664267 0.995501 0.332212
O O8 0.500000 0.000000 0.000000
O O9 0.696594 0.371615 0.236124
O O10 0.493314 0.420873 0.826547
O O11 0.252244 0.411640 0.917684
O O12 0.573437 0.236156 0.728693
O O13 0.149188 0.301616 0.535062
O O14 0.696943 0.111852 0.581350
O O15 0.843665 0.323151 0.724859
O O16 0.818898 0.204193 0.450836
O O17 0.081091 0.580148 0.433944
#
# Coordination Sequence:
#
# PCOD9104525 Si02
#       8
#     2   2   2   2   2   2   2   2
#     4  10  16  33  56  86 123 163 191 239 293 362
#     4  10  23  45  66  84 117 160 206 253 304 356
#     4  12  20  35  62  90 127 165 200 238 306 360
#     4  11  23  37  61  94 127 158 202 260 296 356
#     4  10  19  39  63  93 124 156 203 247 303 362
#     4   9  20  42  70  85 111 163 205 246 305 366
#     4  10  21  39  58  92 123 162 200 246 304 360
#     4  10  20  34  58  83 129 173 199 231 286 376
#
# _framework density 22.090235
#
# number of rings (size 3 to 8) (size 9 to 14) (size 15 to 20)
#    0.000    1.750    6.250    0.750    0.000    4.000 
#    0.000    8.125    0.000    0.000    0.000    0.000 
#    0.000    0.000    0.000    0.000    0.000    0.000 
#
# Total GULP energy -89428.516774 kJ/mol
# GULP energy per Si atom -5589.282298 kJ/mol
# Density = 2.203996 g / cm^3
# Si number density = 22.090235 Si / 1000 Ang^3
#
#
#
# Elastic Constant Matrix: (Units=GPa)
#
#
# Indices 1 2 3 4 5 6 
#
# 1 90.4387 24.0243 31.3265 0.8370 7.3018 -18.6990
# 2 24.0243 79.4653 31.7957 -9.6478 14.6824 -10.6894
# 3 31.3265 31.7957 102.8159 -24.8153 22.4039 -2.9669
# 4 0.8370 -9.6478 -24.8153 28.4485 -7.5792 -2.3505
# 5 7.3018 14.6824 22.4039 -7.5792 31.1596 -1.1570
# 6 -18.6990 -10.6894 -2.9669 -2.3505 -1.1570 39.1958
#
#
#
# Elastic Compliance Matrix: (Units=1/GPa)
#
#
# Indices 1 2 3 4 5 6 
#
# 1 0.014523 -0.002351 -0.004737 -0.004853 0.000139 0.005642
# 2 -0.002351 0.015818 -0.002590 0.002256 -0.004380 0.003002
# 3 -0.004737 -0.002590 0.016127 0.011489 -0.006517 -0.001249
# 4 -0.004853 0.002256 0.011489 0.047149 0.003360 0.002096
# 5 0.000139 -0.004380 -0.006517 0.003360 0.039618 -0.000250
# 6 0.005642 0.003002 -0.001249 0.002096 -0.000250 0.029047
#
#
# Mechanical properties :
#
#
# Convention : Reuss Voigt Hill
#
# Bulk Modulus (GPa) = 36.88339 49.66812 43.27575
# Shear Modulus (GPa) = 26.22259 32.13234 29.17746
#
# Velocity S-wave (km/s) = 3.44912 3.81805 3.63827
# Velocity P-wave (km/s) = 5.70919 6.47840 6.10592
#
# Compressibility (1/GPa) = 0.02711247
#
# Stress axis : x y z
#
# Youngs Moduli (GPa) = 68.85809 63.21806 62.00678
#
# Poissons Ratio (x) = 0.14865 0.29370
# Poissons Ratio (y) = 0.16192 0.16059
# Poissons Ratio (z) = 0.32615 0.16372
#
# Static dielectric constant tensor:
#      x y z
#    x 1.862180 -0.012310 0.001970 
#    y -0.012310 1.865150 0.012710 
#    z 0.001970 0.012710 1.804120 
# 
# From -- ./inp_files/207993.got.cif
#   From: 2010.05.17/outbox.cif.g08.bks.cpg/sg2_104_cif.got.tgz:207993.got - 2010.06.03 11:33:40.
