data_PCOD9104584
_publ_section_title
;
Structure prediction by ZEFSAII (Michael W. Deem and Ramdas Pophale) SiO2 
 PCOD9104584
Probable space group: P -1
;
_chemical_formula_sum "Si O2"
_cell_formula_units_Z 14
_cell_length_a 10.325560
_cell_length_b 8.874921
_cell_length_c 13.339310
_cell_angle_alpha 101.850592
_cell_angle_beta 80.850739
_cell_angle_gamma 147.966262
_cell_volume 634.293572
_symmetry_space_group_name_H-M "P -1"
_symmetry_group_IT_number 2
_symmetry_cell_setting 'triclinic'
loop_
_space_group_symop_operation_xyz
x,y,z
-x,-y,-z
loop_
_atom_site_type_symbol
_atom_site_label
_atom_site_fract_x
_atom_site_fract_y
_atom_site_fract_z
Si Si1 0.101088 0.087028 0.755174
Si Si2 0.753576 0.666531 0.020414
Si Si3 0.639716 0.418444 0.456543
Si Si4 0.127870 0.962156 0.403511
Si Si5 0.808617 0.514353 0.816192
Si Si6 0.590336 0.875825 0.352663
Si Si7 0.082717 0.550781 0.674481
O O1 0.304998 0.192063 0.684478
O O2 0.952226 0.046325 0.693003
O O3 0.222070 0.305912 0.859053
O O4 0.931448 0.786565 0.785273
O O5 0.756367 0.511415 0.935824
O O6 0.500000 0.500000 0.000000
O O7 0.000000 0.000000 0.000000
O O8 0.578046 0.280299 0.551059
O O9 0.698813 0.356949 0.350361
O O10 0.900250 0.760639 0.479673
O O11 0.400629 0.274153 0.437739
O O12 0.133071 0.778394 0.374727
O O13 0.565838 0.241871 0.743838
O O14 0.994064 0.556325 0.783021
O O15 0.821060 0.218540 0.377889
#
# Coordination Sequence:
#
# PCOD9104584 Si02
#       7
#     2   2   2   2   2   2   2
#     4  10  23  38  62  88 119 153 197 244 301 344
#     4  10  20  39  61  90 115 148 191 251 293 343
#     4  10  24  38  60  83 125 158 201 230 293 344
#     4  10  24  41  57  85 125 162 189 241 289 356
#     4  10  21  37  64  89 118 146 205 246 294 341
#     4  11  21  36  62  90 114 159 198 248 284 347
#     4   9  22  38  60  85 123 154 203 235 293 341
#
# _framework density 22.0718
#
# number of rings (size 3 to 8) (size 9 to 14) (size 15 to 20)
#    0.857    1.143    1.429    1.286    6.000    2.286 
#    0.000    0.714    0.000    1.714    0.000    0.000 
#    0.000    0.000    0.000    0.000    0.000    0.000 
#
# Total GULP energy -78035.397551 kJ/mol
# GULP energy per Si atom -5573.956968 kJ/mol
# Density = 2.202156 g / cm^3
# Si number density = 22.071800 Si / 1000 Ang^3
#
#
#
# Elastic Constant Matrix: (Units=GPa)
#
#
# Indices 1 2 3 4 5 6 
#
# 1 90.0868 45.9702 66.1617 9.9273 -24.1546 25.1193
# 2 45.9702 98.9952 39.1903 9.8108 -13.0659 9.9805
# 3 66.1617 39.1903 107.1247 15.0686 -14.9769 9.2046
# 4 9.9273 9.8108 15.0686 22.5737 9.3627 -1.3151
# 5 -24.1546 -13.0659 -14.9769 9.3627 37.4673 -3.1769
# 6 25.1193 9.9805 9.2046 -1.3151 -3.1769 37.5200
#
#
#
# Elastic Compliance Matrix: (Units=1/GPa)
#
#
# Indices 1 2 3 4 5 6 
#
# 1 0.034582 -0.005541 -0.014043 -0.011092 0.016057 -0.017263
# 2 -0.005541 0.013554 -0.000807 -0.003629 0.001767 0.000324
# 3 -0.014043 -0.000807 0.018673 -0.005635 -0.000052 0.004833
# 4 -0.011092 -0.003629 -0.005635 0.066010 -0.026328 0.009858
# 5 0.016057 0.001767 -0.000052 -0.026328 0.043500 -0.008447
# 6 -0.017263 0.000324 0.004833 0.009858 -0.008447 0.036568
#
#
# Mechanical properties :
#
#
# Convention : Reuss Voigt Hill
#
# Bulk Modulus (GPa) = 38.41989 66.53898 52.47943
# Shear Modulus (GPa) = 19.05885 29.17117 24.11501
#
# Velocity S-wave (km/s) = 2.94171 3.63939 3.30899
# Velocity P-wave (km/s) = 5.38357 6.91898 6.19900
#
# Compressibility (1/GPa) = 0.02602818
#
# Stress axis : x y z
#
# Youngs Moduli (GPa) = 28.91648 73.77904 53.55196
#
# Poissons Ratio (x) = 0.40878 0.75204
# Poissons Ratio (y) = 0.16021 0.04322
# Poissons Ratio (z) = 0.40608 0.05954
#
# Static dielectric constant tensor:
#      x y z
#    x 1.833660 0.006750 -0.052030 
#    y 0.006750 1.909620 0.033200 
#    z -0.052030 0.033200 1.823750 
# 
# From -- ./inp_files/92197.got.cif
#   From: 2010.05.17/outbox.cif.g08.bks.cpg/sg2_47_cif.got.tgz:92197.got - 2010.06.03 11:33:40.
