data_PCOD9104103
_publ_section_title
;
Structure prediction by ZEFSAII (Michael W. Deem and Ramdas Pophale) SiO2 
 PCOD9104103
Probable space group: P -1
;
_chemical_formula_sum "Si O2"
_cell_formula_units_Z 15
_cell_length_a 5.917899
_cell_length_b 17.642804
_cell_length_c 9.281905
_cell_angle_alpha 42.041455
_cell_angle_beta 87.138911
_cell_angle_gamma 104.321197
_cell_volume 586.642174
_symmetry_space_group_name_H-M "P -1"
_symmetry_group_IT_number 2
_symmetry_cell_setting 'triclinic'
loop_
_space_group_symop_operation_xyz
x,y,z
-x,-y,-z
loop_
_atom_site_type_symbol
_atom_site_label
_atom_site_fract_x
_atom_site_fract_y
_atom_site_fract_z
Si Si1 0.016672 0.322519 0.156048
Si Si2 0.236735 0.004819 0.169410
Si Si3 0.000000 0.000000 0.500000
Si Si4 0.753355 0.808306 0.342541
Si Si5 0.478288 0.107632 0.515323
Si Si6 0.365435 0.614308 0.447362
Si Si7 0.083098 0.447080 0.270272
Si Si8 0.591761 0.625250 0.145462
O O1 0.748977 0.208438 0.312483
O O2 0.089658 0.355517 0.273518
O O3 0.026415 0.455441 0.919552
O O4 0.196125 0.288590 0.092816
O O5 0.474147 0.989071 0.245572
O O6 0.045793 0.878422 0.271549
O O7 0.089983 0.018164 0.296747
O O8 0.289336 0.108290 0.900674
O O9 0.289272 0.046764 0.478787
O O10 0.617416 0.814770 0.484334
O O11 0.593974 0.673552 0.468576
O O12 0.474197 0.675417 0.204045
O O13 0.304220 0.466436 0.649656
O O14 0.118298 0.624509 0.497659
O O15 0.356754 0.541230 0.175853
#
# Coordination Sequence:
#
# PCOD9104103 Si02
#       8
#     2   2   1   2   2   2   2   2
#     4  10  22  36  60  91 121 162 214 253 316 379
#     4  10  23  41  64  93 126 163 215 269 319 385
#     4  10  24  44  64  92 128 158 214 280 324 374
#     4  10  22  40  63  91 126 170 216 263 316 383
#     4  11  22  42  66  93 123 172 214 267 326 384
#     4  10  21  38  60  90 127 168 210 256 317 372
#     4  10  20  39  57  88 129 163 207 261 304 384
#     4  10  22  37  59  93 128 164 210 260 309 386
#
# _framework density 25.569247000000001
#
# number of rings (size 3 to 8) (size 9 to 14) (size 15 to 20)
#    0.000    1.867    1.333    1.600    1.867    4.267 
#    0.000    2.667    0.000    0.000    0.000    0.000 
#    0.000    0.000    0.000    0.000    0.000    0.000 
#
# Total GULP energy -83649.291130 kJ/mol
# GULP energy per Si atom -5576.619409 kJ/mol
# Density = 2.551105 g / cm^3
# Si number density = 25.569247 Si / 1000 Ang^3
#
#
#
# Elastic Constant Matrix: (Units=GPa)
#
#
# Indices 1 2 3 4 5 6 
#
# 1 67.2818 31.2030 33.4697 13.6632 -17.0956 32.1823
# 2 31.2030 93.5880 36.0743 17.6271 -3.1231 40.7069
# 3 33.4697 36.0743 106.7564 28.2366 -22.2895 4.1744
# 4 13.6632 17.6271 28.2366 31.3246 -9.6948 -2.0403
# 5 -17.0956 -3.1231 -22.2895 -9.6948 47.2882 -8.1064
# 6 32.1823 40.7069 4.1744 -2.0403 -8.1064 53.9383
#
#
#
# Elastic Compliance Matrix: (Units=1/GPa)
#
#
# Indices 1 2 3 4 5 6 
#
# 1 0.027579 0.002595 -0.006082 -0.008403 0.002486 -0.017887
# 2 0.002595 0.022532 -0.005840 -0.011689 -0.006058 -0.019454
# 3 -0.006082 -0.005840 0.015583 -0.006161 0.004751 0.007311
# 4 -0.008403 -0.011689 -0.006161 0.050910 0.006679 0.017241
# 5 0.002486 -0.006058 0.004751 0.006679 0.026445 0.006948
# 6 -0.017887 -0.019454 0.007311 0.017241 0.006948 0.045024
#
#
# Mechanical properties :
#
#
# Convention : Reuss Voigt Hill
#
# Bulk Modulus (GPa) = 21.25880 52.12449 36.69164
# Shear Modulus (GPa) = 22.48134 37.63550 30.05842
#
# Velocity S-wave (km/s) = 2.96840 3.84070 3.43238
# Velocity P-wave (km/s) = 4.48116 6.33229 5.48538
#
# Compressibility (1/GPa) = 0.04703935
#
# Stress axis : x y z
#
# Youngs Moduli (GPa) = 36.25996 44.38167 64.17274
#
# Poissons Ratio (x) = -0.11518 0.39032
# Poissons Ratio (y) = -0.09410 0.37476
# Poissons Ratio (z) = 0.22055 0.25918
#
# Static dielectric constant tensor:
#      x y z
#    x 2.026790 -0.087300 0.045880 
#    y -0.087300 2.012540 -0.023940 
#    z 0.045880 -0.023940 2.079630 
# 
# From -- ./inp_files/137356.got.cif
#   From: 2010.05.17/outbox.cif.g08.bks.cpg/sg2_69_cif.got.tgz:137356.got - 2010.06.03 11:33:40.
