data_PCOD9104860
_publ_section_title
;
Structure prediction by ZEFSAII (Michael W. Deem and Ramdas Pophale) SiO2 
 PCOD9104860
Probable space group: P -1
;
_chemical_formula_sum "Si O2"
_cell_formula_units_Z 16
_cell_length_a 15.328882
_cell_length_b 8.366291
_cell_length_c 6.390448
_cell_angle_alpha 99.718695
_cell_angle_beta 57.266130
_cell_angle_gamma 100.822121
_cell_volume 674.887302
_symmetry_space_group_name_H-M "P -1"
_symmetry_group_IT_number 2
_symmetry_cell_setting 'triclinic'
loop_
_space_group_symop_operation_xyz
x,y,z
-x,-y,-z
loop_
_atom_site_type_symbol
_atom_site_label
_atom_site_fract_x
_atom_site_fract_y
_atom_site_fract_z
Si Si1 0.839989 0.553614 0.238256
Si Si2 0.748635 0.975137 0.137466
Si Si3 0.429568 0.828332 0.517450
Si Si4 0.977864 0.370944 0.311438
Si Si5 0.674725 0.406824 0.091269
Si Si6 0.831271 0.151936 0.704545
Si Si7 0.402478 0.292951 0.985279
Si Si8 0.258188 0.174940 0.462318
O O1 0.887478 0.416776 0.281861
O O2 0.734976 0.490870 0.234587
O O3 0.818538 0.691900 0.465133
O O4 0.922992 0.617835 0.966183
O O5 0.672774 0.854800 0.060431
O O6 0.767462 0.854057 0.269196
O O7 0.683783 0.113199 0.350029
O O8 0.840385 0.073435 0.906190
O O9 0.417724 0.717134 0.715234
O O10 0.481757 0.734402 0.244067
O O11 0.500000 0.000000 0.500000
O O12 0.935021 0.207890 0.454180
O O13 0.000000 0.500000 0.500000
O O14 0.631917 0.539622 0.025135
O O15 0.759751 0.300131 0.854260
O O16 0.767655 0.003516 0.634526
O O17 0.371300 0.257441 0.258625
#
# Coordination Sequence:
#
# PCOD9104860 Si02
#       8
#     2   2   2   2   2   2   2   2
#     4  11  25  41  68  96 125 168 213 266 317 374
#     4   9  20  39  62  90 130 164 213 262 312 373
#     4   9  20  37  64  94 130 173 210 261 317 370
#     4  11  24  44  68  95 129 161 214 267 318 386
#     4  11  20  41  68  91 130 170 216 264 312 378
#     4  10  23  38  65  93 123 171 208 256 329 375
#     4  10  20  39  62  92 126 174 212 259 313 369
#     4  11  23  40  65  92 129 168 213 261 315 384
#
# _framework density 23.707659
#
# number of rings (size 3 to 8) (size 9 to 14) (size 15 to 20)
#    0.000    1.750    2.500    1.875    3.500    1.000 
#    0.000    1.875    0.000    0.000    0.000    0.000 
#    0.000    0.000    0.000    0.000    0.000    0.000 
#
# Total GULP energy -89277.352306 kJ/mol
# GULP energy per Si atom -5579.834519 kJ/mol
# Density = 2.365370 g / cm^3
# Si number density = 23.707659 Si / 1000 Ang^3
#
#
#
# Elastic Constant Matrix: (Units=GPa)
#
#
# Indices 1 2 3 4 5 6 
#
# 1 35.8341 26.9821 10.9791 -10.6009 9.4305 -3.1358
# 2 26.9821 119.4811 42.9768 -16.4379 -4.8280 0.7645
# 3 10.9791 42.9768 107.5968 -32.8242 -2.1435 3.5866
# 4 -10.6009 -16.4379 -32.8242 61.2668 2.5075 -7.0572
# 5 9.4305 -4.8280 -2.1435 2.5075 15.1538 -1.2099
# 6 -3.1358 0.7645 3.5866 -7.0572 -1.2099 13.1885
#
#
#
# Elastic Compliance Matrix: (Units=1/GPa)
#
#
# Indices 1 2 3 4 5 6 
#
# 1 0.049530 -0.011905 0.001323 0.009098 -0.034835 0.013780
# 2 -0.011905 0.012765 -0.004052 -0.001517 0.010972 -0.002274
# 3 0.001323 -0.004052 0.012559 0.005946 -0.001306 0.000196
# 4 0.009098 -0.001517 0.005946 0.022372 -0.008059 0.011866
# 5 -0.034835 0.010972 -0.001306 -0.008059 0.091959 -0.004439
# 6 0.013780 -0.002274 0.000196 0.011866 -0.004439 0.085121
#
#
# Mechanical properties :
#
#
# Convention : Reuss Voigt Hill
#
# Bulk Modulus (GPa) = 21.93669 47.19868 34.56769
# Shear Modulus (GPa) = 15.68533 30.05340 22.86937
#
# Velocity S-wave (km/s) = 2.57498 3.56429 3.10924
# Velocity P-wave (km/s) = 4.25603 6.07378 5.24426
#
# Compressibility (1/GPa) = 0.04558573
#
# Stress axis : x y z
#
# Youngs Moduli (GPa) = 20.18963 78.34004 79.62443
#
# Poissons Ratio (x) = 0.93268 -0.10538
# Poissons Ratio (y) = 0.24037 0.32266
# Poissons Ratio (z) = -0.02672 0.31745
#
# Static dielectric constant tensor:
#      x y z
#    x 1.933720 0.013650 0.047560 
#    y 0.013650 1.908430 -0.004730 
#    z 0.047560 -0.004730 2.028440 
# 
# From -- ./inp_files/107074.got.cif
#   From: 2010.05.17/outbox.cif.g08.bks.cpg/sg2_54_cif.got.tgz:107074.got - 2010.06.03 11:33:40.
