data_PCOD9104547
_publ_section_title
;
Structure prediction by ZEFSAII (Michael W. Deem and Ramdas Pophale) SiO2 
 PCOD9104547
Probable space group: P -1
;
_chemical_formula_sum "Si O2"
_cell_formula_units_Z 14
_cell_length_a 8.692506
_cell_length_b 11.060368
_cell_length_c 10.680831
_cell_angle_alpha 39.601871
_cell_angle_beta 118.686938
_cell_angle_gamma 94.497308
_cell_volume 490.083824
_symmetry_space_group_name_H-M "P -1"
_symmetry_group_IT_number 2
_symmetry_cell_setting 'triclinic'
loop_
_space_group_symop_operation_xyz
x,y,z
-x,-y,-z
loop_
_atom_site_type_symbol
_atom_site_label
_atom_site_fract_x
_atom_site_fract_y
_atom_site_fract_z
Si Si1 0.156455 0.698099 0.962121
Si Si2 0.229400 0.083911 0.690808
Si Si3 0.784986 0.375630 0.656994
Si Si4 0.872198 0.558860 0.244466
Si Si5 0.265686 0.091873 0.308214
Si Si6 0.575900 0.142939 0.794016
Si Si7 0.574278 0.402453 0.245853
O O1 0.926837 0.758632 0.793328
O O2 0.189668 0.897031 0.774196
O O3 0.163185 0.690187 0.122714
O O4 0.359957 0.477620 0.171638
O O5 0.430035 0.076139 0.720695
O O6 0.032591 0.329332 0.419399
O O7 0.295497 0.023479 0.911705
O O8 0.718432 0.205257 0.721414
O O9 0.589870 0.624445 0.389818
O O10 0.979260 0.375657 0.676721
O O11 0.694508 0.518093 0.255836
O O12 0.774137 0.754918 0.949181
O O13 0.500000 0.000000 0.500000
O O14 0.269746 0.860793 0.485391
O O15 0.500000 0.500000 0.000000
#
# Coordination Sequence:
#
# PCOD9104547 Si02
#       7
#     2   2   2   2   2   2   2
#     4  10  22  39  65  92 126 166 210 250 311 375
#     4   9  16  33  62  94 120 164 206 248 309 368
#     4   8  16  33  58  94 122 162 206 249 307 366
#     4  10  20  39  61  88 126 165 201 254 314 356
#     4  11  23  44  61  91 121 161 212 263 314 364
#     4   8  14  28  61  94 120 157 207 247 306 367
#     4  12  25  44  62  90 127 165 210 264 308 365
#
# _framework density 28.56654
#
# number of rings (size 3 to 8) (size 9 to 14) (size 15 to 20)
#    0.000    2.286    2.857    0.000    0.000    1.143 
#    7.714    0.000    0.000   32.571    0.000    0.000 
#    0.000    0.000    0.000    0.000    0.000    0.000 
#
# Total GULP energy -78465.047983 kJ/mol
# GULP energy per Si atom -5604.646285 kJ/mol
# Density = 2.850152 g / cm^3
# Si number density = 28.566540 Si / 1000 Ang^3
#
#
#
# Elastic Constant Matrix: (Units=GPa)
#
#
# Indices 1 2 3 4 5 6 
#
# 1 204.4407 49.2710 50.1913 -3.9657 14.2278 47.1602
# 2 49.2710 58.5908 29.4220 1.7367 10.4940 14.8867
# 3 50.1913 29.4220 195.0782 -16.2752 5.4264 9.9670
# 4 -3.9657 1.7367 -16.2752 46.5311 17.6244 2.2022
# 5 14.2278 10.4940 5.4264 17.6244 56.5341 -1.0697
# 6 47.1602 14.8867 9.9670 2.2022 -1.0697 56.1942
#
#
#
# Elastic Compliance Matrix: (Units=1/GPa)
#
#
# Indices 1 2 3 4 5 6 
#
# 1 0.007427 -0.004314 -0.000854 0.001295 -0.001485 -0.005017
# 2 -0.004314 0.022847 -0.002229 -0.000878 -0.002707 -0.002054
# 3 -0.000854 -0.002229 0.005885 0.002308 -0.000653 0.000161
# 4 0.001295 -0.000878 0.002308 0.025762 -0.008462 -0.002434
# 5 -0.001485 -0.002707 -0.000653 -0.008462 0.021318 0.002816
# 6 -0.005017 -0.002054 0.000161 -0.002434 0.002816 0.022671
#
#
# Mechanical properties :
#
#
# Convention : Reuss Voigt Hill
#
# Bulk Modulus (GPa) = 46.80781 79.54201 63.17491
# Shear Modulus (GPa) = 39.11587 53.80026 46.45807
#
# Velocity S-wave (km/s) = 3.70441 4.34444 4.03713
# Velocity P-wave (km/s) = 5.89219 7.28495 6.62527
#
# Compressibility (1/GPa) = 0.02136395
#
# Stress axis : x y z
#
# Youngs Moduli (GPa) = 134.64899 43.76912 169.93318
#
# Poissons Ratio (x) = 0.18882 0.14520
# Poissons Ratio (y) = 0.58086 0.37877
# Poissons Ratio (z) = 0.11505 0.09756
#
# Static dielectric constant tensor:
#      x y z
#    x 2.254740 0.034510 -0.061510 
#    y 0.034510 2.302660 0.108260 
#    z -0.061510 0.108260 2.226270 
# 
# From -- ./inp_files/503698.got.cif
#   From: 2010.05.17/outbox.cif.g08.bks.cpg/sg2_252_cif.got.tgz:503698.got - 2010.06.03 11:33:40.
