data_PCOD9104392
_publ_section_title
;
Structure prediction by ZEFSAII (Michael W. Deem and Ramdas Pophale) SiO2 
 PCOD9104392
Probable space group: P -1
;
_chemical_formula_sum "Si O2"
_cell_formula_units_Z 16
_cell_length_a 11.742281
_cell_length_b 9.952821
_cell_length_c 19.039095
_cell_angle_alpha 33.805048
_cell_angle_beta 147.922958
_cell_angle_gamma 141.025659
_cell_volume 636.852501
_symmetry_space_group_name_H-M "P -1"
_symmetry_group_IT_number 2
_symmetry_cell_setting 'triclinic'
loop_
_space_group_symop_operation_xyz
x,y,z
-x,-y,-z
loop_
_atom_site_type_symbol
_atom_site_label
_atom_site_fract_x
_atom_site_fract_y
_atom_site_fract_z
Si Si1 0.296547 0.881150 0.172710
Si Si2 0.800459 0.601412 0.270086
Si Si3 0.355111 0.380620 0.361266
Si Si4 0.584354 0.255742 0.076983
Si Si5 0.913391 0.021348 0.836048
Si Si6 0.465328 0.906418 0.602104
Si Si7 0.893557 0.364514 0.075891
Si Si8 0.444762 0.233254 0.813925
O O1 0.355978 0.616266 0.309609
O O2 0.157013 0.889551 0.165474
O O3 0.494240 0.138362 0.157096
O O4 0.123710 0.904251 0.008391
O O5 0.741294 0.320286 0.388668
O O6 0.760533 0.761276 0.246703
O O7 0.020102 0.743377 0.283896
O O8 0.608696 0.625959 0.104134
O O9 0.494023 0.515463 0.308679
O O10 0.103409 0.266956 0.253536
O O11 0.447269 0.148279 0.532842
O O12 0.806594 0.425358 0.083628
O O13 0.589438 0.988125 0.162483
O O14 0.695035 0.836047 0.771537
O O15 0.500000 0.000000 0.500000
O O16 0.654811 0.236003 0.972204
O O17 0.000000 0.500000 0.000000
#
# Coordination Sequence:
#
# PCOD9104392 Si02
#       8
#     2   2   2   2   2   2   2   2
#     4   9  21  45  68  88 117 165 220 258 308 360
#     4  10  20  39  60  91 125 164 206 250 323 367
#     4  10  21  37  58  90 123 161 206 245 310 380
#     4   9  18  34  61  93 116 157 211 261 314 359
#     4  10  24  45  67  91 124 166 211 269 306 364
#     4  12  26  41  60  95 136 166 202 253 323 381
#     4   9  17  28  53  88 121 151 197 260 302 354
#     4   9  17  34  58  87 123 154 206 259 308 369
#
# _framework density 25.123557000000002
#
# number of rings (size 3 to 8) (size 9 to 14) (size 15 to 20)
#    0.000    2.250    1.250    1.500    3.500    6.000 
#    6.750    2.500    0.000    0.000    0.000    0.000 
#    0.000    0.000    0.000    0.000    0.000    0.000 
#
# Total GULP energy -89139.691056 kJ/mol
# GULP energy per Si atom -5571.230691 kJ/mol
# Density = 2.506637 g / cm^3
# Si number density = 25.123557 Si / 1000 Ang^3
#
#
#
# Elastic Constant Matrix: (Units=GPa)
#
#
# Indices 1 2 3 4 5 6 
#
# 1 148.9641 40.3362 6.6729 -16.6537 6.8581 28.6608
# 2 40.3362 91.4054 21.9667 -21.1242 -6.0691 23.1995
# 3 6.6729 21.9667 76.6999 -17.6333 6.3181 4.4459
# 4 -16.6537 -21.1242 -17.6333 44.7783 1.7683 2.3356
# 5 6.8581 -6.0691 6.3181 1.7683 17.3802 -5.4694
# 6 28.6608 23.1995 4.4459 2.3356 -5.4694 53.9957
#
#
#
# Elastic Compliance Matrix: (Units=1/GPa)
#
#
# Indices 1 2 3 4 5 6 
#
# 1 0.008954 -0.002953 0.001594 0.003067 -0.006854 -0.004442
# 2 -0.002953 0.015751 -0.003324 0.005026 0.005933 -0.004542
# 3 0.001594 -0.003324 0.016011 0.005775 -0.008788 -0.001876
# 4 0.003067 0.005026 0.005775 0.028692 -0.006410 -0.006153
# 5 -0.006854 0.005933 -0.008788 -0.006410 0.069018 0.009081
# 6 -0.004442 -0.004542 -0.001876 -0.006153 0.009081 0.024170
#
#
# Mechanical properties :
#
#
# Convention : Reuss Voigt Hill
#
# Bulk Modulus (GPa) = 31.89808 50.55789 41.22799
# Shear Modulus (GPa) = 27.41031 39.77041 33.59036
#
# Velocity S-wave (km/s) = 3.30664 3.98300 3.66048
# Velocity P-wave (km/s) = 5.22519 6.42805 5.85757
#
# Compressibility (1/GPa) = 0.03134985
#
# Stress axis : x y z
#
# Youngs Moduli (GPa) = 111.67588 63.48929 62.45530
#
# Poissons Ratio (x) = 0.18751 -0.09956
# Poissons Ratio (y) = 0.32982 0.20760
# Poissons Ratio (z) = -0.17801 0.21104
#
# Static dielectric constant tensor:
#      x y z
#    x 2.090250 0.001330 -0.037500 
#    y 0.001330 2.205280 -0.056730 
#    z -0.037500 -0.056730 1.980760 
# 
# From -- ./inp_files/595083.got.cif
#   From: 2010.05.17/outbox.cif.g08.bks.cpg/sg2_298_cif.got.tgz:595083.got - 2010.06.03 11:33:40.
