data_PCOD9104859
_publ_section_title
;
Structure prediction by ZEFSAII (Michael W. Deem and Ramdas Pophale) SiO2 
 PCOD9104859
Probable space group: P -1
;
_chemical_formula_sum "Si O2"
_cell_formula_units_Z 16
_cell_length_a 14.643499
_cell_length_b 9.297344
_cell_length_c 9.022358
_cell_angle_alpha 133.450551
_cell_angle_beta 53.793940
_cell_angle_gamma 107.802216
_cell_volume 708.878770
_symmetry_space_group_name_H-M "P -1"
_symmetry_group_IT_number 2
_symmetry_cell_setting 'triclinic'
loop_
_space_group_symop_operation_xyz
x,y,z
-x,-y,-z
loop_
_atom_site_type_symbol
_atom_site_label
_atom_site_fract_x
_atom_site_fract_y
_atom_site_fract_z
Si Si1 0.009613 0.565990 0.788000
Si Si2 0.827867 0.138727 0.830756
Si Si3 0.342705 0.576805 0.996823
Si Si4 0.849787 0.433516 0.609022
Si Si5 0.496716 0.887555 0.078296
Si Si6 0.618929 0.902577 0.395266
Si Si7 0.918416 0.766496 0.296315
Si Si8 0.256529 0.107952 0.007779
O O1 0.938399 0.432822 0.660197
O O2 0.091016 0.423477 0.724158
O O3 0.084413 0.667417 0.669766
O O4 0.920381 0.708409 0.080614
O O5 0.733918 0.321182 0.993597
O O6 0.952271 0.196468 0.770507
O O7 0.796544 0.044954 0.948581
O O8 0.837071 0.962269 0.573336
O O9 0.264351 0.627585 0.255971
O O10 0.457633 0.671809 0.954101
O O11 0.367159 0.337814 0.791191
O O12 0.817399 0.669662 0.764520
O O13 0.398603 0.016696 0.365673
O O14 0.620751 0.873441 0.023816
O O15 0.500000 0.000000 0.000000
O O16 0.500000 0.000000 0.500000
O O17 0.717716 0.957581 0.233010
#
# Coordination Sequence:
#
# PCOD9104859 Si02
#       8
#     2   2   2   2   2   2   2   2
#     4  10  20  39  62  92 126 169 214 259 329 381
#     4  11  21  40  61  95 130 167 210 271 316 380
#     4  11  23  41  68  95 129 170 219 259 325 382
#     4  10  21  39  63  92 129 168 206 270 318 380
#     4  11  23  43  66  96 127 171 214 266 320 383
#     4   9  23  43  64  91 127 166 210 271 320 375
#     4  10  22  37  63  93 128 167 213 267 317 386
#     4  10  21  41  62  89 132 166 208 267 321 370
#
# _framework density 22.570855000000002
#
# number of rings (size 3 to 8) (size 9 to 14) (size 15 to 20)
#    0.000    1.750    3.750    0.000    0.000    8.000 
#    2.250    1.250    0.000    0.000    0.000    0.000 
#    0.000    0.000    0.000    0.000    0.000    0.000 
#
# Total GULP energy -89422.892312 kJ/mol
# GULP energy per Si atom -5588.930769 kJ/mol
# Density = 2.251948 g / cm^3
# Si number density = 22.570855 Si / 1000 Ang^3
#
#
#
# Elastic Constant Matrix: (Units=GPa)
#
#
# Indices 1 2 3 4 5 6 
#
# 1 61.1689 13.7162 10.0026 -5.1957 -2.3544 -12.2289
# 2 13.7162 128.3068 42.3711 -20.9430 1.9906 -19.6550
# 3 10.0026 42.3711 118.4302 -18.8032 16.5186 -22.9084
# 4 -5.1957 -20.9430 -18.8032 39.4495 -7.9684 1.9859
# 5 -2.3544 1.9906 16.5186 -7.9684 23.9933 -3.4408
# 6 -12.2289 -19.6550 -22.9084 1.9859 -3.4408 29.0256
#
#
#
# Elastic Compliance Matrix: (Units=1/GPa)
#
#
# Indices 1 2 3 4 5 6 
#
# 1 0.018351 -0.000410 -0.000039 0.002564 0.003817 0.007700
# 2 -0.000410 0.010033 -0.002308 0.004516 0.002910 0.004835
# 3 -0.000039 -0.002308 0.011911 0.002873 -0.006068 0.006905
# 4 0.002564 0.004516 0.002873 0.030994 0.008959 0.005348
# 5 0.003817 0.002910 -0.006068 0.008959 0.049546 0.004050
# 6 0.007700 0.004835 0.006905 0.005348 0.004050 0.046535
#
#
# Mechanical properties :
#
#
# Convention : Reuss Voigt Hill
#
# Bulk Modulus (GPa) = 28.75236 48.89840 38.82538
# Shear Modulus (GPa) = 27.10359 34.61473 30.85916
#
# Velocity S-wave (km/s) = 3.46905 3.92037 3.70160
# Velocity P-wave (km/s) = 5.36769 6.49645 5.95886
#
# Compressibility (1/GPa) = 0.03477976
#
# Stress axis : x y z
#
# Youngs Moduli (GPa) = 54.49405 99.67469 83.95368
#
# Poissons Ratio (x) = 0.04086 0.00329
# Poissons Ratio (y) = 0.02234 0.19379
# Poissons Ratio (z) = 0.00213 0.23008
#
# Static dielectric constant tensor:
#      x y z
#    x 1.887750 -0.034540 0.010610 
#    y -0.034540 1.875180 -0.004230 
#    z 0.010610 -0.004230 1.890420 
# 
# From -- ./inp_files/297456.got.cif
#   From: 2010.05.17/outbox.cif.g08.bks.cpg/sg2_149_cif.got.tgz:297456.got - 2010.06.03 11:33:40.
