data_PCOD9104173
_publ_section_title
;
Structure prediction by ZEFSAII (Michael W. Deem and Ramdas Pophale) SiO2 
 PCOD9104173
Probable space group: P -1
;
_chemical_formula_sum "Si O2"
_cell_formula_units_Z 16
_cell_length_a 20.138543
_cell_length_b 11.647366
_cell_length_c 5.611667
_cell_angle_alpha 93.360818
_cell_angle_beta 73.959118
_cell_angle_gamma 42.352830
_cell_volume 778.865319
_symmetry_space_group_name_H-M "P -1"
_symmetry_group_IT_number 2
_symmetry_cell_setting 'triclinic'
loop_
_space_group_symop_operation_xyz
x,y,z
-x,-y,-z
loop_
_atom_site_type_symbol
_atom_site_label
_atom_site_fract_x
_atom_site_fract_y
_atom_site_fract_z
Si Si1 0.624721 0.895088 0.819490
Si Si2 0.932368 0.968337 0.039810
Si Si3 0.271226 0.462074 0.193494
Si Si4 0.595978 0.148871 0.139146
Si Si5 0.396710 0.519383 0.171961
Si Si6 0.324857 0.719655 0.757052
Si Si7 0.515529 0.848147 0.387590
Si Si8 0.015976 0.840637 0.440952
O O1 0.708290 0.679848 0.688449
O O2 0.597096 0.011915 0.639947
O O3 0.500000 0.000000 0.000000
O O4 0.654958 0.950945 0.991798
O O5 0.978725 0.845488 0.740211
O O6 0.949354 0.890365 0.275487
O O7 0.801831 0.156365 0.140400
O O8 0.000000 0.000000 0.000000
O O9 0.308217 0.531004 0.290758
O O10 0.145716 0.639889 0.252543
O O11 0.365725 0.321948 0.878894
O O12 0.522505 0.303647 0.021168
O O13 0.668326 0.152380 0.188293
O O14 0.495857 0.233382 0.415164
O O15 0.386867 0.608487 0.432944
O O16 0.369575 0.607344 0.949072
O O17 0.500000 0.000000 0.500000
O O18 0.000000 0.000000 0.500000
#
# Coordination Sequence:
#
# PCOD9104173 Si02
#       8
#     2   2   2   2   2   2   2   2
#     4  10  20  39  58  92 123 165 217 259 309 371
#     4  10  20  41  60  85 120 158 216 266 305 371
#     4  11  21  39  67  98 126 167 218 269 322 370
#     4  12  24  39  59  90 137 170 212 259 313 396
#     4  12  23  40  60  95 133 172 210 253 318 404
#     4  12  27  40  63  93 132 179 208 257 337 380
#     4  11  20  38  63  93 130 169 216 263 306 386
#     4  10  21  37  63  92 121 156 209 274 318 363
#
# _framework density 20.542705000000002
#
# number of rings (size 3 to 8) (size 9 to 14) (size 15 to 20)
#    0.000    1.000    5.000    5.250    1.750    2.000 
#    0.000    0.000    0.000    1.500    0.000    0.000 
#    0.000    0.000    0.000    0.000    0.000    0.000 
#
# Total GULP energy -89131.119477 kJ/mol
# GULP energy per Si atom -5570.694967 kJ/mol
# Density = 2.049595 g / cm^3
# Si number density = 20.542705 Si / 1000 Ang^3
#
#
#
# Elastic Constant Matrix: (Units=GPa)
#
#
# Indices 1 2 3 4 5 6 
#
# 1 91.5507 33.8640 23.6305 -1.3983 16.9299 11.5648
# 2 33.8640 112.6771 42.8810 -6.0883 3.5717 -9.4285
# 3 23.6305 42.8810 99.7513 -19.1660 16.9847 -0.4905
# 4 -1.3983 -6.0883 -19.1660 32.8677 -7.9241 7.8758
# 5 16.9299 3.5717 16.9847 -7.9241 29.4571 6.5545
# 6 11.5648 -9.4285 -0.4905 7.8758 6.5545 27.4413
#
#
#
# Elastic Compliance Matrix: (Units=1/GPa)
#
#
# Indices 1 2 3 4 5 6 
#
# 1 0.014684 -0.004522 -0.000605 -0.000654 -0.006374 -0.006042
# 2 -0.004522 0.012467 -0.004949 -0.001715 0.002126 0.006085
# 3 -0.000605 -0.004949 0.014452 0.006687 -0.005170 -0.001872
# 4 -0.000654 -0.001715 0.006687 0.039944 0.010633 -0.014198
# 5 -0.006374 0.002126 -0.005170 0.010633 0.045555 -0.010609
# 6 -0.006042 0.006085 -0.001872 -0.014198 -0.010609 0.047654
#
#
# Mechanical properties :
#
#
# Convention : Reuss Voigt Hill
#
# Bulk Modulus (GPa) = 46.62066 56.08114 51.35090
# Shear Modulus (GPa) = 24.74553 31.52680 28.13616
#
# Velocity S-wave (km/s) = 3.47449 3.92177 3.70488
# Velocity P-wave (km/s) = 6.23216 6.91853 6.58430
#
# Compressibility (1/GPa) = 0.02144972
#
# Stress axis : x y z
#
# Youngs Moduli (GPa) = 68.10357 80.21424 69.19587
#
# Poissons Ratio (x) = 0.36271 0.04185
# Poissons Ratio (y) = 0.30795 0.34248
# Poissons Ratio (z) = 0.04119 0.39702
#
# Static dielectric constant tensor:
#      x y z
#    x 1.770810 0.000130 0.078370 
#    y 0.000130 1.801840 -0.116590 
#    z 0.078370 -0.116590 1.931190 
# 
# From -- ./inp_files/118724.got.cif
#   From: 2010.05.17/outbox.cif.g08.bks.cpg/sg2_60_cif.got.tgz:118724.got - 2010.06.03 11:33:40.
