data_PCOD9104053
_publ_section_title
;
Structure prediction by ZEFSAII (Michael W. Deem and Ramdas Pophale) SiO2 
 PCOD9104053
Probable space group: P -1
;
_chemical_formula_sum "Si O2"
_cell_formula_units_Z 12
_cell_length_a 6.303881
_cell_length_b 5.320693
_cell_length_c 17.036018
_cell_angle_alpha 92.518740
_cell_angle_beta 63.057752
_cell_angle_gamma 76.967115
_cell_volume 489.191318
_symmetry_space_group_name_H-M "P -1"
_symmetry_group_IT_number 2
_symmetry_cell_setting 'triclinic'
loop_
_space_group_symop_operation_xyz
x,y,z
-x,-y,-z
loop_
_atom_site_type_symbol
_atom_site_label
_atom_site_fract_x
_atom_site_fract_y
_atom_site_fract_z
Si Si1 0.785946 0.692465 0.489190
Si Si2 0.719965 0.989972 0.352407
Si Si3 0.733706 0.609778 0.948921
Si Si4 0.569703 0.677573 0.806970
Si Si5 0.103256 0.557633 0.680688
Si Si6 0.730807 0.755288 0.123064
O O1 0.564096 0.858303 0.582067
O O2 0.000000 0.500000 0.500000
O O3 0.737594 0.496713 0.427274
O O4 0.837246 0.902143 0.419555
O O5 0.856998 0.178093 0.290910
O O6 0.773676 0.709291 0.297688
O O7 0.690674 0.724462 0.870971
O O8 0.987329 0.380321 0.903443
O O9 0.500000 0.500000 0.000000
O O10 0.742740 0.785565 0.025726
O O11 0.816821 0.584105 0.712323
O O12 0.428352 0.453193 0.836207
O O13 0.393355 0.958601 0.818063
#
# Coordination Sequence:
#
# PCOD9104053 Si02
#       6
#     2   2   2   2   2   2
#     4   9  20  37  60  82 107 151 194 233 277 336
#     4   9  20  38  56  80 113 146 192 235 275 337
#     4   9  21  40  64  87 114 158 194 236 288 340
#     4  11  22  39  58  87 124 152 188 243 294 336
#     4  10  20  39  55  81 120 147 183 240 284 334
#     4  10  22  39  61  88 117 151 201 234 278 357
#
# _framework density 24.530280999999999
#
# number of rings (size 3 to 8) (size 9 to 14) (size 15 to 20)
#    1.000    1.333    0.000    2.000    0.000    9.333 
#    6.000    0.000    0.000    0.000    0.000    0.000 
#    0.000    0.000    0.000    0.000    0.000    0.000 
#
# Total GULP energy -66933.948146 kJ/mol
# GULP energy per Si atom -5577.829012 kJ/mol
# Density = 2.447445 g / cm^3
# Si number density = 24.530281 Si / 1000 Ang^3
#
#
#
# Elastic Constant Matrix: (Units=GPa)
#
#
# Indices 1 2 3 4 5 6 
#
# 1 88.9831 46.5185 38.6837 3.8306 -10.0629 -15.3677
# 2 46.5185 158.6864 26.3105 8.3825 -9.4102 -1.2100
# 3 38.6837 26.3105 102.3419 6.1025 -30.1502 -0.6060
# 4 3.8306 8.3825 6.1025 30.5583 -7.5697 -11.8511
# 5 -10.0629 -9.4102 -30.1502 -7.5697 36.1364 -3.7219
# 6 -15.3677 -1.2100 -0.6060 -11.8511 -3.7219 29.6372
#
#
#
# Elastic Compliance Matrix: (Units=1/GPa)
#
#
# Indices 1 2 3 4 5 6 
#
# 1 0.017705 -0.004379 -0.005362 0.004640 0.001413 0.010925
# 2 -0.004379 0.007737 -0.000290 -0.002820 -0.000360 -0.003134
# 3 -0.005362 -0.000290 0.015076 0.000009 0.010897 -0.001112
# 4 0.004640 -0.002820 0.000009 0.044233 0.012045 0.021491
# 5 0.001413 -0.000360 0.010897 0.012045 0.040707 0.010869
# 6 0.010925 -0.003134 -0.001112 0.021491 0.010869 0.049214
#
#
# Mechanical properties :
#
#
# Convention : Reuss Voigt Hill
#
# Bulk Modulus (GPa) = 48.88805 63.67076 56.27941
# Shear Modulus (GPa) = 24.80718 35.16629 29.98674
#
# Velocity S-wave (km/s) = 3.18353 3.79038 3.50013
# Velocity P-wave (km/s) = 5.78671 6.72074 6.27114
#
# Compressibility (1/GPa) = 0.02045490
#
# Stress axis : x y z
#
# Youngs Moduli (GPa) = 56.47977 129.24309 66.33153
#
# Poissons Ratio (x) = 0.56598 0.35568
# Poissons Ratio (y) = 0.24734 0.01927
# Poissons Ratio (z) = 0.30285 0.03754
#
# Static dielectric constant tensor:
#      x y z
#    x 1.969340 -0.011670 0.055910 
#    y -0.011670 2.003380 0.027520 
#    z 0.055910 0.027520 2.035540 
# 
# From -- ./inp_files/101993.got.cif
#   From: 2010.05.17/outbox.cif.g08.bks.cpg/sg2_51_cif.got.tgz:101993.got - 2010.06.03 11:33:40.
