data_PCOD9104130
_publ_section_title
;
Structure prediction by ZEFSAII (Michael W. Deem and Ramdas Pophale) SiO2 
 PCOD9104130
Probable space group: P -1
;
_chemical_formula_sum "Si O2"
_cell_formula_units_Z 12
_cell_length_a 10.874575
_cell_length_b 12.096729
_cell_length_c 9.232313
_cell_angle_alpha 125.240678
_cell_angle_beta 139.830155
_cell_angle_gamma 60.314758
_cell_volume 636.427008
_symmetry_space_group_name_H-M "P -1"
_symmetry_group_IT_number 2
_symmetry_cell_setting 'triclinic'
loop_
_space_group_symop_operation_xyz
x,y,z
-x,-y,-z
loop_
_atom_site_type_symbol
_atom_site_label
_atom_site_fract_x
_atom_site_fract_y
_atom_site_fract_z
Si Si1 0.290480 0.462676 0.816014
Si Si2 0.197767 0.218507 0.726011
Si Si3 0.088722 0.880694 0.798688
Si Si4 0.189584 0.159794 0.011312
Si Si5 0.948187 0.688736 0.737919
Si Si6 0.479825 0.967272 0.287631
O O1 0.274055 0.360010 0.857347
O O2 0.211757 0.381586 0.547549
O O3 0.143963 0.595216 0.814158
O O4 0.500000 0.500000 0.000000
O O5 0.329923 0.102542 0.668765
O O6 0.983953 0.214017 0.464584
O O7 0.205901 0.188590 0.879658
O O8 0.970502 0.836042 0.796698
O O9 0.311887 0.867690 0.034873
O O10 0.061480 0.034393 0.830124
O O11 0.102974 0.286718 0.123570
O O12 0.391996 0.101461 0.222685
O O13 0.500000 0.000000 0.500000
#
# Coordination Sequence:
#
# PCOD9104130 Si02
#       6
#     2   2   2   2   2   2
#     4  10  22  39  61  78 109 156 199 236 271 338
#     4  11  21  39  57  86 121 149 188 236 291 335
#     4   9  21  36  59  85 116 151 185 230 287 345
#     4  10  22  36  58  90 119 146 184 240 294 338
#     4  10  20  39  58  84 112 148 200 231 275 342
#     4  10  21  34  57  84 117 149 190 225 278 345
#
# _framework density 18.855264999999999
#
# number of rings (size 3 to 8) (size 9 to 14) (size 15 to 20)
#    1.000    1.000    0.000    4.500    2.333    0.667 
#    0.000    0.833    0.000    0.000    0.000    0.000 
#    0.000    0.000    0.000    0.000    0.000    0.000 
#
# Total GULP energy -66869.311721 kJ/mol
# GULP energy per Si atom -5572.442643 kJ/mol
# Density = 1.881235 g / cm^3
# Si number density = 18.855265 Si / 1000 Ang^3
#
#
#
# Elastic Constant Matrix: (Units=GPa)
#
#
# Indices 1 2 3 4 5 6 
#
# 1 133.3787 57.3271 85.3643 -1.9160 -23.5988 13.6572
# 2 57.3271 66.5304 54.0959 4.4140 -2.3628 18.8005
# 3 85.3643 54.0959 105.4545 -14.7341 3.0278 12.0463
# 4 -1.9160 4.4140 -14.7341 25.6594 6.9740 -3.9570
# 5 -23.5988 -2.3628 3.0278 6.9740 40.8733 -10.7452
# 6 13.6572 18.8005 12.0463 -3.9570 -10.7452 25.0740
#
#
#
# Elastic Compliance Matrix: (Units=1/GPa)
#
#
# Indices 1 2 3 4 5 6 
#
# 1 0.027262 -0.004820 -0.023105 -0.015222 0.021529 0.006689
# 2 -0.004820 0.041582 -0.017509 -0.020786 -0.001908 -0.024238
# 3 -0.023105 -0.017509 0.042177 0.031791 -0.022707 0.000736
# 4 -0.015222 -0.020786 0.031791 0.066965 -0.021109 0.010125
# 5 0.021529 -0.001908 -0.022707 -0.021109 0.046605 0.017254
# 6 0.006689 -0.024238 0.000736 0.010125 0.017254 0.063051
#
#
# Mechanical properties :
#
#
# Convention : Reuss Voigt Hill
#
# Bulk Modulus (GPa) = 49.62128 77.65980 63.64054
# Shear Modulus (GPa) = 12.97931 25.55977 19.26954
#
# Velocity S-wave (km/s) = 2.62652 3.68581 3.20030
# Velocity P-wave (km/s) = 5.96424 7.70651 6.89067
#
# Compressibility (1/GPa) = 0.02015264
#
# Stress axis : x y z
#
# Youngs Moduli (GPa) = 36.68098 24.04914 23.70933
#
# Poissons Ratio (x) = 0.11592 0.54780
# Poissons Ratio (y) = 0.17681 0.41513
# Poissons Ratio (z) = 0.84751 0.42108
#
# Static dielectric constant tensor:
#      x y z
#    x 1.624760 -0.009500 0.019010 
#    y -0.009500 1.693260 -0.006700 
#    z 0.019010 -0.006700 1.679840 
# 
# From -- ./inp_files/166472.got.cif
#   From: 2010.05.17/outbox.cif.g08.bks.cpg/sg2_84_cif.got.tgz:166472.got - 2010.06.03 11:33:40.
