data_PCOD9104043
_publ_section_title
;
Structure prediction by ZEFSAII (Michael W. Deem and Ramdas Pophale) SiO2 
 PCOD9104043
Probable space group: P -1
;
_chemical_formula_sum "Si O2"
_cell_formula_units_Z 13
_cell_length_a 13.305494
_cell_length_b 8.244338
_cell_length_c 14.325091
_cell_angle_alpha 51.205662
_cell_angle_beta 30.167791
_cell_angle_gamma 68.970380
_cell_volume 544.315982
_symmetry_space_group_name_H-M "P -1"
_symmetry_group_IT_number 2
_symmetry_cell_setting 'triclinic'
loop_
_space_group_symop_operation_xyz
x,y,z
-x,-y,-z
loop_
_atom_site_type_symbol
_atom_site_label
_atom_site_fract_x
_atom_site_fract_y
_atom_site_fract_z
Si Si1 0.759751 0.004062 0.702375
Si Si2 0.617588 0.261723 0.580736
Si Si3 0.234873 0.979224 0.609539
Si Si4 0.667861 0.403368 0.098934
Si Si5 0.195625 0.096853 0.098778
Si Si6 0.022184 0.247208 0.922987
Si Si7 0.500000 0.500000 0.000000
O O1 0.736249 0.015117 0.828636
O O2 0.747764 0.213159 0.580529
O O3 0.577098 0.764614 0.887996
O O4 0.000000 0.000000 0.500000
O O5 0.661388 0.136898 0.502331
O O6 0.359842 0.147013 0.861741
O O7 0.731493 0.537085 0.367457
O O8 0.074009 0.791105 0.880993
O O9 0.066758 0.052178 0.662411
O O10 0.444116 0.207545 0.400928
O O11 0.852573 0.313598 0.979142
O O12 0.589535 0.430623 0.049357
O O13 0.766306 0.650700 0.984249
O O14 0.000000 0.000000 0.000000
#
# Coordination Sequence:
#
# PCOD9104043 Si02
#       7
#     2   2   2   2   2   2   1
#     4  11  20  43  70 104 141 184 232 298 360 423
#     4  12  24  45  71 104 143 188 242 295 352 429
#     4  12  25  46  71 100 143 189 236 295 351 418
#     4  11  23  47  71 104 143 182 239 298 356 424
#     4  11  25  43  73 106 141 185 236 296 366 421
#     4  12  28  47  71 104 146 195 242 292 356 425
#     4  10  20  38  76 100 132 182 224 292 366 408
#
# _framework density 23.883188000000001
#
# number of rings (size 3 to 8) (size 9 to 14) (size 15 to 20)
#    0.000    0.615    4.615    3.231    2.154    0.615 
#    0.000    0.000    0.000    9.231    0.000    0.000 
#    0.000    0.000    0.000    0.000    0.000    0.000 
#
# Total GULP energy -72589.394535 kJ/mol
# GULP energy per Si atom -5583.799580 kJ/mol
# Density = 2.382883 g / cm^3
# Si number density = 23.883188 Si / 1000 Ang^3
#
#
#
# Elastic Constant Matrix: (Units=GPa)
#
#
# Indices 1 2 3 4 5 6 
#
# 1 61.4029 19.0350 15.7771 3.3061 8.1357 -1.3729
# 2 19.0350 81.8379 25.8294 11.4380 8.6436 -7.8754
# 3 15.7771 25.8294 73.0749 9.4903 2.7188 10.6668
# 4 3.3061 11.4380 9.4903 44.0107 -3.7699 7.9858
# 5 8.1357 8.6436 2.7188 -3.7699 45.6275 2.2161
# 6 -1.3729 -7.8754 10.6668 7.9858 2.2161 28.9328
#
#
#
# Elastic Compliance Matrix: (Units=1/GPa)
#
#
# Indices 1 2 3 4 5 6 
#
# 1 0.018353 -0.002806 -0.003034 -0.000510 -0.002679 0.001572
# 2 -0.002806 0.016354 -0.005625 -0.004513 -0.003018 0.007869
# 3 -0.003034 -0.005625 0.017542 -0.000553 0.000907 -0.008059
# 4 -0.000510 -0.004513 -0.000553 0.025890 0.003529 -0.008465
# 5 -0.002679 -0.003018 0.000907 0.003529 0.023400 -0.004049
# 6 0.001572 0.007869 -0.008059 -0.008465 -0.004049 0.042397
#
#
# Mechanical properties :
#
#
# Convention : Reuss Voigt Hill
#
# Bulk Modulus (GPa) = 34.10740 37.51097 35.80918
# Shear Modulus (GPa) = 28.30618 34.09248 31.19933
#
# Velocity S-wave (km/s) = 3.44640 3.78228 3.61824
# Velocity P-wave (km/s) = 5.49079 5.90037 5.69926
#
# Compressibility (1/GPa) = 0.02931915
#
# Stress axis : x y z
#
# Youngs Moduli (GPa) = 54.48771 61.14746 57.00457
#
# Poissons Ratio (x) = 0.17156 0.17297
# Poissons Ratio (y) = 0.15287 0.32065
# Poissons Ratio (z) = 0.16533 0.34396
#
# Static dielectric constant tensor:
#      x y z
#    x 1.943900 -0.032720 0.027800 
#    y -0.032720 1.883450 0.017770 
#    z 0.027800 0.017770 1.972400 
# 
# From -- ./inp_files/502368.got.cif
#   From: 2010.05.17/outbox.cif.g08.bks.cpg/sg2_252_cif.got.tgz:502368.got - 2010.06.03 11:33:40.
