data_PCOD9104249
_publ_section_title
;
Structure prediction by ZEFSAII (Michael W. Deem and Ramdas Pophale) SiO2 
 PCOD9104249
Probable space group: P -1
;
_chemical_formula_sum "Si O2"
_cell_formula_units_Z 16
_cell_length_a 12.370130
_cell_length_b 14.352753
_cell_length_c 10.953675
_cell_angle_alpha 30.269964
_cell_angle_beta 115.512964
_cell_angle_gamma 128.965898
_cell_volume 730.193274
_symmetry_space_group_name_H-M "P -1"
_symmetry_group_IT_number 2
_symmetry_cell_setting 'triclinic'
loop_
_space_group_symop_operation_xyz
x,y,z
-x,-y,-z
loop_
_atom_site_type_symbol
_atom_site_label
_atom_site_fract_x
_atom_site_fract_y
_atom_site_fract_z
Si Si1 0.514982 0.297607 0.899301
Si Si2 0.767005 0.360712 0.085414
Si Si3 0.935904 0.277064 0.078393
Si Si4 0.883879 0.237080 0.477194
Si Si5 0.626791 0.125221 0.819659
Si Si6 0.313037 0.433692 0.567315
Si Si7 0.040380 0.025639 0.751735
Si Si8 0.916505 0.237456 0.768227
O O1 0.390725 0.343511 0.787092
O O2 0.593819 0.421290 0.670171
O O3 0.638151 0.384933 0.961801
O O4 0.447164 0.033905 0.152460
O O5 0.801324 0.243018 0.126995
O O6 0.756103 0.232608 0.349525
O O7 0.919666 0.603625 0.900860
O O8 0.918523 0.068040 0.237269
O O9 0.771018 0.127262 0.904964
O O10 0.865798 0.157707 0.696121
O O11 0.930717 0.093787 0.590579
O O12 0.012374 0.504764 0.229365
O O13 0.688144 0.384479 0.556427
O O14 0.500000 0.000000 0.000000
O O15 0.168119 0.234897 0.655993
O O16 0.982859 0.827464 0.047349
O O17 0.000000 0.500000 0.500000
#
# Coordination Sequence:
#
# PCOD9104249 Si02
#       8
#     2   2   2   2   2   2   2   2
#     4  10  20  39  59  89 126 170 207 261 315 378
#     4   9  20  41  61  85 133 172 211 263 310 392
#     4   9  21  39  58  93 128 169 209 269 323 366
#     4  10  22  39  56  92 126 167 214 253 324 378
#     4  10  23  41  61  94 134 166 211 262 328 379
#     4  10  22  35  62  97 121 163 215 262 319 382
#     4  12  22  37  65  96 129 164 213 275 322 381
#     4  12  22  40  67  94 130 171 208 277 327 375
#
# _framework density 21.912006999999999
#
# number of rings (size 3 to 8) (size 9 to 14) (size 15 to 20)
#    0.750    1.000    2.500    1.875    3.500    0.500 
#    2.250    0.625    0.000    0.750    0.000    0.000 
#    0.000    0.000    0.000    0.000    0.000    0.000 
#
# Total GULP energy -89087.255082 kJ/mol
# GULP energy per Si atom -5567.953443 kJ/mol
# Density = 2.186213 g / cm^3
# Si number density = 21.912007 Si / 1000 Ang^3
#
#
#
# Elastic Constant Matrix: (Units=GPa)
#
#
# Indices 1 2 3 4 5 6 
#
# 1 51.5113 20.2823 15.0345 1.4554 11.6070 -0.2532
# 2 20.2823 79.0489 33.5055 3.1921 23.8032 5.5900
# 3 15.0345 33.5055 83.8647 -5.6692 25.0498 -2.7283
# 4 1.4554 3.1921 -5.6692 46.7825 1.3096 6.2634
# 5 11.6070 23.8032 25.0498 1.3096 34.6988 3.7697
# 6 -0.2532 5.5900 -2.7283 6.2634 3.7697 31.1919
#
#
#
# Elastic Compliance Matrix: (Units=1/GPa)
#
#
# Indices 1 2 3 4 5 6 
#
# 1 0.022284 -0.004114 -0.001180 -0.000636 -0.003909 0.001415
# 2 -0.004114 0.018053 -0.004381 -0.001086 -0.007530 -0.002524
# 3 -0.001180 -0.004381 0.016876 0.002248 -0.009184 0.002910
# 4 -0.000636 -0.001086 0.002248 0.022302 -0.001077 -0.003962
# 5 -0.003909 -0.007530 -0.009184 -0.001077 0.042441 -0.004399
# 6 0.001415 -0.002524 0.002910 -0.003962 -0.004399 0.034105
#
#
# Mechanical properties :
#
#
# Convention : Reuss Voigt Hill
#
# Bulk Modulus (GPa) = 26.41314 39.11884 32.76599
# Shear Modulus (GPa) = 26.59117 32.24148 29.41632
#
# Velocity S-wave (km/s) = 3.48737 3.84005 3.66796
# Velocity P-wave (km/s) = 5.31940 6.12803 5.73798
#
# Compressibility (1/GPa) = 0.03785994
#
# Stress axis : x y z
#
# Youngs Moduli (GPa) = 44.87620 55.39309 59.25691
#
# Poissons Ratio (x) = 0.22791 0.06994
# Poissons Ratio (y) = 0.18464 0.25962
# Poissons Ratio (z) = 0.05297 0.24269
#
# Static dielectric constant tensor:
#      x y z
#    x 1.879920 -0.016970 -0.014610 
#    y -0.016970 1.871740 0.001960 
#    z -0.014610 0.001960 1.836850 
# 
# From -- ./inp_files/455424.got.cif
#   From: 2010.05.17/outbox.cif.g08.bks.cpg/sg2_228_cif.got.tgz:455424.got - 2010.06.03 11:33:40.
