data_PCOD9104861
_publ_section_title
;
Structure prediction by ZEFSAII (Michael W. Deem and Ramdas Pophale) SiO2 
 PCOD9104861
Probable space group: P -1
;
_chemical_formula_sum "Si O2"
_cell_formula_units_Z 12
_cell_length_a 7.196071
_cell_length_b 12.563399
_cell_length_c 14.936359
_cell_angle_alpha 36.064030
_cell_angle_beta 41.980044
_cell_angle_gamma 49.154193
_cell_volume 526.852921
_symmetry_space_group_name_H-M "P -1"
_symmetry_group_IT_number 2
_symmetry_cell_setting 'triclinic'
loop_
_space_group_symop_operation_xyz
x,y,z
-x,-y,-z
loop_
_atom_site_type_symbol
_atom_site_label
_atom_site_fract_x
_atom_site_fract_y
_atom_site_fract_z
Si Si1 0.699448 0.966352 0.594485
Si Si2 0.714735 0.574419 0.137107
Si Si3 0.235288 0.190221 0.524166
Si Si4 0.332121 0.396108 0.060692
Si Si5 0.246268 0.017700 0.148877
Si Si6 0.674760 0.365529 0.594489
O O1 0.713118 0.868142 0.558128
O O2 0.593623 0.819831 0.799744
O O3 0.509871 0.158694 0.508080
O O4 0.000000 0.000000 0.500000
O O5 0.478909 0.605810 0.275068
O O6 0.994747 0.449832 0.154168
O O7 0.604864 0.525975 0.112710
O O8 0.805145 0.774538 0.945945
O O9 0.048815 0.041647 0.735786
O O10 0.006681 0.369889 0.483252
O O11 0.500000 0.500000 0.000000
O O12 0.337235 0.841199 0.298506
O O13 0.500000 0.000000 0.000000
O O14 0.500000 0.500000 0.500000
#
# Coordination Sequence:
#
# PCOD9104861 Si02
#       6
#     2   2   2   2   2   2
#     4  11  22  39  63  93 130 172 217 263 328 388
#     4  10  20  39  62  92 127 168 215 267 326 383
#     4   9  20  36  61  92 129 164 214 266 325 381
#     4  11  24  39  64  91 130 173 225 264 319 388
#     4   8  16  33  63  91 128 165 207 270 325 383
#     4   9  18  36  65  94 126 168 210 271 332 383
#
# _framework density 22.776755999999999
#
# number of rings (size 3 to 8) (size 9 to 14) (size 15 to 20)
#    1.000    1.333    0.000    3.000    0.000    4.000 
#    0.000    2.500    0.000    4.000    0.000    0.000 
#    0.000    0.000    0.000    0.000    0.000    0.000 
#
# Total GULP energy -66842.844653 kJ/mol
# GULP energy per Si atom -5570.237054 kJ/mol
# Density = 2.272491 g / cm^3
# Si number density = 22.776756 Si / 1000 Ang^3
#
#
#
# Elastic Constant Matrix: (Units=GPa)
#
#
# Indices 1 2 3 4 5 6 
#
# 1 177.3960 41.7079 30.4971 -2.5382 12.5342 -30.5268
# 2 41.7079 76.5766 0.2897 3.4371 15.2937 -28.6931
# 3 30.4971 0.2897 46.0419 -3.2851 8.7555 -10.4669
# 4 -2.5382 3.4371 -3.2851 43.2639 -5.1648 5.6006
# 5 12.5342 15.2937 8.7555 -5.1648 26.1646 -12.0925
# 6 -30.5268 -28.6931 -10.4669 5.6006 -12.0925 42.6334
#
#
#
# Elastic Compliance Matrix: (Units=1/GPa)
#
#
# Indices 1 2 3 4 5 6 
#
# 1 0.007570 -0.003505 -0.004679 0.000209 0.001037 0.002179
# 2 -0.003505 0.020970 0.006028 -0.003846 -0.008142 0.011279
# 3 -0.004679 0.006028 0.027486 -0.000310 -0.008144 0.005185
# 4 0.000209 -0.003846 -0.000310 0.024575 0.005119 -0.004291
# 5 0.001037 -0.008142 -0.008144 0.005119 0.049250 0.006560
# 6 0.002179 0.011279 0.005185 -0.004291 0.006560 0.036305
#
#
# Mechanical properties :
#
#
# Convention : Reuss Voigt Hill
#
# Bulk Modulus (GPa) = 19.33730 49.44488 34.39109
# Shear Modulus (GPa) = 26.63720 37.58037 32.10878
#
# Velocity S-wave (km/s) = 3.42349 4.06636 3.75869
# Velocity P-wave (km/s) = 4.91278 6.61835 5.82829
#
# Compressibility (1/GPa) = 0.05171352
#
# Stress axis : x y z
#
# Youngs Moduli (GPa) = 132.09214 47.68665 36.38179
#
# Poissons Ratio (x) = 0.16716 0.17024
# Poissons Ratio (y) = 0.46304 -0.21931
# Poissons Ratio (z) = 0.61809 -0.28745
#
# Static dielectric constant tensor:
#      x y z
#    x 1.863080 0.013240 -0.022510 
#    y 0.013240 1.936980 0.000330 
#    z -0.022510 0.000330 1.963660 
# 
# From -- ./inp_files/481381.got.cif
#   From: 2010.05.17/outbox.cif.g08.bks.cpg/sg2_241_cif.got.tgz:481381.got - 2010.06.03 11:33:40.
