data_PCOD9104465
_publ_section_title
;
Structure prediction by ZEFSAII (Michael W. Deem and Ramdas Pophale) SiO2 
 PCOD9104465
Probable space group: P -1
;
_chemical_formula_sum "Si O2"
_cell_formula_units_Z 12
_cell_length_a 19.083816
_cell_length_b 7.133969
_cell_length_c 12.103743
_cell_angle_alpha 33.457754
_cell_angle_beta 151.125059
_cell_angle_gamma 137.388957
_cell_volume 438.620474
_symmetry_space_group_name_H-M "P -1"
_symmetry_group_IT_number 2
_symmetry_cell_setting 'triclinic'
loop_
_space_group_symop_operation_xyz
x,y,z
-x,-y,-z
loop_
_atom_site_type_symbol
_atom_site_label
_atom_site_fract_x
_atom_site_fract_y
_atom_site_fract_z
Si Si1 0.226375 0.984010 0.256220
Si Si2 0.419916 0.323686 0.820774
Si Si3 0.666487 0.807174 0.002645
Si Si4 0.491602 0.431526 0.393486
Si Si5 0.967656 0.058382 0.298746
Si Si6 0.907552 0.848739 0.789913
O O1 0.306385 0.634928 0.516130
O O2 0.329025 0.299585 0.207930
O O3 0.202398 0.012650 0.340884
O O4 0.068558 0.974492 0.988527
O O5 0.356852 0.099535 0.944879
O O6 0.448740 0.285502 0.747979
O O7 0.571706 0.477825 0.002414
O O8 0.836238 0.797403 0.219626
O O9 0.594743 0.106131 0.686630
O O10 0.500000 0.500000 0.500000
O O11 0.099655 0.045327 0.400291
O O12 0.907847 0.439351 0.007981
O O13 0.000000 0.000000 0.500000
#
# Coordination Sequence:
#
# PCOD9104465 Si02
#       6
#     2   2   2   2   2   2
#     4  10  20  39  61  83 115 154 189 230 284 337
#     4  10  21  39  61  84 115 150 188 235 285 337
#     4  10  21  38  60  85 113 151 190 231 284 337
#     4  11  22  37  61  88 114 147 188 237 288 336
#     4  11  22  38  60  86 116 151 190 234 283 333
#     4  10  22  39  59  84 117 152 190 233 278 337
#
# _framework density 27.358505000000001
#
# number of rings (size 3 to 8) (size 9 to 14) (size 15 to 20)
#    0.000    1.667    0.000    6.000    0.000    4.667 
#    0.000   17.500    0.000    0.000    0.000    0.000 
#    0.000    0.000    0.000    0.000    0.000    0.000 
#
# Total GULP energy -67229.985457 kJ/mol
# GULP energy per Si atom -5602.498788 kJ/mol
# Density = 2.729624 g / cm^3
# Si number density = 27.358505 Si / 1000 Ang^3
#
#
#
# Elastic Constant Matrix: (Units=GPa)
#
#
# Indices 1 2 3 4 5 6 
#
# 1 212.1735 23.8085 31.5271 -6.4334 -54.6721 37.7378
# 2 23.8085 82.9391 23.0032 5.4709 -5.7553 23.6720
# 3 31.5271 23.0032 66.6121 -5.1960 -19.1085 21.2740
# 4 -6.4334 5.4709 -5.1960 48.3358 18.7194 -12.9081
# 5 -54.6721 -5.7553 -19.1085 18.7194 41.5357 -0.4376
# 6 37.7378 23.6720 21.2740 -12.9081 -0.4376 45.6523
#
#
#
# Elastic Compliance Matrix: (Units=1/GPa)
#
#
# Indices 1 2 3 4 5 6 
#
# 1 0.012816 0.002474 0.004756 -0.012275 0.024749 -0.017326
# 2 0.002474 0.016271 -0.001057 -0.008224 0.008603 -0.012233
# 3 0.004756 -0.001057 0.023883 -0.009407 0.021161 -0.016969
# 4 -0.012275 -0.008224 -0.009407 0.042856 -0.040617 0.030523
# 5 0.024749 0.008603 0.021161 -0.040617 0.085405 -0.045446
# 6 -0.017326 -0.012233 -0.016969 0.030523 -0.045446 0.058673
#
#
# Mechanical properties :
#
#
# Convention : Reuss Voigt Hill
#
# Bulk Modulus (GPa) = 15.31035 57.60025 36.45530
# Shear Modulus (GPa) = 20.05392 45.99715 33.02554
#
# Velocity S-wave (km/s) = 2.71034 4.10478 3.47816
# Velocity P-wave (km/s) = 3.92466 6.60040 5.42993
#
# Compressibility (1/GPa) = 0.06531530
#
# Stress axis : x y z
#
# Youngs Moduli (GPa) = 78.03039 61.46022 41.87153
#
# Poissons Ratio (x) = -0.15208 -0.19912
# Poissons Ratio (y) = -0.19308 0.04425
# Poissons Ratio (z) = -0.37108 0.06495
#
# Static dielectric constant tensor:
#      x y z
#    x 2.209550 -0.080750 -0.014030 
#    y -0.080750 2.150140 -0.039400 
#    z -0.014030 -0.039400 2.123130 
# 
# From -- ./inp_files/238062.got.cif
#   From: 2010.05.17/outbox.cif.g08.bks.cpg/sg2_120_cif.got.tgz:238062.got - 2010.06.03 11:33:40.
