data_PCOD9104803
_publ_section_title
;
Structure prediction by ZEFSAII (Michael W. Deem and Ramdas Pophale) SiO2 
 PCOD9104803
Probable space group: P -1
;
_chemical_formula_sum "Si O2"
_cell_formula_units_Z 16
_cell_length_a 9.579555
_cell_length_b 11.222485
_cell_length_c 11.440999
_cell_angle_alpha 67.557915
_cell_angle_beta 69.667518
_cell_angle_gamma 123.187753
_cell_volume 660.865126
_symmetry_space_group_name_H-M "P -1"
_symmetry_group_IT_number 2
_symmetry_cell_setting 'triclinic'
loop_
_space_group_symop_operation_xyz
x,y,z
-x,-y,-z
loop_
_atom_site_type_symbol
_atom_site_label
_atom_site_fract_x
_atom_site_fract_y
_atom_site_fract_z
Si Si1 0.116200 0.633051 0.552501
Si Si2 0.560752 0.189500 0.934777
Si Si3 0.023808 0.907447 0.698879
Si Si4 0.792334 0.225438 0.272687
Si Si5 0.351313 0.656447 0.894095
Si Si6 0.853154 0.615429 0.460091
Si Si7 0.314852 0.324363 0.320961
Si Si8 0.094586 0.999701 0.089898
O O1 0.080596 0.722962 0.434588
O O2 0.233252 0.757236 0.591022
O O3 0.232644 0.578875 0.495023
O O4 0.838065 0.404673 0.744678
O O5 0.531100 0.220693 0.064462
O O6 0.359268 0.126189 0.944779
O O7 0.500000 0.000000 0.000000
O O8 0.832979 0.720960 0.730358
O O9 0.213930 0.931897 0.677979
O O10 0.900044 0.889374 0.851618
O O11 0.156750 0.108462 0.512700
O O12 0.634890 0.212031 0.245207
O O13 0.070278 0.442006 0.077343
O O14 0.465459 0.606906 0.821648
O O15 0.670731 0.560102 0.624261
O O16 0.938538 0.774731 0.276182
O O17 0.000000 0.000000 0.000000
#
# Coordination Sequence:
#
# PCOD9104803 Si02
#       8
#     2   2   2   2   2   2   2   2
#     4  10  21  39  66  92 124 171 206 257 313 373
#     4  11  22  39  63  91 124 167 216 252 307 381
#     4  10  21  37  61  89 126 163 200 256 307 370
#     4  10  22  39  61  94 128 159 207 256 310 365
#     4  10  23  39  62  94 125 165 204 259 309 370
#     4  10  21  41  63  91 127 166 207 256 317 374
#     4  10  20  39  62  90 123 161 208 249 311 372
#     4  11  24  40  63  93 127 166 210 264 311 367
#
# _framework density 24.210688999999999
#
# number of rings (size 3 to 8) (size 9 to 14) (size 15 to 20)
#    0.000    1.750    3.750    0.000    1.750    3.000 
#    0.000    6.250    0.000    0.000    0.000    0.000 
#    0.000    0.000    0.000    0.000    0.000    0.000 
#
# Total GULP energy -89508.974266 kJ/mol
# GULP energy per Si atom -5594.310892 kJ/mol
# Density = 2.415558 g / cm^3
# Si number density = 24.210689 Si / 1000 Ang^3
#
#
#
# Elastic Constant Matrix: (Units=GPa)
#
#
# Indices 1 2 3 4 5 6 
#
# 1 154.8790 46.8420 53.5141 8.9943 20.5833 -20.1546
# 2 46.8420 71.6843 49.0829 17.0949 -5.4294 -32.7372
# 3 53.5141 49.0829 111.2680 9.1660 7.6407 -8.7789
# 4 8.9943 17.0949 9.1660 37.9792 -3.2372 -5.6993
# 5 20.5833 -5.4294 7.6407 -3.2372 50.2840 8.1831
# 6 -20.1546 -32.7372 -8.7789 -5.6993 8.1831 41.5416
#
#
#
# Elastic Compliance Matrix: (Units=1/GPa)
#
#
# Indices 1 2 3 4 5 6 
#
# 1 0.009218 -0.004116 -0.002216 0.000090 -0.004133 0.001587
# 2 -0.004116 0.038765 -0.012673 -0.009546 0.003289 0.023916
# 3 -0.002216 -0.012673 0.015047 0.001362 -0.001454 -0.007409
# 4 0.000090 -0.009546 0.001362 0.029879 0.001190 -0.003326
# 5 -0.004133 0.003289 -0.001454 0.001190 0.022894 -0.004067
# 6 0.001587 0.023916 -0.007409 -0.003326 -0.004067 0.042469
#
#
# Mechanical properties :
#
#
# Convention : Reuss Voigt Hill
#
# Bulk Modulus (GPa) = 39.96948 70.74548 55.35748
# Shear Modulus (GPa) = 24.43555 38.52045 31.47800
#
# Velocity S-wave (km/s) = 3.18038 3.99313 3.60970
# Velocity P-wave (km/s) = 5.48008 7.10945 6.34726
#
# Compressibility (1/GPa) = 0.02501909
#
# Stress axis : x y z
#
# Youngs Moduli (GPa) = 108.48666 25.79666 66.46021
#
# Poissons Ratio (x) = 0.10617 0.14728
# Poissons Ratio (y) = 0.44651 0.84226
# Poissons Ratio (z) = 0.24041 0.32692
#
# Static dielectric constant tensor:
#      x y z
#    x 1.910680 -0.025020 0.001430 
#    y -0.025020 1.951540 -0.021340 
#    z 0.001430 -0.021340 1.979230 
# 
# From -- ./inp_files/389388.got.cif
#   From: 2010.05.17/outbox.cif.g08.bks.cpg/sg2_195_cif.got.tgz:389388.got - 2010.06.03 11:33:40.
