data_PCOD9104570
_publ_section_title
;
Structure prediction by ZEFSAII (Michael W. Deem and Ramdas Pophale) SiO2 
 PCOD9104570
Probable space group: P -1
;
_chemical_formula_sum "Si O2"
_cell_formula_units_Z 16
_cell_length_a 5.849550
_cell_length_b 4.924546
_cell_length_c 23.485393
_cell_angle_alpha 85.225656
_cell_angle_beta 77.187348
_cell_angle_gamma 94.587299
_cell_volume 654.013116
_symmetry_space_group_name_H-M "P -1"
_symmetry_group_IT_number 2
_symmetry_cell_setting 'triclinic'
loop_
_space_group_symop_operation_xyz
x,y,z
-x,-y,-z
loop_
_atom_site_type_symbol
_atom_site_label
_atom_site_fract_x
_atom_site_fract_y
_atom_site_fract_z
Si Si1 0.371468 0.328816 0.121216
Si Si2 0.305321 0.779453 0.987689
Si Si3 0.393413 0.834727 0.622800
Si Si4 0.223560 0.224216 0.486586
Si Si5 0.982042 0.900274 0.093590
Si Si6 0.434241 0.688296 0.319139
Si Si7 0.479862 0.196987 0.819179
Si Si8 0.018894 0.439540 0.595814
O O1 0.551063 0.410503 0.057045
O O2 0.348129 0.597827 0.154763
O O3 0.486721 0.114685 0.160478
O O4 0.151490 0.133848 0.112174
O O5 0.158689 0.940153 0.948064
O O6 0.128679 0.698763 0.050964
O O7 0.500000 0.000000 0.000000
O O8 0.553571 0.873584 0.556281
O O9 0.509737 0.614390 0.660249
O O10 0.141253 0.696094 0.619029
O O11 0.397802 0.104807 0.655130
O O12 0.226028 0.317696 0.550418
O O13 0.151413 0.469024 0.446330
O O14 0.000000 0.000000 0.500000
O O15 0.785855 0.755442 0.148452
O O16 0.475470 0.742999 0.249944
O O17 0.165313 0.733265 0.350613
#
# Coordination Sequence:
#
# PCOD9104570 Si02
#       8
#     2   2   2   2   2   2   2   2
#     4  10  22  39  62  89 117 158 200 246 300 351
#     4   8  16  36  61  91 124 155 194 246 302 355
#     4  11  24  40  65  89 118 159 198 242 304 353
#     4  10  20  39  61  89 123 151 195 245 297 358
#     4   9  19  37  62  90 122 158 199 245 298 357
#     4  11  25  42  59  89 120 156 205 247 289 356
#     4  11  24  41  61  86 121 158 203 249 293 349
#     4  10  23  39  60  89 122 157 193 247 298 353
#
# _framework density 24.464341000000001
#
# number of rings (size 3 to 8) (size 9 to 14) (size 15 to 20)
#    0.000    2.000    1.250    1.125    1.750    5.000 
#    0.000   21.250    0.000    0.000    0.000    0.000 
#    0.000    0.000    0.000    0.000    0.000    0.000 
#
# Total GULP energy -89544.866801 kJ/mol
# GULP energy per Si atom -5596.554175 kJ/mol
# Density = 2.440866 g / cm^3
# Si number density = 24.464341 Si / 1000 Ang^3
#
#
#
# Elastic Constant Matrix: (Units=GPa)
#
#
# Indices 1 2 3 4 5 6 
#
# 1 85.1990 8.8504 46.3365 -1.4458 -2.4966 12.3107
# 2 8.8504 92.5176 39.9650 3.7071 -0.9410 7.0379
# 3 46.3365 39.9650 216.8548 -10.5814 -10.1950 18.5979
# 4 -1.4458 3.7071 -10.5814 37.4936 8.2227 4.8401
# 5 -2.4966 -0.9410 -10.1950 8.2227 27.9554 3.0465
# 6 12.3107 7.0379 18.5979 4.8401 3.0465 42.0519
#
#
#
# Elastic Compliance Matrix: (Units=1/GPa)
#
#
# Indices 1 2 3 4 5 6 
#
# 1 0.013600 0.000064 -0.002645 0.000019 0.000559 -0.002865
# 2 0.000064 0.011892 -0.002208 -0.001731 0.000203 -0.000848
# 3 -0.002645 -0.002208 0.005888 0.001668 0.001538 -0.001764
# 4 0.000019 -0.001731 0.001668 0.029437 -0.007749 -0.003280
# 5 0.000559 0.000203 0.001538 -0.007749 0.038974 -0.002810
# 6 -0.002865 -0.000848 -0.001764 -0.003280 -0.002810 0.026122
#
#
# Mechanical properties :
#
#
# Convention : Reuss Voigt Hill
#
# Bulk Modulus (GPa) = 45.86305 64.98613 55.42459
# Shear Modulus (GPa) = 35.02435 41.46148 38.24292
#
# Velocity S-wave (km/s) = 3.78782 4.12123 3.95804
# Velocity P-wave (km/s) = 6.15773 7.01907 6.60246
#
# Compressibility (1/GPa) = 0.02180405
#
# Stress axis : x y z
#
# Youngs Moduli (GPa) = 73.53132 84.08883 169.82571
#
# Poissons Ratio (x) = -0.00542 0.44917
# Poissons Ratio (y) = -0.00474 0.37491
# Poissons Ratio (z) = 0.19448 0.18564
#
# Static dielectric constant tensor:
#      x y z
#    x 2.029310 -0.079140 -0.022130 
#    y -0.079140 1.958490 0.004270 
#    z -0.022130 0.004270 1.912840 
# 
# From -- ./inp_files/11166.got.cif
#   From: 2010.05.17/outbox.cif.g08.bks.cpg/sg2_6_cif.got.tgz:11166.got - 2010.06.03 11:33:40.
