data_PCOD9104644
_publ_section_title
;
Structure prediction by ZEFSAII (Michael W. Deem and Ramdas Pophale) SiO2 
 PCOD9104644
Probable space group: P -1
;
_chemical_formula_sum "Si O2"
_cell_formula_units_Z 14
_cell_length_a 17.942667
_cell_length_b 7.911880
_cell_length_c 8.146248
_cell_angle_alpha 124.368623
_cell_angle_beta 41.967104
_cell_angle_gamma 132.575407
_cell_volume 565.006961
_symmetry_space_group_name_H-M "P -1"
_symmetry_group_IT_number 2
_symmetry_cell_setting 'triclinic'
loop_
_space_group_symop_operation_xyz
x,y,z
-x,-y,-z
loop_
_atom_site_type_symbol
_atom_site_label
_atom_site_fract_x
_atom_site_fract_y
_atom_site_fract_z
Si Si1 0.024892 0.866216 0.235937
Si Si2 0.192836 0.651517 0.744199
Si Si3 0.282267 0.783603 0.314392
Si Si4 0.421136 0.351208 0.893415
Si Si5 0.625534 0.434153 0.372096
Si Si6 0.190886 0.310206 0.058407
Si Si7 0.559776 0.963593 0.073707
O O1 0.905448 0.619643 0.265118
O O2 0.132354 0.780396 0.023723
O O3 0.000000 0.000000 0.500000
O O4 0.069019 0.064726 0.132306
O O5 0.222939 0.776009 0.584833
O O6 0.310028 0.635825 0.623494
O O7 0.418798 0.801205 0.151856
O O8 0.188366 0.548280 0.242719
O O9 0.332333 0.992526 0.214659
O O10 0.509600 0.455204 0.649092
O O11 0.283360 0.307489 0.049940
O O12 0.412106 0.111333 0.838481
O O13 0.500000 0.500000 0.000000
O O14 0.733874 0.641719 0.208393
O O15 0.570311 0.214369 0.222431
#
# Coordination Sequence:
#
# PCOD9104644 Si02
#       7
#     2   2   2   2   2   2   2
#     4  11  25  44  73  94 127 175 229 283 328 379
#     4  11  23  45  71  96 131 179 220 274 333 388
#     4  10  20  39  61  93 131 173 218 258 326 399
#     4  12  22  37  61  97 132 171 211 268 325 395
#     4  11  24  40  63  98 135 173 217 263 339 406
#     4  11  23  41  64  95 137 171 220 278 324 388
#     4  10  21  36  61  92 134 171 208 260 327 399
#
# _framework density 24.778455000000001
#
# number of rings (size 3 to 8) (size 9 to 14) (size 15 to 20)
#    0.000    1.143    4.286    1.714    2.000    1.714 
#    0.000    0.714    6.286    0.000    0.000    0.000 
#    0.000    0.000    0.000    0.000    0.000    0.000 
#
# Total GULP energy -78167.736416 kJ/mol
# GULP energy per Si atom -5583.409744 kJ/mol
# Density = 2.472206 g / cm^3
# Si number density = 24.778455 Si / 1000 Ang^3
#
#
#
# Elastic Constant Matrix: (Units=GPa)
#
#
# Indices 1 2 3 4 5 6 
#
# 1 30.9115 -2.6528 10.3660 -4.6402 10.0683 -3.7332
# 2 -2.6528 135.3869 38.9443 -7.6482 10.4140 -0.7783
# 3 10.3660 38.9443 116.7265 -8.1224 17.4470 -2.8661
# 4 -4.6402 -7.6482 -8.1224 35.3301 -12.2671 9.9653
# 5 10.0683 10.4140 17.4470 -12.2671 30.1402 -8.3515
# 6 -3.7332 -0.7783 -2.8661 9.9653 -8.3515 33.5852
#
#
#
# Elastic Compliance Matrix: (Units=1/GPa)
#
#
# Indices 1 2 3 4 5 6 
#
# 1 0.037241 0.002310 -0.002310 0.000636 -0.011371 0.000980
# 2 0.002310 0.008397 -0.002671 0.001012 -0.001865 -0.000541
# 3 -0.002310 -0.002671 0.010313 0.000128 -0.004380 -0.000566
# 4 0.000636 0.001012 0.000128 0.034681 0.011445 -0.007339
# 5 -0.011371 -0.001865 -0.004380 0.011445 0.046620 0.006516
# 6 0.000980 -0.000541 -0.000566 -0.007339 0.006516 0.033621
#
#
# Mechanical properties :
#
#
# Convention : Reuss Voigt Hill
#
# Bulk Modulus (GPa) = 19.75897 41.81555 30.78726
# Shear Modulus (GPa) = 25.89542 35.56891 30.73217
#
# Velocity S-wave (km/s) = 3.23627 3.79288 3.52558
# Velocity P-wave (km/s) = 4.68574 6.00780 5.38748
#
# Compressibility (1/GPa) = 0.05060994
#
# Stress axis : x y z
#
# Youngs Moduli (GPa) = 26.85220 119.08544 96.96510
#
# Poissons Ratio (x) = -0.27514 0.22400
# Poissons Ratio (y) = -0.06204 0.25899
# Poissons Ratio (z) = 0.06203 0.31807
#
# Static dielectric constant tensor:
#      x y z
#    x 2.067860 -0.179090 0.038300 
#    y -0.179090 2.252270 -0.015720 
#    z 0.038300 -0.015720 1.995900 
# 
# From -- ./inp_files/175804.got.cif
#   From: 2010.05.17/outbox.cif.g08.bks.cpg/sg2_88_cif.got.tgz:175804.got - 2010.06.03 11:33:40.
