data_PCOD9104541
_publ_section_title
;
Structure prediction by ZEFSAII (Michael W. Deem and Ramdas Pophale) SiO2 
 PCOD9104541
Probable space group: P -1
;
_chemical_formula_sum "Si O2"
_cell_formula_units_Z 15
_cell_length_a 8.212678
_cell_length_b 9.686328
_cell_length_c 18.321701
_cell_angle_alpha 25.948029
_cell_angle_beta 87.571427
_cell_angle_gamma 79.985143
_cell_volume 605.643751
_symmetry_space_group_name_H-M "P -1"
_symmetry_group_IT_number 2
_symmetry_cell_setting 'triclinic'
loop_
_space_group_symop_operation_xyz
x,y,z
-x,-y,-z
loop_
_atom_site_type_symbol
_atom_site_label
_atom_site_fract_x
_atom_site_fract_y
_atom_site_fract_z
Si Si1 0.667599 0.276073 0.144997
Si Si2 0.335678 0.183490 0.348968
Si Si3 0.112877 0.748872 0.979673
Si Si4 0.594559 0.325469 0.778432
Si Si5 0.760411 0.782848 0.154117
Si Si6 0.581030 0.653689 0.489341
Si Si7 0.000000 0.000000 0.500000
Si Si8 0.132960 0.623531 0.785420
O O1 0.692624 0.413251 0.159042
O O2 0.667641 0.903460 0.333223
O O3 0.500000 0.500000 0.000000
O O4 0.830100 0.270152 0.095596
O O5 0.257483 0.477062 0.152351
O O6 0.438198 0.351137 0.322915
O O7 0.182880 0.115684 0.429025
O O8 0.438313 0.885758 0.436235
O O9 0.953170 0.621657 0.058772
O O10 0.124380 0.087334 0.855316
O O11 0.418333 0.247410 0.799599
O O12 0.682696 0.376020 0.677293
O O13 0.706518 0.029887 0.968184
O O14 0.861536 0.438374 0.274988
O O15 0.500000 0.500000 0.500000
O O16 0.979719 0.001375 0.404117
#
# Coordination Sequence:
#
# PCOD9104541 Si02
#       8
#     2   2   2   2   2   2   1   2
#     4  12  25  42  65  92 133 178 220 260 328 393
#     4  10  20  39  61  88 124 169 215 270 317 399
#     4  10  22  41  62  94 127 171 220 259 328 394
#     4  10  21  36  61  95 129 163 223 265 338 374
#     4  10  21  37  67  96 128 165 215 284 321 389
#     4  12  24  37  61  94 131 167 214 280 320 377
#     4  10  22  40  66  92 124 168 226 264 334 382
#     4  11  23  40  69  93 129 175 215 274 323 395
#
# _framework density 24.767036999999998
#
# number of rings (size 3 to 8) (size 9 to 14) (size 15 to 20)
#    0.000    1.333    1.333    4.400    5.600    0.000 
#    0.000    0.000    0.000    5.600    0.000    0.000 
#    0.000    0.000    0.000    0.000    0.000    0.000 
#
# Total GULP energy -83685.812828 kJ/mol
# GULP energy per Si atom -5579.054189 kJ/mol
# Density = 2.471067 g / cm^3
# Si number density = 24.767037 Si / 1000 Ang^3
#
#
#
# Elastic Constant Matrix: (Units=GPa)
#
#
# Indices 1 2 3 4 5 6 
#
# 1 85.9531 32.2278 32.5388 6.8057 -19.6865 16.7462
# 2 32.2278 115.0253 40.3680 -4.9198 -9.7647 19.3660
# 3 32.5388 40.3680 150.1698 13.7516 -25.7651 -0.3259
# 4 6.8057 -4.9198 13.7516 30.4077 -7.5576 -6.7887
# 5 -19.6865 -9.7647 -25.7651 -7.5576 44.0052 8.1497
# 6 16.7462 19.3660 -0.3259 -6.7887 8.1497 41.3674
#
#
#
# Elastic Compliance Matrix: (Units=1/GPa)
#
#
# Indices 1 2 3 4 5 6 
#
# 1 0.016320 -0.002398 -0.001449 -0.003363 0.006708 -0.007369
# 2 -0.002398 0.011162 -0.002557 0.002885 0.001148 -0.004028
# 3 -0.001449 -0.002557 0.008465 -0.002982 0.003089 0.000752
# 4 -0.003363 0.002885 -0.002982 0.037390 0.002778 0.005576
# 5 0.006708 0.001148 0.003089 0.002778 0.029870 -0.008657
# 6 -0.007369 -0.004028 0.000752 0.005576 -0.008657 0.031669
#
#
# Mechanical properties :
#
#
# Convention : Reuss Voigt Hill
#
# Bulk Modulus (GPa) = 43.21484 62.37970 52.79727
# Shear Modulus (GPa) = 32.17590 39.55698 35.86644
#
# Velocity S-wave (km/s) = 3.60827 4.00079 3.80959
# Velocity P-wave (km/s) = 5.90304 6.82517 6.38079
#
# Compressibility (1/GPa) = 0.02314020
#
# Stress axis : x y z
#
# Youngs Moduli (GPa) = 61.27400 89.59060 118.13186
#
# Poissons Ratio (x) = 0.21483 0.17115
# Poissons Ratio (y) = 0.14693 0.30204
# Poissons Ratio (z) = 0.08877 0.22907
#
# Static dielectric constant tensor:
#      x y z
#    x 2.039530 -0.028600 0.079220 
#    y -0.028600 1.995040 -0.045270 
#    z 0.079220 -0.045270 2.154120 
# 
# From -- ./inp_files/174093.got.cif
#   From: 2010.05.17/outbox.cif.g08.bks.cpg/sg2_88_cif.got.tgz:174093.got - 2010.06.03 11:33:40.
