data_PCOD9104242
_publ_section_title
;
Structure prediction by ZEFSAII (Michael W. Deem and Ramdas Pophale) SiO2 
 PCOD9104242
Probable space group: P -1
;
_chemical_formula_sum "Si O2"
_cell_formula_units_Z 14
_cell_length_a 5.066004
_cell_length_b 24.610937
_cell_length_c 5.423879
_cell_angle_alpha 61.251187
_cell_angle_beta 90.872199
_cell_angle_gamma 78.073405
_cell_volume 574.888002
_symmetry_space_group_name_H-M "P -1"
_symmetry_group_IT_number 2
_symmetry_cell_setting 'triclinic'
loop_
_space_group_symop_operation_xyz
x,y,z
-x,-y,-z
loop_
_atom_site_type_symbol
_atom_site_label
_atom_site_fract_x
_atom_site_fract_y
_atom_site_fract_z
Si Si1 0.378639 0.104301 0.364342
Si Si2 0.219373 0.988414 0.750256
Si Si3 0.530836 0.411647 0.106677
Si Si4 0.743720 0.553483 0.472436
Si Si5 0.877711 0.654247 0.560295
Si Si6 0.755846 0.134072 0.685201
Si Si7 0.820873 0.801923 0.223392
O O1 0.496958 0.055443 0.253641
O O2 0.626689 0.128395 0.429687
O O3 0.277219 0.057331 0.653182
O O4 0.164186 0.162607 0.113253
O O5 0.153842 0.939105 0.054473
O O6 0.000000 0.000000 0.500000
O O7 0.376300 0.456120 0.235583
O O8 0.846492 0.387718 0.223979
O O9 0.381173 0.353240 0.266313
O O10 0.470989 0.436010 0.775240
O O11 0.000000 0.500000 0.500000
O O12 0.837636 0.618902 0.382187
O O13 0.893315 0.726193 0.371410
O O14 0.491222 0.173152 0.748213
O O15 0.983655 0.172436 0.644566
#
# Coordination Sequence:
#
# PCOD9104242 Si02
#       7
#     2   2   2   2   2   2   2
#     4  10  23  39  60  89 123 164 205 274 320 395
#     4  10  20  39  59  88 124 154 215 265 329 388
#     4  10  24  43  70 103 138 181 227 281 339 400
#     4  10  24  45  73 106 141 182 228 283 341 401
#     4  10  25  42  67  96 140 178 231 279 338 403
#     4  11  24  39  65  89 122 167 214 260 338 386
#     4  11  24  43  60  93 124 167 217 264 319 400
#
# _framework density 24.352571000000001
#
# number of rings (size 3 to 8) (size 9 to 14) (size 15 to 20)
#    0.857    0.857    1.429    1.714    4.000    4.000 
#    0.000    0.000    0.000    0.000    0.000    0.000 
#    0.000    0.000    0.000    0.000    0.000    0.000 
#
# Total GULP energy -78274.288081 kJ/mol
# GULP energy per Si atom -5591.020577 kJ/mol
# Density = 2.429714 g / cm^3
# Si number density = 24.352571 Si / 1000 Ang^3
#
#
#
# Elastic Constant Matrix: (Units=GPa)
#
#
# Indices 1 2 3 4 5 6 
#
# 1 93.7762 26.7704 20.0558 8.5526 4.1341 15.3456
# 2 26.7704 138.8387 45.6038 -10.7402 5.7698 25.1637
# 3 20.0558 45.6038 97.2826 17.7610 11.4071 6.4767
# 4 8.5526 -10.7402 17.7610 32.9552 3.2128 2.3933
# 5 4.1341 5.7698 11.4071 3.2128 48.4746 8.5665
# 6 15.3456 25.1637 6.4767 2.3933 8.5665 44.6752
#
#
#
# Elastic Compliance Matrix: (Units=1/GPa)
#
#
# Indices 1 2 3 4 5 6 
#
# 1 0.012105 -0.001728 -0.000960 -0.002987 0.000111 -0.002907
# 2 -0.001728 0.010979 -0.005890 0.007519 0.000659 -0.005266
# 3 -0.000960 -0.005890 0.015159 -0.009769 -0.002573 0.002466
# 4 -0.002987 0.007519 -0.009769 0.039139 -0.000257 -0.003840
# 5 0.000111 0.000659 -0.002573 -0.000257 0.021910 -0.004224
# 6 -0.002907 -0.005266 0.002466 -0.003840 -0.004224 0.027007
#
#
# Mechanical properties :
#
#
# Convention : Reuss Voigt Hill
#
# Bulk Modulus (GPa) = 47.41861 57.19529 52.30695
# Shear Modulus (GPa) = 33.22612 41.05215 37.13913
#
# Velocity S-wave (km/s) = 3.69776 4.11023 3.90944
# Velocity P-wave (km/s) = 6.14371 6.78695 6.47332
#
# Compressibility (1/GPa) = 0.02108876
#
# Stress axis : x y z
#
# Youngs Moduli (GPa) = 82.60757 91.08246 65.96610
#
# Poissons Ratio (x) = 0.15735 0.06332
# Poissons Ratio (y) = 0.14271 0.38854
# Poissons Ratio (z) = 0.07930 0.53648
#
# Static dielectric constant tensor:
#      x y z
#    x 2.007510 -0.033390 -0.100410 
#    y -0.033390 1.945290 0.040230 
#    z -0.100410 0.040230 2.001340 
# 
# From -- ./inp_files/10958.got.cif
#   From: 2010.05.17/outbox.cif.g08.bks.cpg/sg2_6_cif.got.tgz:10958.got - 2010.06.03 11:33:40.
