data_PCOD9104462
_publ_section_title
;
Structure prediction by ZEFSAII (Michael W. Deem and Ramdas Pophale) SiO2 
 PCOD9104462
Probable space group: P -1
;
_chemical_formula_sum "Si O2"
_cell_formula_units_Z 14
_cell_length_a 15.785669
_cell_length_b 8.508911
_cell_length_c 18.710741
_cell_angle_alpha 52.195591
_cell_angle_beta 21.137973
_cell_angle_gamma 62.241417
_cell_volume 664.698801
_symmetry_space_group_name_H-M "P -1"
_symmetry_group_IT_number 2
_symmetry_cell_setting 'triclinic'
loop_
_space_group_symop_operation_xyz
x,y,z
-x,-y,-z
loop_
_atom_site_type_symbol
_atom_site_label
_atom_site_fract_x
_atom_site_fract_y
_atom_site_fract_z
Si Si1 0.030336 0.172643 0.708328
Si Si2 0.365743 0.602020 0.388272
Si Si3 0.353692 0.754776 0.203312
Si Si4 0.195025 0.330407 0.372999
Si Si5 0.520089 0.979070 0.593619
Si Si6 0.517338 0.972593 0.764992
Si Si7 0.710123 0.374665 0.241966
O O1 0.130085 0.383463 0.620397
O O2 0.090181 0.243425 0.559295
O O3 0.205216 0.039878 0.626489
O O4 0.737640 0.056850 0.984591
O O5 0.457671 0.688879 0.211918
O O6 0.575147 0.537755 0.281881
O O7 0.301935 0.783677 0.429182
O O8 0.346080 0.583226 0.195724
O O9 0.057239 0.713794 0.461653
O O10 0.500000 0.000000 0.000000
O O11 0.363798 0.197186 0.255933
O O12 0.459616 0.946213 0.733664
O O13 0.328931 0.788480 0.749125
O O14 0.554909 0.211727 0.471844
O O15 0.000000 0.500000 0.000000
#
# Coordination Sequence:
#
# PCOD9104462 Si02
#       7
#     2   2   2   2   2   2   2
#     4   9  19  39  58  84 124 151 185 237 280 332
#     4  10  22  36  56  88 116 148 196 236 280 346
#     4  10  20  39  61  82 116 154 190 237 285 334
#     4   9  21  38  59  87 115 152 194 228 281 347
#     4   9  21  38  59  87 115 152 194 228 281 347
#     4  11  21  37  62  88 118 151 185 235 288 334
#     4  10  20  39  61  82 116 154 190 237 285 334
#
# _framework density 21.062170999999999
#
# number of rings (size 3 to 8) (size 9 to 14) (size 15 to 20)
#    0.000    2.286    0.000    2.571    0.000    4.571 
#    0.000   22.857    0.000    0.000    0.000    0.000 
#    0.000    0.000    0.000    0.000    0.000    0.000 
#
# Total GULP energy -78195.548317 kJ/mol
# GULP energy per Si atom -5585.396308 kJ/mol
# Density = 2.101423 g / cm^3
# Si number density = 21.062171 Si / 1000 Ang^3
#
#
#
# Elastic Constant Matrix: (Units=GPa)
#
#
# Indices 1 2 3 4 5 6 
#
# 1 56.1371 34.6589 20.0144 5.1873 -11.9268 -21.0694
# 2 34.6589 110.2876 38.9893 -20.8489 -10.5604 -21.1862
# 3 20.0144 38.9893 55.5688 -5.0323 -11.2702 -1.1630
# 4 5.1873 -20.8489 -5.0323 23.7402 -2.9076 4.0811
# 5 -11.9268 -10.5604 -11.2702 -2.9076 27.8270 -2.5383
# 6 -21.0694 -21.1862 -1.1630 4.0811 -2.5383 37.2522
#
#
#
# Elastic Compliance Matrix: (Units=1/GPa)
#
#
# Indices 1 2 3 4 5 6 
#
# 1 0.035375 -0.007843 -0.006610 -0.017968 0.009267 0.017941
# 2 -0.007843 0.018403 -0.008094 0.015726 0.002372 0.004217
# 3 -0.006610 -0.008094 0.026995 0.001887 0.004551 -0.007396
# 4 -0.017968 0.015726 0.001887 0.062164 0.004830 -0.007641
# 5 0.009267 0.002372 0.004551 0.004830 0.043996 0.009201
# 6 0.017941 0.004217 -0.007396 -0.007641 0.009201 0.040623
#
#
# Mechanical properties :
#
#
# Convention : Reuss Voigt Hill
#
# Bulk Modulus (GPa) = 28.02814 45.47985 36.75400
# Shear Modulus (GPa) = 17.57195 26.31924 21.94560
#
# Velocity S-wave (km/s) = 2.89154 3.53880 3.23142
# Velocity P-wave (km/s) = 4.94815 6.19173 5.60454
#
# Compressibility (1/GPa) = 0.03567843
#
# Stress axis : x y z
#
# Youngs Moduli (GPa) = 28.26823 54.33778 37.04396
#
# Poissons Ratio (x) = 0.42616 0.24488
# Poissons Ratio (y) = 0.22170 0.29985
# Poissons Ratio (z) = 0.18687 0.43983
#
# Static dielectric constant tensor:
#      x y z
#    x 1.783980 -0.004710 -0.001670 
#    y -0.004710 1.768280 -0.010990 
#    z -0.001670 -0.010990 1.732970 
# 
# From -- ./inp_files/337109.got.cif
#   From: 2010.05.17/outbox.cif.g08.bks.cpg/sg2_169_cif.got.tgz:337109.got - 2010.06.03 11:33:40.
