data_PCOD9104727
_publ_section_title
;
Structure prediction by ZEFSAII (Michael W. Deem and Ramdas Pophale) SiO2 
 PCOD9104727
Probable space group: P -1
;
_chemical_formula_sum "Si O2"
_cell_formula_units_Z 16
_cell_length_a 7.191807
_cell_length_b 8.724802
_cell_length_c 10.981592
_cell_angle_alpha 89.738946
_cell_angle_beta 84.370126
_cell_angle_gamma 58.086831
_cell_volume 581.176523
_symmetry_space_group_name_H-M "P -1"
_symmetry_group_IT_number 2
_symmetry_cell_setting 'triclinic'
loop_
_space_group_symop_operation_xyz
x,y,z
-x,-y,-z
loop_
_atom_site_type_symbol
_atom_site_label
_atom_site_fract_x
_atom_site_fract_y
_atom_site_fract_z
Si Si1 0.773619 0.829099 0.600060
Si Si2 0.635075 0.097688 0.976920
Si Si3 0.140346 0.538915 0.163077
Si Si4 0.009857 0.719116 0.920533
Si Si5 0.644387 0.210859 0.724654
Si Si6 0.900531 0.958316 0.388522
Si Si7 0.444436 0.735781 0.754387
Si Si8 0.803406 0.497903 0.313900
O O1 0.760094 0.883863 0.459860
O O2 0.621639 0.766195 0.667644
O O3 0.025020 0.655035 0.603857
O O4 0.703724 0.010345 0.679983
O O5 0.553199 0.233480 0.867923
O O6 0.636292 0.170543 0.108788
O O7 0.874209 0.932472 0.921782
O O8 0.500000 0.000000 0.000000
O O9 0.370094 0.468356 0.215244
O O10 0.145838 0.362262 0.099721
O O11 0.925209 0.598755 0.258479
O O12 0.098715 0.663241 0.050286
O O13 0.189900 0.619841 0.803644
O O14 0.451900 0.357830 0.647144
O O15 0.884508 0.184956 0.699880
O O16 0.756879 0.141610 0.323868
O O17 0.000000 0.000000 0.500000
#
# Coordination Sequence:
#
# PCOD9104727 Si02
#       8
#     2   2   2   2   2   2   2   2
#     4  10  20  39  62  87 112 156 204 246 284 338
#     4  12  17  30  59  94 120 144 190 236 302 356
#     4   8  15  27  50  86 117 148 179 229 294 341
#     4   9  15  27  48  90 125 145 169 242 291 354
#     4  11  20  36  62  90 119 161 184 239 302 355
#     4  10  25  42  59  80 117 163 206 240 290 341
#     4  11  20  35  64  89 114 155 196 246 290 347
#     4   9  16  30  57  87 117 150 194 230 294 351
#
# _framework density 27.530362
#
# number of rings (size 3 to 8) (size 9 to 14) (size 15 to 20)
#    0.750    1.250    3.750    1.875    0.000    1.000 
#    0.000    0.000   11.000    8.250    0.000    0.000 
#    0.000    0.000    0.000    0.000    0.000    0.000 
#
# Total GULP energy -89444.201364 kJ/mol
# GULP energy per Si atom -5590.262585 kJ/mol
# Density = 2.746770 g / cm^3
# Si number density = 27.530362 Si / 1000 Ang^3
#
#
#
# Elastic Constant Matrix: (Units=GPa)
#
#
# Indices 1 2 3 4 5 6 
#
# 1 63.6702 33.3299 14.7768 -0.2255 8.0624 -33.7916
# 2 33.3299 150.5583 45.3453 -33.8167 4.6721 -34.5875
# 3 14.7768 45.3453 141.6294 -19.9113 -3.8984 -6.5020
# 4 -0.2255 -33.8167 -19.9113 46.0298 -1.1941 8.9401
# 5 8.0624 4.6721 -3.8984 -1.1941 42.4336 -0.8505
# 6 -33.7916 -34.5875 -6.5020 8.9401 -0.8505 43.2490
#
#
#
# Elastic Compliance Matrix: (Units=1/GPa)
#
#
# Indices 1 2 3 4 5 6 
#
# 1 0.030231 -0.002065 -0.002587 -0.007086 -0.005494 0.022937
# 2 -0.002065 0.010136 -0.002035 0.005563 -0.000653 0.005024
# 3 -0.002587 -0.002035 0.008265 0.002675 0.001492 -0.002930
# 4 -0.007086 0.005563 0.002675 0.028238 0.001644 -0.006489
# 5 -0.005494 -0.000653 0.001492 0.001644 0.024776 -0.004443
# 6 0.022937 0.005024 -0.002930 -0.006489 -0.004443 0.045874
#
#
# Mechanical properties :
#
#
# Convention : Reuss Voigt Hill
#
# Bulk Modulus (GPa) = 28.36301 60.30686 44.33493
# Shear Modulus (GPa) = 28.96082 43.83621 36.39851
#
# Velocity S-wave (km/s) = 3.24691 3.99467 3.64005
# Velocity P-wave (km/s) = 4.93775 6.57493 5.81425
#
# Compressibility (1/GPa) = 0.03525719
#
# Stress axis : x y z
#
# Youngs Moduli (GPa) = 33.07859 98.65861 120.99502
#
# Poissons Ratio (x) = 0.20373 0.31306
# Poissons Ratio (y) = 0.06831 0.24622
# Poissons Ratio (z) = 0.08559 0.20077
#
# Static dielectric constant tensor:
#      x y z
#    x 2.513680 0.052340 0.019240 
#    y 0.052340 2.194720 0.088730 
#    z 0.019240 0.088730 2.107720 
# 
# From -- ./inp_files/389996.got.cif
#   From: 2010.05.17/outbox.cif.g08.bks.cpg/sg2_195_cif.got.tgz:389996.got - 2010.06.03 11:33:40.
