data_PCOD9104067
_publ_section_title
;
Structure prediction by ZEFSAII (Michael W. Deem and Ramdas Pophale) SiO2 
 PCOD9104067
Probable space group: P -1
;
_chemical_formula_sum "Si O2"
_cell_formula_units_Z 14
_cell_length_a 21.017864
_cell_length_b 6.521383
_cell_length_c 11.243559
_cell_angle_alpha 48.208965
_cell_angle_beta 149.574328
_cell_angle_gamma 119.777217
_cell_volume 569.329818
_symmetry_space_group_name_H-M "P -1"
_symmetry_group_IT_number 2
_symmetry_cell_setting 'triclinic'
loop_
_space_group_symop_operation_xyz
x,y,z
-x,-y,-z
loop_
_atom_site_type_symbol
_atom_site_label
_atom_site_fract_x
_atom_site_fract_y
_atom_site_fract_z
Si Si1 0.145875 0.169739 0.360013
Si Si2 0.108346 0.187609 0.544764
Si Si3 0.762864 0.252922 0.685141
Si Si4 0.619151 0.250020 0.200395
Si Si5 0.712838 0.279001 0.855317
Si Si6 0.399789 0.146436 0.031239
Si Si7 0.112170 0.301422 0.990998
O O1 0.075243 0.102285 0.391244
O O2 0.168594 0.485534 0.291671
O O3 0.278246 0.938585 0.646658
O O4 0.087476 0.188592 0.126427
O O5 0.249164 0.249101 0.723143
O O6 0.010124 0.456835 0.328653
O O7 0.152829 0.937962 0.806785
O O8 0.685689 0.251107 0.438344
O O9 0.684390 0.265219 0.676063
O O10 0.860225 0.954808 0.954244
O O11 0.577892 0.576338 0.968642
O O12 0.494295 0.126277 0.079567
O O13 0.757018 0.570440 0.841769
O O14 0.604010 0.152788 0.798167
#
# Coordination Sequence:
#
# PCOD9104067 Si02
#       7
#     2   2   2   2   2   2   2
#     4  10  21  38  60  85 112 149 191 231 280 330
#     4  10  20  39  56  88 115 143 192 232 276 340
#     4  10  20  39  57  83 118 149 188 228 276 338
#     4  10  20  41  61  82 113 147 187 241 277 325
#     4   9  21  38  55  88 113 147 188 227 284 337
#     4   9  21  39  59  87 110 145 193 229 286 330
#     4  10  21  37  61  80 119 151 180 234 282 327
#
# _framework density 24.590315
#
# number of rings (size 3 to 8) (size 9 to 14) (size 15 to 20)
#    0.857    1.429    1.429    0.857    0.000    3.429 
#    5.143    6.429    0.000    0.000    0.000    0.000 
#    0.000    0.000    0.000    0.000    0.000    0.000 
#
# Total GULP energy -78035.096082 kJ/mol
# GULP energy per Si atom -5573.935434 kJ/mol
# Density = 2.453435 g / cm^3
# Si number density = 24.590315 Si / 1000 Ang^3
#
#
#
# Elastic Constant Matrix: (Units=GPa)
#
#
# Indices 1 2 3 4 5 6 
#
# 1 96.5629 55.2595 -6.6678 -10.0815 2.6731 27.1207
# 2 55.2595 112.1959 28.5249 -6.1668 6.7865 -4.5420
# 3 -6.6678 28.5249 51.5565 -6.6229 7.6060 -1.8517
# 4 -10.0815 -6.1668 -6.6229 34.4158 -11.0754 4.2575
# 5 2.6731 6.7865 7.6060 -11.0754 39.2620 -4.4505
# 6 27.1207 -4.5420 -1.8517 4.2575 -4.4505 28.8936
#
#
#
# Elastic Compliance Matrix: (Units=1/GPa)
#
#
# Indices 1 2 3 4 5 6 
#
# 1 0.040492 -0.025864 0.020401 0.015647 -0.002755 -0.043496
# 2 -0.025864 0.026960 -0.018635 -0.009487 0.001313 0.028921
# 3 0.020401 -0.018635 0.033517 0.010467 -0.004216 -0.022122
# 4 0.015647 -0.009487 0.010467 0.038759 0.007201 -0.020110
# 5 -0.002755 0.001313 -0.004216 0.007201 0.028950 0.005920
# 6 -0.043496 0.028921 -0.022122 -0.020110 0.005920 0.082441
#
#
# Mechanical properties :
#
#
# Convention : Reuss Voigt Hill
#
# Bulk Modulus (GPa) = 18.94927 46.06095 32.50511
# Shear Modulus (GPa) = 15.77761 32.72753 24.25257
#
# Velocity S-wave (km/s) = 2.53577 3.65212 3.14389
# Velocity P-wave (km/s) = 4.03686 6.04616 5.14063
#
# Compressibility (1/GPa) = 0.05277248
#
# Stress axis : x y z
#
# Youngs Moduli (GPa) = 24.69615 37.09260 29.83584
#
# Poissons Ratio (x) = 0.95938 -0.60869
# Poissons Ratio (y) = 0.63875 0.55598
# Poissons Ratio (z) = -0.50383 0.69121
#
# Static dielectric constant tensor:
#      x y z
#    x 1.985710 0.055610 -0.013300 
#    y 0.055610 2.034920 0.083710 
#    z -0.013300 0.083710 2.091060 
# 
# From -- ./inp_files/363306.got.cif
#   From: 2010.05.17/outbox.cif.g08.bks.cpg/sg2_182_cif.got.tgz:363306.got - 2010.06.03 11:33:40.
