data_PCOD9104821
_publ_section_title
;
Structure prediction by ZEFSAII (Michael W. Deem and Ramdas Pophale) SiO2 
 PCOD9104821
Probable space group: P -1
;
_chemical_formula_sum "Si O2"
_cell_formula_units_Z 16
_cell_length_a 19.297689
_cell_length_b 14.641522
_cell_length_c 9.177200
_cell_angle_alpha 115.549086
_cell_angle_beta 107.499477
_cell_angle_gamma 19.154970
_cell_volume 716.025265
_symmetry_space_group_name_H-M "P -1"
_symmetry_group_IT_number 2
_symmetry_cell_setting 'triclinic'
loop_
_space_group_symop_operation_xyz
x,y,z
-x,-y,-z
loop_
_atom_site_type_symbol
_atom_site_label
_atom_site_fract_x
_atom_site_fract_y
_atom_site_fract_z
Si Si1 0.279036 0.007091 0.521727
Si Si2 0.553171 0.702597 0.983937
Si Si3 0.571586 0.964936 0.376280
Si Si4 0.787464 0.672229 0.807048
Si Si5 0.608991 0.480952 0.613642
Si Si6 0.510173 0.598451 0.139953
Si Si7 0.890008 0.441077 0.026769
Si Si8 0.736538 0.203693 0.251348
O O1 0.409099 0.940780 0.525317
O O2 0.022050 0.362287 0.654082
O O3 0.416263 0.775294 0.582418
O O4 0.303186 0.906560 0.323884
O O5 0.538416 0.642441 0.062676
O O6 0.320553 0.072901 0.072358
O O7 0.643524 0.527260 0.776726
O O8 0.730244 0.555705 0.030685
O O9 0.500000 0.000000 0.500000
O O10 0.392046 0.164780 0.276845
O O11 0.820795 0.604638 0.227194
O O12 0.830218 0.574335 0.928889
O O13 0.799743 0.178763 0.423383
O O14 0.505552 0.526821 0.676264
O O15 0.716482 0.313797 0.189420
O O16 0.500000 0.500000 0.000000
O O17 0.129057 0.072104 0.904874
#
# Coordination Sequence:
#
# PCOD9104821 Si02
#       8
#     2   2   2   2   2   2   2   2
#     4  11  23  41  70  93 125 175 212 262 331 375
#     4  11  23  39  64  93 131 167 208 266 324 382
#     4  11  25  43  62  97 139 165 208 269 319 390
#     4  11  24  42  68 101 127 165 220 266 320 384
#     4  10  20  39  62  91 122 163 218 262 305 372
#     4  11  24  42  62  92 129 171 215 260 316 392
#     4  11  23  42  65  96 127 166 214 267 323 377
#     4  10  22  39  62  89 125 166 211 263 309 372
#
# _framework density 22.345580000000002
#
# number of rings (size 3 to 8) (size 9 to 14) (size 15 to 20)
#    0.000    1.250    2.500    4.500    1.750    5.000 
#    0.000    2.500    0.000    0.000    0.000    0.000 
#    0.000    0.000    0.000    0.000    0.000    0.000 
#
# Total GULP energy -89362.145149 kJ/mol
# GULP energy per Si atom -5585.134072 kJ/mol
# Density = 2.229472 g / cm^3
# Si number density = 22.345580 Si / 1000 Ang^3
#
#
#
# Elastic Constant Matrix: (Units=GPa)
#
#
# Indices 1 2 3 4 5 6 
#
# 1 117.8512 35.3014 37.9395 17.9855 -1.8432 30.3596
# 2 35.3014 54.1652 27.4280 10.0515 -14.6864 28.7174
# 3 37.9395 27.4280 147.6976 13.9611 -2.9724 13.6766
# 4 17.9855 10.0515 13.9611 14.5109 5.6281 2.9779
# 5 -1.8432 -14.6864 -2.9724 5.6281 39.2332 -0.7661
# 6 30.3596 28.7174 13.6766 2.9779 -0.7661 34.0116
#
#
#
# Elastic Compliance Matrix: (Units=1/GPa)
#
#
# Indices 1 2 3 4 5 6 
#
# 1 0.013948 0.001762 -0.001207 -0.016177 0.003311 -0.011962
# 2 0.001762 0.056333 -0.002562 -0.039713 0.025813 -0.044049
# 3 -0.001207 -0.002562 0.007952 -0.004570 0.000251 0.000448
# 4 -0.016177 -0.039713 -0.004570 0.125981 -0.033302 0.038028
# 5 0.003311 0.025813 0.000251 -0.033302 0.039692 -0.021041
# 6 -0.011962 -0.044049 0.000448 0.038028 -0.021041 0.073288
#
#
# Mechanical properties :
#
#
# Convention : Reuss Voigt Hill
#
# Bulk Modulus (GPa) = 13.47334 57.89463 35.68399
# Shear Modulus (GPa) = 14.45308 32.15414 23.30361
#
# Velocity S-wave (km/s) = 2.54598 3.79746 3.23286
# Velocity P-wave (km/s) = 3.83214 6.72255 5.47165
#
# Compressibility (1/GPa) = 0.07422065
#
# Stress axis : x y z
#
# Youngs Moduli (GPa) = 71.69502 17.75151 125.75805
#
# Poissons Ratio (x) = -0.03128 0.15176
# Poissons Ratio (y) = -0.12635 0.32217
# Poissons Ratio (z) = 0.08652 0.04548
#
# Static dielectric constant tensor:
#      x y z
#    x 1.843870 0.002000 0.053320 
#    y 0.002000 1.917420 0.040780 
#    z 0.053320 0.040780 1.932330 
# 
# From -- ./inp_files/187820.got.cif
#   From: 2010.05.17/outbox.cif.g08.bks.cpg/sg2_94_cif.got.tgz:187820.got - 2010.06.03 11:33:40.
