data_PCOD9104015
_publ_section_title
;
Structure prediction by ZEFSAII (Michael W. Deem and Ramdas Pophale) SiO2 
 PCOD9104015
Probable space group: P -1
;
_chemical_formula_sum "Si O2"
_cell_formula_units_Z 14
_cell_length_a 13.734682
_cell_length_b 7.987345
_cell_length_c 8.732114
_cell_angle_alpha 121.802486
_cell_angle_beta 100.040128
_cell_angle_gamma 41.950093
_cell_volume 502.728610
_symmetry_space_group_name_H-M "P -1"
_symmetry_group_IT_number 2
_symmetry_cell_setting 'triclinic'
loop_
_space_group_symop_operation_xyz
x,y,z
-x,-y,-z
loop_
_atom_site_type_symbol
_atom_site_label
_atom_site_fract_x
_atom_site_fract_y
_atom_site_fract_z
Si Si1 0.882385 0.016479 0.190938
Si Si2 0.324561 0.600720 0.245708
Si Si3 0.253215 0.104208 0.352957
Si Si4 0.151233 0.489430 0.211764
Si Si5 0.483622 0.344293 0.572218
Si Si6 0.079146 0.644226 0.782227
Si Si7 0.366034 0.198476 0.861845
O O1 0.972514 0.774812 0.240061
O O2 0.946112 0.818969 0.956710
O O3 0.234329 0.472332 0.837167
O O4 0.945835 0.141618 0.241812
O O5 0.247879 0.876817 0.240827
O O6 0.206115 0.634204 0.310162
O O7 0.415968 0.608259 0.385532
O O8 0.427426 0.289762 0.020323
O O9 0.429888 0.875908 0.355441
O O10 0.203822 0.295245 0.281996
O O11 0.303383 0.677911 0.702685
O O12 0.134988 0.363430 0.576673
O O13 0.517943 0.128448 0.348687
O O14 0.257421 0.251912 0.982468
#
# Coordination Sequence:
#
# PCOD9104015 Si02
#       7
#     2   2   2   2   2   2   2
#     4  10  20  38  72 105 143 206 244 314 399 443
#     4   8  19  39  71 103 148 191 251 316 369 473
#     4   9  19  39  72 107 141 199 257 305 380 472
#     4   9  19  40  72 101 150 197 246 313 385 461
#     4   9  19  39  73 104 141 197 255 308 385 455
#     4   9  19  38  70  99 148 204 246 300 399 462
#     4   8  17  38  68  97 143 199 244 303 380 469
#
# _framework density 27.848030999999999
#
# number of rings (size 3 to 8) (size 9 to 14) (size 15 to 20)
#    1.714    1.429    0.000    0.000    0.000    2.857 
#    0.000    7.143    3.143   10.286    0.000    0.000 
#    0.000    0.000    0.000    0.000    0.000    0.000 
#
# Total GULP energy -78429.028004 kJ/mol
# GULP energy per Si atom -5602.073429 kJ/mol
# Density = 2.778465 g / cm^3
# Si number density = 27.848031 Si / 1000 Ang^3
#
#
#
# Elastic Constant Matrix: (Units=GPa)
#
#
# Indices 1 2 3 4 5 6 
#
# 1 131.7311 76.8433 83.3450 7.7739 0.1809 -15.4209
# 2 76.8433 256.7846 85.2745 2.6738 -17.6499 3.0455
# 3 83.3450 85.2745 133.0974 34.9931 7.2482 -11.7932
# 4 7.7739 2.6738 34.9931 43.8745 -0.7524 -4.4413
# 5 0.1809 -17.6499 7.2482 -0.7524 45.6096 6.2260
# 6 -15.4209 3.0455 -11.7932 -4.4413 6.2260 54.9058
#
#
#
# Elastic Compliance Matrix: (Units=1/GPa)
#
#
# Indices 1 2 3 4 5 6 
#
# 1 0.014129 -0.001170 -0.009305 0.005243 0.000732 0.002376
# 2 -0.001170 0.005814 -0.004104 0.003014 0.003182 -0.001650
# 3 -0.009305 -0.004104 0.020068 -0.014056 -0.005160 0.001373
# 4 0.005243 0.003014 -0.014056 0.033009 0.003853 0.000519
# 5 0.000732 0.003182 -0.005160 0.003853 0.024521 -0.003548
# 6 0.002376 -0.001650 0.001373 0.000519 -0.003548 0.019711
#
#
# Mechanical properties :
#
#
# Convention : Reuss Voigt Hill
#
# Bulk Modulus (GPa) = 92.15363 112.50428 102.32895
# Shear Modulus (GPa) = 33.32656 47.28802 40.30729
#
# Velocity S-wave (km/s) = 3.46313 4.12524 3.80860
# Velocity P-wave (km/s) = 7.01103 7.94841 7.49439
#
# Compressibility (1/GPa) = 0.01085144
#
# Stress axis : x y z
#
# Youngs Moduli (GPa) = 70.77573 171.98694 49.83039
#
# Poissons Ratio (x) = 0.20129 0.46369
# Poissons Ratio (y) = 0.08284 0.20451
# Poissons Ratio (z) = 0.65860 0.70587
#
# Static dielectric constant tensor:
#      x y z
#    x 2.213810 0.023960 0.014030 
#    y 0.023960 2.234740 -0.067960 
#    z 0.014030 -0.067960 2.163490 
# 
# From -- ./inp_files/341299.got.cif
#   From: 2010.05.17/outbox.cif.g08.bks.cpg/sg2_171_cif.got.tgz:341299.got - 2010.06.03 11:33:40.
