data_PCOD9104536
_publ_section_title
;
Structure prediction by ZEFSAII (Michael W. Deem and Ramdas Pophale) SiO2 
 PCOD9104536
Probable space group: P -1
;
_chemical_formula_sum "Si O2"
_cell_formula_units_Z 12
_cell_length_a 5.130187
_cell_length_b 12.624977
_cell_length_c 11.017622
_cell_angle_alpha 122.464876
_cell_angle_beta 59.343537
_cell_angle_gamma 109.882044
_cell_volume 515.757700
_symmetry_space_group_name_H-M "P -1"
_symmetry_group_IT_number 2
_symmetry_cell_setting 'triclinic'
loop_
_space_group_symop_operation_xyz
x,y,z
-x,-y,-z
loop_
_atom_site_type_symbol
_atom_site_label
_atom_site_fract_x
_atom_site_fract_y
_atom_site_fract_z
Si Si1 0.183988 0.222926 0.777605
Si Si2 0.089521 0.355630 0.519842
Si Si3 0.572439 0.321152 0.960175
Si Si4 0.391711 0.938546 0.112557
Si Si5 0.530434 0.507072 0.690229
Si Si6 0.250913 0.105679 0.454326
O O1 0.376598 0.310138 0.879201
O O2 0.920499 0.301685 0.833589
O O3 0.970973 0.109871 0.824891
O O4 0.371863 0.167549 0.590207
O O5 0.247666 0.449443 0.642309
O O6 0.294782 0.384719 0.368821
O O7 0.764758 0.402041 0.592020
O O8 0.113742 0.215224 0.476249
O O9 0.463720 0.191898 0.978447
O O10 0.549814 0.434135 0.126632
O O11 0.453797 0.032909 0.269384
O O12 0.500000 0.000000 0.000000
O O13 0.000000 0.000000 0.500000
#
# Coordination Sequence:
#
# PCOD9104536 Si02
#       6
#     2   2   2   2   2   2
#     4   9  22  37  60  87 127 160 203 248 318 371
#     4  10  22  40  64  94 122 172 203 262 320 360
#     4  10  20  39  61  88 121 163 204 260 308 365
#     4   9  20  38  63  92 120 164 210 262 307 364
#     4  10  21  41  65  92 128 156 220 261 306 377
#     4  10  21  44  63  95 131 168 209 258 313 388
#
# _framework density 23.266741
#
# number of rings (size 3 to 8) (size 9 to 14) (size 15 to 20)
#    1.000    1.333    0.000    2.000    0.000    2.667 
#    6.000    5.000    0.000    0.000    0.000    0.000 
#    0.000    0.000    0.000    0.000    0.000    0.000 
#
# Total GULP energy -67019.632056 kJ/mol
# GULP energy per Si atom -5584.969338 kJ/mol
# Density = 2.321378 g / cm^3
# Si number density = 23.266741 Si / 1000 Ang^3
#
#
#
# Elastic Constant Matrix: (Units=GPa)
#
#
# Indices 1 2 3 4 5 6 
#
# 1 69.2140 3.1352 9.9282 -3.2323 24.8635 10.8862
# 2 3.1352 146.4296 39.6284 -28.1218 -3.0966 -19.2578
# 3 9.9282 39.6284 149.6290 -3.7160 12.2085 25.4370
# 4 -3.2323 -28.1218 -3.7160 31.8370 0.7781 4.3297
# 5 24.8635 -3.0966 12.2085 0.7781 23.7952 9.6134
# 6 10.8862 -19.2578 25.4370 4.3297 9.6134 18.7763
#
#
#
# Elastic Compliance Matrix: (Units=1/GPa)
#
#
# Indices 1 2 3 4 5 6 
#
# 1 0.023979 -0.002195 0.002290 0.002398 -0.023440 -0.007808
# 2 -0.002195 0.013357 -0.007103 0.007535 -0.002275 0.024021
# 3 0.002290 -0.007103 0.012750 -0.001035 0.000677 -0.025994
# 4 0.002398 0.007535 -0.001035 0.038231 -0.002281 0.000092
# 5 -0.023440 -0.002275 0.000677 -0.002281 0.077614 -0.028872
# 6 -0.007808 0.024021 -0.025994 0.000092 -0.028872 0.132399
#
#
# Mechanical properties :
#
#
# Convention : Reuss Voigt Hill
#
# Bulk Modulus (GPa) = 27.72379 52.29513 40.00946
# Shear Modulus (GPa) = 15.41450 35.72043 25.56746
#
# Velocity S-wave (km/s) = 2.57672 3.92249 3.31854
# Velocity P-wave (km/s) = 4.56006 6.56046 5.64951
#
# Compressibility (1/GPa) = 0.03607011
#
# Stress axis : x y z
#
# Youngs Moduli (GPa) = 41.70248 74.86949 78.42894
#
# Poissons Ratio (x) = 0.16435 -0.17958
# Poissons Ratio (y) = 0.09154 0.55705
# Poissons Ratio (z) = -0.09549 0.53177
#
# Static dielectric constant tensor:
#      x y z
#    x 1.866700 0.020100 0.001920 
#    y 0.020100 1.939380 0.005540 
#    z 0.001920 0.005540 1.853310 
# 
# From -- ./inp_files/135825.got.cif
#   From: 2010.05.17/outbox.cif.g08.bks.cpg/sg2_68_cif.got.tgz:135825.got - 2010.06.03 11:33:40.
