data_PCOD9104974
_publ_section_title
;
Structure prediction by ZEFSAII (Michael W. Deem and Ramdas Pophale) SiO2 
 PCOD9104974
Probable space group: P -1
;
_chemical_formula_sum "Si O2"
_cell_formula_units_Z 16
_cell_length_a 7.822318
_cell_length_b 9.406865
_cell_length_c 12.105101
_cell_angle_alpha 127.370671
_cell_angle_beta 81.210824
_cell_angle_gamma 95.344691
_cell_volume 699.577546
_symmetry_space_group_name_H-M "P -1"
_symmetry_group_IT_number 2
_symmetry_cell_setting 'triclinic'
loop_
_space_group_symop_operation_xyz
x,y,z
-x,-y,-z
loop_
_atom_site_type_symbol
_atom_site_label
_atom_site_fract_x
_atom_site_fract_y
_atom_site_fract_z
Si Si1 0.175405 0.385926 0.945191
Si Si2 0.075186 0.981660 0.711591
Si Si3 0.830680 0.100597 0.102358
Si Si4 0.669848 0.131676 0.550119
Si Si5 0.321646 0.967072 0.254774
Si Si6 0.458755 0.337865 0.507781
Si Si7 0.586746 0.773326 0.974660
Si Si8 0.682094 0.446995 0.201865
O O1 0.127073 0.184669 0.824704
O O2 0.279698 0.357601 0.035708
O O3 0.302478 0.461741 0.874805
O O4 0.000000 0.500000 0.000000
O O5 0.161049 0.873343 0.753720
O O6 0.162809 0.935193 0.564594
O O7 0.868753 0.974662 0.736975
O O8 0.818867 0.289947 0.133507
O O9 0.682310 0.957192 0.020496
O O10 0.000000 0.000000 0.000000
O O11 0.607312 0.300446 0.565812
O O12 0.500000 0.000000 0.500000
O O13 0.705122 0.144475 0.681845
O O14 0.419741 0.152403 0.362132
O O15 0.434515 0.843683 0.104933
O O16 0.500000 0.500000 0.500000
O O17 0.304250 0.406487 0.634621
O O18 0.496523 0.665726 0.834345
#
# Coordination Sequence:
#
# PCOD9104974 Si02
#       8
#     2   2   2   2   2   2   2   2
#     4  11  22  38  61  94 127 156 201 265 312 354
#     4  11  23  41  62  90 125 166 210 253 307 379
#     4  11  23  41  62  89 126 169 207 251 310 378
#     4  10  20  39  63  86 119 165 204 247 307 375
#     4  11  22  42  67  91 121 167 212 250 306 381
#     4  11  23  40  61  91 125 160 204 260 310 360
#     4  11  23  42  65  91 123 167 209 249 309 381
#     4  12  23  39  64  94 123 160 207 259 308 360
#
# _framework density 22.870944999999999
#
# number of rings (size 3 to 8) (size 9 to 14) (size 15 to 20)
#    0.000    1.000    0.000   10.875    0.000    2.000 
#    0.000    5.000    0.000    0.000    0.000    0.000 
#    0.000    0.000    0.000    0.000    0.000    0.000 
#
# Total GULP energy -89447.999592 kJ/mol
# GULP energy per Si atom -5590.499975 kJ/mol
# Density = 2.281889 g / cm^3
# Si number density = 22.870945 Si / 1000 Ang^3
#
#
#
# Elastic Constant Matrix: (Units=GPa)
#
#
# Indices 1 2 3 4 5 6 
#
# 1 77.8554 -4.5886 8.7855 0.7511 -9.2334 -6.6963
# 2 -4.5886 110.5253 5.3858 0.9913 6.1637 -19.9691
# 3 8.7855 5.3858 74.0747 2.0057 -8.4812 -0.1913
# 4 0.7511 0.9913 2.0057 24.8488 -1.2710 -12.2104
# 5 -9.2334 6.1637 -8.4812 -1.2710 31.0268 0.2919
# 6 -6.6963 -19.9691 -0.1913 -12.2104 0.2919 34.6367
#
#
#
# Elastic Compliance Matrix: (Units=1/GPa)
#
#
# Indices 1 2 3 4 5 6 
#
# 1 0.013802 0.001129 -0.001350 0.001743 0.003549 0.003897
# 2 0.001129 0.010586 -0.001204 0.003203 -0.002035 0.007461
# 3 -0.001350 -0.001204 0.014207 -0.001592 0.003670 -0.001469
# 4 0.001743 0.003203 -0.001592 0.049979 0.001308 0.019783
# 5 0.003549 -0.002035 0.003670 0.001308 0.034750 -0.000298
# 6 0.003897 0.007461 -0.001469 0.019783 -0.000298 0.040894
#
#
# Mechanical properties :
#
#
# Convention : Reuss Voigt Hill
#
# Bulk Modulus (GPa) = 27.97514 31.29120 29.63317
# Shear Modulus (GPa) = 27.93544 34.96066 31.44805
#
# Velocity S-wave (km/s) = 3.49870 3.91398 3.71215
# Velocity P-wave (km/s) = 5.34598 5.84269 5.59984
#
# Compressibility (1/GPa) = 0.03574602
#
# Stress axis : x y z
#
# Youngs Moduli (GPa) = 72.45102 94.46383 70.38790
#
# Poissons Ratio (x) = -0.10668 0.09502
# Poissons Ratio (y) = -0.08182 0.08475
# Poissons Ratio (z) = 0.09780 0.11374
#
# Static dielectric constant tensor:
#      x y z
#    x 2.809280 0.033300 -0.404610 
#    y 0.033300 1.872480 -0.045940 
#    z -0.404610 -0.045940 2.050770 
# 
# From -- ./inp_files/186642.got.cif
#   From: 2010.05.17/outbox.cif.g08.bks.cpg/sg2_94_cif.got.tgz:186642.got - 2010.06.03 11:33:40.
