data_PCOD9104907
_publ_section_title
;
Structure prediction by ZEFSAII (Michael W. Deem and Ramdas Pophale) SiO2 
 PCOD9104907
Probable space group: P -1
;
_chemical_formula_sum "Si O2"
_cell_formula_units_Z 16
_cell_length_a 8.569702
_cell_length_b 8.667660
_cell_length_c 26.169096
_cell_angle_alpha 30.189288
_cell_angle_beta 139.759140
_cell_angle_gamma 126.101257
_cell_volume 616.357198
_symmetry_space_group_name_H-M "P -1"
_symmetry_group_IT_number 2
_symmetry_cell_setting 'triclinic'
loop_
_space_group_symop_operation_xyz
x,y,z
-x,-y,-z
loop_
_atom_site_type_symbol
_atom_site_label
_atom_site_fract_x
_atom_site_fract_y
_atom_site_fract_z
Si Si1 0.346188 0.304247 0.245394
Si Si2 0.649125 0.278704 0.963646
Si Si3 0.289366 0.383124 0.562033
Si Si4 0.544432 0.320274 0.397466
Si Si5 0.210147 0.644579 0.367954
Si Si6 0.463562 0.797643 0.846456
Si Si7 0.842244 0.620137 0.073033
Si Si8 0.955215 0.234900 0.813369
O O1 0.538956 0.274843 0.348692
O O2 0.108706 0.555968 0.133378
O O3 0.246533 0.991358 0.295575
O O4 0.442493 0.458012 0.176946
O O5 0.942641 0.131448 0.070240
O O6 0.604408 0.468594 0.950692
O O7 0.500000 0.000000 0.000000
O O8 0.231693 0.610507 0.531865
O O9 0.125338 0.459974 0.447958
O O10 0.528169 0.462753 0.567484
O O11 0.369272 0.047406 0.706466
O O12 0.311202 0.595621 0.278652
O O13 0.500000 0.000000 0.500000
O O14 0.029568 0.631415 0.278267
O O15 0.236096 0.712608 0.844275
O O16 0.648421 0.850544 0.922802
O O17 0.869867 0.720448 0.109164
#
# Coordination Sequence:
#
# PCOD9104907 Si02
#       8
#     2   2   2   2   2   2   2   2
#     4  11  23  39  69  94 130 169 221 269 329 389
#     4  12  25  42  65  97 133 171 216 271 329 389
#     4  10  21  37  66  95 127 170 218 266 324 385
#     4  10  21  39  65  96 129 168 218 271 319 388
#     4  10  20  39  62  95 126 168 224 266 316 391
#     4  11  23  43  66  93 138 171 213 271 335 383
#     4  10  24  41  63  96 133 170 214 267 332 392
#     4  10  23  39  64  91 133 168 220 267 321 391
#
# _framework density 25.958973
#
# number of rings (size 3 to 8) (size 9 to 14) (size 15 to 20)
#    0.000    1.500    3.750    0.750    5.250    2.000 
#    0.000    1.250    5.500    0.000    0.000    0.000 
#    0.000    0.000    0.000    0.000    0.000    0.000 
#
# Total GULP energy -89130.880907 kJ/mol
# GULP energy per Si atom -5570.680057 kJ/mol
# Density = 2.589989 g / cm^3
# Si number density = 25.958973 Si / 1000 Ang^3
#
#
#
# Elastic Constant Matrix: (Units=GPa)
#
#
# Indices 1 2 3 4 5 6 
#
# 1 52.9497 34.7743 30.5801 9.2738 -27.1694 -10.1370
# 2 34.7743 113.8677 52.1172 18.7148 -22.8855 -23.3319
# 3 30.5801 52.1172 157.8921 11.4452 -66.7092 -10.0575
# 4 9.2738 18.7148 11.4452 45.0533 -18.2464 -14.9134
# 5 -27.1694 -22.8855 -66.7092 -18.2464 54.6882 8.3755
# 6 -10.1370 -23.3319 -10.0575 -14.9134 8.3755 36.3861
#
#
#
# Elastic Compliance Matrix: (Units=1/GPa)
#
#
# Indices 1 2 3 4 5 6 
#
# 1 0.030528 -0.007791 0.004022 0.003820 0.017765 0.002097
# 2 -0.007791 0.013947 -0.005209 -0.003724 -0.006441 0.005289
# 3 0.004022 -0.005209 0.015656 0.005690 0.020869 -0.000364
# 4 0.003820 -0.003724 0.005690 0.031168 0.016258 0.009281
# 5 0.017765 -0.006441 0.020869 0.016258 0.055213 0.000542
# 6 0.002097 0.005289 -0.000364 0.009281 0.000542 0.035037
#
#
# Mechanical properties :
#
#
# Convention : Reuss Voigt Hill
#
# Bulk Modulus (GPa) = 23.71203 62.18360 42.94782
# Shear Modulus (GPa) = 23.41208 41.04138 32.22673
#
# Velocity S-wave (km/s) = 3.00640 3.98050 3.52724
# Velocity P-wave (km/s) = 4.60495 6.71807 5.75925
#
# Compressibility (1/GPa) = 0.04217268
#
# Stress axis : x y z
#
# Youngs Moduli (GPa) = 32.75664 71.69976 63.87528
#
# Poissons Ratio (x) = 0.55864 -0.25687
# Poissons Ratio (y) = 0.25522 0.33274
# Poissons Ratio (z) = -0.13173 0.37349
#
# Static dielectric constant tensor:
#      x y z
#    x 2.085090 0.082940 0.042860 
#    y 0.082940 2.248350 0.091220 
#    z 0.042860 0.091220 2.200540 
# 
# From -- ./inp_files/606572.got.cif
#   From: 2010.05.17/outbox.cif.g08.bks.cpg/sg2_304_cif.got.tgz:606572.got - 2010.06.03 11:33:40.
