data_PCOD9104751
_publ_section_title
;
Structure prediction by ZEFSAII (Michael W. Deem and Ramdas Pophale) SiO2 
 PCOD9104751
Probable space group: P -1
;
_chemical_formula_sum "Si O2"
_cell_formula_units_Z 14
_cell_length_a 8.423836
_cell_length_b 13.376462
_cell_length_c 11.011667
_cell_angle_alpha 30.916316
_cell_angle_beta 58.023113
_cell_angle_gamma 52.164007
_cell_volume 503.468247
_symmetry_space_group_name_H-M "P -1"
_symmetry_group_IT_number 2
_symmetry_cell_setting 'triclinic'
loop_
_space_group_symop_operation_xyz
x,y,z
-x,-y,-z
loop_
_atom_site_type_symbol
_atom_site_label
_atom_site_fract_x
_atom_site_fract_y
_atom_site_fract_z
Si Si1 0.161021 0.155166 0.996834
Si Si2 0.522536 0.319297 0.394497
Si Si3 0.187446 0.302709 0.086441
Si Si4 0.305648 0.695808 0.412213
Si Si5 0.868299 0.300819 0.760963
Si Si6 0.200495 0.938213 0.630374
Si Si7 0.384374 0.946385 0.789027
O O1 0.981202 0.102546 0.190197
O O2 0.210787 0.284944 0.948999
O O3 0.063595 0.274744 0.788601
O O4 0.320764 0.923757 0.147748
O O5 0.686166 0.317498 0.432120
O O6 0.315994 0.508339 0.305360
O O7 0.639329 0.275243 0.266067
O O8 0.456703 0.116747 0.644475
O O9 0.413219 0.261196 0.084030
O O10 0.147100 0.106200 0.369141
O O11 0.000000 0.500000 0.000000
O O12 0.500000 0.500000 0.500000
O O13 0.134755 0.687174 0.396822
O O14 0.791152 0.110088 0.018273
O O15 0.303976 0.020088 0.610751
#
# Coordination Sequence:
#
# PCOD9104751 Si02
#       7
#     2   2   2   2   2   2   2
#     4  11  22  39  61  91 117 156 195 252 298 346
#     4  10  20  39  62  88 120 159 193 244 300 352
#     4  11  23  34  58  93 126 149 192 247 302 357
#     4  10  21  40  62  85 115 163 204 245 291 350
#     4  10  24  37  66  84 119 161 205 238 294 352
#     4  10  22  38  62  84 125 153 195 240 303 366
#     4  10  22  40  58  89 120 159 195 240 296 361
#
# _framework density 27.807113999999999
#
# number of rings (size 3 to 8) (size 9 to 14) (size 15 to 20)
#    0.000    1.714    2.857    2.571    6.000    2.857 
#    0.000    0.000    0.000    4.286    0.000    0.000 
#    0.000    0.000    0.000    0.000    0.000    0.000 
#
# Total GULP energy -78396.992964 kJ/mol
# GULP energy per Si atom -5599.785212 kJ/mol
# Density = 2.774382 g / cm^3
# Si number density = 27.807114 Si / 1000 Ang^3
#
#
#
# Elastic Constant Matrix: (Units=GPa)
#
#
# Indices 1 2 3 4 5 6 
#
# 1 106.5751 53.9061 32.8957 7.0891 5.6389 6.4560
# 2 53.9061 165.2121 48.7166 -22.2628 24.6119 15.0975
# 3 32.8957 48.7166 93.0436 -6.7612 26.0946 8.2428
# 4 7.0891 -22.2628 -6.7612 55.7640 -6.0195 8.7126
# 5 5.6389 24.6119 26.0946 -6.0195 59.2038 14.7802
# 6 6.4560 15.0975 8.2428 8.7126 14.7802 61.9785
#
#
#
# Elastic Compliance Matrix: (Units=1/GPa)
#
#
# Indices 1 2 3 4 5 6 
#
# 1 0.012388 -0.003822 -0.003018 -0.003351 0.001351 0.000191
# 2 -0.003822 0.008917 -0.002487 0.003844 -0.001447 -0.001638
# 3 -0.003018 -0.002487 0.014572 0.000594 -0.005068 0.000107
# 4 -0.003351 0.003844 0.000594 0.020751 0.001557 -0.003955
# 5 0.001351 -0.001447 -0.005068 0.001557 0.020829 -0.004300
# 6 0.000191 -0.001638 0.000107 -0.003955 -0.004300 0.018081
#
#
# Mechanical properties :
#
#
# Convention : Reuss Voigt Hill
#
# Bulk Modulus (GPa) = 58.06538 70.65195 64.35866
# Shear Modulus (GPa) = 41.69046 50.67675 46.18360
#
# Velocity S-wave (km/s) = 3.87625 4.27363 4.07978
# Velocity P-wave (km/s) = 6.40004 7.05797 6.73704
#
# Compressibility (1/GPa) = 0.01722197
#
# Stress axis : x y z
#
# Youngs Moduli (GPa) = 80.72565 112.15091 68.62654
#
# Poissons Ratio (x) = 0.42867 0.20709
# Poissons Ratio (y) = 0.30855 0.17068
# Poissons Ratio (z) = 0.24360 0.27892
#
# Static dielectric constant tensor:
#      x y z
#    x 2.159800 0.009500 -0.026220 
#    y 0.009500 2.136780 -0.044630 
#    z -0.026220 -0.044630 2.240000 
# 
# From -- ./inp_files/156694.got.cif
#   From: 2010.05.17/outbox.cif.g08.bks.cpg/sg2_79_cif.got.tgz:156694.got - 2010.06.03 11:33:40.
