data_PCOD9104197
_publ_section_title
;
Structure prediction by ZEFSAII (Michael W. Deem and Ramdas Pophale) SiO2 
 PCOD9104197
Probable space group: P -1
;
_chemical_formula_sum "Si O2"
_cell_formula_units_Z 14
_cell_length_a 9.372349
_cell_length_b 18.171528
_cell_length_c 14.677857
_cell_angle_alpha 159.409812
_cell_angle_beta 135.163665
_cell_angle_gamma 43.801308
_cell_volume 602.711994
_symmetry_space_group_name_H-M "P -1"
_symmetry_group_IT_number 2
_symmetry_cell_setting 'triclinic'
loop_
_space_group_symop_operation_xyz
x,y,z
-x,-y,-z
loop_
_atom_site_type_symbol
_atom_site_label
_atom_site_fract_x
_atom_site_fract_y
_atom_site_fract_z
Si Si1 0.545777 0.703641 0.649878
Si Si2 0.559112 0.395866 0.153728
Si Si3 0.559016 0.804961 0.506859
Si Si4 0.192337 0.176826 0.776486
Si Si5 0.303908 0.943544 0.969159
Si Si6 0.111701 0.921870 0.607010
Si Si7 0.868298 0.959497 0.725276
O O1 0.634366 0.478130 0.379306
O O2 0.696086 0.859744 0.874218
O O3 0.332265 0.797333 0.604060
O O4 0.471505 0.747540 0.770775
O O5 0.549132 0.584638 0.294714
O O6 0.722819 0.189738 0.951296
O O7 0.340284 0.335919 0.007161
O O8 0.630693 0.958984 0.795313
O O9 0.334140 0.944328 0.538333
O O10 0.726122 0.791844 0.487466
O O11 0.144181 0.128195 0.803290
O O12 0.983649 0.216531 0.669805
O O13 0.074716 0.905654 0.818687
O O14 0.951923 0.960773 0.662850
#
# Coordination Sequence:
#
# PCOD9104197 Si02
#       7
#     2   2   2   2   2   2   2
#     4   9  18  35  61  82 113 148 191 230 278 332
#     4  10  21  38  57  88 114 148 188 235 279 335
#     4  10  20  39  59  84 116 153 182 233 283 338
#     4  10  21  39  63  79 115 150 190 235 278 331
#     4   9  17  35  61  81 111 155 184 228 281 333
#     4  10  20  41  60  83 112 152 189 232 283 334
#     4  10  22  37  59  84 117 147 187 233 285 332
#
# _framework density 23.228342000000001
#
# number of rings (size 3 to 8) (size 9 to 14) (size 15 to 20)
#    0.000    2.286    2.857    0.429    0.000    5.143 
#    5.143    4.286    0.000    0.000    0.000    0.000 
#    0.000    0.000    0.000    0.000    0.000    0.000 
#
# Total GULP energy -78178.412220 kJ/mol
# GULP energy per Si atom -5584.172301 kJ/mol
# Density = 2.317547 g / cm^3
# Si number density = 23.228342 Si / 1000 Ang^3
#
#
#
# Elastic Constant Matrix: (Units=GPa)
#
#
# Indices 1 2 3 4 5 6 
#
# 1 176.1509 22.9635 33.2644 13.1758 27.6830 18.1965
# 2 22.9635 77.6934 11.8846 -0.4895 9.5850 10.2657
# 3 33.2644 11.8846 73.4637 12.8604 20.3710 7.4890
# 4 13.1758 -0.4895 12.8604 27.9803 2.2273 7.0938
# 5 27.6830 9.5850 20.3710 2.2273 33.7131 -5.0246
# 6 18.1965 10.2657 7.4890 7.0938 -5.0246 26.5951
#
#
#
# Elastic Compliance Matrix: (Units=1/GPa)
#
#
# Indices 1 2 3 4 5 6 
#
# 1 0.007569 -0.000611 -0.000783 -0.001301 -0.006312 -0.005568
# 2 -0.000611 0.014595 -0.000693 0.002892 -0.004407 -0.006624
# 3 -0.000783 -0.000693 0.018617 -0.006121 -0.010725 -0.004833
# 4 -0.001301 0.002892 -0.006121 0.041688 -0.000250 -0.009669
# 5 -0.006312 -0.004407 -0.010725 -0.000250 0.045226 0.017652
# 6 -0.005568 -0.006624 -0.004833 -0.009669 0.017652 0.051242
#
#
# Mechanical properties :
#
#
# Convention : Reuss Voigt Hill
#
# Bulk Modulus (GPa) = 27.31732 51.50367 39.41049
# Shear Modulus (GPa) = 25.59985 34.93740 30.26862
#
# Velocity S-wave (km/s) = 3.32338 3.88246 3.61375
# Velocity P-wave (km/s) = 5.14902 6.50530 5.86648
#
# Compressibility (1/GPa) = 0.03660681
#
# Stress axis : x y z
#
# Youngs Moduli (GPa) = 132.11926 68.51668 53.71427
#
# Poissons Ratio (x) = 0.04187 0.04204
# Poissons Ratio (y) = 0.08074 0.03724
# Poissons Ratio (z) = 0.10340 0.04750
#
# Static dielectric constant tensor:
#      x y z
#    x 1.904190 0.037520 -0.001150 
#    y 0.037520 1.908710 0.007800 
#    z -0.001150 0.007800 1.928130 
# 
# From -- ./inp_files/227557.got.cif
#   From: 2010.05.17/outbox.cif.g08.bks.cpg/sg2_114_cif.got.tgz:227557.got - 2010.06.03 11:33:40.
