data_PCOD9104698
_publ_section_title
;
Structure prediction by ZEFSAII (Michael W. Deem and Ramdas Pophale) SiO2 
 PCOD9104698
Probable space group: P -1
;
_chemical_formula_sum "Si O2"
_cell_formula_units_Z 16
_cell_length_a 13.058136
_cell_length_b 25.928081
_cell_length_c 8.641225
_cell_angle_alpha 136.059055
_cell_angle_beta 125.079921
_cell_angle_gamma 23.244686
_cell_volume 759.831313
_symmetry_space_group_name_H-M "P -1"
_symmetry_group_IT_number 2
_symmetry_cell_setting 'triclinic'
loop_
_space_group_symop_operation_xyz
x,y,z
-x,-y,-z
loop_
_atom_site_type_symbol
_atom_site_label
_atom_site_fract_x
_atom_site_fract_y
_atom_site_fract_z
Si Si1 0.952054 0.932590 0.973378
Si Si2 0.056250 0.487869 0.283838
Si Si3 0.455925 0.264223 0.423159
Si Si4 0.758684 0.072290 0.758474
Si Si5 0.567608 0.474912 0.246003
Si Si6 0.836576 0.682127 0.224127
Si Si7 0.740748 0.262565 0.707136
Si Si8 0.895986 0.318628 0.476549
O O1 0.034387 0.803957 0.757209
O O2 0.846118 0.008334 0.872635
O O3 0.189705 0.866392 0.079308
O O4 0.704852 0.079384 0.194186
O O5 0.780954 0.645298 0.482588
O O6 0.040127 0.543188 0.232389
O O7 0.309467 0.365551 0.353759
O O8 0.071542 0.395435 0.031863
O O9 0.577230 0.273757 0.627540
O O10 0.456837 0.200429 0.748178
O O11 0.969023 0.918509 0.496415
O O12 0.420710 0.609182 0.292682
O O13 0.757928 0.416187 0.406803
O O14 0.332087 0.559148 0.323614
O O15 0.738299 0.323015 0.973066
O O16 0.855187 0.760511 0.428234
#
# Coordination Sequence:
#
# PCOD9104698 Si02
#       8
#     2   2   2   2   2   2   2   2
#     4  10  21  39  62  86 117 159 199 242 292 352
#     4  10  22  38  59  89 119 155 197 245 294 350
#     4  10  20  39  62  85 115 156 202 243 290 350
#     4  10  21  39  62  86 117 159 199 242 292 352
#     4  10  22  38  59  89 119 155 197 245 294 350
#     4  11  23  39  61  90 123 157 194 244 298 351
#     4  10  20  39  62  85 115 156 202 243 290 350
#     4  11  23  39  61  90 123 157 194 244 298 351
#
# _framework density 21.057304999999999
#
# number of rings (size 3 to 8) (size 9 to 14) (size 15 to 20)
#    0.000    1.750    2.500    1.500    0.000    6.500 
#    0.000    6.250    0.000    0.000    0.000    0.000 
#    0.000    0.000    0.000    0.000    0.000    0.000 
#
# Total GULP energy -89384.892946 kJ/mol
# GULP energy per Si atom -5586.555809 kJ/mol
# Density = 2.100938 g / cm^3
# Si number density = 21.057305 Si / 1000 Ang^3
#
#
#
# Elastic Constant Matrix: (Units=GPa)
#
#
# Indices 1 2 3 4 5 6 
#
# 1 27.8323 20.7849 44.8556 -2.1575 16.4841 -14.6538
# 2 20.7849 54.3249 25.0207 -4.5379 13.1323 -23.7143
# 3 44.8556 25.0207 121.6522 7.9814 15.2555 -24.1087
# 4 -2.1575 -4.5379 7.9814 28.4590 -5.5208 -4.9140
# 5 16.4841 13.1323 15.2555 -5.5208 31.5814 -6.9293
# 6 -14.6538 -23.7143 -24.1087 -4.9140 -6.9293 35.2404
#
#
#
# Elastic Compliance Matrix: (Units=1/GPa)
#
#
# Indices 1 2 3 4 5 6 
#
# 1 0.176774 -0.023633 -0.052193 0.016789 -0.051184 0.014174
# 2 -0.023633 0.032516 0.004793 0.005031 0.000937 0.016218
# 3 -0.052193 0.004793 0.025602 -0.008113 0.011501 0.000167
# 4 0.016789 0.005031 -0.008113 0.041985 0.002868 0.011235
# 5 -0.051184 0.000937 0.011501 0.002868 0.052483 -0.002065
# 6 0.014174 0.016218 0.000167 0.011235 -0.002065 0.046459
#
#
# Mechanical properties :
#
#
# Convention : Reuss Voigt Hill
#
# Bulk Modulus (GPa) = 10.77294 42.79242 26.78268
# Shear Modulus (GPa) = 9.11032 26.59938 17.85485
#
# Velocity S-wave (km/s) = 2.08227 3.55799 2.91506
# Velocity P-wave (km/s) = 3.30276 6.10288 4.90680
#
# Compressibility (1/GPa) = 0.09282517
#
# Stress axis : x y z
#
# Youngs Moduli (GPa) = 5.65694 30.75422 39.05894
#
# Poissons Ratio (x) = 0.72681 2.03862
# Poissons Ratio (y) = 0.13369 -0.18720
# Poissons Ratio (z) = 0.29526 -0.14740
#
# Static dielectric constant tensor:
#      x y z
#    x 1.777530 0.024400 0.005330 
#    y 0.024400 1.760840 -0.001680 
#    z 0.005330 -0.001680 1.749090 
# 
# From -- ./inp_files/278665.got.cif
#   From: 2010.05.17/outbox.cif.g08.bks.cpg/sg2_140_cif.got.tgz:278665.got - 2010.06.03 11:33:40.
