data_PCOD9104050
_publ_section_title
;
Structure prediction by ZEFSAII (Michael W. Deem and Ramdas Pophale) SiO2 
 PCOD9104050
Probable space group: P -1
;
_chemical_formula_sum "Si O2"
_cell_formula_units_Z 14
_cell_length_a 11.788781
_cell_length_b 16.697004
_cell_length_c 6.491973
_cell_angle_alpha 122.897695
_cell_angle_beta 96.934085
_cell_angle_gamma 47.192900
_cell_volume 720.351429
_symmetry_space_group_name_H-M "P -1"
_symmetry_group_IT_number 2
_symmetry_cell_setting 'triclinic'
loop_
_space_group_symop_operation_xyz
x,y,z
-x,-y,-z
loop_
_atom_site_type_symbol
_atom_site_label
_atom_site_fract_x
_atom_site_fract_y
_atom_site_fract_z
Si Si1 0.098362 0.732783 0.669721
Si Si2 0.130635 0.881884 0.198723
Si Si3 0.409822 0.839694 0.096660
Si Si4 0.644712 0.344818 0.722938
Si Si5 0.574619 0.561050 0.547047
Si Si6 0.718268 0.909869 0.846112
Si Si7 0.478570 0.938515 0.594895
O O1 0.206257 0.698371 0.442803
O O2 0.226229 0.582548 0.609148
O O3 0.914679 0.802118 0.686524
O O4 0.072833 0.840552 0.961580
O O5 0.220945 0.913347 0.150938
O O6 0.272507 0.749938 0.191360
O O7 0.000000 0.000000 0.500000
O O8 0.453232 0.855582 0.352780
O O9 0.394692 0.935780 0.065787
O O10 0.532273 0.675967 0.844439
O O11 0.536187 0.344984 0.546822
O O12 0.500000 0.500000 0.000000
O O13 0.500000 0.500000 0.500000
O O14 0.640089 0.860733 0.666550
O O15 0.680552 0.941245 0.124709
O O16 0.500000 0.000000 0.500000
#
# Coordination Sequence:
#
# PCOD9104050 Si02
#       7
#     2   2   2   2   2   2   2
#     4  11  22  39  55  90 128 153 201 247 292 356
#     4  12  23  32  55  91 122 153 198 244 293 353
#     4  11  21  37  61  87 118 159 202 236 296 363
#     4  11  21  38  56  79 126 173 192 226 295 355
#     4  10  20  39  54  82 127 164 190 232 286 363
#     4  10  22  40  65  88 116 156 196 261 302 340
#     4   9  21  42  64  87 115 151 204 251 310 356
#
# _framework density 19.43496
#
# number of rings (size 3 to 8) (size 9 to 14) (size 15 to 20)
#    0.000    1.429    4.286    2.571    4.000    2.286 
#    0.000    0.714    0.000    7.714    0.000    0.000 
#    0.000    0.000    0.000    0.000    0.000    0.000 
#
# Total GULP energy -77986.541816 kJ/mol
# GULP energy per Si atom -5570.467273 kJ/mol
# Density = 1.939073 g / cm^3
# Si number density = 19.434960 Si / 1000 Ang^3
#
#
#
# Elastic Constant Matrix: (Units=GPa)
#
#
# Indices 1 2 3 4 5 6 
#
# 1 62.3076 10.2615 26.8187 12.1132 -1.4909 -28.1591
# 2 10.2615 55.1793 6.0160 5.6423 -7.6443 -10.4740
# 3 26.8187 6.0160 117.6152 12.3023 1.4976 -15.9352
# 4 12.1132 5.6423 12.3023 35.8357 1.0781 -4.4892
# 5 -1.4909 -7.6443 1.4976 1.0781 40.0317 -7.3394
# 6 -28.1591 -10.4740 -15.9352 -4.4892 -7.3394 23.9774
#
#
#
# Elastic Compliance Matrix: (Units=1/GPa)
#
#
# Indices 1 2 3 4 5 6 
#
# 1 0.041144 0.004801 -0.002001 -0.007912 0.012147 0.051323
# 2 0.004801 0.021819 0.000352 -0.003263 0.007556 0.017105
# 3 -0.002001 0.000352 0.009705 -0.002227 0.000416 0.003965
# 4 -0.007912 -0.003263 -0.002227 0.031033 -0.003010 -0.007309
# 5 0.012147 0.007556 0.000416 -0.003010 0.031899 0.027043
# 6 0.051323 0.017105 0.003965 -0.007309 0.027043 0.118997
#
#
# Mechanical properties :
#
#
# Convention : Reuss Voigt Hill
#
# Bulk Modulus (GPa) = 12.66273 35.69937 24.18105
# Shear Modulus (GPa) = 18.20722 32.76936 25.48829
#
# Velocity S-wave (km/s) = 3.06409 4.11067 3.62535
# Velocity P-wave (km/s) = 4.36437 6.39834 5.47661
#
# Compressibility (1/GPa) = 0.07897193
#
# Stress axis : x y z
#
# Youngs Moduli (GPa) = 24.30503 45.83189 103.03677
#
# Poissons Ratio (x) = -0.22003 0.20614
# Poissons Ratio (y) = -0.11668 -0.03626
# Poissons Ratio (z) = 0.04862 -0.01613
#
# Static dielectric constant tensor:
#      x y z
#    x 1.717520 0.017390 -0.002220 
#    y 0.017390 1.695270 -0.056000 
#    z -0.002220 -0.056000 1.769670 
# 
# From -- ./inp_files/81581.got.cif
#   From: 2010.05.17/outbox.cif.g08.bks.cpg/sg2_41_cif.got.tgz:81581.got - 2010.06.03 11:33:40.
