data_PCOD9104526
_publ_section_title
;
Structure prediction by ZEFSAII (Michael W. Deem and Ramdas Pophale) SiO2 
 PCOD9104526
Probable space group: P -1
;
_chemical_formula_sum "Si O2"
_cell_formula_units_Z 12
_cell_length_a 9.400938
_cell_length_b 9.171375
_cell_length_c 10.937557
_cell_angle_alpha 140.506908
_cell_angle_beta 98.316286
_cell_angle_gamma 65.819245
_cell_volume 522.690749
_symmetry_space_group_name_H-M "P -1"
_symmetry_group_IT_number 2
_symmetry_cell_setting 'triclinic'
loop_
_space_group_symop_operation_xyz
x,y,z
-x,-y,-z
loop_
_atom_site_type_symbol
_atom_site_label
_atom_site_fract_x
_atom_site_fract_y
_atom_site_fract_z
Si Si1 0.446826 0.765790 0.241988
Si Si2 0.755285 0.484031 0.242830
Si Si3 0.153020 0.770474 0.658339
Si Si4 0.883544 0.692315 0.893817
Si Si5 0.211442 0.059334 0.209858
Si Si6 0.821874 0.247898 0.628727
O O1 0.604580 0.716658 0.307598
O O2 0.307126 0.790956 0.333703
O O3 0.356965 0.993723 0.279601
O O4 0.500000 0.500000 0.000000
O O5 0.753914 0.436757 0.357237
O O6 0.924775 0.473722 0.220514
O O7 0.767905 0.215855 0.016191
O O8 0.222038 0.711462 0.493368
O O9 0.967197 0.812060 0.666407
O O10 0.142766 0.046050 0.873615
O O11 0.796176 0.780552 0.808025
O O12 0.828663 0.508689 0.839639
O O13 0.000000 0.000000 0.500000
#
# Coordination Sequence:
#
# PCOD9104526 Si02
#       6
#     2   2   2   2   2   2
#     4  10  20  39  61  87 129 158 186 253 309 344
#     4   8  17  35  63  87 120 159 194 243 303 349
#     4   9  18  38  61  89 121 153 203 245 287 360
#     4   9  20  39  67  86 114 165 203 236 295 359
#     4   8  15  35  61  87 118 160 196 235 298 364
#     4  12  24  38  63  93 119 155 206 250 290 351
#
# _framework density 22.958124999999999
#
# number of rings (size 3 to 8) (size 9 to 14) (size 15 to 20)
#    0.000    2.667    1.667    2.000    0.000    4.000 
#    0.000    8.333    0.000    0.000    0.000    0.000 
#    0.000    0.000    0.000    0.000    0.000    0.000 
#
# Total GULP energy -67115.072305 kJ/mol
# GULP energy per Si atom -5592.922692 kJ/mol
# Density = 2.290587 g / cm^3
# Si number density = 22.958125 Si / 1000 Ang^3
#
#
#
# Elastic Constant Matrix: (Units=GPa)
#
#
# Indices 1 2 3 4 5 6 
#
# 1 42.2286 41.9289 17.3924 13.1451 -0.4298 -18.7648
# 2 41.9289 100.9421 27.6705 16.6349 -3.3171 -42.6171
# 3 17.3924 27.6705 87.1576 5.4433 5.9427 -1.9328
# 4 13.1451 16.6349 5.4433 41.3872 7.2539 3.4751
# 5 -0.4298 -3.3171 5.9427 7.2539 29.9104 0.0893
# 6 -18.7648 -42.6171 -1.9328 3.4751 0.0893 43.9515
#
#
#
# Elastic Compliance Matrix: (Units=1/GPa)
#
#
# Indices 1 2 3 4 5 6 
#
# 1 0.043916 -0.012337 -0.004255 -0.009464 0.002382 0.007344
# 2 -0.012337 0.027613 -0.005656 -0.009372 0.006216 0.021987
# 3 -0.004255 -0.005656 0.014059 0.003095 -0.004211 -0.006919
# 4 -0.009464 -0.009372 0.003095 0.033573 -0.009886 -0.015626
# 5 0.002382 0.006216 -0.004211 -0.009886 0.037368 0.007565
# 6 0.007344 0.021987 -0.006919 -0.015626 0.007565 0.048123
#
#
# Mechanical properties :
#
#
# Convention : Reuss Voigt Hill
#
# Bulk Modulus (GPa) = 24.33551 44.92355 34.62953
# Shear Modulus (GPa) = 19.02266 32.60560 25.81413
#
# Velocity S-wave (km/s) = 2.88163 3.77267 3.35685
# Velocity P-wave (km/s) = 4.65776 6.21188 5.49009
#
# Compressibility (1/GPa) = 0.04109221
#
# Stress axis : x y z
#
# Youngs Moduli (GPa) = 22.77078 36.21489 71.13081
#
# Poissons Ratio (x) = 0.44677 0.30269
# Poissons Ratio (y) = 0.28092 0.40229
# Poissons Ratio (z) = 0.09690 0.20482
#
# Static dielectric constant tensor:
#      x y z
#    x 1.798220 -0.047340 0.048050 
#    y -0.047340 1.850510 0.005510 
#    z 0.048050 0.005510 1.924630 
# 
# From -- ./inp_files/146250.got.cif
#   From: 2010.05.17/outbox.cif.g08.bks.cpg/sg2_74_cif.got.tgz:146250.got - 2010.06.03 11:33:40.
