data_PCOD9104272
_publ_section_title
;
Structure prediction by ZEFSAII (Michael W. Deem and Ramdas Pophale) SiO2 
 PCOD9104272
Probable space group: P -1
;
_chemical_formula_sum "Si O2"
_cell_formula_units_Z 15
_cell_length_a 8.090416
_cell_length_b 18.666509
_cell_length_c 5.250580
_cell_angle_alpha 78.525120
_cell_angle_beta 119.952789
_cell_angle_gamma 118.853088
_cell_volume 600.823322
_symmetry_space_group_name_H-M "P -1"
_symmetry_group_IT_number 2
_symmetry_cell_setting 'triclinic'
loop_
_space_group_symop_operation_xyz
x,y,z
-x,-y,-z
loop_
_atom_site_type_symbol
_atom_site_label
_atom_site_fract_x
_atom_site_fract_y
_atom_site_fract_z
Si Si1 0.865803 0.564713 0.111477
Si Si2 0.717131 0.810736 0.989613
Si Si3 0.571347 0.716757 0.455551
Si Si4 0.152884 0.748962 0.148167
Si Si5 0.820275 0.086648 0.730117
Si Si6 0.713681 0.468217 0.559814
Si Si7 0.500000 0.000000 0.000000
Si Si8 0.644520 0.145866 0.193737
O O1 0.728515 0.518269 0.281950
O O2 0.957509 0.662270 0.122210
O O3 0.076978 0.548874 0.280537
O O4 0.742958 0.523418 0.789301
O O5 0.670167 0.749171 0.233153
O O6 0.936802 0.891925 0.137602
O O7 0.727493 0.769278 0.762359
O O8 0.513277 0.827905 0.806628
O O9 0.359525 0.731516 0.306095
O O10 0.484811 0.620608 0.501902
O O11 0.172390 0.821841 0.302389
O O12 0.155369 0.782701 0.840613
O O13 0.707133 0.030756 0.916264
O O14 0.685798 0.067215 0.373530
O O15 0.502578 0.909395 0.115243
#
# Coordination Sequence:
#
# PCOD9104272 Si02
#       8
#     2   2   2   2   2   2   1   2
#     4   9  17  28  51  89 115 164 208 256 302 371
#     4  11  24  39  68  94 127 165 216 246 315 366
#     4  10  20  39  59  93 127 169 208 268 300 372
#     4   9  20  35  62  87 128 162 217 255 313 362
#     4  11  23  42  66  93 124 166 201 263 305 382
#     4   9  17  29  52  83 126 156 210 256 311 349
#     4  10  24  44  66  96 128 158 206 252 318 370
#     4  10  22  43  64  94 125 166 201 261 308 375
#
# _framework density 24.965743
#
# number of rings (size 3 to 8) (size 9 to 14) (size 15 to 20)
#    0.000    2.133    1.333    1.200    5.600    3.733 
#    0.000    1.333    0.000    4.800    0.000    0.000 
#    0.000    0.000    0.000    0.000    0.000    0.000 
#
# Total GULP energy -83664.379759 kJ/mol
# GULP energy per Si atom -5577.625317 kJ/mol
# Density = 2.490892 g / cm^3
# Si number density = 24.965743 Si / 1000 Ang^3
#
#
#
# Elastic Constant Matrix: (Units=GPa)
#
#
# Indices 1 2 3 4 5 6 
#
# 1 68.6911 -0.9591 33.4059 -16.9031 -2.8219 16.8344
# 2 -0.9591 98.0915 15.2143 -21.7039 -11.4750 24.4016
# 3 33.4059 15.2143 96.3955 -16.8871 -18.1692 29.1960
# 4 -16.9031 -21.7039 -16.8871 31.7313 13.0811 -3.0816
# 5 -2.8219 -11.4750 -18.1692 13.0811 36.1685 -9.0313
# 6 16.8344 24.4016 29.1960 -3.0816 -9.0313 39.1738
#
#
#
# Elastic Compliance Matrix: (Units=1/GPa)
#
#
# Indices 1 2 3 4 5 6 
#
# 1 0.023107 0.006450 -0.004070 0.016308 -0.006895 -0.011221
# 2 0.006450 0.016450 0.001445 0.015133 -0.002385 -0.013455
# 3 -0.004070 0.001445 0.016150 0.004784 0.004058 -0.009876
# 4 0.016308 0.015133 0.004784 0.058429 -0.017510 -0.019440
# 5 -0.006895 -0.002385 0.004058 -0.017510 0.036859 0.008545
# 6 -0.011221 -0.013455 -0.009876 -0.019440 0.008545 0.046532
#
#
# Mechanical properties :
#
#
# Convention : Reuss Voigt Hill
#
# Bulk Modulus (GPa) = 15.78312 39.83337 27.80824
# Shear Modulus (GPa) = 23.69718 35.78252 29.73985
#
# Velocity S-wave (km/s) = 3.08423 3.78996 3.45516
# Velocity P-wave (km/s) = 4.36107 5.92803 5.20387
#
# Compressibility (1/GPa) = 0.06335884
#
# Stress axis : x y z
#
# Youngs Moduli (GPa) = 43.27688 60.78994 61.91795
#
# Poissons Ratio (x) = -0.39212 0.25200
# Poissons Ratio (y) = -0.27915 -0.08948
# Poissons Ratio (z) = 0.17613 -0.08785
#
# Static dielectric constant tensor:
#      x y z
#    x 1.937660 -0.028780 0.458850 
#    y -0.028780 1.945790 0.097680 
#    z 0.458850 0.097680 2.441820 
# 
# From -- ./inp_files/39217.got.cif
#   From: 2010.05.17/outbox.cif.g08.bks.cpg/sg2_20_cif.got.tgz:39217.got - 2010.06.03 11:33:40.
