data_PCOD9104444
_publ_section_title
;
Structure prediction by ZEFSAII (Michael W. Deem and Ramdas Pophale) SiO2 
 PCOD9104444
Probable space group: P -1
;
_chemical_formula_sum "Si O2"
_cell_formula_units_Z 12
_cell_length_a 12.078812
_cell_length_b 8.367386
_cell_length_c 9.480448
_cell_angle_alpha 105.810356
_cell_angle_beta 97.714097
_cell_angle_gamma 133.244696
_cell_volume 597.038207
_symmetry_space_group_name_H-M "P -1"
_symmetry_group_IT_number 2
_symmetry_cell_setting 'triclinic'
loop_
_space_group_symop_operation_xyz
x,y,z
-x,-y,-z
loop_
_atom_site_type_symbol
_atom_site_label
_atom_site_fract_x
_atom_site_fract_y
_atom_site_fract_z
Si Si1 0.009635 0.732719 0.189645
Si Si2 0.089639 0.779076 0.614342
Si Si3 0.610362 0.276088 0.526967
Si Si4 0.778134 0.566085 0.358925
Si Si5 0.956915 0.623250 0.840308
Si Si6 0.677869 0.813616 0.463984
O O1 0.842695 0.583302 0.220668
O O2 0.047311 0.579071 0.179685
O O3 0.983203 0.738621 0.022314
O O4 0.175575 0.009281 0.348499
O O5 0.000000 0.500000 0.500000
O O6 0.958111 0.767042 0.524735
O O7 0.101009 0.813500 0.791410
O O8 0.258141 0.991341 0.602999
O O9 0.661068 0.319484 0.380732
O O10 0.782238 0.475493 0.696688
O O11 0.499402 0.317290 0.539922
O O12 0.500000 0.000000 0.500000
O O13 0.687285 0.640600 0.361778
#
# Coordination Sequence:
#
# PCOD9104444 Si02
#       6
#     2   2   2   2   2   2
#     4  10  19  36  56  83 110 138 184 229 271 308
#     4  10  16  33  56  81 103 143 187 216 255 323
#     4  11  21  37  57  82 107 144 189 221 267 327
#     4  10  21  35  56  82 112 146 179 221 274 330
#     4  10  20  34  57  84 108 139 183 235 262 312
#     4  11  20  36  58  82 112 145 179 222 274 326
#
# _framework density 20.099216999999999
#
# number of rings (size 3 to 8) (size 9 to 14) (size 15 to 20)
#    0.000    1.667    5.000    3.500    0.000    0.000 
#    0.000   10.833    0.000    0.000    0.000    0.000 
#    0.000    0.000    0.000    0.000    0.000    0.000 
#
# Total GULP energy -66938.549466 kJ/mol
# GULP energy per Si atom -5578.212456 kJ/mol
# Density = 2.005347 g / cm^3
# Si number density = 20.099217 Si / 1000 Ang^3
#
#
#
# Elastic Constant Matrix: (Units=GPa)
#
#
# Indices 1 2 3 4 5 6 
#
# 1 117.9926 10.6024 21.2060 -3.9085 -17.2457 6.7378
# 2 10.6024 60.1268 36.9031 -22.2917 -7.3455 11.3797
# 3 21.2060 36.9031 127.3130 -41.9377 -17.7975 14.2865
# 4 -3.9085 -22.2917 -41.9377 30.6349 7.3672 -9.2718
# 5 -17.2457 -7.3455 -17.7975 7.3672 18.4588 -6.8963
# 6 6.7378 11.3797 14.2865 -9.2718 -6.8963 32.1829
#
#
#
# Elastic Compliance Matrix: (Units=1/GPa)
#
#
# Indices 1 2 3 4 5 6 
#
# 1 0.010010 -0.001169 -0.001161 -0.003401 0.009048 -0.000208
# 2 -0.001169 0.023604 -0.001829 0.013520 -0.000138 -0.003424
# 3 -0.001161 -0.001829 0.015376 0.018331 0.005926 0.000615
# 4 -0.003401 0.013520 0.018331 0.070608 -0.005723 0.006910
# 5 0.009048 -0.000138 0.005926 -0.005723 0.074225 0.009780
# 6 -0.000208 -0.003424 0.000615 0.006910 0.009780 0.036140
#
#
# Mechanical properties :
#
#
# Convention : Reuss Voigt Hill
#
# Bulk Modulus (GPa) = 24.58632 49.20618 36.89625
# Shear Modulus (GPa) = 19.85405 32.03672 25.94538
#
# Velocity S-wave (km/s) = 3.14634 3.99673 3.59676
# Velocity P-wave (km/s) = 5.04562 6.77003 5.97041
#
# Compressibility (1/GPa) = 0.04067303
#
# Stress axis : x y z
#
# Youngs Moduli (GPa) = 99.89588 42.36651 65.03706
#
# Poissons Ratio (x) = 0.04953 0.07549
# Poissons Ratio (y) = 0.11678 0.11892
# Poissons Ratio (z) = 0.11596 0.07747
#
# Static dielectric constant tensor:
#      x y z
#    x 1.756030 -0.013990 -0.034040 
#    y -0.013990 1.774950 -0.026800 
#    z -0.034040 -0.026800 1.702120 
# 
# From -- ./inp_files/145934.got.cif
#   From: 2010.05.17/outbox.cif.g08.bks.cpg/sg2_73_cif.got.tgz:145934.got - 2010.06.03 11:33:40.
