data_PCOD9104679
_publ_section_title
;
Structure prediction by ZEFSAII (Michael W. Deem and Ramdas Pophale) SiO2 
 PCOD9104679
Probable space group: P -1
;
_chemical_formula_sum "Si O2"
_cell_formula_units_Z 14
_cell_length_a 10.602224
_cell_length_b 10.661968
_cell_length_c 14.607418
_cell_angle_alpha 151.542460
_cell_angle_beta 54.652043
_cell_angle_gamma 114.463606
_cell_volume 622.508160
_symmetry_space_group_name_H-M "P -1"
_symmetry_group_IT_number 2
_symmetry_cell_setting 'triclinic'
loop_
_space_group_symop_operation_xyz
x,y,z
-x,-y,-z
loop_
_atom_site_type_symbol
_atom_site_label
_atom_site_fract_x
_atom_site_fract_y
_atom_site_fract_z
Si Si1 0.809534 0.817499 0.106898
Si Si2 0.181151 0.325473 0.799074
Si Si3 0.433362 0.037150 0.833495
Si Si4 0.249490 0.649992 0.621734
Si Si5 0.896120 0.670931 0.369147
Si Si6 0.757183 0.133561 0.839456
Si Si7 0.683050 0.856809 0.857142
O O1 0.792723 0.888844 0.267270
O O2 0.640229 0.806962 0.126563
O O3 0.854650 0.062025 0.187930
O O4 0.934681 0.532496 0.855178
O O5 0.197962 0.257533 0.641667
O O6 0.275596 0.546424 0.932604
O O7 0.000000 0.500000 0.000000
O O8 0.603118 0.062591 0.812040
O O9 0.414176 0.734068 0.629135
O O10 0.310664 0.137851 0.033696
O O11 0.184861 0.507490 0.642065
O O12 0.274765 0.439296 0.393223
O O13 0.897875 0.948967 0.600851
O O14 0.781901 0.024983 0.863790
O O15 0.500000 0.000000 0.000000
#
# Coordination Sequence:
#
# PCOD9104679 Si02
#       7
#     2   2   2   2   2   2   2
#     4   9  21  39  55  85 119 149 185 234 290 327
#     4  10  22  40  57  80 116 154 193 229 279 342
#     4   9  20  36  56  87 117 144 179 245 281 327
#     4   9  19  36  58  88 113 145 189 232 284 330
#     4  10  20  39  62  82 112 155 191 233 272 341
#     4  10  21  36  59  87 108 149 201 224 279 342
#     4   9  18  34  58  86 116 147 185 228 281 340
#
# _framework density 22.489664000000001
#
# number of rings (size 3 to 8) (size 9 to 14) (size 15 to 20)
#    0.857    1.714    0.000    1.286    0.000   10.286 
#    7.714    2.143    0.000    0.000    0.000    0.000 
#    0.000    0.000    0.000    0.000    0.000    0.000 
#
# Total GULP energy -77983.342340 kJ/mol
# GULP energy per Si atom -5570.238739 kJ/mol
# Density = 2.243848 g / cm^3
# Si number density = 22.489664 Si / 1000 Ang^3
#
#
#
# Elastic Constant Matrix: (Units=GPa)
#
#
# Indices 1 2 3 4 5 6 
#
# 1 38.7998 39.7701 -25.9964 8.2685 -12.0954 -54.8034
# 2 39.7701 51.0025 38.8479 -15.8462 33.6045 -4.0685
# 3 -25.9964 38.8479 32.0364 -1.0562 -16.0895 -53.4266
# 4 8.2685 -15.8462 -1.0562 17.2998 -0.0498 24.8595
# 5 -12.0954 33.6045 -16.0895 -0.0498 8.3381 -28.2913
# 6 -54.8034 -4.0685 -53.4266 24.8595 -28.2913 9.4657
#
#
#
# Elastic Compliance Matrix: (Units=1/GPa)
#
#
# Indices 1 2 3 4 5 6 
#
# 1 0.011676 0.003956 -0.005075 -0.000035 -0.014164 -0.001582
# 2 0.003956 0.024409 0.001455 -0.010748 -0.016086 0.021753
# 3 -0.005075 0.001455 0.013298 0.012535 -0.006337 -0.005556
# 4 -0.000035 -0.010748 0.012535 0.064456 0.030942 -0.010874
# 5 -0.014164 -0.016086 -0.006337 0.030942 0.059798 -0.027225
# 6 -0.001582 0.021753 -0.005556 -0.010874 -0.027225 0.021669
#
#
# Mechanical properties :
#
#
# Convention : Reuss Voigt Hill
#
# Bulk Modulus (GPa) = 19.97789 25.23133 22.60461
# Shear Modulus (GPa) = 23.66073 11.63520 17.64797
#
# Velocity S-wave (km/s) = 3.24708 2.27702 2.80431
# Velocity P-wave (km/s) = 4.79171 4.26105 4.53415
#
# Compressibility (1/GPa) = 0.05005535
#
# Stress axis : x y z
#
# Youngs Moduli (GPa) = 85.64338 40.96839 75.19662
#
# Poissons Ratio (x) = -0.16206 0.38159
# Poissons Ratio (y) = -0.33879 -0.10937
# Poissons Ratio (z) = 0.43460 -0.05959
#
# Static dielectric constant tensor:
#      x y z
#    x 1.834800 -0.179410 -0.104150 
#    y -0.179410 0.926840 -0.515040 
#    z -0.104150 -0.515040 1.586690 
# 
# From -- ./inp_files/519331.got.cif
#   From: 2010.05.17/outbox.cif.g08.bks.cpg/sg2_260_cif.got.tgz:519331.got - 2010.06.03 11:33:40.
