data_PCOD9104167
_publ_section_title
;
Structure prediction by ZEFSAII (Michael W. Deem and Ramdas Pophale) SiO2 
 PCOD9104167
Probable space group: P -1
;
_chemical_formula_sum "Si O2"
_cell_formula_units_Z 14
_cell_length_a 10.093964
_cell_length_b 12.549349
_cell_length_c 9.836683
_cell_angle_alpha 91.376230
_cell_angle_beta 108.214625
_cell_angle_gamma 144.492287
_cell_volume 593.459062
_symmetry_space_group_name_H-M "P -1"
_symmetry_group_IT_number 2
_symmetry_cell_setting 'triclinic'
loop_
_space_group_symop_operation_xyz
x,y,z
-x,-y,-z
loop_
_atom_site_type_symbol
_atom_site_label
_atom_site_fract_x
_atom_site_fract_y
_atom_site_fract_z
Si Si1 0.999318 0.125778 0.139774
Si Si2 0.753281 0.420460 0.450006
Si Si3 0.362771 0.702580 0.283891
Si Si4 0.579664 0.652372 0.937585
Si Si5 0.180682 0.539876 0.926842
Si Si6 0.497382 0.101879 0.153338
Si Si7 0.876190 0.155070 0.374926
O O1 0.007783 0.175378 0.295313
O O2 0.813561 0.893768 0.071658
O O3 0.287233 0.296030 0.160439
O O4 0.821083 0.098468 0.000489
O O5 0.696847 0.386695 0.591986
O O6 0.515583 0.205143 0.280584
O O7 0.000000 0.500000 0.500000
O O8 0.882645 0.620718 0.467403
O O9 0.145428 0.657409 0.197192
O O10 0.680217 0.948726 0.391670
O O11 0.289111 0.593067 0.116250
O O12 0.500000 0.500000 0.000000
O O13 0.296787 0.531086 0.860732
O O14 0.327694 0.743353 0.918688
O O15 0.654608 0.099258 0.249526
#
# Coordination Sequence:
#
# PCOD9104167 Si02
#       7
#     2   2   2   2   2   2   2
#     4  10  22  38  59  90 113 151 208 236 280 352
#     4  10  22  38  53  90 129 154 178 233 311 353
#     4  11  21  35  60  90 121 145 196 239 288 363
#     4  10  22  37  57  86 119 151 196 254 285 323
#     4  10  21  37  58  92 116 146 201 242 283 346
#     4  10  20  39  58  90 125 148 187 240 300 349
#     4  11  21  34  63  88 119 154 187 240 296 343
#
# _framework density 23.590508
#
# number of rings (size 3 to 8) (size 9 to 14) (size 15 to 20)
#    0.000    1.714    5.714    0.429    4.000    2.286 
#    0.000    0.000    0.000    8.571    0.000    0.000 
#    0.000    0.000    0.000    0.000    0.000    0.000 
#
# Total GULP energy -78112.242823 kJ/mol
# GULP energy per Si atom -5579.445916 kJ/mol
# Density = 2.353682 g / cm^3
# Si number density = 23.590508 Si / 1000 Ang^3
#
#
#
# Elastic Constant Matrix: (Units=GPa)
#
#
# Indices 1 2 3 4 5 6 
#
# 1 91.0176 35.1940 11.3957 -2.1344 -28.0923 24.8281
# 2 35.1940 121.7168 53.7179 -12.1105 -28.4435 17.6328
# 3 11.3957 53.7179 110.4196 -5.5583 -29.8231 12.4441
# 4 -2.1344 -12.1105 -5.5583 23.2112 -0.0499 -6.4035
# 5 -28.0923 -28.4435 -29.8231 -0.0499 27.2345 -10.6264
# 6 24.8281 17.6328 12.4441 -6.4035 -10.6264 41.4872
#
#
#
# Elastic Compliance Matrix: (Units=1/GPa)
#
#
# Indices 1 2 3 4 5 6 
#
# 1 0.019634 -0.002100 0.005584 0.000157 0.021436 -0.007017
# 2 -0.002100 0.012682 -0.003809 0.005408 0.006751 -0.000427
# 3 0.005584 -0.003809 0.015507 0.001887 0.018212 -0.001418
# 4 0.000157 0.005408 0.001887 0.048402 0.010806 0.007280
# 5 0.021436 0.006751 0.018212 0.010806 0.086924 0.002772
# 6 -0.007017 -0.000427 -0.001418 0.007280 0.002772 0.030744
#
#
# Mechanical properties :
#
#
# Convention : Reuss Voigt Hill
#
# Bulk Modulus (GPa) = 21.19929 58.19658 39.69793
# Shear Modulus (GPa) = 21.71391 33.24302 27.47847
#
# Velocity S-wave (km/s) = 3.03719 3.75796 3.41663
# Velocity P-wave (km/s) = 4.61576 6.59945 5.69464
#
# Compressibility (1/GPa) = 0.04717140
#
# Stress axis : x y z
#
# Youngs Moduli (GPa) = 50.93281 78.85500 64.48730
#
# Poissons Ratio (x) = 0.16558 -0.36007
# Poissons Ratio (y) = 0.10695 0.24564
# Poissons Ratio (z) = -0.28438 0.30036
#
# Static dielectric constant tensor:
#      x y z
#    x 1.943820 -0.093970 0.026350 
#    y -0.093970 2.039230 0.032360 
#    z 0.026350 0.032360 1.964930 
# 
# From -- ./inp_files/201154.got.cif
#   From: 2010.05.17/outbox.cif.g08.bks.cpg/sg2_101_cif.got.tgz:201154.got - 2010.06.03 11:33:40.
