data_PCOD9104065
_publ_section_title
;
Structure prediction by ZEFSAII (Michael W. Deem and Ramdas Pophale) SiO2 
 PCOD9104065
Probable space group: P -1
;
_chemical_formula_sum "Si O2"
_cell_formula_units_Z 16
_cell_length_a 14.714692
_cell_length_b 9.342302
_cell_length_c 24.490687
_cell_angle_alpha 51.586175
_cell_angle_beta 151.600075
_cell_angle_gamma 147.808003
_cell_volume 745.697606
_symmetry_space_group_name_H-M "P -1"
_symmetry_group_IT_number 2
_symmetry_cell_setting 'triclinic'
loop_
_space_group_symop_operation_xyz
x,y,z
-x,-y,-z
loop_
_atom_site_type_symbol
_atom_site_label
_atom_site_fract_x
_atom_site_fract_y
_atom_site_fract_z
Si Si1 0.392133 0.770053 0.415294
Si Si2 0.240018 0.816917 0.018671
Si Si3 0.682085 0.914858 0.155267
Si Si4 0.967987 0.322443 0.651988
Si Si5 0.309015 0.633409 0.292763
Si Si6 0.075779 0.140661 0.413225
Si Si7 0.365079 0.951882 0.727349
Si Si8 0.304653 0.250542 0.907290
O O1 0.222709 0.721306 0.390143
O O2 0.276653 0.744397 0.300994
O O3 0.300287 0.486414 0.434044
O O4 0.758359 0.094889 0.544468
O O5 0.419741 0.849998 0.056966
O O6 0.525095 0.060963 0.155928
O O7 0.000000 0.500000 0.000000
O O8 0.136523 0.941511 0.917928
O O9 0.529515 0.699517 0.072710
O O10 0.007109 0.266273 0.223399
O O11 0.826347 0.915872 0.284325
O O12 0.205672 0.665170 0.677339
O O13 0.088464 0.237031 0.767525
O O14 0.664179 0.813936 0.446038
O O15 0.340675 0.746382 0.223782
O O16 0.863782 0.058281 0.370984
O O17 0.500000 0.500000 0.000000
#
# Coordination Sequence:
#
# PCOD9104065 Si02
#       8
#     2   2   2   2   2   2   2   2
#     4   9  19  34  60  84 119 162 197 255 302 381
#     4  11  24  45  63  88 119 166 211 262 305 351
#     4  10  22  40  65  89 122 159 211 257 305 369
#     4  10  20  39  56  85 126 160 199 244 324 359
#     4  11  19  34  62  92 118 159 211 245 307 368
#     4   9  18  35  59  89 119 156 210 247 307 362
#     4  10  21  35  54  87 127 159 198 262 298 366
#     4  12  23  39  66  90 121 166 209 249 307 371
#
# _framework density 21.456417999999999
#
# number of rings (size 3 to 8) (size 9 to 14) (size 15 to 20)
#    0.000    1.750    1.250    5.250    0.000    0.500 
#    0.000    5.625    0.000    0.000    0.000    0.000 
#    0.000    0.000    0.000    0.000    0.000    0.000 
#
# Total GULP energy -89110.980664 kJ/mol
# GULP energy per Si atom -5569.436291 kJ/mol
# Density = 2.140758 g / cm^3
# Si number density = 21.456418 Si / 1000 Ang^3
#
#
#
# Elastic Constant Matrix: (Units=GPa)
#
#
# Indices 1 2 3 4 5 6 
#
# 1 87.0162 33.8728 12.2045 10.0120 -28.3519 -5.8988
# 2 33.8728 74.0483 7.8255 1.8719 0.6416 1.8026
# 3 12.2045 7.8255 58.5330 4.0485 -18.7030 -7.5123
# 4 10.0120 1.8719 4.0485 30.0683 -4.6715 -2.9897
# 5 -28.3519 0.6416 -18.7030 -4.6715 39.6660 6.2309
# 6 -5.8988 1.8026 -7.5123 -2.9897 6.2309 28.5844
#
#
#
# Elastic Compliance Matrix: (Units=1/GPa)
#
#
# Indices 1 2 3 4 5 6 
#
# 1 0.020432 -0.009669 0.002367 -0.003997 0.015134 0.001731
# 2 -0.009669 0.018393 -0.003468 0.001026 -0.008388 -0.002131
# 3 0.002367 -0.003468 0.021130 -0.001343 0.010967 0.003729
# 4 -0.003997 0.001026 -0.001343 0.034978 0.000242 0.002363
# 5 0.015134 -0.008388 0.010967 0.000242 0.041763 -0.002544
# 6 0.001731 -0.002131 0.003729 0.002363 -0.002544 0.037258
#
#
# Mechanical properties :
#
#
# Convention : Reuss Voigt Hill
#
# Bulk Modulus (GPa) = 26.03101 36.37815 31.20458
# Shear Modulus (GPa) = 24.00410 30.71005 27.35707
#
# Velocity S-wave (km/s) = 3.34838 3.78732 3.57460
# Velocity P-wave (km/s) = 5.20646 6.00969 5.62244
#
# Compressibility (1/GPa) = 0.03841572
#
# Stress axis : x y z
#
# Youngs Moduli (GPa) = 48.94247 54.36935 47.32545
#
# Poissons Ratio (x) = 0.52569 -0.11201
# Poissons Ratio (y) = 0.47322 0.16411
# Poissons Ratio (z) = -0.11584 0.18853
#
# Static dielectric constant tensor:
#      x y z
#    x 1.836670 -0.021000 -0.008760 
#    y -0.021000 1.808800 -0.001020 
#    z -0.008760 -0.001020 1.899390 
# 
# From -- ./inp_files/611748.got.cif
#   From: 2010.05.17/outbox.cif.g08.bks.cpg/sg2_306_cif.got.tgz:611748.got - 2010.06.03 11:33:40.
