data_PCOD9104251
_publ_section_title
;
Structure prediction by ZEFSAII (Michael W. Deem and Ramdas Pophale) SiO2 
 PCOD9104251
Probable space group: P -1
;
_chemical_formula_sum "Si O2"
_cell_formula_units_Z 16
_cell_length_a 8.783088
_cell_length_b 12.080500
_cell_length_c 17.115003
_cell_angle_alpha 137.847162
_cell_angle_beta 39.515710
_cell_angle_gamma 137.802173
_cell_volume 712.213449
_symmetry_space_group_name_H-M "P -1"
_symmetry_group_IT_number 2
_symmetry_cell_setting 'triclinic'
loop_
_space_group_symop_operation_xyz
x,y,z
-x,-y,-z
loop_
_atom_site_type_symbol
_atom_site_label
_atom_site_fract_x
_atom_site_fract_y
_atom_site_fract_z
Si Si1 0.130955 0.172466 0.481681
Si Si2 0.888538 0.605843 0.253830
Si Si3 0.215099 0.365310 0.014123
Si Si4 0.636678 0.519742 0.700832
Si Si5 0.291739 0.062547 0.757382
Si Si6 0.213040 0.188074 0.079930
Si Si7 0.857518 0.219996 0.461798
Si Si8 0.604109 0.055298 0.779867
O O1 0.186067 0.343830 0.604351
O O2 0.945266 0.171011 0.483828
O O3 0.375086 0.136618 0.331087
O O4 0.000000 0.000000 0.500000
O O5 0.633247 0.536968 0.266922
O O6 0.027847 0.467061 0.127946
O O7 0.114175 0.791618 0.231518
O O8 0.120776 0.236001 0.059011
O O9 0.500000 0.500000 0.000000
O O10 0.249759 0.247352 0.867239
O O11 0.638459 0.629994 0.835685
O O12 0.698222 0.345098 0.600792
O O13 0.875318 0.653459 0.622698
O O14 0.522747 0.092715 0.744049
O O15 0.294772 0.955586 0.622359
O O16 0.035132 0.926357 0.831552
O O17 0.400928 0.086020 0.933972
#
# Coordination Sequence:
#
# PCOD9104251 Si02
#       8
#     2   2   2   2   2   2   2   2
#     4  10  23  41  62  90 124 166 212 260 319 374
#     4  11  22  39  59  93 126 164 216 259 315 378
#     4  11  20  38  61  94 127 166 207 255 319 375
#     4  10  23  40  65  95 126 169 212 260 322 372
#     4  10  21  39  66  91 123 171 211 256 322 376
#     4  10  21  39  63  91 127 170 210 257 315 383
#     4  10  22  44  64  91 129 166 215 265 312 378
#     4  10  20  39  59  89 129 160 211 261 312 378
#
# _framework density 22.465176
#
# number of rings (size 3 to 8) (size 9 to 14) (size 15 to 20)
#    0.000    1.750    2.500    3.000    0.000    4.000 
#    4.500    7.500    0.000    0.000    0.000    0.000 
#    0.000    0.000    0.000    0.000    0.000    0.000 
#
# Total GULP energy -89497.178465 kJ/mol
# GULP energy per Si atom -5593.573654 kJ/mol
# Density = 2.241404 g / cm^3
# Si number density = 22.465176 Si / 1000 Ang^3
#
#
#
# Elastic Constant Matrix: (Units=GPa)
#
#
# Indices 1 2 3 4 5 6 
#
# 1 140.5360 25.1895 85.4438 28.1339 -6.2699 15.2419
# 2 25.1895 66.4499 43.6295 12.4578 0.9351 9.6155
# 3 85.4438 43.6295 187.5743 31.4882 -8.2885 8.2185
# 4 28.1339 12.4578 31.4882 44.5354 1.8013 6.0706
# 5 -6.2699 0.9351 -8.2885 1.8013 50.1679 4.4911
# 6 15.2419 9.6155 8.2185 6.0706 4.4911 35.1459
#
#
#
# Elastic Compliance Matrix: (Units=1/GPa)
#
#
# Indices 1 2 3 4 5 6 
#
# 1 0.010707 -0.000321 -0.004041 -0.003431 0.001082 -0.003156
# 2 -0.000321 0.018489 -0.003715 -0.001819 -0.000606 -0.003659
# 3 -0.004041 -0.003715 0.008463 -0.002582 0.000955 0.001114
# 4 -0.003431 -0.001819 -0.002582 0.027283 -0.001630 -0.001915
# 5 0.001082 -0.000606 0.000955 -0.001630 0.020553 -0.002872
# 6 -0.003156 -0.003659 0.001114 -0.001915 -0.002872 0.031260
#
#
# Mechanical properties :
#
#
# Convention : Reuss Voigt Hill
#
# Bulk Modulus (GPa) = 46.50093 78.12062 62.31078
# Shear Modulus (GPa) = 35.69450 41.98967 38.84209
#
# Velocity S-wave (km/s) = 3.99040 4.32800 4.16262
# Velocity P-wave (km/s) = 6.47882 7.73466 7.13443
#
# Compressibility (1/GPa) = 0.02150495
#
# Stress axis : x y z
#
# Youngs Moduli (GPa) = 93.39471 54.08605 118.16316
#
# Poissons Ratio (x) = 0.01737 0.47745
# Poissons Ratio (y) = 0.03000 0.43902
# Poissons Ratio (z) = 0.37737 0.20095
#
# Static dielectric constant tensor:
#      x y z
#    x 1.767110 -0.019800 0.019690 
#    y -0.019800 1.919890 -0.026100 
#    z 0.019690 -0.026100 1.896610 
# 
# From -- ./inp_files/560005.got.cif
#   From: 2010.05.17/outbox.cif.g08.bks.cpg/sg2_281_cif.got.tgz:560005.got - 2010.06.03 11:33:40.
