data_PCOD9104693
_publ_section_title
;
Structure prediction by ZEFSAII (Michael W. Deem and Ramdas Pophale) SiO2 
 PCOD9104693
Probable space group: P -1
;
_chemical_formula_sum "Si O2"
_cell_formula_units_Z 16
_cell_length_a 8.707612
_cell_length_b 9.461310
_cell_length_c 14.786945
_cell_angle_alpha 42.242954
_cell_angle_beta 86.816494
_cell_angle_gamma 66.572231
_cell_volume 692.873746
_symmetry_space_group_name_H-M "P -1"
_symmetry_group_IT_number 2
_symmetry_cell_setting 'triclinic'
loop_
_space_group_symop_operation_xyz
x,y,z
-x,-y,-z
loop_
_atom_site_type_symbol
_atom_site_label
_atom_site_fract_x
_atom_site_fract_y
_atom_site_fract_z
Si Si1 0.833982 0.061589 0.068161
Si Si2 0.235346 0.237518 0.320880
Si Si3 0.155258 0.849781 0.488742
Si Si4 0.566982 0.623853 0.087947
Si Si5 0.833026 0.599687 0.220849
Si Si6 0.827322 0.080686 0.755357
Si Si7 0.215388 0.354556 0.069692
Si Si8 0.656564 0.457290 0.734078
O O1 0.873705 0.789538 0.176019
O O2 0.622900 0.200396 0.038980
O O3 0.807389 0.220015 0.902938
O O4 0.983281 0.052033 0.132612
O O5 0.284857 0.314733 0.188833
O O6 0.306963 0.323689 0.359891
O O7 0.015650 0.410525 0.249397
O O8 0.285705 0.956532 0.451026
O O9 0.202944 0.570981 0.631710
O O10 0.121144 0.902586 0.357612
O O11 0.000000 0.000000 0.500000
O O12 0.660807 0.733239 0.096486
O O13 0.520803 0.478784 0.231792
O O14 0.711232 0.509388 0.057680
O O15 0.690952 0.339521 0.689438
O O16 0.734777 0.917742 0.836425
O O17 0.000000 0.500000 0.000000
#
# Coordination Sequence:
#
# PCOD9104693 Si02
#       8
#     2   2   2   2   2   2   2   2
#     4  10  22  35  62  97 128 151 197 264 314 358
#     4  10  20  39  62  84 123 164 206 252 298 368
#     4   9  23  41  63  88 121 168 223 243 289 368
#     4  10  24  34  60  96 130 158 191 263 317 368
#     4  11  19  40  61  88 124 166 205 253 303 360
#     4  11  21  39  64  90 119 168 209 251 299 365
#     4  11  21  35  60  89 123 165 202 240 318 375
#     4  10  22  38  61  96 127 154 202 260 314 356
#
# _framework density 23.092229
#
# number of rings (size 3 to 8) (size 9 to 14) (size 15 to 20)
#    0.750    1.000    2.500    2.250    1.750    1.000 
#    0.000    1.250    0.000    0.000    0.000    0.000 
#    0.000    0.000    0.000    0.000    0.000    0.000 
#
# Total GULP energy -89128.254667 kJ/mol
# GULP energy per Si atom -5570.515917 kJ/mol
# Density = 2.303967 g / cm^3
# Si number density = 23.092229 Si / 1000 Ang^3
#
#
#
# Elastic Constant Matrix: (Units=GPa)
#
#
# Indices 1 2 3 4 5 6 
#
# 1 87.6708 29.6456 13.2937 8.3570 -6.5703 -4.9899
# 2 29.6456 98.5947 32.3643 13.8586 -19.8178 19.0572
# 3 13.2937 32.3643 81.0451 15.7470 -19.7333 -2.7971
# 4 8.3570 13.8586 15.7470 33.0060 1.5884 -13.2624
# 5 -6.5703 -19.8178 -19.7333 1.5884 25.6327 5.7180
# 6 -4.9899 19.0572 -2.7971 -13.2624 5.7180 41.7236
#
#
#
# Elastic Compliance Matrix: (Units=1/GPa)
#
#
# Indices 1 2 3 4 5 6 
#
# 1 0.013282 -0.005303 -0.000702 0.001186 -0.002350 0.004663
# 2 -0.005303 0.021759 -0.000421 -0.015983 0.020247 -0.018456
# 3 -0.000702 -0.000421 0.018256 -0.010756 0.015144 -0.004162
# 4 0.001186 -0.015983 -0.010756 0.054613 -0.030007 0.028193
# 5 -0.002350 0.020247 0.015144 -0.030007 0.073867 -0.028175
# 6 0.004663 -0.018456 -0.004162 0.028193 -0.028175 0.045498
#
#
# Mechanical properties :
#
#
# Convention : Reuss Voigt Hill
#
# Bulk Modulus (GPa) = 24.72591 46.43531 35.58061
# Shear Modulus (GPa) = 19.71533 32.87290 26.29412
#
# Velocity S-wave (km/s) = 2.92510 3.77709 3.37806
# Velocity P-wave (km/s) = 4.70520 6.25892 5.53683
#
# Compressibility (1/GPa) = 0.04044341
#
# Stress axis : x y z
#
# Youngs Moduli (GPa) = 75.28747 45.95824 54.77727
#
# Poissons Ratio (x) = 0.24374 0.03848
# Poissons Ratio (y) = 0.39928 0.02306
# Poissons Ratio (z) = 0.05289 0.01934
#
# Static dielectric constant tensor:
#      x y z
#    x 1.921130 -0.063260 0.054160 
#    y -0.063260 1.956990 -0.025190 
#    z 0.054160 -0.025190 1.917950 
# 
# From -- ./inp_files/492048.got.cif
#   From: 2010.05.17/outbox.cif.g08.bks.cpg/sg2_247_cif.got.tgz:492048.got - 2010.06.03 11:33:40.
