data_PCOD9104427
_publ_section_title
;
Structure prediction by ZEFSAII (Michael W. Deem and Ramdas Pophale) SiO2 
 PCOD9104427
Probable space group: P -1
;
_chemical_formula_sum "Si O2"
_cell_formula_units_Z 16
_cell_length_a 17.367139
_cell_length_b 5.819296
_cell_length_c 8.199831
_cell_angle_alpha 99.677204
_cell_angle_beta 129.501435
_cell_angle_gamma 81.191798
_cell_volume 629.178501
_symmetry_space_group_name_H-M "P -1"
_symmetry_group_IT_number 2
_symmetry_cell_setting 'triclinic'
loop_
_space_group_symop_operation_xyz
x,y,z
-x,-y,-z
loop_
_atom_site_type_symbol
_atom_site_label
_atom_site_fract_x
_atom_site_fract_y
_atom_site_fract_z
Si Si1 0.066208 0.204736 0.181025
Si Si2 0.952079 0.582963 0.272046
Si Si3 0.314933 0.796493 0.592654
Si Si4 0.570016 0.629638 0.487264
Si Si5 0.228872 0.668994 0.923827
Si Si6 0.880881 0.108264 0.503091
Si Si7 0.739399 0.916035 0.745039
Si Si8 0.430980 0.687711 0.030890
O O1 0.155973 0.221175 0.175158
O O2 0.993670 0.421223 0.160734
O O3 0.114328 0.127924 0.413973
O O4 0.000000 0.000000 0.000000
O O5 0.836460 0.544052 0.137736
O O6 0.000000 0.500000 0.500000
O O7 0.005415 0.820016 0.340348
O O8 0.367954 0.571546 0.553705
O O9 0.201620 0.739786 0.482404
O O10 0.378733 0.857547 0.845491
O O11 0.306904 0.008411 0.482911
O O12 0.500000 0.500000 0.500000
O O13 0.653848 0.778576 0.699276
O O14 0.497688 0.772649 0.278899
O O15 0.166208 0.838439 0.730699
O O16 0.333695 0.587115 0.973615
O O17 0.243972 0.841809 0.114362
O O18 0.500000 0.500000 0.000000
#
# Coordination Sequence:
#
# PCOD9104427 Si02
#       8
#     2   2   2   2   2   2   2   2
#     4  11  22  42  63  96 129 164 215 257 317 383
#     4  10  21  39  62  92 129 167 211 257 312 377
#     4   9  20  41  63  88 121 164 209 257 315 381
#     4  11  23  40  62  92 123 161 212 263 322 373
#     4  10  20  39  60  94 126 164 210 259 318 377
#     4   9  21  40  65  88 128 169 208 256 315 378
#     4  11  23  41  64  93 131 162 208 267 320 378
#     4   9  20  40  63  86 121 161 212 261 307 378
#
# _framework density 25.429987000000001
#
# number of rings (size 3 to 8) (size 9 to 14) (size 15 to 20)
#    0.000    2.000    1.250    1.500    0.000    6.000 
#    4.500   13.750    0.000    0.000    0.000    0.000 
#    0.000    0.000    0.000    0.000    0.000    0.000 
#
# Total GULP energy -89430.779316 kJ/mol
# GULP energy per Si atom -5589.423707 kJ/mol
# Density = 2.537211 g / cm^3
# Si number density = 25.429987 Si / 1000 Ang^3
#
#
#
# Elastic Constant Matrix: (Units=GPa)
#
#
# Indices 1 2 3 4 5 6 
#
# 1 198.1791 37.7343 47.6869 10.4633 31.6117 0.8688
# 2 37.7343 28.1914 20.0111 -4.7296 6.1780 -4.1814
# 3 47.6869 20.0111 111.1616 -10.7795 15.9936 12.3175
# 4 10.4633 -4.7296 -10.7795 41.4288 8.7374 0.5047
# 5 31.6117 6.1780 15.9936 8.7374 45.6161 0.6235
# 6 0.8688 -4.1814 12.3175 0.5047 0.6235 44.6755
#
#
#
# Elastic Compliance Matrix: (Units=1/GPa)
#
#
# Indices 1 2 3 4 5 6 
#
# 1 0.007803 -0.009286 -0.001432 -0.002740 -0.003115 -0.000552
# 2 -0.009286 0.054281 -0.005815 0.007013 -0.000313 0.006789
# 3 -0.001432 -0.005815 0.011839 0.003453 -0.002981 -0.003778
# 4 -0.002740 0.007013 0.003453 0.027708 -0.005563 -0.000478
# 5 -0.003115 -0.000313 -0.002981 -0.005563 0.026226 0.000550
# 6 -0.000552 0.006789 -0.003778 -0.000478 0.000550 0.024069
#
#
# Mechanical properties :
#
#
# Convention : Reuss Voigt Hill
#
# Bulk Modulus (GPa) = 24.47566 60.93295 42.70431
# Shear Modulus (GPa) = 25.17470 41.81739 33.49604
#
# Velocity S-wave (km/s) = 3.14978 4.05953 3.63324
# Velocity P-wave (km/s) = 4.78265 6.78131 5.86771
#
# Compressibility (1/GPa) = 0.04085691
#
# Stress axis : x y z
#
# Youngs Moduli (GPa) = 128.16267 18.42251 84.46397
#
# Poissons Ratio (x) = 0.17107 0.12094
# Poissons Ratio (y) = 1.19014 0.49117
# Poissons Ratio (z) = 0.18351 0.10713
#
# Static dielectric constant tensor:
#      x y z
#    x 1.997740 0.035230 -0.009230 
#    y 0.035230 2.037970 -0.043210 
#    z -0.009230 -0.043210 2.051660 
# 
# From -- ./inp_files/81515.got.cif
#   From: 2010.05.17/outbox.cif.g08.bks.cpg/sg2_41_cif.got.tgz:81515.got - 2010.06.03 11:33:40.
