data_PCOD9104124
_publ_section_title
;
Structure prediction by ZEFSAII (Michael W. Deem and Ramdas Pophale) SiO2 
 PCOD9104124
Probable space group: P -1
;
_chemical_formula_sum "Si O2"
_cell_formula_units_Z 16
_cell_length_a 21.726387
_cell_length_b 7.670612
_cell_length_c 21.081252
_cell_angle_alpha 42.259595
_cell_angle_beta 159.202866
_cell_angle_gamma 126.466280
_cell_volume 765.708793
_symmetry_space_group_name_H-M "P -1"
_symmetry_group_IT_number 2
_symmetry_cell_setting 'triclinic'
loop_
_space_group_symop_operation_xyz
x,y,z
-x,-y,-z
loop_
_atom_site_type_symbol
_atom_site_label
_atom_site_fract_x
_atom_site_fract_y
_atom_site_fract_z
Si Si1 0.289563 0.101604 0.570473
Si Si2 0.919192 0.147097 0.040499
Si Si3 0.639109 0.564569 0.006808
Si Si4 0.191080 0.257686 0.772041
Si Si5 0.285627 0.256374 0.386669
Si Si6 0.847230 0.275943 0.081271
Si Si7 0.441998 0.922009 0.897098
Si Si8 0.690631 0.809056 0.863362
O O1 0.314806 0.268899 0.487758
O O2 0.069450 0.168818 0.340548
O O3 0.430095 0.782054 0.770608
O O4 0.347537 0.136815 0.689366
O O5 0.818546 0.428450 0.825439
O O6 0.858714 0.907388 0.017304
O O7 0.833722 0.219203 0.009421
O O8 0.140135 0.103234 0.273699
O O9 0.661301 0.605742 0.943595
O O10 0.781044 0.675474 0.147014
O O11 0.680166 0.255086 0.155546
O O12 0.000000 0.500000 0.500000
O O13 0.215620 0.934620 0.881887
O O14 0.358989 0.280091 0.887684
O O15 0.489755 0.082033 0.598135
O O16 0.743449 0.608300 0.907203
O O17 0.500000 0.000000 0.000000
#
# Coordination Sequence:
#
# PCOD9104124 Si02
#       8
#     2   2   2   2   2   2   2   2
#     4   9  20  40  59  82 121 163 201 254 307 371
#     4  10  21  44  66  93 126 171 207 253 323 371
#     4  10  20  39  58  82 120 165 204 247 316 379
#     4  11  21  37  61  84 119 166 206 255 311 368
#     4   9  21  42  69  89 126 168 210 255 314 382
#     4  11  22  39  62  94 125 159 213 262 307 375
#     4  11  22  37  57  88 121 158 207 256 310 373
#     4  11  22  40  63  96 129 159 213 262 311 369
#
# _framework density 20.895672000000001
#
# number of rings (size 3 to 8) (size 9 to 14) (size 15 to 20)
#    0.000    1.750    1.250    4.125    0.000    1.500 
#   11.250    8.125    0.000    0.000    0.000    0.000 
#    0.000    0.000    0.000    0.000    0.000    0.000 
#
# Total GULP energy -89149.783582 kJ/mol
# GULP energy per Si atom -5571.861474 kJ/mol
# Density = 2.084811 g / cm^3
# Si number density = 20.895672 Si / 1000 Ang^3
#
#
#
# Elastic Constant Matrix: (Units=GPa)
#
#
# Indices 1 2 3 4 5 6 
#
# 1 42.4914 28.7959 12.9674 -2.2753 -29.8319 0.7682
# 2 28.7959 80.9866 7.8067 3.8575 -1.7707 -4.1111
# 3 12.9674 7.8067 68.7642 2.3424 -23.7749 6.9379
# 4 -2.2753 3.8575 2.3424 15.2770 10.1056 -2.2765
# 5 -29.8319 -1.7707 -23.7749 10.1056 24.6324 6.4469
# 6 0.7682 -4.1111 6.9379 -2.2765 6.4469 28.5269
#
#
#
# Elastic Compliance Matrix: (Units=1/GPa)
#
#
# Indices 1 2 3 4 5 6 
#
# 1 -0.011132 0.003956 -0.022062 0.042335 -0.057794 0.022675
# 2 0.003956 0.011321 0.006259 -0.017673 0.020476 -0.006035
# 3 -0.022062 0.006259 0.009715 0.008705 -0.021701 0.004732
# 4 0.042335 -0.017673 0.008705 0.044436 0.043326 -0.012049
# 5 -0.057794 0.020476 -0.021701 0.043326 -0.074518 0.030083
# 6 0.022675 -0.006035 0.004732 -0.012049 0.030083 0.024663
#
#
# Mechanical properties :
#
#
# Convention : Reuss Voigt Hill
#
# Bulk Modulus (GPa) = -72.51652 32.37581 -20.07035
# Shear Modulus (GPa) = 212.02919 23.19874 117.61397
#
# Velocity S-wave (km/s) = 10.08418 3.33561 7.51056
# Velocity P-wave (km/s) = 10.04033 5.51024 8.09848
#
# Compressibility (1/GPa) = -0.01378996
#
# Stress axis : x y z
#
# Youngs Moduli (GPa) = -89.82798 88.33204 102.93218
#
# Poissons Ratio (x) = -0.34943 2.27086
# Poissons Ratio (y) = 0.35535 -0.64425
# Poissons Ratio (z) = -1.98176 -0.55287
#
# Static dielectric constant tensor:
#      x y z
#    x 1.702070 -0.103930 0.010770 
#    y -0.103930 1.683100 0.072640 
#    z 0.010770 0.072640 1.726860 
# 
# From -- ./inp_files/534069.got.cif
#   From: 2010.05.17/outbox.cif.g08.bks.cpg/sg2_268_cif.got.tgz:534069.got - 2010.06.03 11:33:40.
