data_PCOD9104816
_publ_section_title
;
Structure prediction by ZEFSAII (Michael W. Deem and Ramdas Pophale) SiO2 
 PCOD9104816
Probable space group: P -1
;
_chemical_formula_sum "Si O2"
_cell_formula_units_Z 16
_cell_length_a 10.026057
_cell_length_b 12.171073
_cell_length_c 7.653532
_cell_angle_alpha 52.849661
_cell_angle_beta 82.161855
_cell_angle_gamma 61.949986
_cell_volume 642.337205
_symmetry_space_group_name_H-M "P -1"
_symmetry_group_IT_number 2
_symmetry_cell_setting 'triclinic'
loop_
_space_group_symop_operation_xyz
x,y,z
-x,-y,-z
loop_
_atom_site_type_symbol
_atom_site_label
_atom_site_fract_x
_atom_site_fract_y
_atom_site_fract_z
Si Si1 0.934961 0.929830 0.344112
Si Si2 0.207083 0.617950 0.658926
Si Si3 0.458923 0.111006 0.733602
Si Si4 0.410297 0.860777 0.797700
Si Si5 0.453787 0.673466 0.658418
Si Si6 0.151827 0.372852 0.706211
Si Si7 0.965636 0.852656 0.001627
Si Si8 0.317334 0.661389 0.222769
O O1 0.031465 0.757071 0.572496
O O2 0.914228 0.912462 0.154121
O O3 0.765206 0.039702 0.339940
O O4 0.044316 0.009723 0.251422
O O5 0.313111 0.639931 0.760891
O O6 0.203837 0.461302 0.752056
O O7 0.281850 0.652286 0.439675
O O8 0.571236 0.179455 0.599711
O O9 0.291624 0.264735 0.653492
O O10 0.457946 0.991308 0.704730
O O11 0.500000 0.000000 0.000000
O O12 0.508448 0.722828 0.776979
O O13 0.394747 0.768094 0.058008
O O14 0.579143 0.512542 0.702464
O O15 0.000000 0.500000 0.500000
O O16 0.112816 0.250698 0.929546
O O17 0.149218 0.738893 0.092109
#
# Coordination Sequence:
#
# PCOD9104816 Si02
#       8
#     2   2   2   2   2   2   2   2
#     4   9  18  35  59  89 116 156 204 250 306 358
#     4  11  22  36  64  89 123 155 214 262 295 355
#     4  12  26  41  65  95 126 161 213 262 305 366
#     4  11  23  41  64  87 129 166 201 247 319 380
#     4  12  25  40  58  92 131 168 196 250 320 378
#     4  12  20  38  63  94 120 156 208 268 306 348
#     4   9  17  32  62  88 113 150 209 262 291 353
#     4  10  20  39  62  91 117 162 213 252 300 366
#
# _framework density 24.909033999999998
#
# number of rings (size 3 to 8) (size 9 to 14) (size 15 to 20)
#    0.000    1.250    5.000    2.625    3.500    0.500 
#    0.000    0.000    0.000    3.000    0.000    0.000 
#    0.000    0.000    0.000    0.000    0.000    0.000 
#
# Total GULP energy -89472.450037 kJ/mol
# GULP energy per Si atom -5592.028127 kJ/mol
# Density = 2.485234 g / cm^3
# Si number density = 24.909034 Si / 1000 Ang^3
#
#
#
# Elastic Constant Matrix: (Units=GPa)
#
#
# Indices 1 2 3 4 5 6 
#
# 1 86.9701 40.7175 21.0581 -22.4526 -22.0743 31.7231
# 2 40.7175 107.5718 25.3750 -33.9860 -0.4486 16.6394
# 3 21.0581 25.3750 62.9205 -18.3269 -21.5580 14.3188
# 4 -22.4526 -33.9860 -18.3269 40.1322 10.1933 -13.3824
# 5 -22.0743 -0.4486 -21.5580 10.1933 37.4010 -25.0837
# 6 31.7231 16.6394 14.3188 -13.3824 -25.0837 50.4510
#
#
#
# Elastic Compliance Matrix: (Units=1/GPa)
#
#
# Indices 1 2 3 4 5 6 
#
# 1 0.018311 -0.005269 0.000133 0.002235 0.006042 -0.006217
# 2 -0.005269 0.016023 -0.004616 0.010110 -0.010470 -0.003185
# 3 0.000133 -0.004616 0.023101 0.004113 0.014278 0.003072
# 4 0.002235 0.010110 0.004113 0.038551 -0.005700 0.001485
# 5 0.006042 -0.010470 0.014278 -0.005700 0.054005 0.020940
# 6 -0.006217 -0.003185 0.003072 0.001485 0.020940 0.034714
#
#
# Mechanical properties :
#
#
# Convention : Reuss Voigt Hill
#
# Bulk Modulus (GPa) = 26.36465 47.97372 37.16919
# Shear Modulus (GPa) = 23.05706 36.95095 30.00401
#
# Velocity S-wave (km/s) = 3.04575 3.85572 3.47442
# Velocity P-wave (km/s) = 4.79334 6.25487 5.57224
#
# Compressibility (1/GPa) = 0.03792957
#
# Stress axis : x y z
#
# Youngs Moduli (GPa) = 54.61087 62.41161 43.28846
#
# Poissons Ratio (x) = 0.32888 -0.00574
# Poissons Ratio (y) = 0.28777 0.19981
# Poissons Ratio (z) = -0.00724 0.28808
#
# Static dielectric constant tensor:
#      x y z
#    x 2.023530 0.044980 0.052600 
#    y 0.044980 2.019150 0.065870 
#    z 0.052600 0.065870 2.050770 
# 
# From -- ./inp_files/261603.got.cif
#   From: 2010.05.17/outbox.cif.g08.bks.cpg/sg2_131_cif.got.tgz:261603.got - 2010.06.03 11:33:40.
