data_PCOD9104131
_publ_section_title
;
Structure prediction by ZEFSAII (Michael W. Deem and Ramdas Pophale) SiO2 
 PCOD9104131
Probable space group: P -1
;
_chemical_formula_sum "Si O2"
_cell_formula_units_Z 14
_cell_length_a 11.556394
_cell_length_b 8.747046
_cell_length_c 14.688882
_cell_angle_alpha 74.281727
_cell_angle_beta 110.744950
_cell_angle_gamma 48.795964
_cell_volume 728.590483
_symmetry_space_group_name_H-M "P -1"
_symmetry_group_IT_number 2
_symmetry_cell_setting 'triclinic'
loop_
_space_group_symop_operation_xyz
x,y,z
-x,-y,-z
loop_
_atom_site_type_symbol
_atom_site_label
_atom_site_fract_x
_atom_site_fract_y
_atom_site_fract_z
Si Si1 0.037034 0.252170 0.117649
Si Si2 0.857456 0.495238 0.678384
Si Si3 0.236870 0.762522 0.358021
Si Si4 0.244904 0.326520 0.851474
Si Si5 0.292939 0.297924 0.190744
Si Si6 0.003839 0.147020 0.410419
Si Si7 0.222233 0.204511 0.555753
O O1 0.214117 0.204630 0.160105
O O2 0.880595 0.475753 0.123550
O O3 0.171753 0.949777 0.228100
O O4 0.874673 0.411643 0.960320
O O5 0.844381 0.326228 0.674496
O O6 0.745968 0.633687 0.723988
O O7 0.732066 0.722286 0.525406
O O8 0.098360 0.329693 0.778702
O O9 0.500000 0.500000 0.500000
O O10 0.101123 0.972635 0.372909
O O11 0.205576 0.510871 0.735768
O O12 0.500000 0.000000 0.000000
O O13 0.554372 0.042227 0.281384
O O14 0.172459 0.090242 0.514040
O O15 0.000000 0.000000 0.500000
O O16 0.000000 0.500000 0.500000
#
# Coordination Sequence:
#
# PCOD9104131 Si02
#       7
#     2   2   2   2   2   2   2
#     4   9  21  37  60  86 115 157 192 240 298 343
#     4  10  21  37  59  87 113 155 200 233 297 349
#     4  11  21  39  60  84 120 152 193 244 294 348
#     4   9  20  40  61  83 120 157 196 245 294 354
#     4  10  20  39  58  84 119 148 202 239 284 355
#     4  10  22  40  56  88 118 150 199 242 296 345
#     4  11  22  36  62  87 115 155 200 240 291 351
#
# _framework density 19.215185000000002
#
# number of rings (size 3 to 8) (size 9 to 14) (size 15 to 20)
#    0.000    2.000    0.000    3.857    4.000    0.571 
#    7.714    1.429    0.000    0.000    0.000    0.000 
#    0.000    0.000    0.000    0.000    0.000    0.000 
#
# Total GULP energy -78081.251919 kJ/mol
# GULP energy per Si atom -5577.232280 kJ/mol
# Density = 1.917145 g / cm^3
# Si number density = 19.215185 Si / 1000 Ang^3
#
#
#
# Elastic Constant Matrix: (Units=GPa)
#
#
# Indices 1 2 3 4 5 6 
#
# 1 82.7920 37.4174 71.4099 -20.4151 -15.2065 24.8460
# 2 37.4174 68.7528 44.0379 -2.1142 8.5306 16.5499
# 3 71.4099 44.0379 166.7153 -23.1204 -4.9148 10.0999
# 4 -20.4151 -2.1142 -23.1204 27.9335 -1.5768 -6.9653
# 5 -15.2065 8.5306 -4.9148 -1.5768 38.9039 0.2007
# 6 24.8460 16.5499 10.0999 -6.9653 0.2007 31.1198
#
#
#
# Elastic Compliance Matrix: (Units=1/GPa)
#
#
# Indices 1 2 3 4 5 6 
#
# 1 0.037569 -0.012005 -0.009220 0.015571 0.016872 -0.017242
# 2 -0.012005 0.025430 -0.003162 -0.011440 -0.011104 -0.005402
# 3 -0.009220 -0.003162 0.010842 0.003490 -0.001432 0.006314
# 4 0.015571 -0.011440 0.003490 0.050778 0.011074 0.003813
# 5 0.016872 -0.011104 -0.001432 0.011074 0.035027 -0.004848
# 6 -0.017242 -0.005402 0.006314 0.003813 -0.004848 0.047609
#
#
# Mechanical properties :
#
#
# Convention : Reuss Voigt Hill
#
# Bulk Modulus (GPa) = 39.89172 69.33228 54.61200
# Shear Modulus (GPa) = 18.91198 30.61777 24.76487
#
# Velocity S-wave (km/s) = 3.14063 3.99609 3.59391
# Velocity P-wave (km/s) = 5.82726 7.57971 6.76051
#
# Compressibility (1/GPa) = 0.02506786
#
# Stress axis : x y z
#
# Youngs Moduli (GPa) = 26.61759 39.32400 92.23585
#
# Poissons Ratio (x) = 0.47208 0.85039
# Poissons Ratio (y) = 0.31954 0.29162
# Poissons Ratio (z) = 0.24541 0.12433
#
# Static dielectric constant tensor:
#      x y z
#    x 1.676750 -0.022620 -0.023920 
#    y -0.022620 1.659700 0.003450 
#    z -0.023920 0.003450 1.702070 
# 
# From -- ./inp_files/155356.got.cif
#   From: 2010.05.17/outbox.cif.g08.bks.cpg/sg2_78_cif.got.tgz:155356.got - 2010.06.03 11:33:40.
