data_PCOD9104185
_publ_section_title
;
Structure prediction by ZEFSAII (Michael W. Deem and Ramdas Pophale) SiO2 
 PCOD9104185
Probable space group: P -1
;
_chemical_formula_sum "Si O2"
_cell_formula_units_Z 15
_cell_length_a 15.161773
_cell_length_b 16.565571
_cell_length_c 6.568585
_cell_angle_alpha 79.246434
_cell_angle_beta 65.225751
_cell_angle_gamma 28.342556
_cell_volume 644.468752
_symmetry_space_group_name_H-M "P -1"
_symmetry_group_IT_number 2
_symmetry_cell_setting 'triclinic'
loop_
_space_group_symop_operation_xyz
x,y,z
-x,-y,-z
loop_
_atom_site_type_symbol
_atom_site_label
_atom_site_fract_x
_atom_site_fract_y
_atom_site_fract_z
Si Si1 0.869412 0.634453 0.760586
Si Si2 0.500000 0.500000 0.000000
Si Si3 0.170756 0.042117 0.615515
Si Si4 0.249665 0.842351 0.886824
Si Si5 0.248821 0.612656 0.839352
Si Si6 0.117570 0.530301 0.944839
Si Si7 0.702439 0.877153 0.490026
Si Si8 0.993510 0.912707 0.641815
O O1 0.714919 0.818048 0.715726
O O2 0.000000 0.500000 0.500000
O O3 0.763958 0.637099 0.979738
O O4 0.024853 0.564450 0.805561
O O5 0.599686 0.347660 0.110726
O O6 0.449370 0.476488 0.863684
O O7 0.309983 0.017799 0.498290
O O8 0.052178 0.113265 0.485655
O O9 0.965643 0.210915 0.889110
O O10 0.307370 0.858551 0.640171
O O11 0.211792 0.927564 0.080602
O O12 0.000000 0.000000 0.000000
O O13 0.200307 0.716464 0.658938
O O14 0.235224 0.529178 0.813165
O O15 0.913800 0.702073 0.218821
O O16 0.500000 0.000000 0.500000
O O17 0.000000 0.000000 0.500000
#
# Coordination Sequence:
#
# PCOD9104185 Si02
#       8
#     2   1   2   2   2   2   2   2
#     4   9  18  36  58  82 112 156 195 240 296 351
#     4  12  20  38  58  84 118 148 200 240 282 350
#     4  10  20  39  59  79 117 157 190 243 301 345
#     4  11  21  39  58  84 118 155 191 245 296 346
#     4  10  21  35  57  85 113 153 199 240 292 356
#     4   9  19  37  58  80 115 157 193 242 301 345
#     4  10  21  35  57  87 114 150 199 244 293 357
#     4  11  18  35  60  79 112 157 191 238 300 345
#
# _framework density 23.274985000000001
#
# number of rings (size 3 to 8) (size 9 to 14) (size 15 to 20)
#    0.000    1.867    4.000    0.800    0.000    1.600 
#    0.000   10.000    0.000    0.000    0.000    0.000 
#    0.000    0.000    0.000    0.000    0.000    0.000 
#
# Total GULP energy -83502.637626 kJ/mol
# GULP energy per Si atom -5566.842508 kJ/mol
# Density = 2.322201 g / cm^3
# Si number density = 23.274985 Si / 1000 Ang^3
#
#
#
# Elastic Constant Matrix: (Units=GPa)
#
#
# Indices 1 2 3 4 5 6 
#
# 1 179.0209 52.0147 55.9750 -46.8886 12.8246 18.2889
# 2 52.0147 85.6877 62.6220 -42.2514 -10.4861 11.7228
# 3 55.9750 62.6220 96.0340 -37.4943 17.1759 0.5079
# 4 -46.8886 -42.2514 -37.4943 67.2273 2.0527 0.2698
# 5 12.8246 -10.4861 17.1759 2.0527 33.6110 -6.9373
# 6 18.2889 11.7228 0.5079 0.2698 -6.9373 22.7502
#
#
#
# Elastic Compliance Matrix: (Units=1/GPa)
#
#
# Indices 1 2 3 4 5 6 
#
# 1 0.008856 -0.001782 -0.001258 0.004545 -0.005181 -0.007807
# 2 -0.001782 0.041244 -0.026495 0.009216 0.024046 -0.012005
# 3 -0.001258 -0.026495 0.033257 0.001710 -0.023496 0.006736
# 4 0.004545 0.009216 0.001710 0.024929 -0.003264 -0.009732
# 5 -0.005181 0.024046 -0.023496 -0.003264 0.053204 0.008562
# 6 -0.007807 -0.012005 0.006736 -0.009732 0.008562 0.058994
#
#
# Mechanical properties :
#
#
# Convention : Reuss Voigt Hill
#
# Bulk Modulus (GPa) = 41.17200 77.99622 59.58411
# Shear Modulus (GPa) = 17.38224 37.39310 27.38767
#
# Velocity S-wave (km/s) = 2.73577 4.01256 3.43403
# Velocity P-wave (km/s) = 5.26374 7.41964 6.43265
#
# Compressibility (1/GPa) = 0.02428835
#
# Stress axis : x y z
#
# Youngs Moduli (GPa) = 112.91777 24.24581 30.06859
#
# Poissons Ratio (x) = 0.04320 0.03781
# Poissons Ratio (y) = 0.20117 0.79668
# Poissons Ratio (z) = 0.14201 0.64240
#
# Static dielectric constant tensor:
#      x y z
#    x 1.879460 0.005670 -0.018850 
#    y 0.005670 1.939470 0.032210 
#    z -0.018850 0.032210 1.941690 
# 
# From -- ./inp_files/99126.got.cif
#   From: 2010.05.17/outbox.cif.g08.bks.cpg/sg2_50_cif.got.tgz:99126.got - 2010.06.03 11:33:40.
