data_PCOD9104594
_publ_section_title
;
Structure prediction by ZEFSAII (Michael W. Deem and Ramdas Pophale) SiO2 
 PCOD9104594
Probable space group: P -1
;
_chemical_formula_sum "Si O2"
_cell_formula_units_Z 16
_cell_length_a 11.444310
_cell_length_b 6.536773
_cell_length_c 11.225807
_cell_angle_alpha 65.985586
_cell_angle_beta 58.430675
_cell_angle_gamma 69.414330
_cell_volume 643.134968
_symmetry_space_group_name_H-M "P -1"
_symmetry_group_IT_number 2
_symmetry_cell_setting 'triclinic'
loop_
_space_group_symop_operation_xyz
x,y,z
-x,-y,-z
loop_
_atom_site_type_symbol
_atom_site_label
_atom_site_fract_x
_atom_site_fract_y
_atom_site_fract_z
Si Si1 0.647676 0.722798 0.408127
Si Si2 0.773600 0.574455 0.120143
Si Si3 0.692234 0.262648 0.610316
Si Si4 0.642709 0.409519 0.015050
Si Si5 0.003458 0.118519 0.099629
Si Si6 0.484197 0.066674 0.254360
Si Si7 0.135353 0.095125 0.574320
Si Si8 0.214720 0.459771 0.306845
O O1 0.611356 0.499318 0.543088
O O2 0.757875 0.822070 0.407741
O O3 0.523240 0.919106 0.386685
O O4 0.720203 0.635181 0.266024
O O5 0.654545 0.546398 0.096466
O O6 0.862369 0.762923 0.988048
O O7 0.873336 0.328388 0.123323
O O8 0.780736 0.339043 0.651463
O O9 0.587962 0.099893 0.748844
O O10 0.789789 0.121586 0.490805
O O11 0.772478 0.446273 0.854954
O O12 0.500000 0.500000 0.000000
O O13 0.621715 0.154771 0.117333
O O14 0.982858 0.964920 0.261364
O O15 0.000000 0.000000 0.000000
O O16 0.362068 0.281962 0.286208
O O17 0.106605 0.300243 0.443583
#
# Coordination Sequence:
#
# PCOD9104594 Si02
#       8
#     2   2   2   2   2   2   2   2
#     4  11  21  35  59  94 129 154 207 263 326 378
#     4  11  24  39  66  97 126 164 203 268 325 364
#     4  10  21  36  59  87 127 170 202 258 318 373
#     4  10  23  45  60  87 135 171 221 254 294 375
#     4  11  22  42  69  99 123 154 210 270 329 377
#     4  10  22  35  58  88 122 169 213 254 306 368
#     4  10  20  39  61  90 124 158 204 264 322 378
#     4   9  22  40  57  86 125 175 210 255 298 371
#
# _framework density 24.878136000000001
#
# number of rings (size 3 to 8) (size 9 to 14) (size 15 to 20)
#    0.000    1.750    2.500    1.125    3.500    5.000 
#    4.500    0.625    0.000    1.500    0.000    0.000 
#    0.000    0.000    0.000    0.000    0.000    0.000 
#
# Total GULP energy -89480.636503 kJ/mol
# GULP energy per Si atom -5592.539781 kJ/mol
# Density = 2.482151 g / cm^3
# Si number density = 24.878136 Si / 1000 Ang^3
#
#
#
# Elastic Constant Matrix: (Units=GPa)
#
#
# Indices 1 2 3 4 5 6 
#
# 1 53.6224 33.8776 4.4303 -5.0980 -5.3197 -0.7160
# 2 33.8776 135.9187 60.9434 2.1036 -0.7192 9.4803
# 3 4.4303 60.9434 171.6851 -20.0804 -12.6159 14.4985
# 4 -5.0980 2.1036 -20.0804 45.7637 11.1456 -16.0515
# 5 -5.3197 -0.7192 -12.6159 11.1456 22.3556 1.9090
# 6 -0.7160 9.4803 14.4985 -16.0515 1.9090 31.8163
#
#
#
# Elastic Compliance Matrix: (Units=1/GPa)
#
#
# Indices 1 2 3 4 5 6 
#
# 1 0.024018 -0.007412 0.002547 0.004254 0.004498 0.003465
# 2 -0.007412 0.011361 -0.004112 -0.004109 -0.001357 -0.003670
# 3 0.002547 -0.004112 0.007901 0.002595 0.003744 -0.001233
# 4 0.004254 -0.004109 0.002595 0.033992 -0.016162 0.018256
# 5 0.004498 -0.001357 0.003744 -0.016162 0.057019 -0.012775
# 6 0.003465 -0.003670 -0.001233 0.018256 -0.012775 0.043141
#
#
# Mechanical properties :
#
#
# Convention : Reuss Voigt Hill
#
# Bulk Modulus (GPa) = 39.48539 62.19207 50.83873
# Shear Modulus (GPa) = 24.53029 37.45211 30.99120
#
# Velocity S-wave (km/s) = 3.14350 3.88419 3.53331
# Velocity P-wave (km/s) = 5.39272 6.72078 6.09304
#
# Compressibility (1/GPa) = 0.02532583
#
# Stress axis : x y z
#
# Youngs Moduli (GPa) = 41.63509 88.02136 126.56093
#
# Poissons Ratio (x) = 0.65242 -0.32231
# Poissons Ratio (y) = 0.30860 0.52041
# Poissons Ratio (z) = -0.10603 0.36194
#
# Static dielectric constant tensor:
#      x y z
#    x 2.006660 -0.047630 -0.036970 
#    y -0.047630 1.982280 -0.038680 
#    z -0.036970 -0.038680 2.056050 
# 
# From -- ./inp_files/118326.got.cif
#   From: 2010.05.17/outbox.cif.g08.bks.cpg/sg2_60_cif.got.tgz:118326.got - 2010.06.03 11:33:40.
