data_PCOD9104785
_publ_section_title
;
Structure prediction by ZEFSAII (Michael W. Deem and Ramdas Pophale) SiO2 
 PCOD9104785
Probable space group: P -1
;
_chemical_formula_sum "Si O2"
_cell_formula_units_Z 14
_cell_length_a 27.592790
_cell_length_b 7.007202
_cell_length_c 8.993300
_cell_angle_alpha 48.990299
_cell_angle_beta 151.811987
_cell_angle_gamma 132.311982
_cell_volume 597.480041
_symmetry_space_group_name_H-M "P -1"
_symmetry_group_IT_number 2
_symmetry_cell_setting 'triclinic'
loop_
_space_group_symop_operation_xyz
x,y,z
-x,-y,-z
loop_
_atom_site_type_symbol
_atom_site_label
_atom_site_fract_x
_atom_site_fract_y
_atom_site_fract_z
Si Si1 0.386429 0.466533 0.540918
Si Si2 0.208918 0.768562 0.593007
Si Si3 0.841891 0.783343 0.985772
Si Si4 0.430866 0.125004 0.081339
Si Si5 0.044946 0.840534 0.328289
Si Si6 0.568761 0.788644 0.492109
Si Si7 0.202655 0.193800 0.808847
O O1 0.264152 0.457098 0.193196
O O2 0.481193 0.728056 0.635512
O O3 0.402993 0.246761 0.584275
O O4 0.397210 0.364640 0.787483
O O5 0.221804 0.507351 0.682431
O O6 0.182634 0.976228 0.298989
O O7 0.111401 0.688058 0.486374
O O8 0.318059 0.913425 0.899162
O O9 0.850031 0.865314 0.138955
O O10 0.942682 0.716376 0.216715
O O11 0.501702 0.993014 0.235149
O O12 0.128313 0.035133 0.562047
O O13 0.000000 0.000000 0.000000
O O14 0.500000 0.500000 0.500000
O O15 0.681560 0.860550 0.845209
#
# Coordination Sequence:
#
# PCOD9104785 Si02
#       7
#     2   2   2   2   2   2   2
#     4   9  21  38  61  88 123 166 204 251 312 366
#     4  10  22  40  65  93 126 164 209 258 313 375
#     4   9  21  43  61  91 128 161 213 260 307 376
#     4  10  20  39  62  89 126 163 203 255 307 374
#     4  10  23  43  66  93 122 162 216 263 310 373
#     4  11  22  36  57  93 126 159 202 249 307 378
#     4  11  23  41  64  94 124 168 207 256 324 366
#
# _framework density 23.431743999999998
#
# number of rings (size 3 to 8) (size 9 to 14) (size 15 to 20)
#    0.000    2.000    1.429    0.857    2.000    5.714 
#    0.000    5.714    0.000    0.000    0.000    0.000 
#    0.000    0.000    0.000    0.000    0.000    0.000 
#
# Total GULP energy -78214.976217 kJ/mol
# GULP energy per Si atom -5586.784016 kJ/mol
# Density = 2.337841 g / cm^3
# Si number density = 23.431744 Si / 1000 Ang^3
#
#
#
# Elastic Constant Matrix: (Units=GPa)
#
#
# Indices 1 2 3 4 5 6 
#
# 1 78.6029 7.8597 34.5805 6.9400 10.6844 13.6998
# 2 7.8597 58.1799 22.3841 3.3762 -7.5400 0.2024
# 3 34.5805 22.3841 123.2420 9.4236 8.8558 -1.5670
# 4 6.9400 3.3762 9.4236 37.5932 -6.7136 -8.7261
# 5 10.6844 -7.5400 8.8558 -6.7136 45.7392 -5.1936
# 6 13.6998 0.2024 -1.5670 -8.7261 -5.1936 29.2813
#
#
#
# Elastic Compliance Matrix: (Units=1/GPa)
#
#
# Indices 1 2 3 4 5 6 
#
# 1 0.017917 -0.001211 -0.004093 -0.005832 -0.005737 -0.011349
# 2 -0.001211 0.019221 -0.003477 0.000402 0.004312 0.001132
# 3 -0.004093 -0.003477 0.010132 -0.001333 -0.001569 0.001806
# 4 -0.005832 0.000402 -0.001333 0.032614 0.008041 0.013800
# 5 -0.005737 0.004312 -0.001569 0.008041 0.026496 0.009666
# 6 -0.011349 0.001132 0.001806 0.013800 0.009666 0.045377
#
#
# Mechanical properties :
#
#
# Convention : Reuss Voigt Hill
#
# Bulk Modulus (GPa) = 33.66341 43.29704 38.48023
# Shear Modulus (GPa) = 27.89819 35.53609 31.71714
#
# Velocity S-wave (km/s) = 3.45427 3.89855 3.68312
# Velocity P-wave (km/s) = 5.50519 6.22760 5.87750
#
# Compressibility (1/GPa) = 0.02970584
#
# Stress axis : x y z
#
# Youngs Moduli (GPa) = 55.81342 52.02580 98.69754
#
# Poissons Ratio (x) = 0.06301 0.40402
# Poissons Ratio (y) = 0.06760 0.34322
# Poissons Ratio (z) = 0.22847 0.18092
#
# Static dielectric constant tensor:
#      x y z
#    x 1.908450 0.043590 -0.030190 
#    y 0.043590 1.887090 -0.010880 
#    z -0.030190 -0.010880 1.894930 
# 
# From -- ./inp_files/37682.got.cif
#   From: 2010.05.17/outbox.cif.g08.bks.cpg/sg2_19_cif.got.tgz:37682.got - 2010.06.03 11:33:40.
