data_PCOD9104998
_publ_section_title
;
Structure prediction by ZEFSAII (Michael W. Deem and Ramdas Pophale) SiO2 
 PCOD9104998
Probable space group: P -1
;
_chemical_formula_sum "Si O2"
_cell_formula_units_Z 16
_cell_length_a 7.386146
_cell_length_b 15.030791
_cell_length_c 15.246208
_cell_angle_alpha 149.025821
_cell_angle_beta 55.174599
_cell_angle_gamma 105.874200
_cell_volume 614.449155
_symmetry_space_group_name_H-M "P -1"
_symmetry_group_IT_number 2
_symmetry_cell_setting 'triclinic'
loop_
_space_group_symop_operation_xyz
x,y,z
-x,-y,-z
loop_
_atom_site_type_symbol
_atom_site_label
_atom_site_fract_x
_atom_site_fract_y
_atom_site_fract_z
Si Si1 0.159693 0.538564 0.359385
Si Si2 0.663191 0.264068 0.177200
Si Si3 0.543048 0.739812 0.187510
Si Si4 0.094218 0.059203 0.293335
Si Si5 0.468721 0.851089 0.500011
Si Si6 0.880476 0.473585 0.163175
Si Si7 0.125879 0.653389 0.660838
Si Si8 0.272105 0.721396 0.091821
O O1 0.104583 0.362002 0.246600
O O2 0.111330 0.662326 0.568342
O O3 0.451693 0.431904 0.158055
O O4 0.966029 0.715076 0.497796
O O5 0.778367 0.378066 0.183421
O O6 0.370679 0.427471 0.415172
O O7 0.810195 0.206704 0.180402
O O8 0.694673 0.084079 0.956745
O O9 0.523892 0.739125 0.296188
O O10 0.498375 0.957701 0.357752
O O11 0.332617 0.714463 0.171224
O O12 0.831839 0.581983 0.944094
O O13 0.169850 0.940976 0.263992
O O14 0.832032 0.072154 0.341646
O O15 0.660610 0.698880 0.390858
O O16 0.911924 0.348477 0.957673
#
# Coordination Sequence:
#
# PCOD9104998 Si02
#       8
#     2   2   2   2   2   2   2   2
#     4  11  22  40  61  90 124 163 204 258 309 365
#     4  10  20  39  63  87 121 168 199 256 313 359
#     4  11  25  41  65  96 124 164 215 254 307 374
#     4  11  22  42  63  89 129 166 201 258 317 363
#     4  11  23  43  64  94 126 164 208 261 306 373
#     4  11  21  45  64  88 132 164 202 259 314 364
#     4  10  21  38  62  89 122 158 214 252 300 377
#     4  11  23  42  65  90 127 168 203 256 316 369
#
# _framework density 26.039584999999999
#
# number of rings (size 3 to 8) (size 9 to 14) (size 15 to 20)
#    0.000    1.250    6.250    1.125    0.000    4.000 
#    0.000    0.000    0.000    0.000    0.000    0.000 
#    0.000    0.000    0.000    0.000    0.000    0.000 
#
# Total GULP energy -89607.440488 kJ/mol
# GULP energy per Si atom -5600.465030 kJ/mol
# Density = 2.598032 g / cm^3
# Si number density = 26.039585 Si / 1000 Ang^3
#
#
#
# Elastic Constant Matrix: (Units=GPa)
#
#
# Indices 1 2 3 4 5 6 
#
# 1 77.4253 14.1564 5.0131 -4.5801 3.5647 -25.7409
# 2 14.1564 78.2179 28.3392 27.5127 -7.1407 -11.7789
# 3 5.0131 28.3392 84.1607 7.6384 -7.0674 -12.2161
# 4 -4.5801 27.5127 7.6384 33.3214 -13.9142 -8.3886
# 5 3.5647 -7.1407 -7.0674 -13.9142 29.2459 -1.3837
# 6 -25.7409 -11.7789 -12.2161 -8.3886 -1.3837 44.3653
#
#
#
# Elastic Compliance Matrix: (Units=1/GPa)
#
#
# Indices 1 2 3 4 5 6 
#
# 1 0.018273 -0.005788 0.001782 0.010877 0.002518 0.011691
# 2 -0.005788 0.022518 -0.006259 -0.021064 -0.005484 -0.003257
# 3 0.001782 -0.006259 0.014435 0.005036 0.004349 0.004435
# 4 0.010877 -0.021064 0.005036 0.061776 0.024828 0.014560
# 5 0.002518 -0.005484 0.004349 0.024828 0.045757 0.007324
# 6 0.011691 -0.003257 0.004435 0.014560 0.007324 0.032661
#
#
# Mechanical properties :
#
#
# Convention : Reuss Voigt Hill
#
# Bulk Modulus (GPa) = 28.82258 37.20236 33.01247
# Shear Modulus (GPa) = 21.97638 34.20620 28.09129
#
# Velocity S-wave (km/s) = 2.90825 3.62833 3.28806
# Velocity P-wave (km/s) = 4.72970 5.64543 5.20773
#
# Compressibility (1/GPa) = 0.03469502
#
# Stress axis : x y z
#
# Youngs Moduli (GPa) = 54.72569 44.40896 69.27433
#
# Poissons Ratio (x) = 0.25705 -0.12344
# Poissons Ratio (y) = 0.31677 0.43360
# Poissons Ratio (z) = -0.09751 0.27797
#
# Static dielectric constant tensor:
#      x y z
#    x 2.063740 -0.020520 0.046390 
#    y -0.020520 2.050100 0.001390 
#    z 0.046390 0.001390 2.033710 
# 
# From -- ./inp_files/504367.got.cif
#   From: 2010.05.17/outbox.cif.g08.bks.cpg/sg2_253_cif.got.tgz:504367.got - 2010.06.03 11:33:40.
