data_PCOD9104255
_publ_section_title
;
Structure prediction by ZEFSAII (Michael W. Deem and Ramdas Pophale) SiO2 
 PCOD9104255
Probable space group: P -1
;
_chemical_formula_sum "Si O2"
_cell_formula_units_Z 16
_cell_length_a 16.394636
_cell_length_b 8.994961
_cell_length_c 30.663292
_cell_angle_alpha 30.487568
_cell_angle_beta 158.815939
_cell_angle_gamma 152.872804
_cell_volume 730.991694
_symmetry_space_group_name_H-M "P -1"
_symmetry_group_IT_number 2
_symmetry_cell_setting 'triclinic'
loop_
_space_group_symop_operation_xyz
x,y,z
-x,-y,-z
loop_
_atom_site_type_symbol
_atom_site_label
_atom_site_fract_x
_atom_site_fract_y
_atom_site_fract_z
Si Si1 0.900730 0.802782 0.644755
Si Si2 0.158394 0.177629 0.129322
Si Si3 0.685835 0.621774 0.983367
Si Si4 0.569464 0.137216 0.757737
Si Si5 0.920728 0.187219 0.178305
Si Si6 0.441369 0.056857 0.621384
Si Si7 0.817688 0.143128 0.045121
Si Si8 0.609816 0.142221 0.170680
O O1 0.022845 0.963000 0.711962
O O2 0.668214 0.433909 0.630673
O O3 0.787183 0.998162 0.510591
O O4 0.112841 0.759168 0.733686
O O5 0.150118 0.487768 0.023516
O O6 0.426376 0.174832 0.262728
O O7 0.057195 0.173824 0.128719
O O8 0.941280 0.848906 0.080994
O O9 0.453062 0.578164 0.910294
O O10 0.668424 0.859529 0.877527
O O11 0.726203 0.322595 0.062273
O O12 0.808956 0.494838 0.779322
O O13 0.383079 0.050495 0.645468
O O14 0.457336 0.102004 0.759284
O O15 0.819031 0.995925 0.130717
O O16 0.585607 0.012903 0.927489
#
# Coordination Sequence:
#
# PCOD9104255 Si02
#       8
#     2   2   2   2   2   2   2   2
#     4  10  22  36  50  77 110 142 177 207 254 314
#     4  10  16  33  55  83 102 129 178 225 253 303
#     4   9  16  29  55  82 102 126 174 225 265 285
#     4   9  16  29  54  78 100 129 171 222 255 290
#     4  11  17  31  55  78 108 138 175 206 254 321
#     4  10  20  35  58  76  98 144 184 212 248 307
#     4  10  19  30  54  84 107 130 167 219 275 303
#     4   9  21  34  49  83 113 129 165 223 271 304
#
# _framework density 21.888072999999999
#
# number of rings (size 3 to 8) (size 9 to 14) (size 15 to 20)
#    0.750    1.500    3.750    1.875    0.000    1.500 
#    0.000    1.250    0.000    0.000    0.000    0.000 
#    0.000    0.000    0.000    0.000    0.000    0.000 
#
# Total GULP energy -89286.337538 kJ/mol
# GULP energy per Si atom -5580.396096 kJ/mol
# Density = 2.183826 g / cm^3
# Si number density = 21.888073 Si / 1000 Ang^3
#
#
#
# Elastic Constant Matrix: (Units=GPa)
#
#
# Indices 1 2 3 4 5 6 
#
# 1 172.2160 24.1034 72.3272 13.5319 -30.9688 -7.7219
# 2 24.1034 23.6140 15.6262 5.2580 -8.4218 -10.8422
# 3 72.3272 15.6262 104.2952 9.3210 -31.9680 -8.7580
# 4 13.5319 5.2580 9.3210 15.1931 -1.5234 -1.4624
# 5 -30.9688 -8.4218 -31.9680 -1.5234 37.1411 2.9518
# 6 -7.7219 -10.8422 -8.7580 -1.4624 2.9518 33.7059
#
#
#
# Elastic Compliance Matrix: (Units=1/GPa)
#
#
# Indices 1 2 3 4 5 6 
#
# 1 0.009108 -0.005158 -0.004594 -0.003374 0.002422 -0.001125
# 2 -0.005158 0.061663 -0.000817 -0.013881 0.007040 0.017222
# 3 -0.004594 -0.000817 0.016477 -0.004565 0.009827 0.001907
# 4 -0.003374 -0.013881 -0.004565 0.075521 -0.006588 -0.002571
# 5 0.002422 0.007040 0.009827 -0.006588 0.038592 0.001707
# 6 -0.001125 0.017222 0.001907 -0.002571 0.001707 0.035185
#
#
# Mechanical properties :
#
#
# Convention : Reuss Voigt Hill
#
# Bulk Modulus (GPa) = 15.12658 58.24875 36.68767
# Shear Modulus (GPa) = 17.87489 29.74591 23.81040
#
# Velocity S-wave (km/s) = 2.86081 3.69046 3.30180
# Velocity P-wave (km/s) = 4.22353 6.69546 5.59765
#
# Compressibility (1/GPa) = 0.06610879
#
# Stress axis : x y z
#
# Youngs Moduli (GPa) = 109.79060 16.21727 60.69087
#
# Poissons Ratio (x) = 0.08365 0.27883
# Poissons Ratio (y) = 0.56634 0.04958
# Poissons Ratio (z) = 0.50440 0.01325
#
# Static dielectric constant tensor:
#      x y z
#    x 1.857480 0.047130 -0.021140 
#    y 0.047130 1.921390 0.001020 
#    z -0.021140 0.001020 1.769940 
# 
# From -- ./inp_files/530983.got.cif
#   From: 2010.05.17/outbox.cif.g08.bks.cpg/sg2_266_cif.got.tgz:530983.got - 2010.06.03 11:33:40.
