data_PCOD9104369
_publ_section_title
;
Structure prediction by ZEFSAII (Michael W. Deem and Ramdas Pophale) SiO2 
 PCOD9104369
Probable space group: P -1
;
_chemical_formula_sum "Si O2"
_cell_formula_units_Z 16
_cell_length_a 19.002033
_cell_length_b 8.299141
_cell_length_c 8.705316
_cell_angle_alpha 47.291942
_cell_angle_beta 128.739923
_cell_angle_gamma 117.168928
_cell_volume 785.605926
_symmetry_space_group_name_H-M "P -1"
_symmetry_group_IT_number 2
_symmetry_cell_setting 'triclinic'
loop_
_space_group_symop_operation_xyz
x,y,z
-x,-y,-z
loop_
_atom_site_type_symbol
_atom_site_label
_atom_site_fract_x
_atom_site_fract_y
_atom_site_fract_z
Si Si1 0.937503 0.808900 0.614046
Si Si2 0.054802 0.932290 0.968241
Si Si3 0.354271 0.984872 0.262739
Si Si4 0.555538 0.786713 0.241361
Si Si5 0.265542 0.195222 0.716134
Si Si6 0.916123 0.584928 0.422862
Si Si7 0.226350 0.677298 0.464924
Si Si8 0.516604 0.684579 0.604036
O O1 0.833811 0.871944 0.440218
O O2 0.938440 0.614478 0.616088
O O3 0.000000 0.000000 0.500000
O O4 0.983548 0.796496 0.849770
O O5 0.093161 0.165658 0.801890
O O6 0.141784 0.796209 0.201280
O O7 0.000000 0.000000 0.000000
O O8 0.305842 0.862900 0.422061
O O9 0.424956 0.815205 0.404786
O O10 0.412739 0.201291 0.255437
O O11 0.288999 0.058300 0.989470
O O12 0.654626 0.829344 0.279197
O O13 0.556010 0.723903 0.461831
O O14 0.506956 0.571662 0.234056
O O15 0.500000 0.000000 0.000000
O O16 0.260132 0.455246 0.577876
O O17 0.824778 0.427772 0.385273
O O18 0.000000 0.500000 0.500000
#
# Coordination Sequence:
#
# PCOD9104369 Si02
#       8
#     2   2   2   2   2   2   2   2
#     4   9  21  40  62  92 129 172 217 260 333 390
#     4  11  22  41  66  91 131 176 218 281 327 389
#     4  11  22  42  67  96 128 172 218 274 326 402
#     4  11  22  44  67  97 135 170 213 280 333 397
#     4  11  23  40  68  95 130 172 219 268 334 395
#     4  10  20  39  60  89 124 172 217 271 326 388
#     4  11  22  39  66  91 132 167 224 267 327 400
#     4  10  24  41  67  97 130 169 219 268 339 398
#
# _framework density 20.366446
#
# number of rings (size 3 to 8) (size 9 to 14) (size 15 to 20)
#    0.000    1.500    3.750    2.250    0.000    4.500 
#    0.000    0.000    0.000    0.000    0.000    0.000 
#    0.000    0.000    0.000    0.000    0.000    0.000 
#
# Total GULP energy -89159.268469 kJ/mol
# GULP energy per Si atom -5572.454279 kJ/mol
# Density = 2.032009 g / cm^3
# Si number density = 20.366446 Si / 1000 Ang^3
#
#
#
# Elastic Constant Matrix: (Units=GPa)
#
#
# Indices 1 2 3 4 5 6 
#
# 1 156.0969 29.5550 23.3946 -5.1741 18.5981 8.6428
# 2 29.5550 77.3865 23.5723 -20.9857 4.4912 10.6173
# 3 23.3946 23.5723 74.8471 -19.4543 12.1539 5.1814
# 4 -5.1741 -20.9857 -19.4543 30.3037 0.4448 -5.2627
# 5 18.5981 4.4912 12.1539 0.4448 36.1083 -5.2866
# 6 8.6428 10.6173 5.1814 -5.2627 -5.2866 40.5026
#
#
#
# Elastic Compliance Matrix: (Units=1/GPa)
#
#
# Indices 1 2 3 4 5 6 
#
# 1 0.007494 -0.002478 -0.001313 -0.001475 -0.003297 -0.001404
# 2 -0.002478 0.017579 -0.001812 0.010142 -0.000811 -0.002636
# 3 -0.001313 -0.001812 0.017850 0.009896 -0.005367 -0.000943
# 4 -0.001475 0.010142 0.009896 0.046514 -0.004128 0.001895
# 5 -0.003297 -0.000811 -0.005367 -0.004128 0.032121 0.005259
# 6 -0.001404 -0.002636 -0.000943 0.001895 0.005259 0.026734
#
#
# Mechanical properties :
#
#
# Convention : Reuss Voigt Hill
#
# Bulk Modulus (GPa) = 31.52680 51.26379 41.39530
# Shear Modulus (GPa) = 29.39976 36.83682 33.11829
#
# Velocity S-wave (km/s) = 3.80352 4.25750 4.03689
# Velocity P-wave (km/s) = 5.89935 7.02807 6.48830
#
# Compressibility (1/GPa) = 0.03171904
#
# Stress axis : x y z
#
# Youngs Moduli (GPa) = 133.44235 56.88462 56.02142
#
# Poissons Ratio (x) = 0.14097 0.07353
# Poissons Ratio (y) = 0.33070 0.10148
# Poissons Ratio (z) = 0.17515 0.10305
#
# Static dielectric constant tensor:
#      x y z
#    x 2.025520 0.193960 -0.250000 
#    y 0.193960 1.886300 -0.132180 
#    z -0.250000 -0.132180 1.910740 
# 
# From -- ./inp_files/328509.got.cif
#   From: 2010.05.17/outbox.cif.g08.bks.cpg/sg2_165_cif.got.tgz:328509.got - 2010.06.03 11:33:40.
