data_PCOD9104939
_publ_section_title
;
Structure prediction by ZEFSAII (Michael W. Deem and Ramdas Pophale) SiO2 
 PCOD9104939
Probable space group: P -1
;
_chemical_formula_sum "Si O2"
_cell_formula_units_Z 16
_cell_length_a 6.658512
_cell_length_b 11.018848
_cell_length_c 11.297489
_cell_angle_alpha 118.016093
_cell_angle_beta 108.308324
_cell_angle_gamma 83.206372
_cell_volume 694.289424
_symmetry_space_group_name_H-M "P -1"
_symmetry_group_IT_number 2
_symmetry_cell_setting 'triclinic'
loop_
_space_group_symop_operation_xyz
x,y,z
-x,-y,-z
loop_
_atom_site_type_symbol
_atom_site_label
_atom_site_fract_x
_atom_site_fract_y
_atom_site_fract_z
Si Si1 0.185450 0.087657 0.509038
Si Si2 0.245858 0.456836 0.308196
Si Si3 0.148029 0.725082 0.878971
Si Si4 0.554413 0.278964 0.429812
Si Si5 0.405661 0.822145 0.345863
Si Si6 0.415680 0.410078 0.056335
Si Si7 0.982062 0.788965 0.130111
Si Si8 0.868614 0.104186 0.280802
O O1 0.359212 0.163713 0.659888
O O2 0.055840 0.171482 0.428480
O O3 0.312955 0.973652 0.409738
O O4 0.000000 0.000000 0.500000
O O5 0.363771 0.334423 0.342473
O O6 0.286871 0.588702 0.459754
O O7 0.352956 0.473031 0.203768
O O8 0.000708 0.411746 0.230972
O O9 0.389953 0.687006 0.923114
O O10 0.124543 0.828917 0.814854
O O11 0.055572 0.790723 0.009172
O O12 0.528194 0.232368 0.538740
O O13 0.655246 0.151835 0.324130
O O14 0.197286 0.748143 0.219670
O O15 0.500000 0.500000 0.000000
O O16 0.204017 0.324621 0.940721
O O17 0.900804 0.941376 0.210328
#
# Coordination Sequence:
#
# PCOD9104939 Si02
#       8
#     2   2   2   2   2   2   2   2
#     4  10  20  39  62  99 138 174 218 263 347 418
#     4  10  25  46  67 100 134 178 241 278 344 408
#     4  11  24  47  70  97 135 184 228 291 338 403
#     4  11  22  44  69  98 139 179 221 291 342 410
#     4  10  22  39  64  97 136 180 212 282 338 401
#     4  11  26  48  71  99 134 188 238 282 336 406
#     4  10  26  44  70 106 137 181 231 283 346 409
#     4  11  22  44  71 104 138 176 225 286 350 417
#
# _framework density 23.045145000000002
#
# number of rings (size 3 to 8) (size 9 to 14) (size 15 to 20)
#    0.000    1.500    2.500    1.125    3.500    4.000 
#    6.750    0.000    0.000    0.000    0.000    0.000 
#    0.000    0.000    0.000    0.000    0.000    0.000 
#
# Total GULP energy -89277.014126 kJ/mol
# GULP energy per Si atom -5579.813383 kJ/mol
# Density = 2.299269 g / cm^3
# Si number density = 23.045145 Si / 1000 Ang^3
#
#
#
# Elastic Constant Matrix: (Units=GPa)
#
#
# Indices 1 2 3 4 5 6 
#
# 1 117.4757 46.7000 62.1894 -7.8547 32.4892 19.9135
# 2 46.7000 103.2785 39.5761 -31.2503 8.2874 3.3272
# 3 62.1894 39.5761 98.6153 -18.0866 17.2327 13.0556
# 4 -7.8547 -31.2503 -18.0866 43.3943 -1.5468 -6.8896
# 5 32.4892 8.2874 17.2327 -1.5468 45.0836 -6.2322
# 6 19.9135 3.3272 13.0556 -6.8896 -6.2322 30.9779
#
#
#
# Elastic Compliance Matrix: (Units=1/GPa)
#
#
# Indices 1 2 3 4 5 6 
#
# 1 0.020686 -0.007204 -0.007419 -0.007150 -0.012869 -0.013576
# 2 -0.007204 0.016346 -0.001622 0.011025 0.004131 0.006842
# 3 -0.007419 -0.001622 0.016517 0.004152 -0.000697 -0.001234
# 4 -0.007150 0.011025 0.004152 0.033127 0.004036 0.009842
# 5 -0.012869 0.004131 -0.000697 0.004036 0.033273 0.015714
# 6 -0.013576 0.006842 -0.001234 0.009842 0.015714 0.046144
#
#
# Mechanical properties :
#
#
# Convention : Reuss Voigt Hill
#
# Bulk Modulus (GPa) = 47.48992 68.47783 57.98387
# Shear Modulus (GPa) = 24.31858 35.28476 29.80167
#
# Velocity S-wave (km/s) = 3.25200 3.91719 3.59999
# Velocity P-wave (km/s) = 5.89515 7.08790 6.51886
#
# Compressibility (1/GPa) = 0.02105710
#
# Stress axis : x y z
#
# Youngs Moduli (GPa) = 48.34084 61.17751 60.54363
#
# Poissons Ratio (x) = 0.44075 0.44919
# Poissons Ratio (y) = 0.34827 0.09823
# Poissons Ratio (z) = 0.35866 0.09925
#
# Static dielectric constant tensor:
#      x y z
#    x 1.909930 0.085560 0.033390 
#    y 0.085560 1.890410 0.038330 
#    z 0.033390 0.038330 1.931740 
# 
# From -- ./inp_files/365106.got.cif
#   From: 2010.05.17/outbox.cif.g08.bks.cpg/sg2_183_cif.got.tgz:365106.got - 2010.06.03 11:33:40.
