data_PCOD9104238
_publ_section_title
;
Structure prediction by ZEFSAII (Michael W. Deem and Ramdas Pophale) SiO2 
 PCOD9104238
Probable space group: P -1
;
_chemical_formula_sum "Si O2"
_cell_formula_units_Z 16
_cell_length_a 9.736991
_cell_length_b 9.934001
_cell_length_c 8.055154
_cell_angle_alpha 78.528605
_cell_angle_beta 98.995431
_cell_angle_gamma 73.710218
_cell_volume 714.053750
_symmetry_space_group_name_H-M "P -1"
_symmetry_group_IT_number 2
_symmetry_cell_setting 'triclinic'
loop_
_space_group_symop_operation_xyz
x,y,z
-x,-y,-z
loop_
_atom_site_type_symbol
_atom_site_label
_atom_site_fract_x
_atom_site_fract_y
_atom_site_fract_z
Si Si1 0.062740 0.184699 0.367897
Si Si2 0.808515 0.104536 0.740720
Si Si3 0.686393 0.697072 0.730647
Si Si4 0.350712 0.087628 0.042626
Si Si5 0.593479 0.442171 0.864890
Si Si6 0.577922 0.334981 0.442674
Si Si7 0.755940 0.204558 0.177282
Si Si8 0.896728 0.867447 0.235232
O O1 0.170084 0.269267 0.305253
O O2 0.905793 0.238237 0.236959
O O3 0.131596 0.013825 0.370169
O O4 0.051569 0.202202 0.559485
O O5 0.700533 0.257505 0.617107
O O6 0.956253 0.129116 0.831731
O O7 0.722964 0.019945 0.854098
O O8 0.703038 0.535851 0.836070
O O9 0.565438 0.716974 0.557470
O O10 0.618095 0.809088 0.837816
O O11 0.218576 0.185876 0.876264
O O12 0.500000 0.000000 0.000000
O O13 0.486075 0.494950 0.670615
O O14 0.500000 0.500000 0.000000
O O15 0.681242 0.280666 0.975299
O O16 0.653261 0.262816 0.301278
O O17 0.800035 0.033116 0.213792
#
# Coordination Sequence:
#
# PCOD9104238 Si02
#       8
#     2   2   2   2   2   2   2   2
#     4  10  19  30  56  82 108 131 175 229 256 306
#     4  10  19  35  53  76 110 139 176 215 258 315
#     4   9  21  35  50  83 104 140 169 218 270 302
#     4  11  24  32  50  79 117 143 162 218 270 322
#     4   8  18  31  55  77 101 137 177 224 248 306
#     4   9  16  32  53  75 100 132 181 212 252 299
#     4  10  16  33  55  82 100 137 181 217 253 305
#     4  11  20  34  54  84 109 138 172 211 271 317
#
# _framework density 22.407274999999998
#
# number of rings (size 3 to 8) (size 9 to 14) (size 15 to 20)
#    0.750    1.500    2.500    1.875    1.750    1.500 
#    0.000    0.000    0.000    1.500    6.500    0.000 
#    0.000    0.000    0.000    0.000    0.000    0.000 
#
# Total GULP energy -89241.329598 kJ/mol
# GULP energy per Si atom -5577.583100 kJ/mol
# Density = 2.235628 g / cm^3
# Si number density = 22.407275 Si / 1000 Ang^3
#
#
#
# Elastic Constant Matrix: (Units=GPa)
#
#
# Indices 1 2 3 4 5 6 
#
# 1 100.1452 -11.0504 -1.4820 12.1586 5.5831 5.3161
# 2 -11.0504 32.8536 -14.3437 -5.3715 2.4949 4.5272
# 3 -1.4820 -14.3437 100.9699 -2.4394 15.1030 -3.9730
# 4 12.1586 -5.3715 -2.4394 24.3345 -1.3599 3.8183
# 5 5.5831 2.4949 15.1030 -1.3599 40.1226 1.1480
# 6 5.3161 4.5272 -3.9730 3.8183 1.1480 22.1595
#
#
#
# Elastic Compliance Matrix: (Units=1/GPa)
#
#
# Indices 1 2 3 4 5 6 
#
# 1 0.011219 0.003936 0.000850 -0.004387 -0.002204 -0.002473
# 2 0.003936 0.037151 0.005869 0.007919 -0.004552 -0.008611
# 3 0.000850 0.005869 0.011531 0.001661 -0.004785 0.000626
# 4 -0.004387 0.007919 0.001661 0.046586 0.001311 -0.008363
# 5 -0.002204 -0.004552 -0.004785 0.001311 0.027389 -0.001044
# 6 -0.002473 -0.008611 0.000626 -0.008363 -0.001044 0.049087
#
#
# Mechanical properties :
#
#
# Convention : Reuss Voigt Hill
#
# Bulk Modulus (GPa) = 12.31372 20.02406 16.16889
# Shear Modulus (GPa) = 26.49380 34.71299 30.60340
#
# Velocity S-wave (km/s) = 3.44230 3.94024 3.69965
# Velocity P-wave (km/s) = 4.61590 5.44577 5.04792
#
# Compressibility (1/GPa) = 0.08121024
#
# Stress axis : x y z
#
# Youngs Moduli (GPa) = 89.13386 26.91704 86.72510
#
# Poissons Ratio (x) = -0.10594 -0.07373
# Poissons Ratio (y) = -0.35080 -0.50898
# Poissons Ratio (z) = -0.07577 -0.15797
#
# Static dielectric constant tensor:
#      x y z
#    x 1.800590 -0.040090 0.013430 
#    y -0.040090 1.880230 0.039060 
#    z 0.013430 0.039060 1.903340 
# 
# From -- ./inp_files/200261.got.cif
#   From: 2010.05.17/outbox.cif.g08.bks.cpg/sg2_101_cif.got.tgz:200261.got - 2010.06.03 11:33:40.
