data_PCOD9104284
_publ_section_title
;
Structure prediction by ZEFSAII (Michael W. Deem and Ramdas Pophale) SiO2 
 PCOD9104284
Probable space group: P -1
;
_chemical_formula_sum "Si O2"
_cell_formula_units_Z 16
_cell_length_a 5.124293
_cell_length_b 17.657355
_cell_length_c 8.893077
_cell_angle_alpha 113.472609
_cell_angle_beta 119.628632
_cell_angle_gamma 89.382610
_cell_volume 623.840476
_symmetry_space_group_name_H-M "P -1"
_symmetry_group_IT_number 2
_symmetry_cell_setting 'triclinic'
loop_
_space_group_symop_operation_xyz
x,y,z
-x,-y,-z
loop_
_atom_site_type_symbol
_atom_site_label
_atom_site_fract_x
_atom_site_fract_y
_atom_site_fract_z
Si Si1 0.392239 0.113735 0.449298
Si Si2 0.777147 0.650929 0.821962
Si Si3 0.043513 0.179855 0.159430
Si Si4 0.120673 0.713940 0.284656
Si Si5 0.220209 0.044338 0.964138
Si Si6 0.395409 0.383214 0.745893
Si Si7 0.748718 0.444315 0.210282
Si Si8 0.424896 0.060299 0.741494
O O1 0.686332 0.190909 0.574962
O O2 0.338193 0.101252 0.599599
O O3 0.109427 0.144919 0.313704
O O4 0.477820 0.027741 0.341341
O O5 0.922562 0.573700 0.748926
O O6 0.430950 0.614104 0.753000
O O7 0.865958 0.721581 0.773226
O O8 0.953891 0.694898 0.058799
O O9 0.717076 0.130104 0.953056
O O10 0.296113 0.142057 0.107891
O O11 0.000000 0.000000 0.000000
O O12 0.357041 0.651722 0.306201
O O13 0.884296 0.690746 0.335263
O O14 0.141478 0.043558 0.765460
O O15 0.500000 0.000000 0.000000
O O16 0.273788 0.459274 0.697335
O O17 0.560237 0.416468 0.978570
#
# Coordination Sequence:
#
# PCOD9104284 Si02
#       8
#     2   2   2   2   2   2   2   2
#     4  11  24  46  72 108 142 189 245 292 366 423
#     4  10  21  35  65  95 139 176 235 285 349 414
#     4  12  24  45  73 100 144 190 239 300 349 425
#     4  10  20  39  60 100 138 181 226 299 343 418
#     4  12  24  46  74  99 134 188 241 300 352 417
#     4   9  18  35  65  93 140 173 233 287 349 416
#     4   9  18  35  62 101 126 185 229 282 348 426
#     4  11  25  49  73 103 141 195 239 304 351 428
#
# _framework density 25.647580000000001
#
# number of rings (size 3 to 8) (size 9 to 14) (size 15 to 20)
#    0.000    1.500    3.750    1.125    1.750    4.000 
#    6.750    3.125    0.000    4.500    0.000    0.000 
#    0.000    0.000    0.000    0.000    0.000    0.000 
#
# Total GULP energy -89461.901489 kJ/mol
# GULP energy per Si atom -5591.368843 kJ/mol
# Density = 2.558920 g / cm^3
# Si number density = 25.647580 Si / 1000 Ang^3
#
#
#
# Elastic Constant Matrix: (Units=GPa)
#
#
# Indices 1 2 3 4 5 6 
#
# 1 101.2459 3.3899 11.6624 -11.8986 -13.9558 5.6875
# 2 3.3899 105.1140 23.6225 -14.1230 -14.1483 7.5178
# 3 11.6624 23.6225 90.5003 -19.0098 -0.6663 12.7649
# 4 -11.8986 -14.1230 -19.0098 29.1404 7.0002 -3.9607
# 5 -13.9558 -14.1483 -0.6663 7.0002 25.1766 -2.5183
# 6 5.6875 7.5178 12.7649 -3.9607 -2.5183 35.8444
#
#
#
# Elastic Compliance Matrix: (Units=1/GPa)
#
#
# Indices 1 2 3 4 5 6 
#
# 1 0.011154 0.001101 -0.000932 0.002945 0.005865 -0.000932
# 2 0.001101 0.011252 -0.002302 0.002829 0.005988 -0.000982
# 3 -0.000932 -0.002302 0.013965 0.008082 -0.004061 -0.003735
# 4 0.002945 0.002829 0.008082 0.044336 -0.008857 0.000338
# 5 0.005865 0.005988 -0.004061 -0.008857 0.048862 0.001714
# 6 -0.000932 -0.000982 -0.003735 0.000338 0.001714 0.029740
#
#
# Mechanical properties :
#
#
# Convention : Reuss Voigt Hill
#
# Bulk Modulus (GPa) = 31.14638 41.57890 36.36264
# Shear Modulus (GPa) = 28.69007 35.24463 31.96735
#
# Velocity S-wave (km/s) = 3.34822 3.71103 3.53428
# Velocity P-wave (km/s) = 5.20747 5.88295 5.55549
#
# Compressibility (1/GPa) = 0.03210646
#
# Stress axis : x y z
#
# Youngs Moduli (GPa) = 89.65160 88.87641 71.60660
#
# Poissons Ratio (x) = -0.09789 0.06672
# Poissons Ratio (y) = -0.09875 0.16484
# Poissons Ratio (z) = 0.08353 0.20459
#
# Static dielectric constant tensor:
#      x y z
#    x 2.035650 -0.004400 0.042670 
#    y -0.004400 2.042960 -0.056840 
#    z 0.042670 -0.056840 2.183230 
# 
# From -- ./inp_files/101529.got.cif
#   From: 2010.05.17/outbox.cif.g08.bks.cpg/sg2_51_cif.got.tgz:101529.got - 2010.06.03 11:33:40.
