data_PCOD9104788
_publ_section_title
;
Structure prediction by ZEFSAII (Michael W. Deem and Ramdas Pophale) SiO2 
 PCOD9104788
Probable space group: P -1
;
_chemical_formula_sum "Si O2"
_cell_formula_units_Z 16
_cell_length_a 24.476254
_cell_length_b 5.629940
_cell_length_c 19.389139
_cell_angle_alpha 99.468618
_cell_angle_beta 17.920396
_cell_angle_gamma 89.847314
_cell_volume 690.407888
_symmetry_space_group_name_H-M "P -1"
_symmetry_group_IT_number 2
_symmetry_cell_setting 'triclinic'
loop_
_space_group_symop_operation_xyz
x,y,z
-x,-y,-z
loop_
_atom_site_type_symbol
_atom_site_label
_atom_site_fract_x
_atom_site_fract_y
_atom_site_fract_z
Si Si1 0.552446 0.452946 0.546443
Si Si2 0.889459 0.319067 0.617529
Si Si3 0.120042 0.024749 0.666927
Si Si4 0.867358 0.339287 0.483104
Si Si5 0.278284 0.921422 0.792450
Si Si6 0.591902 0.791676 0.619954
Si Si7 0.740199 0.693921 0.051688
Si Si8 0.509945 0.563383 0.827142
O O1 0.471556 0.681787 0.593531
O O2 0.663680 0.149869 0.360598
O O3 0.677041 0.525149 0.453686
O O4 0.348626 0.505045 0.834698
O O5 0.855901 0.308618 0.575994
O O6 0.000000 0.500000 0.500000
O O7 0.671107 0.472256 0.927931
O O8 0.000000 0.000000 0.500000
O O9 0.081035 0.948490 0.633123
O O10 0.318462 0.717107 0.432293
O O11 0.213730 0.218354 0.576967
O O12 0.920061 0.105906 0.955679
O O13 0.644375 0.574400 0.729645
O O14 0.045444 0.402378 0.249826
O O15 0.233737 0.201829 0.898736
O O16 0.447146 0.801905 0.857328
O O17 0.441736 0.055004 0.763768
#
# Coordination Sequence:
#
# PCOD9104788 Si02
#       8
#     2   2   2   2   2   2   2   2
#     4  10  21  35  63  90 130 170 219 278 331 398
#     4  12  28  47  74 108 141 176 226 284 340 411
#     4   9  22  39  64  87 131 167 222 267 331 402
#     4   9  23  43  66  97 124 179 218 270 334 408
#     4   9  20  39  58  94 124 172 223 269 337 396
#     4  11  22  37  62  94 125 176 212 284 324 405
#     4  10  20  39  62  89 127 168 222 265 334 390
#     4  10  24  44  65  92 136 170 220 268 339 404
#
# _framework density 23.174707000000001
#
# number of rings (size 3 to 8) (size 9 to 14) (size 15 to 20)
#    0.750    1.250    0.000    2.250    7.000    1.500 
#    0.000    4.375    0.000    0.000    0.000    0.000 
#    0.000    0.000    0.000    0.000    0.000    0.000 
#
# Total GULP energy -89237.091640 kJ/mol
# GULP energy per Si atom -5577.318228 kJ/mol
# Density = 2.312196 g / cm^3
# Si number density = 23.174707 Si / 1000 Ang^3
#
#
#
# Elastic Constant Matrix: (Units=GPa)
#
#
# Indices 1 2 3 4 5 6 
#
# 1 118.9520 46.3757 27.0118 -12.0926 10.9679 2.5913
# 2 46.3757 54.4854 7.2014 -16.3018 2.6074 5.7058
# 3 27.0118 7.2014 77.0306 -21.5296 2.0416 2.6357
# 4 -12.0926 -16.3018 -21.5296 34.6584 -3.0483 -16.9421
# 5 10.9679 2.6074 2.0416 -3.0483 16.0352 -6.3121
# 6 2.5913 5.7058 2.6357 -16.9421 -6.3121 27.7919
#
#
#
# Elastic Compliance Matrix: (Units=1/GPa)
#
#
# Indices 1 2 3 4 5 6 
#
# 1 0.015499 -0.013855 -0.006114 -0.008920 -0.011670 -0.006109
# 2 -0.013855 0.033978 0.006830 0.020434 0.010298 0.008464
# 3 -0.006114 0.006830 0.019234 0.019138 0.008574 0.010958
# 4 -0.008920 0.020434 0.019138 0.072921 0.032577 0.046674
# 5 -0.011670 0.010298 0.008574 0.032577 0.088805 0.038189
# 6 -0.006109 0.008464 0.010958 0.046674 0.038189 0.070901
#
#
# Mechanical properties :
#
#
# Convention : Reuss Voigt Hill
#
# Bulk Modulus (GPa) = 23.56611 45.73843 34.65227
# Shear Modulus (GPa) = 14.63016 27.02236 20.82626
#
# Velocity S-wave (km/s) = 2.51529 3.41842 3.00102
# Velocity P-wave (km/s) = 4.31585 5.94643 5.19551
#
# Compressibility (1/GPa) = 0.04243381
#
# Stress axis : x y z
#
# Youngs Moduli (GPa) = 64.52015 29.43104 51.99071
#
# Poissons Ratio (x) = 0.40775 0.31789
# Poissons Ratio (y) = 0.89390 -0.35511
# Poissons Ratio (z) = 0.39450 -0.20102
#
# Static dielectric constant tensor:
#      x y z
#    x 1.867010 0.039670 -0.013550 
#    y 0.039670 1.995360 0.043660 
#    z -0.013550 0.043660 1.883360 
# 
# From -- ./inp_files/578733.got.cif
#   From: 2010.05.17/outbox.cif.g08.bks.cpg/sg2_290_cif.got.tgz:578733.got - 2010.06.03 11:33:40.
