data_PCOD9104470
_publ_section_title
;
Structure prediction by ZEFSAII (Michael W. Deem and Ramdas Pophale) SiO2 
 PCOD9104470
Probable space group: P -1
;
_chemical_formula_sum "Si O2"
_cell_formula_units_Z 16
_cell_length_a 17.193258
_cell_length_b 9.546312
_cell_length_c 12.900582
_cell_angle_alpha 86.742239
_cell_angle_beta 23.375517
_cell_angle_gamma 97.994898
_cell_volume 734.499009
_symmetry_space_group_name_H-M "P -1"
_symmetry_group_IT_number 2
_symmetry_cell_setting 'triclinic'
loop_
_space_group_symop_operation_xyz
x,y,z
-x,-y,-z
loop_
_atom_site_type_symbol
_atom_site_label
_atom_site_fract_x
_atom_site_fract_y
_atom_site_fract_z
Si Si1 0.547882 0.358034 0.414614
Si Si2 0.513704 0.928981 0.376931
Si Si3 0.153153 0.932983 0.204524
Si Si4 0.399812 0.600792 0.174982
Si Si5 0.765454 0.921022 0.348356
Si Si6 0.541106 0.187707 0.096199
Si Si7 0.881624 0.471366 0.823010
Si Si8 0.192959 0.259261 0.203952
O O1 0.500000 0.500000 0.500000
O O2 0.527613 0.247712 0.542725
O O3 0.377893 0.234175 0.542332
O O4 0.778422 0.428194 0.065885
O O5 0.500000 0.000000 0.500000
O O6 0.322830 0.948455 0.550413
O O7 0.751159 0.048593 0.029207
O O8 0.936393 0.785736 0.525137
O O9 0.122370 0.088108 0.248148
O O10 0.360496 0.936413 0.016220
O O11 0.134472 0.505676 0.514723
O O12 0.500000 0.500000 0.000000
O O13 0.453414 0.748727 0.027076
O O14 0.542277 0.657166 0.103211
O O15 0.695720 0.862587 0.554794
O O16 0.000000 0.000000 0.000000
O O17 0.725869 0.331892 0.937464
O O18 0.872821 0.627876 0.785319
#
# Coordination Sequence:
#
# PCOD9104470 Si02
#       8
#     2   2   2   2   2   2   2   2
#     4  10  21  39  62  87 120 162 200 248 313 362
#     4   9  19  38  62  85 115 162 208 239 301 367
#     4  10  21  40  60  87 126 161 194 258 307 356
#     4  12  23  36  62  92 117 161 208 240 301 374
#     4   9  20  37  60  86 117 156 204 253 293 357
#     4  10  20  39  61  83 124 157 199 256 300 352
#     4  11  22  42  61  88 128 156 201 258 300 364
#     4  11  23  39  62  91 126 160 197 250 317 359
#
# _framework density 21.783556999999998
#
# number of rings (size 3 to 8) (size 9 to 14) (size 15 to 20)
#    0.000    1.750    2.500    2.625    0.000    3.500 
#    4.500    0.625    0.000    0.000    0.000    0.000 
#    0.000    0.000    0.000    0.000    0.000    0.000 
#
# Total GULP energy -89206.049822 kJ/mol
# GULP energy per Si atom -5575.378114 kJ/mol
# Density = 2.173398 g / cm^3
# Si number density = 21.783557 Si / 1000 Ang^3
#
#
#
# Elastic Constant Matrix: (Units=GPa)
#
#
# Indices 1 2 3 4 5 6 
#
# 1 21.3062 -2.4430 19.4772 3.1781 2.2365 -6.0365
# 2 -2.4430 107.8108 11.7520 3.2225 1.0662 -15.1293
# 3 19.4772 11.7520 164.3090 13.1225 0.6671 -3.6902
# 4 3.1781 3.2225 13.1225 25.9700 -5.0562 2.6296
# 5 2.2365 1.0662 0.6671 -5.0562 30.5182 0.7916
# 6 -6.0365 -15.1293 -3.6902 2.6296 0.7916 18.6266
#
#
#
# Elastic Compliance Matrix: (Units=1/GPa)
#
#
# Indices 1 2 3 4 5 6 
#
# 1 0.062966 0.006076 -0.006572 -0.009065 -0.006849 0.025610
# 2 0.006076 0.011232 -0.001014 -0.003095 -0.001624 0.011397
# 3 -0.006572 -0.001014 0.007115 -0.002551 -0.000031 -0.001182
# 4 -0.009065 -0.003095 -0.002551 0.044211 0.008479 -0.012559
# 5 -0.006849 -0.001624 -0.000031 0.008479 0.034893 -0.006225
# 6 0.025610 0.011397 -0.001182 -0.012559 -0.006225 0.073047
#
#
# Mechanical properties :
#
#
# Convention : Reuss Voigt Hill
#
# Bulk Modulus (GPa) = 12.77252 38.99980 25.88616
# Shear Modulus (GPa) = 19.04182 32.66560 25.85371
#
# Velocity S-wave (km/s) = 2.95979 3.87661 3.44880
# Velocity P-wave (km/s) = 4.19006 6.16276 5.26954
#
# Compressibility (1/GPa) = 0.07829307
#
# Stress axis : x y z
#
# Youngs Moduli (GPa) = 15.88166 89.03430 140.54931
#
# Poissons Ratio (x) = -0.54095 0.92362
# Poissons Ratio (y) = -0.09649 0.14249
# Poissons Ratio (z) = 0.10437 0.09026
#
# Static dielectric constant tensor:
#      x y z
#    x 1.884850 -0.017600 0.011750 
#    y -0.017600 1.835000 -0.021900 
#    z 0.011750 -0.021900 1.872930 
# 
# From -- ./inp_files/540474.got.cif
#   From: 2010.05.17/outbox.cif.g08.bks.cpg/sg2_271_cif.got.tgz:540474.got - 2010.06.03 11:33:40.
