data_PCOD9104177
_publ_section_title
;
Structure prediction by ZEFSAII (Michael W. Deem and Ramdas Pophale) SiO2 
 PCOD9104177
Probable space group: P -1
;
_chemical_formula_sum "Si O2"
_cell_formula_units_Z 16
_cell_length_a 9.389471
_cell_length_b 16.203464
_cell_length_c 11.454259
_cell_angle_alpha 74.618714
_cell_angle_beta 113.357701
_cell_angle_gamma 152.298554
_cell_volume 728.536069
_symmetry_space_group_name_H-M "P -1"
_symmetry_group_IT_number 2
_symmetry_cell_setting 'triclinic'
loop_
_space_group_symop_operation_xyz
x,y,z
-x,-y,-z
loop_
_atom_site_type_symbol
_atom_site_label
_atom_site_fract_x
_atom_site_fract_y
_atom_site_fract_z
Si Si1 0.310284 0.160093 0.694048
Si Si2 0.285275 0.779410 0.082053
Si Si3 0.779811 0.156134 0.201826
Si Si4 0.464325 0.903208 0.613711
Si Si5 0.445790 0.576347 0.950261
Si Si6 0.470273 0.227688 0.462447
Si Si7 0.781412 0.730025 0.235945
Si Si8 0.544697 0.610744 0.714981
O O1 0.465985 0.177745 0.838400
O O2 0.483672 0.218347 0.608075
O O3 0.352929 0.279878 0.696055
O O4 0.920737 0.957987 0.626227
O O5 0.462490 0.943910 0.145868
O O6 0.211867 0.771209 0.928115
O O7 0.937443 0.590921 0.098821
O O8 0.755100 0.181590 0.313839
O O9 0.103137 0.254635 0.259936
O O10 0.381337 0.777290 0.562167
O O11 0.500000 0.000000 0.500000
O O12 0.831486 0.070138 0.719623
O O13 0.628804 0.693867 0.081773
O O14 0.421126 0.331707 0.166218
O O15 0.500000 0.500000 0.000000
O O16 0.592865 0.381733 0.413603
O O17 0.686784 0.584949 0.276191
#
# Coordination Sequence:
#
# PCOD9104177 Si02
#       8
#     2   2   2   2   2   2   2   2
#     4  10  22  41  65  90 127 172 215 256 317 374
#     4  11  21  38  66  95 127 170 210 261 310 386
#     4  11  22  37  69  98 123 166 221 256 307 379
#     4  11  25  44  66  93 128 170 214 258 313 381
#     4  10  20  39  58  93 133 164 200 259 334 362
#     4  10  23  43  64  92 126 170 214 262 313 373
#     4  10  23  41  64  94 129 169 201 266 327 370
#     4  11  22  42  66  96 130 164 211 262 316 380
#
# _framework density 21.961850999999999
#
# number of rings (size 3 to 8) (size 9 to 14) (size 15 to 20)
#    0.000    1.500    3.750    2.250    5.250    2.000 
#    2.250    3.750    0.000    0.000    0.000    0.000 
#    0.000    0.000    0.000    0.000    0.000    0.000 
#
# Total GULP energy -89430.181630 kJ/mol
# GULP energy per Si atom -5589.386352 kJ/mol
# Density = 2.191186 g / cm^3
# Si number density = 21.961851 Si / 1000 Ang^3
#
#
#
# Elastic Constant Matrix: (Units=GPa)
#
#
# Indices 1 2 3 4 5 6 
#
# 1 95.9025 42.9921 50.1234 -17.8305 -19.8959 3.9223
# 2 42.9921 39.4717 25.7021 1.2920 -10.6882 5.9729
# 3 50.1234 25.7021 62.0656 -11.6445 -7.7919 4.8570
# 4 -17.8305 1.2920 -11.6445 32.3124 5.4966 6.0521
# 5 -19.8959 -10.6882 -7.7919 5.4966 41.3032 -7.0857
# 6 3.9223 5.9729 4.8570 6.0521 -7.0857 36.0189
#
#
#
# Elastic Compliance Matrix: (Units=1/GPa)
#
#
# Indices 1 2 3 4 5 6 
#
# 1 0.031758 -0.026260 -0.011776 0.013309 0.004711 0.001175
# 2 -0.026260 0.060424 -0.006835 -0.019634 0.003939 -0.002165
# 3 -0.011776 -0.006835 0.029320 0.005456 -0.003164 -0.003077
# 4 0.013309 -0.019634 0.005456 0.043152 -0.004599 -0.007084
# 5 0.004711 0.003939 -0.003164 -0.004599 0.028482 0.005636
# 6 0.001175 -0.002165 -0.003077 -0.007084 0.005636 0.030708
#
#
# Mechanical properties :
#
#
# Convention : Reuss Voigt Hill
#
# Bulk Modulus (GPa) = 31.48649 48.34165 39.91407
# Shear Modulus (GPa) = 15.42387 27.16839 21.29613
#
# Velocity S-wave (km/s) = 2.65297 3.52102 3.11736
# Velocity P-wave (km/s) = 4.87364 6.21205 5.58310
#
# Compressibility (1/GPa) = 0.03175965
#
# Stress axis : x y z
#
# Youngs Moduli (GPa) = 31.48817 16.54975 34.10657
#
# Poissons Ratio (x) = 0.43459 0.40165
# Poissons Ratio (y) = 0.82688 0.23312
# Poissons Ratio (z) = 0.37081 0.11312
#
# Static dielectric constant tensor:
#      x y z
#    x 1.420530 -0.178970 0.393750 
#    y -0.178970 1.738970 0.191030 
#    z 0.393750 0.191030 1.346620 
# 
# From -- ./inp_files/399063.got.cif
#   From: 2010.05.17/outbox.cif.g08.bks.cpg/sg2_200_cif.got.tgz:399063.got - 2010.06.03 11:33:40.
