data_PCOD9104120
_publ_section_title
;
Structure prediction by ZEFSAII (Michael W. Deem and Ramdas Pophale) SiO2 
 PCOD9104120
Probable space group: P -1
;
_chemical_formula_sum "Si O2"
_cell_formula_units_Z 14
_cell_length_a 12.651885
_cell_length_b 11.082694
_cell_length_c 15.102448
_cell_angle_alpha 86.166324
_cell_angle_beta 154.354481
_cell_angle_gamma 108.566381
_cell_volume 733.104924
_symmetry_space_group_name_H-M "P -1"
_symmetry_group_IT_number 2
_symmetry_cell_setting 'triclinic'
loop_
_space_group_symop_operation_xyz
x,y,z
-x,-y,-z
loop_
_atom_site_type_symbol
_atom_site_label
_atom_site_fract_x
_atom_site_fract_y
_atom_site_fract_z
Si Si1 0.637831 0.902000 0.717303
Si Si2 0.805479 0.218823 0.298699
Si Si3 0.377615 0.205394 0.105665
Si Si4 0.467231 0.230883 0.884248
Si Si5 0.686560 0.943002 0.561801
Si Si6 0.585490 0.520647 0.167321
Si Si7 0.102803 0.058366 0.463209
O O1 0.509296 0.790400 0.709645
O O2 0.563912 0.842253 0.563012
O O3 0.524478 0.007328 0.628947
O O4 0.000000 0.000000 0.000000
O O5 0.512383 0.142582 0.144576
O O6 0.062456 0.361204 0.544083
O O7 0.923054 0.124154 0.358159
O O8 0.717848 0.261138 0.140226
O O9 0.472142 0.364084 0.132755
O O10 0.013209 0.093275 0.830522
O O11 0.540998 0.387401 0.900258
O O12 0.384405 0.128937 0.740223
O O13 0.144186 0.122738 0.701288
O O14 0.767099 0.890735 0.538600
O O15 0.500000 0.500000 0.000000
#
# Coordination Sequence:
#
# PCOD9104120 Si02
#       7
#     2   2   2   2   2   2   2
#     4   9  22  37  56  84 106 145 192 236 288 322
#     4  11  22  34  54  87 119 152 185 218 282 343
#     4  11  22  33  58  85 117 150 182 232 278 334
#     4  10  21  33  50  82 116 153 184 217 278 332
#     4  10  20  39  58  82 114 142 190 239 281 324
#     4  11  22  35  50  82 121 155 188 222 271 337
#     4  10  21  34  55  83 117 148 185 231 274 338
#
# _framework density 19.096858000000001
#
# number of rings (size 3 to 8) (size 9 to 14) (size 15 to 20)
#    0.000    1.714    2.857    0.857    8.000    1.143 
#    0.000    0.000    0.000    3.429    0.000   38.000 
#    0.000    0.000    0.000    0.000    0.000    0.000 
#
# Total GULP energy -77948.657398 kJ/mol
# GULP energy per Si atom -5567.761243 kJ/mol
# Density = 1.905339 g / cm^3
# Si number density = 19.096858 Si / 1000 Ang^3
#
#
#
# Elastic Constant Matrix: (Units=GPa)
#
#
# Indices 1 2 3 4 5 6 
#
# 1 125.9621 61.5789 18.5556 -13.9594 -13.7820 18.2247
# 2 61.5789 110.7104 28.0290 -21.1474 -10.4560 14.9167
# 3 18.5556 28.0290 82.5953 -24.6335 -15.2587 0.7086
# 4 -13.9594 -21.1474 -24.6335 26.8114 1.8197 -9.2098
# 5 -13.7820 -10.4560 -15.2587 1.8197 31.6424 -13.7390
# 6 18.2247 14.9167 0.7086 -9.2098 -13.7390 31.6619
#
#
#
# Elastic Compliance Matrix: (Units=1/GPa)
#
#
# Indices 1 2 3 4 5 6 
#
# 1 0.011395 -0.005687 -0.000350 -0.000090 0.001513 -0.003242
# 2 -0.005687 0.013982 -0.001505 0.006221 0.000519 -0.001245
# 3 -0.000350 -0.001505 0.021859 0.022242 0.014298 0.013095
# 4 -0.000090 0.006221 0.022242 0.070041 0.019830 0.025602
# 5 0.001513 0.000519 0.014298 0.019830 0.049372 0.025757
# 6 -0.003242 -0.001245 0.013095 0.025602 0.025757 0.052367
#
#
# Mechanical properties :
#
#
# Convention : Reuss Voigt Hill
#
# Bulk Modulus (GPa) = 31.10169 59.51051 45.30610
# Shear Modulus (GPa) = 20.42335 32.09677 26.26006
#
# Velocity S-wave (km/s) = 3.27381 4.10413 3.71225
# Velocity P-wave (km/s) = 5.53282 7.32725 6.49233
#
# Compressibility (1/GPa) = 0.03215259
#
# Stress axis : x y z
#
# Youngs Moduli (GPa) = 87.75542 71.51950 45.74731
#
# Poissons Ratio (x) = 0.40675 0.01599
# Poissons Ratio (y) = 0.49909 0.06886
# Poissons Ratio (z) = 0.03068 0.10765
#
# Static dielectric constant tensor:
#      x y z
#    x 1.740130 0.008480 -0.012260 
#    y 0.008480 1.710110 -0.022340 
#    z -0.012260 -0.022340 1.716360 
# 
# From -- ./inp_files/431463.got.cif
#   From: 2010.05.17/outbox.cif.g08.bks.cpg/sg2_216_cif.got.tgz:431463.got - 2010.06.03 11:33:40.
