data_PCOD9104801
_publ_section_title
;
Structure prediction by ZEFSAII (Michael W. Deem and Ramdas Pophale) SiO2 
 PCOD9104801
Probable space group: P -1
;
_chemical_formula_sum "Si O2"
_cell_formula_units_Z 14
_cell_length_a 8.841000
_cell_length_b 12.336180
_cell_length_c 11.123760
_cell_angle_alpha 146.492930
_cell_angle_beta 124.503419
_cell_angle_gamma 55.359123
_cell_volume 539.467615
_symmetry_space_group_name_H-M "P -1"
_symmetry_group_IT_number 2
_symmetry_cell_setting 'triclinic'
loop_
_space_group_symop_operation_xyz
x,y,z
-x,-y,-z
loop_
_atom_site_type_symbol
_atom_site_label
_atom_site_fract_x
_atom_site_fract_y
_atom_site_fract_z
Si Si1 0.265056 0.601796 0.893832
Si Si2 0.612178 0.756114 0.193882
Si Si3 0.926449 0.797585 0.787763
Si Si4 0.604332 0.611398 0.494659
Si Si5 0.094709 0.681825 0.500475
Si Si6 0.778993 0.425273 0.788028
Si Si7 0.111233 0.956203 0.385541
O O1 0.318689 0.414153 0.832285
O O2 0.341427 0.507297 0.713858
O O3 0.047108 0.686797 0.851302
O O4 0.386834 0.775898 0.122779
O O5 0.705491 0.944208 0.435549
O O6 0.694014 0.648385 0.005305
O O7 0.710789 0.795526 0.714609
O O8 0.980311 0.688072 0.581659
O O9 0.000000 0.000000 0.000000
O O10 0.704048 0.450007 0.488525
O O11 0.382674 0.668542 0.435729
O O12 0.073153 0.593521 0.272874
O O13 0.032190 0.920226 0.661339
O O14 0.834181 0.283931 0.799785
O O15 0.000000 0.000000 0.500000
#
# Coordination Sequence:
#
# PCOD9104801 Si02
#       7
#     2   2   2   2   2   2   2
#     4   9  20  38  61  87 118 160 195 252 300 357
#     4  10  20  39  62  90 123 156 202 244 307 362
#     4  11  23  36  60  89 117 156 202 249 298 358
#     4  10  20  41  63  84 118 161 202 244 306 351
#     4  10  21  42  59  84 123 156 200 246 299 355
#     4  10  23  39  65  90 119 164 197 249 303 357
#     4  10  22  38  59  89 126 157 196 249 295 363
#
# _framework density 25.951509999999999
#
# number of rings (size 3 to 8) (size 9 to 14) (size 15 to 20)
#    0.000    2.000    0.000    3.857    4.000    2.286 
#    5.143    3.571    0.000    0.000    0.000    0.000 
#    0.000    0.000    0.000    0.000    0.000    0.000 
#
# Total GULP energy -78057.024200 kJ/mol
# GULP energy per Si atom -5575.501729 kJ/mol
# Density = 2.589244 g / cm^3
# Si number density = 25.951510 Si / 1000 Ang^3
#
#
#
# Elastic Constant Matrix: (Units=GPa)
#
#
# Indices 1 2 3 4 5 6 
#
# 1 64.2921 20.6407 41.5066 -7.3509 19.5669 12.7515
# 2 20.6407 123.2866 25.1815 -6.4127 14.3454 27.7151
# 3 41.5066 25.1815 135.6810 13.2196 21.4260 -5.6411
# 4 -7.3509 -6.4127 13.2196 26.9314 -5.7218 -2.9457
# 5 19.5669 14.3454 21.4260 -5.7218 54.4017 -14.5100
# 6 12.7515 27.7151 -5.6411 -2.9457 -14.5100 37.7611
#
#
#
# Elastic Compliance Matrix: (Units=1/GPa)
#
#
# Indices 1 2 3 4 5 6 
#
# 1 0.027718 0.002340 -0.008743 0.008473 -0.010449 -0.015738
# 2 0.002340 0.011723 -0.002684 0.002218 -0.005804 -0.011852
# 3 -0.008743 -0.002684 0.011566 -0.008027 0.000066 0.006049
# 4 0.008473 0.002218 -0.008027 0.044705 0.004060 -0.000641
# 5 -0.010449 -0.005804 0.000066 0.004060 0.029232 0.019347
# 6 -0.015738 -0.011852 0.006049 -0.000641 0.019347 0.048784
#
#
# Mechanical properties :
#
#
# Convention : Reuss Voigt Hill
#
# Bulk Modulus (GPa) = 30.45814 55.32412 42.89113
# Shear Modulus (GPa) = 24.64935 39.54757 32.09846
#
# Velocity S-wave (km/s) = 3.08526 3.90795 3.52072
# Velocity P-wave (km/s) = 4.94508 6.45967 5.75244
#
# Compressibility (1/GPa) = 0.03283195
#
# Stress axis : x y z
#
# Youngs Moduli (GPa) = 36.07806 85.30487 86.45959
#
# Poissons Ratio (x) = -0.19959 0.75593
# Poissons Ratio (y) = -0.08441 0.23204
# Poissons Ratio (z) = 0.31544 0.22894
#
# Static dielectric constant tensor:
#      x y z
#    x 2.113690 -0.039400 0.048140 
#    y -0.039400 2.097090 0.044230 
#    z 0.048140 0.044230 2.233160 
# 
# From -- ./inp_files/356933.got.cif
#   From: 2010.05.17/outbox.cif.g08.bks.cpg/sg2_179_cif.got.tgz:356933.got - 2010.06.03 11:33:40.
