data_PCOD9104405
_publ_section_title
;
Structure prediction by ZEFSAII (Michael W. Deem and Ramdas Pophale) SiO2 
 PCOD9104405
Probable space group: P -1
;
_chemical_formula_sum "Si O2"
_cell_formula_units_Z 15
_cell_length_a 11.071858
_cell_length_b 11.277044
_cell_length_c 12.937703
_cell_angle_alpha 66.900906
_cell_angle_beta 84.999135
_cell_angle_gamma 143.506309
_cell_volume 598.356501
_symmetry_space_group_name_H-M "P -1"
_symmetry_group_IT_number 2
_symmetry_cell_setting 'triclinic'
loop_
_space_group_symop_operation_xyz
x,y,z
-x,-y,-z
loop_
_atom_site_type_symbol
_atom_site_label
_atom_site_fract_x
_atom_site_fract_y
_atom_site_fract_z
Si Si1 0.500000 0.500000 0.500000
Si Si2 0.769209 0.418689 0.993052
Si Si3 0.755529 0.346625 0.442016
Si Si4 0.302995 0.103464 0.819484
Si Si5 0.200811 0.659531 0.773977
Si Si6 0.158556 0.091643 0.286493
Si Si7 0.063291 0.372075 0.456708
Si Si8 0.662895 0.794109 0.997134
O O1 0.386014 0.303773 0.673740
O O2 0.837092 0.843838 0.411705
O O3 0.547221 0.290212 0.990525
O O4 0.890580 0.416122 0.919850
O O5 0.634209 0.235994 0.173518
O O6 0.057587 0.779526 0.888401
O O7 0.825082 0.456458 0.283323
O O8 0.839727 0.523963 0.465463
O O9 0.923457 0.373193 0.437389
O O10 0.405644 0.975597 0.609460
O O11 0.626292 0.346798 0.723450
O O12 0.181018 0.023585 0.968245
O O13 0.442182 0.459480 0.152538
O O14 0.166379 0.066505 0.170603
O O15 0.154850 0.963269 0.406564
#
# Coordination Sequence:
#
# PCOD9104405 Si02
#       8
#     1   2   2   2   2   2   2   2
#     4  10  22  44  66  92 130 160 212 256 314 376
#     4  11  22  43  61  96 129 164 211 269 305 388
#     4  10  20  39  60  92 123 169 210 263 310 378
#     4  11  23  42  65  94 126 173 207 264 317 379
#     4  10  22  38  62  89 127 166 211 259 323 362
#     4  10  23  43  63  99 126 166 210 268 308 389
#     4  10  21  38  62  91 128 162 218 257 312 380
#     4  11  24  43  67  93 131 163 216 256 327 372
#
# _framework density 25.068666
#
# number of rings (size 3 to 8) (size 9 to 14) (size 15 to 20)
#    0.000    1.600    2.667    1.600    1.867    2.667 
#    2.400    2.000    0.000    0.000    0.000    0.000 
#    0.000    0.000    0.000    0.000    0.000    0.000 
#
# Total GULP energy -83658.275543 kJ/mol
# GULP energy per Si atom -5577.218370 kJ/mol
# Density = 2.501161 g / cm^3
# Si number density = 25.068666 Si / 1000 Ang^3
#
#
#
# Elastic Constant Matrix: (Units=GPa)
#
#
# Indices 1 2 3 4 5 6 
#
# 1 29.1045 -6.8376 10.4534 2.7300 -0.2956 7.1466
# 2 -6.8376 47.5187 31.8601 21.0349 5.1173 -4.0469
# 3 10.4534 31.8601 105.8035 8.6442 23.3065 -11.1621
# 4 2.7300 21.0349 8.6442 47.6965 -1.7237 -2.2732
# 5 -0.2956 5.1173 23.3065 -1.7237 34.7795 -7.1468
# 6 7.1466 -4.0469 -11.1621 -2.2732 -7.1468 12.6677
#
#
#
# Elastic Compliance Matrix: (Units=1/GPa)
#
#
# Indices 1 2 3 4 5 6 
#
# 1 0.054701 0.018882 -0.014066 -0.010881 -0.001671 -0.040117
# 2 0.018882 0.039110 -0.013699 -0.016470 0.000068 -0.013146
# 3 -0.014066 -0.013699 0.017768 0.004171 -0.006450 0.016325
# 4 -0.010881 -0.016470 0.004171 0.028770 0.003346 0.011603
# 5 -0.001671 0.000068 -0.006450 0.003346 0.036615 0.016539
# 6 -0.040117 -0.013146 0.016325 0.011603 0.016539 0.123172
#
#
# Mechanical properties :
#
#
# Convention : Reuss Voigt Hill
#
# Bulk Modulus (GPa) = 10.65933 28.15317 19.40625
# Shear Modulus (GPa) = 14.31956 28.82547 21.57252
#
# Velocity S-wave (km/s) = 2.39260 3.39464 2.93667
# Velocity P-wave (km/s) = 3.44877 5.15941 4.38825
#
# Compressibility (1/GPa) = 0.09381453
#
# Stress axis : x y z
#
# Youngs Moduli (GPa) = 18.28112 25.56897 56.27954
#
# Poissons Ratio (x) = -0.48279 0.79160
# Poissons Ratio (y) = -0.34518 0.77096
# Poissons Ratio (z) = 0.25713 0.35026
#
# Static dielectric constant tensor:
#      x y z
#    x 1.938450 -0.090920 0.041250 
#    y -0.090920 1.928140 0.045040 
#    z 0.041250 0.045040 1.942400 
# 
# From -- ./inp_files/278130.got.cif
#   From: 2010.05.17/outbox.cif.g08.bks.cpg/sg2_140_cif.got.tgz:278130.got - 2010.06.03 11:33:40.
