data_PCOD9104245
_publ_section_title
;
Structure prediction by ZEFSAII (Michael W. Deem and Ramdas Pophale) SiO2 
 PCOD9104245
Probable space group: P -1
;
_chemical_formula_sum "Si O2"
_cell_formula_units_Z 16
_cell_length_a 7.058326
_cell_length_b 19.852693
_cell_length_c 8.384529
_cell_angle_alpha 84.341168
_cell_angle_beta 90.424365
_cell_angle_gamma 31.441279
_cell_volume 600.311604
_symmetry_space_group_name_H-M "P -1"
_symmetry_group_IT_number 2
_symmetry_cell_setting 'triclinic'
loop_
_space_group_symop_operation_xyz
x,y,z
-x,-y,-z
loop_
_atom_site_type_symbol
_atom_site_label
_atom_site_fract_x
_atom_site_fract_y
_atom_site_fract_z
Si Si1 0.648196 0.075377 0.391210
Si Si2 0.399070 0.461528 0.422246
Si Si3 0.184356 0.609452 0.114797
Si Si4 0.621578 0.728743 0.848372
Si Si5 0.571938 0.691708 0.492445
Si Si6 0.138754 0.772819 0.023469
Si Si7 0.562376 0.826483 0.325066
Si Si8 0.527850 0.988278 0.235084
O O1 0.597432 0.134081 0.217220
O O2 0.314839 0.196197 0.484541
O O3 0.656259 0.993748 0.382533
O O4 0.000000 0.000000 0.500000
O O5 0.500000 0.500000 0.500000
O O6 0.595063 0.332306 0.507727
O O7 0.409942 0.480722 0.233856
O O8 0.979250 0.572368 0.445199
O O9 0.850931 0.726299 0.210603
O O10 0.008216 0.633766 0.947493
O O11 0.324927 0.643306 0.089072
O O12 0.611870 0.696306 0.681032
O O13 0.429618 0.738713 0.972934
O O14 0.380100 0.808911 0.356800
O O15 0.829709 0.861349 0.863110
O O16 0.869407 0.879421 0.139936
O O17 0.391923 0.952411 0.259550
#
# Coordination Sequence:
#
# PCOD9104245 Si02
#       8
#     2   2   2   2   2   2   2   2
#     4  11  22  36  57  92 125 169 213 254 303 352
#     4  10  22  45  72  92 121 157 199 256 321 377
#     4  10  22  41  62  91 122 160 207 254 309 375
#     4  11  23  40  62  90 130 164 203 258 305 364
#     4   9  22  43  63  97 124 153 206 255 311 375
#     4  10  22  38  61  89 128 169 208 255 305 351
#     4   9  20  38  58  87 123 164 200 258 304 348
#     4  10  20  39  59  88 129 170 217 255 291 364
#
# _framework density 26.652826000000001
#
# number of rings (size 3 to 8) (size 9 to 14) (size 15 to 20)
#    0.000    2.000    1.250    1.125    1.750    5.000 
#   13.500    1.250    0.000    0.000    0.000    0.000 
#    0.000    0.000    0.000    0.000    0.000    0.000 
#
# Total GULP energy -89289.993318 kJ/mol
# GULP energy per Si atom -5580.624582 kJ/mol
# Density = 2.659216 g / cm^3
# Si number density = 26.652826 Si / 1000 Ang^3
#
#
#
# Elastic Constant Matrix: (Units=GPa)
#
#
# Indices 1 2 3 4 5 6 
#
# 1 154.9915 40.2836 54.5818 -7.7838 -39.4947 43.9802
# 2 40.2836 81.6196 22.8508 -1.0125 -24.0677 26.9660
# 3 54.5818 22.8508 84.2409 -4.3212 -22.4069 13.6015
# 4 -7.7838 -1.0125 -4.3212 44.8680 4.6364 -16.8488
# 5 -39.4947 -24.0677 -22.4069 4.6364 51.4070 -8.9473
# 6 43.9802 26.9660 13.6015 -16.8488 -8.9473 39.6585
#
#
#
# Elastic Compliance Matrix: (Units=1/GPa)
#
#
# Indices 1 2 3 4 5 6 
#
# 1 0.013518 0.001511 -0.005273 -0.004270 0.006652 -0.014523
# 2 0.001511 0.018980 -0.002172 -0.005766 0.007063 -0.014692
# 3 -0.005273 -0.002172 0.016095 0.001453 0.002329 0.002948
# 4 -0.004270 -0.005766 0.001453 0.029395 -0.004585 0.019612
# 5 0.006652 0.007063 0.002329 -0.004585 0.027792 -0.008656
# 6 -0.014523 -0.014692 0.002948 0.019612 -0.008656 0.056680
#
#
# Mechanical properties :
#
#
# Convention : Reuss Voigt Hill
#
# Bulk Modulus (GPa) = 27.23057 61.80938 44.51997
# Shear Modulus (GPa) = 26.79978 40.72909 33.76443
#
# Velocity S-wave (km/s) = 3.17442 3.91338 3.56311
# Velocity P-wave (km/s) = 4.86569 6.60759 5.80238
#
# Compressibility (1/GPa) = 0.03672344
#
# Stress axis : x y z
#
# Youngs Moduli (GPa) = 73.97562 52.68828 62.13206
#
# Poissons Ratio (x) = -0.07963 0.32764
# Poissons Ratio (y) = -0.11181 0.13498
# Poissons Ratio (z) = 0.39010 0.11446
#
# Static dielectric constant tensor:
#      x y z
#    x 2.070000 -0.037690 -0.019540 
#    y -0.037690 2.264910 -0.003000 
#    z -0.019540 -0.003000 2.186710 
# 
# From -- ./inp_files/48291.got.cif
#   From: 2010.05.17/outbox.cif.g08.bks.cpg/sg2_25_cif.got.tgz:48291.got - 2010.06.03 11:33:40.
