data_PCOD9104851
_publ_section_title
;
Structure prediction by ZEFSAII (Michael W. Deem and Ramdas Pophale) SiO2 
 PCOD9104851
Probable space group: P -1
;
_chemical_formula_sum "Si O2"
_cell_formula_units_Z 16
_cell_length_a 8.430879
_cell_length_b 14.029000
_cell_length_c 13.659383
_cell_angle_alpha 56.346650
_cell_angle_beta 123.596851
_cell_angle_gamma 147.739190
_cell_volume 704.660335
_symmetry_space_group_name_H-M "P -1"
_symmetry_group_IT_number 2
_symmetry_cell_setting 'triclinic'
loop_
_space_group_symop_operation_xyz
x,y,z
-x,-y,-z
loop_
_atom_site_type_symbol
_atom_site_label
_atom_site_fract_x
_atom_site_fract_y
_atom_site_fract_z
Si Si1 0.942007 0.303573 0.299498
Si Si2 0.846709 0.505980 0.245230
Si Si3 0.370258 0.672914 0.458382
Si Si4 0.184919 0.297563 0.192175
Si Si5 0.768032 0.214293 0.942084
Si Si6 0.447789 0.925223 0.418734
Si Si7 0.179075 0.346350 0.573642
Si Si8 0.702210 0.864503 0.262330
O O1 0.128660 0.344817 0.246365
O O2 0.091645 0.332559 0.437751
O O3 0.852943 0.395837 0.236605
O O4 0.633020 0.085376 0.314786
O O5 0.024171 0.535851 0.383074
O O6 0.056905 0.698284 0.152354
O O7 0.523876 0.411799 0.215330
O O8 0.515074 0.822249 0.503616
O O9 0.550720 0.800303 0.353181
O O10 0.403868 0.555349 0.553121
O O11 0.974614 0.083567 0.233042
O O12 0.036103 0.314532 0.052002
O O13 0.554820 0.226618 0.854084
O O14 0.500000 0.000000 0.000000
O O15 0.091479 0.764662 0.378449
O O16 0.500000 0.000000 0.500000
O O17 0.241322 0.243217 0.664404
#
# Coordination Sequence:
#
# PCOD9104851 Si02
#       8
#     2   2   2   2   2   2   2   2
#     4  10  22  40  63  99 134 171 218 272 331 394
#     4  10  22  41  67  98 134 167 219 272 331 398
#     4  10  20  40  60  93 135 172 210 275 328 384
#     4  11  21  41  70  95 129 180 222 273 337 389
#     4   9  21  41  71  94 130 170 217 278 332 383
#     4  10  20  39  62  91 136 175 217 268 323 389
#     4  10  21  37  61  95 134 172 220 267 325 399
#     4  10  20  39  65  93 131 176 220 271 325 394
#
# _framework density 22.705976
#
# number of rings (size 3 to 8) (size 9 to 14) (size 15 to 20)
#    0.000    2.000    1.250    1.875    0.000    2.000 
#   15.750    0.000    2.750    3.750    0.000    0.000 
#    0.000    0.000    0.000    0.000    0.000    0.000 
#
# Total GULP energy -89071.635804 kJ/mol
# GULP energy per Si atom -5566.977238 kJ/mol
# Density = 2.265430 g / cm^3
# Si number density = 22.705976 Si / 1000 Ang^3
#
#
#
# Elastic Constant Matrix: (Units=GPa)
#
#
# Indices 1 2 3 4 5 6 
#
# 1 142.2252 55.5545 43.8850 -1.7344 7.7153 -2.8842
# 2 55.5545 92.0103 22.7027 -21.7940 -2.6853 -22.8308
# 3 43.8850 22.7027 99.6328 3.6716 6.3284 -11.8683
# 4 -1.7344 -21.7940 3.6716 33.1304 8.1804 2.0439
# 5 7.7153 -2.6853 6.3284 8.1804 28.3784 -12.8324
# 6 -2.8842 -22.8308 -11.8683 2.0439 -12.8324 42.3995
#
#
#
# Elastic Compliance Matrix: (Units=1/GPa)
#
#
# Indices 1 2 3 4 5 6 
#
# 1 0.011522 -0.008482 -0.003442 -0.002958 -0.005094 -0.006146
# 2 -0.008482 0.022342 -0.000709 0.011826 0.006952 0.012789
# 3 -0.003442 -0.000709 0.012136 -0.002201 0.000119 0.002923
# 4 -0.002958 0.011826 -0.002201 0.040144 -0.008716 0.000978
# 5 -0.005094 0.006952 0.000119 -0.008716 0.048089 0.018405
# 6 -0.006146 0.012789 0.002923 0.000978 0.018405 0.036395
#
#
# Mechanical properties :
#
#
# Convention : Reuss Voigt Hill
#
# Bulk Modulus (GPa) = 48.22799 64.23919 56.23359
# Shear Modulus (GPa) = 24.65421 34.89672 29.77547
#
# Velocity S-wave (km/s) = 3.29873 3.92458 3.62518
# Velocity P-wave (km/s) = 5.98290 6.99211 6.50710
#
# Compressibility (1/GPa) = 0.02073485
#
# Stress axis : x y z
#
# Youngs Moduli (GPa) = 86.79185 44.75891 82.39803
#
# Poissons Ratio (x) = 0.37964 0.28360
# Poissons Ratio (y) = 0.73615 0.05841
# Poissons Ratio (z) = 0.29872 0.03173
#
# Static dielectric constant tensor:
#      x y z
#    x 2.009520 0.041930 0.041790 
#    y 0.041930 1.997940 0.038960 
#    z 0.041790 0.038960 1.873840 
# 
# From -- ./inp_files/268122.got.cif
#   From: 2010.05.17/outbox.cif.g08.bks.cpg/sg2_135_cif.got.tgz:268122.got - 2010.06.03 11:33:40.
