data_PCOD9104458
_publ_section_title
;
Structure prediction by ZEFSAII (Michael W. Deem and Ramdas Pophale) SiO2 
 PCOD9104458
Probable space group: P -1
;
_chemical_formula_sum "Si O2"
_cell_formula_units_Z 12
_cell_length_a 23.097045
_cell_length_b 28.107733
_cell_length_c 27.723880
_cell_angle_alpha 169.478280
_cell_angle_beta 167.469391
_cell_angle_gamma 11.119079
_cell_volume 599.390390
_symmetry_space_group_name_H-M "P -1"
_symmetry_group_IT_number 2
_symmetry_cell_setting 'triclinic'
loop_
_space_group_symop_operation_xyz
x,y,z
-x,-y,-z
loop_
_atom_site_type_symbol
_atom_site_label
_atom_site_fract_x
_atom_site_fract_y
_atom_site_fract_z
Si Si1 0.734404 0.119508 0.756030
Si Si2 0.317118 0.687240 0.489586
Si Si3 0.695744 0.140866 0.859008
Si Si4 0.380570 0.946892 0.940531
Si Si5 0.202081 0.885015 0.435848
Si Si6 0.621712 0.145106 0.042528
O O1 0.796805 0.051563 0.796257
O O2 0.532271 0.980052 0.434624
O O3 0.513852 0.488619 0.938864
O O4 0.060891 0.981117 0.855403
O O5 0.500000 0.500000 0.500000
O O6 0.358068 0.417007 0.219360
O O7 0.972655 0.949341 0.490622
O O8 0.490246 0.847216 0.768407
O O9 0.000000 0.000000 0.000000
O O10 0.301006 0.987566 0.972568
O O11 0.071787 0.036746 0.747401
O O12 0.425007 0.517082 0.255556
O O13 0.401628 0.032396 0.729775
#
# Coordination Sequence:
#
# PCOD9104458 Si02
#       6
#     2   2   2   2   2   2
#     4  10  23  40  59  94 124 144 196 243 274 354
#     4  10  20  39  61  81 113 156 207 254 284 338
#     4  10  21  41  68  88 115 159 192 229 288 344
#     4  11  23  39  59  84 116 156 202 251 295 339
#     4  11  23  39  58  83 117 158 198 243 299 345
#     4  12  25  38  59  90 122 154 190 241 301 352
#
# _framework density 20.020340999999998
#
# number of rings (size 3 to 8) (size 9 to 14) (size 15 to 20)
#    0.000    1.333    0.000    7.500    0.000    6.667 
#    0.000    0.000    0.000    0.000    0.000    0.000 
#    0.000    0.000    0.000    0.000    0.000    0.000 
#
# Total GULP energy -67140.309198 kJ/mol
# GULP energy per Si atom -5595.025767 kJ/mol
# Density = 1.997477 g / cm^3
# Si number density = 20.020341 Si / 1000 Ang^3
#
#
#
# Elastic Constant Matrix: (Units=GPa)
#
#
# Indices 1 2 3 4 5 6 
#
# 1 81.3925 61.8668 52.5673 -24.5785 16.1817 -2.4853
# 2 61.8668 88.4792 46.6161 -19.8040 23.3577 14.1678
# 3 52.5673 46.6161 156.3061 -8.0999 32.6613 11.3950
# 4 -24.5785 -19.8040 -8.0999 38.0300 3.8595 11.5909
# 5 16.1817 23.3577 32.6613 3.8595 29.0641 -26.1475
# 6 -2.4853 14.1678 11.3950 11.5909 -26.1475 -12.4907
#
#
#
# Elastic Compliance Matrix: (Units=1/GPa)
#
#
# Indices 1 2 3 4 5 6 
#
# 1 0.030944 -0.014704 -0.003991 0.012981 -0.005422 -0.003081
# 2 -0.014704 0.019490 -0.002723 -0.003344 0.004689 0.009628
# 3 -0.003991 -0.002723 0.008271 -0.003355 -0.000872 0.003965
# 4 0.012981 -0.003344 -0.003355 0.028972 0.003843 0.009403
# 5 -0.005422 0.004689 -0.000872 0.003843 0.014697 -0.021597
# 6 -0.003081 0.009628 0.003965 0.009403 -0.021597 -0.010972
#
#
# Mechanical properties :
#
#
# Convention : Reuss Voigt Hill
#
# Bulk Modulus (GPa) = 63.01390 72.03090 67.52240
# Shear Modulus (GPa) = 35.83496 21.92920 28.88208
#
# Velocity S-wave (km/s) = 4.23534 3.31319 3.80233
# Velocity P-wave (km/s) = 7.44720 7.11992 7.28540
#
# Compressibility (1/GPa) = 0.01586951
#
# Stress axis : x y z
#
# Youngs Moduli (GPa) = 32.31606 51.30944 120.89828
#
# Poissons Ratio (x) = 0.75445 0.48256
# Poissons Ratio (y) = 0.47517 0.32915
# Poissons Ratio (z) = 0.12899 0.13969
#
# Static dielectric constant tensor:
#      x y z
#    x 1.720570 -0.025990 -0.075710 
#    y -0.025990 1.861970 0.220760 
#    z -0.075710 0.220760 1.967000 
# 
# From -- ./inp_files/576461.got.cif
#   From: 2010.05.17/outbox.cif.g08.bks.cpg/sg2_289_cif.got.tgz:576461.got - 2010.06.03 11:33:40.
