data_PCOD9104094
_publ_section_title
;
Structure prediction by ZEFSAII (Michael W. Deem and Ramdas Pophale) SiO2 
 PCOD9104094
Probable space group: P -1
;
_chemical_formula_sum "Si O2"
_cell_formula_units_Z 16
_cell_length_a 14.905212
_cell_length_b 7.954832
_cell_length_c 8.213029
_cell_angle_alpha 87.848958
_cell_angle_beta 99.984866
_cell_angle_gamma 44.288672
_cell_volume 650.919967
_symmetry_space_group_name_H-M "P -1"
_symmetry_group_IT_number 2
_symmetry_cell_setting 'triclinic'
loop_
_space_group_symop_operation_xyz
x,y,z
-x,-y,-z
loop_
_atom_site_type_symbol
_atom_site_label
_atom_site_fract_x
_atom_site_fract_y
_atom_site_fract_z
Si Si1 0.095941 0.069698 0.361119
Si Si2 0.830161 0.079611 0.943594
Si Si3 0.413776 0.278888 0.615356
Si Si4 0.451529 0.699183 0.105454
Si Si5 0.330052 0.065226 0.788826
Si Si6 0.603012 0.214455 0.491224
Si Si7 0.171901 0.621861 0.290936
Si Si8 0.941003 0.756051 0.303020
O O1 0.249045 0.920349 0.432444
O O2 0.095011 0.867685 0.368919
O O3 0.036326 0.230872 0.499549
O O4 0.071525 0.135407 0.157002
O O5 0.873261 0.981169 0.144767
O O6 0.682503 0.202371 0.866767
O O7 0.091440 0.556574 0.283077
O O8 0.422668 0.420056 0.740570
O O9 0.561213 0.106258 0.588407
O O10 0.315780 0.421499 0.426235
O O11 0.366106 0.190684 0.713057
O O12 0.500000 0.500000 0.000000
O O13 0.396400 0.940649 0.988119
O O14 0.398541 0.840671 0.693535
O O15 0.170543 0.240072 0.739217
O O16 0.500000 0.500000 0.500000
O O17 0.825301 0.283131 0.883433
#
# Coordination Sequence:
#
# PCOD9104094 Si02
#       8
#     2   2   2   2   2   2   2   2
#     4   9  19  33  58  89 115 153 202 260 305 335
#     4   9  20  35  58  90 116 154 204 262 303 342
#     4  12  22  38  58  90 127 156 197 247 318 374
#     4  11  23  38  63  88 123 155 204 257 302 369
#     4  10  25  37  59  88 120 167 196 249 312 361
#     4  11  18  37  60  85 118 150 205 252 298 362
#     4  10  21  34  59  87 120 161 198 257 300 358
#     4  10  20  39  57  87 121 159 214 244 300 358
#
# _framework density 24.580597000000001
#
# number of rings (size 3 to 8) (size 9 to 14) (size 15 to 20)
#    0.750    1.000    2.500    2.250    5.250    0.500 
#    0.000    0.000    0.000    0.000    0.000    4.375 
#    0.000    0.000    0.000    0.000    0.000    0.000 
#
# Total GULP energy -89103.599559 kJ/mol
# GULP energy per Si atom -5568.974972 kJ/mol
# Density = 2.452465 g / cm^3
# Si number density = 24.580597 Si / 1000 Ang^3
#
#
#
# Elastic Constant Matrix: (Units=GPa)
#
#
# Indices 1 2 3 4 5 6 
#
# 1 200.7080 20.1512 47.0977 -13.5341 -7.1729 -7.9427
# 2 20.1512 28.2576 24.0658 -2.1722 1.4974 1.7360
# 3 47.0977 24.0658 96.7846 -3.8808 -9.4941 0.4238
# 4 -13.5341 -2.1722 -3.8808 19.3774 -3.3466 -0.6252
# 5 -7.1729 1.4974 -9.4941 -3.3466 45.8510 -1.0085
# 6 -7.9427 1.7360 0.4238 -0.6252 -1.0085 20.1275
#
#
#
# Elastic Compliance Matrix: (Units=1/GPa)
#
#
# Indices 1 2 3 4 5 6 
#
# 1 0.006138 -0.002490 -0.002134 0.003835 0.000942 0.002848
# 2 -0.002490 0.046966 -0.010843 0.000460 -0.004245 -0.005004
# 3 -0.002134 -0.010843 0.014394 0.000703 0.003051 -0.000035
# 4 0.003835 0.000460 0.000703 0.055426 0.004851 0.003424
# 5 0.000942 -0.004245 0.003051 0.004851 0.023125 0.001983
# 6 0.002848 -0.005004 -0.000035 0.003424 0.001983 0.051445
#
#
# Mechanical properties :
#
#
# Convention : Reuss Voigt Hill
#
# Bulk Modulus (GPa) = 27.34821 56.48662 41.91742
# Shear Modulus (GPa) = 20.77990 32.70022 26.74006
#
# Velocity S-wave (km/s) = 2.91069 3.65132 3.30184
# Velocity P-wave (km/s) = 4.73775 6.38798 5.62372
#
# Compressibility (1/GPa) = 0.03656546
#
# Stress axis : x y z
#
# Youngs Moduli (GPa) = 162.91589 21.29187 69.47112
#
# Poissons Ratio (x) = 0.05301 0.14826
# Poissons Ratio (y) = 0.40563 0.75326
# Poissons Ratio (z) = 0.34768 0.23086
#
# Static dielectric constant tensor:
#      x y z
#    x 2.001010 0.052890 -0.031030 
#    y 0.052890 2.028760 0.032830 
#    z -0.031030 0.032830 2.081240 
# 
# From -- ./inp_files/295539.got.cif
#   From: 2010.05.17/outbox.cif.g08.bks.cpg/sg2_148_cif.got.tgz:295539.got - 2010.06.03 11:33:40.
