data_PCOD9104004
_publ_section_title
;
Structure prediction by ZEFSAII (Michael W. Deem and Ramdas Pophale) SiO2 
 PCOD9104004
Probable space group: P -1
;
_chemical_formula_sum "Si O2"
_cell_formula_units_Z 10
_cell_length_a 5.201938
_cell_length_b 13.100550
_cell_length_c 6.999623
_cell_angle_alpha 58.423800
_cell_angle_beta 97.936948
_cell_angle_gamma 89.264544
_cell_volume 400.440619
_symmetry_space_group_name_H-M "P -1"
_symmetry_group_IT_number 2
_symmetry_cell_setting 'triclinic'
loop_
_space_group_symop_operation_xyz
x,y,z
-x,-y,-z
loop_
_atom_site_type_symbol
_atom_site_label
_atom_site_fract_x
_atom_site_fract_y
_atom_site_fract_z
Si Si1 0.948743 0.134283 0.943169
Si Si2 0.029842 0.458431 0.766612
Si Si3 0.535597 0.315479 0.834121
Si Si4 0.231818 0.082941 0.394845
Si Si5 0.169788 0.292963 0.484334
O O1 0.156835 0.138224 0.128031
O O2 0.667273 0.176899 0.965095
O O3 0.004570 0.227086 0.690891
O O4 0.000000 0.000000 0.000000
O O5 0.786638 0.382748 0.845299
O O6 0.988224 0.588353 0.736766
O O7 0.000000 0.500000 0.500000
O O8 0.305706 0.378066 0.883129
O O9 0.415487 0.333774 0.589029
O O10 0.247014 0.190106 0.440767
O O11 0.500000 0.000000 0.500000
O O12 0.000000 0.000000 0.500000
#
# Coordination Sequence:
#
# PCOD9104004 Si02
#       5
#     2   2   2   2   2
#     4  12  25  44  72 100 136 181 226 275 340 400
#     4  10  20  38  71  99 132 179 223 267 341 393
#     4  11  22  41  71 102 131 181 224 272 333 406
#     4  12  29  46  65 102 139 176 229 277 335 404
#     4  11  24  44  74  98 139 179 222 281 333 401
#
# _framework density 24.972487999999998
#
# number of rings (size 3 to 8) (size 9 to 14) (size 15 to 20)
#    0.000    0.800    6.000    3.600    2.800    1.600 
#    0.000    2.000    0.000    1.200    0.000    0.000 
#    0.000    0.000    0.000    0.000    0.000    0.000 
#
# Total GULP energy -55938.609139 kJ/mol
# GULP energy per Si atom -5593.860914 kJ/mol
# Density = 2.491565 g / cm^3
# Si number density = 24.972488 Si / 1000 Ang^3
#
#
#
# Elastic Constant Matrix: (Units=GPa)
#
#
# Indices 1 2 3 4 5 6 
#
# 1 211.6349 98.9193 47.6371 -26.8639 35.0399 -35.6035
# 2 98.9193 242.4365 53.6481 -26.4320 21.7729 -46.5472
# 3 47.6371 53.6481 79.4350 -14.1271 20.6630 -15.5037
# 4 -26.8639 -26.4320 -14.1271 55.0400 -2.8150 10.9140
# 5 35.0399 21.7729 20.6630 -2.8150 36.7170 -21.2520
# 6 -35.6035 -46.5472 -15.5037 10.9140 -21.2520 46.9253
#
#
#
# Elastic Compliance Matrix: (Units=1/GPa)
#
#
# Indices 1 2 3 4 5 6 
#
# 1 0.006926 -0.001818 -0.001373 0.001808 -0.004240 0.000657
# 2 -0.001818 0.006249 -0.002705 0.000574 0.002426 0.004891
# 3 -0.001373 -0.002705 0.017314 0.002499 -0.007886 -0.002157
# 4 0.001808 0.000574 0.002499 0.020526 -0.004147 -0.003886
# 5 -0.004240 0.002426 -0.007886 -0.004147 0.044106 0.017524
# 6 0.000657 0.004891 -0.002157 -0.003886 0.017524 0.034788
#
#
# Mechanical properties :
#
#
# Convention : Reuss Voigt Hill
#
# Bulk Modulus (GPa) = 53.48331 103.76836 78.62584
# Shear Modulus (GPa) = 33.79919 49.95659 41.87789
#
# Velocity S-wave (km/s) = 3.68293 4.47751 4.09951
# Velocity P-wave (km/s) = 6.28877 8.26886 7.34584
#
# Compressibility (1/GPa) = 0.01869742
#
# Stress axis : x y z
#
# Youngs Moduli (GPa) = 144.38464 160.03224 57.75746
#
# Poissons Ratio (x) = 0.29095 0.07930
# Poissons Ratio (y) = 0.26250 0.15621
# Poissons Ratio (z) = 0.19823 0.43281
#
# Static dielectric constant tensor:
#      x y z
#    x 2.043480 -0.022930 -0.079470 
#    y -0.022930 2.060230 -0.033990 
#    z -0.079470 -0.033990 2.039000 
# 
# From -- ./inp_files/21322.got.cif
#   From: 2010.05.17/outbox.cif.g08.bks.cpg/sg2_11_cif.got.tgz:21322.got - 2010.06.03 11:33:40.
