data_PCOD9104579
_publ_section_title
;
Structure prediction by ZEFSAII (Michael W. Deem and Ramdas Pophale) SiO2 
 PCOD9104579
Probable space group: P -1
;
_chemical_formula_sum "Si O2"
_cell_formula_units_Z 14
_cell_length_a 9.671437
_cell_length_b 17.038444
_cell_length_c 11.438786
_cell_angle_alpha 139.028307
_cell_angle_beta 37.059097
_cell_angle_gamma 113.844661
_cell_volume 644.274599
_symmetry_space_group_name_H-M "P -1"
_symmetry_group_IT_number 2
_symmetry_cell_setting 'triclinic'
loop_
_space_group_symop_operation_xyz
x,y,z
-x,-y,-z
loop_
_atom_site_type_symbol
_atom_site_label
_atom_site_fract_x
_atom_site_fract_y
_atom_site_fract_z
Si Si1 0.761476 0.564021 0.916971
Si Si2 0.387427 0.138837 0.362610
Si Si3 0.077200 0.118180 0.343018
Si Si4 0.889572 0.963676 0.416674
Si Si5 0.156520 0.709578 0.529000
Si Si6 0.280065 0.436161 0.801214
Si Si7 0.143302 0.693146 0.785396
O O1 0.837186 0.437209 0.636752
O O2 0.954274 0.627067 0.852662
O O3 0.448549 0.674220 0.247731
O O4 0.775513 0.496415 0.958671
O O5 0.157862 0.184183 0.469738
O O6 0.367490 0.275587 0.579535
O O7 0.352866 0.049242 0.385239
O O8 0.669324 0.036930 0.002099
O O9 0.843815 0.086965 0.499712
O O10 0.037220 0.190354 0.327211
O O11 0.000000 0.000000 0.500000
O O12 0.067550 0.812807 0.067184
O O13 0.102741 0.757389 0.753695
O O14 0.542296 0.423077 0.550250
O O15 0.000000 0.500000 0.000000
#
# Coordination Sequence:
#
# PCOD9104579 Si02
#       7
#     2   2   2   2   2   2   2
#     4  10  22  43  61  91 130 165 210 264 309 370
#     4  10  20  39  61  89 128 160 205 262 314 368
#     4  10  21  39  63  91 122 167 210 255 315 373
#     4  10  21  39  62  90 128 164 200 260 317 367
#     4  10  23  41  65  90 126 171 212 257 313 372
#     4  11  22  38  64  94 124 164 209 259 316 370
#     4  11  22  41  65  93 128 165 211 261 312 374
#
# _framework density 21.729865
#
# number of rings (size 3 to 8) (size 9 to 14) (size 15 to 20)
#    0.000    1.714    2.857    1.286    0.000    2.286 
#    0.000    2.857    0.000    0.000    0.000    0.000 
#    0.000    0.000    0.000    0.000    0.000    0.000 
#
# Total GULP energy -78008.531198 kJ/mol
# GULP energy per Si atom -5572.037943 kJ/mol
# Density = 2.168041 g / cm^3
# Si number density = 21.729865 Si / 1000 Ang^3
#
#
#
# Elastic Constant Matrix: (Units=GPa)
#
#
# Indices 1 2 3 4 5 6 
#
# 1 89.6100 23.1138 44.4712 -2.1509 4.2252 1.8889
# 2 23.1138 97.7500 33.3554 -19.2185 -7.2716 26.5003
# 3 44.4712 33.3554 59.3894 -12.4431 7.4502 6.9115
# 4 -2.1509 -19.2185 -12.4431 26.5516 4.0616 -4.0016
# 5 4.2252 -7.2716 7.4502 4.0616 41.7718 -1.0583
# 6 1.8889 26.5003 6.9115 -4.0016 -1.0583 41.3994
#
#
#
# Elastic Compliance Matrix: (Units=1/GPa)
#
#
# Indices 1 2 3 4 5 6 
#
# 1 0.018637 -0.000780 -0.015152 -0.006113 0.001317 0.001621
# 2 -0.000780 0.016719 -0.006715 0.007067 0.003277 -0.008779
# 3 -0.015152 -0.006715 0.035247 0.011513 -0.007041 0.000038
# 4 -0.006113 0.007067 0.011513 0.048186 -0.004932 -0.001635
# 5 0.001317 0.003277 -0.007041 -0.004932 0.026092 -0.000792
# 6 0.001621 -0.008779 0.000038 -0.001635 -0.000792 0.029516
#
#
# Mechanical properties :
#
#
# Convention : Reuss Voigt Hill
#
# Bulk Modulus (GPa) = 39.51229 49.84781 44.68005
# Shear Modulus (GPa) = 21.91756 31.66517 26.79137
#
# Velocity S-wave (km/s) = 3.17935 3.82149 3.51512
# Velocity P-wave (km/s) = 5.63033 6.51624 6.08941
#
# Compressibility (1/GPa) = 0.02530858
#
# Stress axis : x y z
#
# Youngs Moduli (GPa) = 53.65553 59.81174 28.37150
#
# Poissons Ratio (x) = 0.04664 0.42990
# Poissons Ratio (y) = 0.04184 0.19051
# Poissons Ratio (z) = 0.81301 0.40163
#
# Static dielectric constant tensor:
#      x y z
#    x 1.836910 0.011100 -0.000700 
#    y 0.011100 1.805020 -0.025440 
#    z -0.000700 -0.025440 1.804100 
# 
# From -- ./inp_files/403878.got.cif
#   From: 2010.05.17/outbox.cif.g08.bks.cpg/sg2_202_cif.got.tgz:403878.got - 2010.06.03 11:33:40.
