data_PCOD9104747
_publ_section_title
;
Structure prediction by ZEFSAII (Michael W. Deem and Ramdas Pophale) SiO2 
 PCOD9104747
Probable space group: P -1
;
_chemical_formula_sum "Si O2"
_cell_formula_units_Z 16
_cell_length_a 17.842515
_cell_length_b 9.864919
_cell_length_c 7.786634
_cell_angle_alpha 98.635260
_cell_angle_beta 132.326506
_cell_angle_gamma 52.820271
_cell_volume 726.585179
_symmetry_space_group_name_H-M "P -1"
_symmetry_group_IT_number 2
_symmetry_cell_setting 'triclinic'
loop_
_space_group_symop_operation_xyz
x,y,z
-x,-y,-z
loop_
_atom_site_type_symbol
_atom_site_label
_atom_site_fract_x
_atom_site_fract_y
_atom_site_fract_z
Si Si1 0.300806 0.151185 0.323826
Si Si2 0.095937 0.165179 0.830270
Si Si3 0.197298 0.075312 0.599686
Si Si4 0.403428 0.274779 0.281008
Si Si5 0.902157 0.578745 0.693420
Si Si6 0.074580 0.899231 0.273711
Si Si7 0.624091 0.490069 0.403957
Si Si8 0.493067 0.701294 0.883266
O O1 0.293352 0.263680 0.173701
O O2 0.252568 0.285224 0.437949
O O3 0.443709 0.383010 0.847692
O O4 0.450366 0.943327 0.528308
O O5 0.192933 0.088573 0.800227
O O6 0.966112 0.390826 0.658063
O O7 0.192739 0.127289 0.128411
O O8 0.031413 0.079065 0.758886
O O9 0.107065 0.279092 0.412373
O O10 0.128444 0.992682 0.443879
O O11 0.354108 0.922710 0.737800
O O12 0.404052 0.394406 0.447474
O O13 0.398312 0.337010 0.092731
O O14 0.000000 0.500000 0.000000
O O15 0.210315 0.680114 0.403507
O O16 0.000000 0.000000 0.000000
O O17 0.559588 0.396000 0.293736
#
# Coordination Sequence:
#
# PCOD9104747 Si02
#       8
#     2   2   2   2   2   2   2   2
#     4  10  22  39  63  93 125 169 222 257 320 390
#     4  11  23  41  65  95 130 171 213 272 323 385
#     4  11  22  42  66  97 127 170 218 266 330 380
#     4  11  21  41  66  94 127 174 216 265 323 384
#     4  10  20  39  62  87 132 166 209 260 313 384
#     4  11  24  44  68  94 130 169 213 266 325 396
#     4  10  23  43  65 101 125 168 217 266 327 389
#     4  10  22  43  68  93 136 162 215 278 321 379
#
# _framework density 22.020817000000001
#
# number of rings (size 3 to 8) (size 9 to 14) (size 15 to 20)
#    0.000    1.500    1.250    4.125    1.750    1.000 
#   18.000    1.875    0.000    0.000    0.000    0.000 
#    0.000    0.000    0.000    0.000    0.000    0.000 
#
# Total GULP energy -89381.242412 kJ/mol
# GULP energy per Si atom -5586.327651 kJ/mol
# Density = 2.197070 g / cm^3
# Si number density = 22.020817 Si / 1000 Ang^3
#
#
#
# Elastic Constant Matrix: (Units=GPa)
#
#
# Indices 1 2 3 4 5 6 
#
# 1 94.5511 1.5671 -8.6480 -0.0677 -18.6211 5.4494
# 2 1.5671 55.9413 7.0017 -0.7767 -5.6631 3.2858
# 3 -8.6480 7.0017 44.8293 -9.2499 -8.5164 1.6557
# 4 -0.0677 -0.7767 -9.2499 29.1261 -0.3661 -11.6972
# 5 -18.6211 -5.6631 -8.5164 -0.3661 36.2052 -0.9250
# 6 5.4494 3.2858 1.6557 -11.6972 -0.9250 18.5676
#
#
#
# Elastic Compliance Matrix: (Units=1/GPa)
#
#
# Indices 1 2 3 4 5 6 
#
# 1 0.012591 0.000120 0.003907 -0.000162 0.007315 -0.003803
# 2 0.000120 0.018662 -0.002740 -0.002065 0.002206 -0.004285
# 3 0.003907 -0.002740 0.026977 0.010089 0.008123 0.003693
# 4 -0.000162 -0.002065 0.010089 0.050058 0.003270 0.031212
# 5 0.007315 0.002206 0.008123 0.003270 0.033684 0.000477
# 6 -0.003803 -0.004285 0.003693 0.031212 0.000477 0.075088
#
#
# Mechanical properties :
#
#
# Convention : Reuss Voigt Hill
#
# Bulk Modulus (GPa) = 16.44665 21.68483 19.06574
# Shear Modulus (GPa) = 21.29883 29.80651 25.55267
#
# Velocity S-wave (km/s) = 3.11338 3.68307 3.41014
# Velocity P-wave (km/s) = 4.51764 5.28729 4.91755
#
# Compressibility (1/GPa) = 0.06080267
#
# Stress axis : x y z
#
# Youngs Moduli (GPa) = 79.41984 53.58543 37.06880
#
# Poissons Ratio (x) = -0.00643 -0.14482
# Poissons Ratio (y) = -0.00952 0.10159
# Poissons Ratio (z) = -0.31029 0.14685
#
# Static dielectric constant tensor:
#      x y z
#    x 1.838420 -0.009900 -0.005980 
#    y -0.009900 1.881560 0.058940 
#    z -0.005980 0.058940 1.845890 
# 
# From -- ./inp_files/327591.got.cif
#   From: 2010.05.17/outbox.cif.g08.bks.cpg/sg2_164_cif.got.tgz:327591.got - 2010.06.03 11:33:40.
