data_PCOD9104090
_publ_section_title
;
Structure prediction by ZEFSAII (Michael W. Deem and Ramdas Pophale) SiO2 
 PCOD9104090
Probable space group: P -1
;
_chemical_formula_sum "Si O2"
_cell_formula_units_Z 16
_cell_length_a 7.812322
_cell_length_b 17.890939
_cell_length_c 9.763514
_cell_angle_alpha 73.439721
_cell_angle_beta 99.190423
_cell_angle_gamma 40.279158
_cell_volume 670.998528
_symmetry_space_group_name_H-M "P -1"
_symmetry_group_IT_number 2
_symmetry_cell_setting 'triclinic'
loop_
_space_group_symop_operation_xyz
x,y,z
-x,-y,-z
loop_
_atom_site_type_symbol
_atom_site_label
_atom_site_fract_x
_atom_site_fract_y
_atom_site_fract_z
Si Si1 0.285598 0.457789 0.089037
Si Si2 0.452950 0.858096 0.390243
Si Si3 0.238914 0.771204 0.494011
Si Si4 0.558131 0.810636 0.127777
Si Si5 0.006530 0.274029 0.994831
Si Si6 0.298473 0.803877 0.893264
Si Si7 0.113414 0.119093 0.878069
Si Si8 0.567022 0.094813 0.337929
O O1 0.471953 0.376009 0.300841
O O2 0.564283 0.329009 0.080246
O O3 0.174325 0.590622 0.007682
O O4 0.000000 0.500000 0.000000
O O5 0.388311 0.791806 0.437662
O O6 0.641918 0.791107 0.306518
O O7 0.577494 0.838872 0.563745
O O8 0.096085 0.036489 0.232458
O O9 0.934746 0.916803 0.476277
O O10 0.069054 0.792234 0.334007
O O11 0.852592 0.729681 0.113723
O O12 0.207769 0.991345 0.959224
O O13 0.481358 0.756364 0.082426
O O14 0.910605 0.233876 0.918719
O O15 0.329880 0.130095 0.202504
O O16 0.401629 0.834986 0.779679
O O17 0.500000 0.000000 0.000000
#
# Coordination Sequence:
#
# PCOD9104090 Si02
#       8
#     2   2   2   2   2   2   2   2
#     4  12  20  34  56  83 113 142 183 223 270 330
#     4  11  18  30  55  91 110 124 182 240 280 318
#     4  11  19  32  58  84 107 143 183 224 272 319
#     4  10  19  32  55  86 108 138 175 234 285 305
#     4  10  21  37  58  74 113 149 186 217 265 325
#     4  10  17  30  53  79 107 135 173 219 278 315
#     4  10  19  36  56  77 108 147 188 229 254 316
#     4  10  16  33  54  82 102 138 181 225 260 316
#
# _framework density 23.845058999999999
#
# number of rings (size 3 to 8) (size 9 to 14) (size 15 to 20)
#    0.000    1.500   10.000    1.125    0.000    0.500 
#    0.000    1.250    0.000    0.750    0.000    0.000 
#    0.000    0.000    0.000    0.000    0.000    0.000 
#
# Total GULP energy -89266.304892 kJ/mol
# GULP energy per Si atom -5579.144056 kJ/mol
# Density = 2.379079 g / cm^3
# Si number density = 23.845059 Si / 1000 Ang^3
#
#
#
# Elastic Constant Matrix: (Units=GPa)
#
#
# Indices 1 2 3 4 5 6 
#
# 1 51.3354 10.7355 16.4909 7.5065 8.3348 17.1876
# 2 10.7355 105.4019 19.2119 24.4985 -0.1247 19.9732
# 3 16.4909 19.2119 124.1627 34.3450 19.1285 -0.5034
# 4 7.5065 24.4985 34.3450 59.8092 6.3998 -3.9438
# 5 8.3348 -0.1247 19.1285 6.3998 22.1914 9.3383
# 6 17.1876 19.9732 -0.5034 -3.9438 9.3383 34.2555
#
#
#
# Elastic Compliance Matrix: (Units=1/GPa)
#
#
# Indices 1 2 3 4 5 6 
#
# 1 0.025142 0.001164 -0.002672 -0.002923 -0.000608 -0.013504
# 2 0.001164 0.013207 -0.001714 -0.006107 0.007532 -0.011066
# 3 -0.002672 -0.001714 0.011298 -0.004130 -0.009498 0.004620
# 4 -0.002923 -0.006107 -0.004130 0.023209 -0.005969 0.009266
# 5 -0.000608 0.007532 -0.009498 -0.005969 0.064736 -0.022561
# 6 -0.013504 -0.011066 0.004620 0.009266 -0.022561 0.049705
#
#
# Mechanical properties :
#
#
# Convention : Reuss Voigt Hill
#
# Bulk Modulus (GPa) = 23.14661 41.53074 32.33867
# Shear Modulus (GPa) = 24.02204 38.88200 31.45202
#
# Velocity S-wave (km/s) = 3.17743 4.04246 3.63577
# Velocity P-wave (km/s) = 4.81556 6.26446 5.58717
#
# Compressibility (1/GPa) = 0.04320287
#
# Stress axis : x y z
#
# Youngs Moduli (GPa) = 39.77419 75.71891 88.50844
#
# Poissons Ratio (x) = -0.08812 0.23648
# Poissons Ratio (y) = -0.04629 0.15171
# Poissons Ratio (z) = 0.10627 0.12979
#
# Static dielectric constant tensor:
#      x y z
#    x 2.105950 0.021020 -0.015350 
#    y 0.021020 1.969530 0.042340 
#    z -0.015350 0.042340 1.935720 
# 
# From -- ./inp_files/284268.got.cif
#   From: 2010.05.17/outbox.cif.g08.bks.cpg/sg2_143_cif.got.tgz:284268.got - 2010.06.03 11:33:40.
