data_PCOD9104425
_publ_section_title
;
Structure prediction by ZEFSAII (Michael W. Deem and Ramdas Pophale) SiO2 
 PCOD9104425
Probable space group: P -1
;
_chemical_formula_sum "Si O2"
_cell_formula_units_Z 14
_cell_length_a 16.907663
_cell_length_b 12.299799
_cell_length_c 7.783935
_cell_angle_alpha 71.957580
_cell_angle_beta 47.834638
_cell_angle_gamma 35.334599
_cell_volume 577.266254
_symmetry_space_group_name_H-M "P -1"
_symmetry_group_IT_number 2
_symmetry_cell_setting 'triclinic'
loop_
_space_group_symop_operation_xyz
x,y,z
-x,-y,-z
loop_
_atom_site_type_symbol
_atom_site_label
_atom_site_fract_x
_atom_site_fract_y
_atom_site_fract_z
Si Si1 0.941889 0.667951 0.608374
Si Si2 0.603891 0.374423 0.631332
Si Si3 0.681220 0.635797 0.568823
Si Si4 0.456506 0.055416 0.827178
Si Si5 0.698139 0.195435 0.951215
Si Si6 0.702535 0.044414 0.504421
Si Si7 0.940348 0.246195 0.153608
O O1 0.811455 0.882230 0.587837
O O2 0.000000 0.500000 0.500000
O O3 0.155031 0.526828 0.433238
O O4 0.782447 0.765145 0.936225
O O5 0.383898 0.639633 0.865511
O O6 0.764521 0.313484 0.337740
O O7 0.597974 0.260433 0.599268
O O8 0.699920 0.257058 0.737007
O O9 0.485278 0.731067 0.825076
O O10 0.817192 0.471493 0.288155
O O11 0.599342 0.839539 0.611292
O O12 0.527693 0.117734 0.655497
O O13 0.500000 0.000000 0.000000
O O14 0.914966 0.937032 0.813591
O O15 0.892717 0.885283 0.173300
#
# Coordination Sequence:
#
# PCOD9104425 Si02
#       7
#     2   2   2   2   2   2   2
#     4  11  22  42  68  94 120 163 216 259 305 376
#     4  10  22  41  65  91 125 167 218 256 304 374
#     4  11  21  41  67  90 128 163 214 257 305 379
#     4  10  20  39  60  94 121 158 211 253 311 365
#     4  10  22  42  66  92 123 169 214 259 308 368
#     4  11  23  41  64  95 133 164 205 265 315 368
#     4  11  24  42  61  96 132 167 206 256 321 370
#
# _framework density 24.252238999999999
#
# number of rings (size 3 to 8) (size 9 to 14) (size 15 to 20)
#    0.000    1.429    2.857    4.286    0.000    3.429 
#    5.143    1.429    0.000    0.000    0.000    0.000 
#    0.000    0.000    0.000    0.000    0.000    0.000 
#
# Total GULP energy -78392.484259 kJ/mol
# GULP energy per Si atom -5599.463161 kJ/mol
# Density = 2.419704 g / cm^3
# Si number density = 24.252239 Si / 1000 Ang^3
#
#
#
# Elastic Constant Matrix: (Units=GPa)
#
#
# Indices 1 2 3 4 5 6 
#
# 1 95.4305 73.2496 32.6312 10.7983 1.2169 45.0175
# 2 73.2496 95.6484 38.5168 24.8933 5.9028 19.7111
# 3 32.6312 38.5168 113.2357 1.7146 11.7926 24.2205
# 4 10.7983 24.8933 1.7146 37.1578 2.8152 4.0773
# 5 1.2169 5.9028 11.7926 2.8152 23.9333 11.6963
# 6 45.0175 19.7111 24.2205 4.0773 11.6963 50.7074
#
#
#
# Elastic Compliance Matrix: (Units=1/GPa)
#
#
# Indices 1 2 3 4 5 6 
#
# 1 0.074741 -0.054525 0.005483 0.018319 0.032527 -0.056754
# 2 -0.054525 0.055235 -0.008521 -0.023236 -0.022524 0.038070
# 3 0.005483 -0.008521 0.011741 0.004445 -0.000912 -0.007310
# 4 0.018319 -0.023236 0.004445 0.038074 0.004732 -0.013506
# 5 0.032527 -0.022524 -0.000912 0.004732 0.062420 -0.034465
# 6 -0.056754 0.038070 -0.007310 -0.013506 -0.034465 0.067836
#
#
# Mechanical properties :
#
#
# Convention : Reuss Voigt Hill
#
# Bulk Modulus (GPa) = 37.60751 65.90109 51.75430
# Shear Modulus (GPa) = 11.51976 33.02083 22.27030
#
# Velocity S-wave (km/s) = 2.18181 3.69393 3.03360
# Velocity P-wave (km/s) = 4.67841 6.73986 5.80143
#
# Compressibility (1/GPa) = 0.02659044
#
# Stress axis : x y z
#
# Youngs Moduli (GPa) = 13.37950 18.10445 85.17297
#
# Poissons Ratio (x) = 0.98715 -0.46700
# Poissons Ratio (y) = 0.72952 0.72574
# Poissons Ratio (z) = -0.07336 0.15426
#
# Static dielectric constant tensor:
#      x y z
#    x 1.953640 -0.032470 0.033360 
#    y -0.032470 1.926190 -0.020790 
#    z 0.033360 -0.020790 1.904090 
# 
# From -- ./inp_files/333081.got.cif
#   From: 2010.05.17/outbox.cif.g08.bks.cpg/sg2_167_cif.got.tgz:333081.got - 2010.06.03 11:33:40.
