data_PCOD9104680
_publ_section_title
;
Structure prediction by ZEFSAII (Michael W. Deem and Ramdas Pophale) SiO2 
 PCOD9104680
Probable space group: P -1
;
_chemical_formula_sum "Si O2"
_cell_formula_units_Z 12
_cell_length_a 7.233653
_cell_length_b 11.850202
_cell_length_c 7.293737
_cell_angle_alpha 72.232944
_cell_angle_beta 122.095761
_cell_angle_gamma 110.560083
_cell_volume 490.355756
_symmetry_space_group_name_H-M "P -1"
_symmetry_group_IT_number 2
_symmetry_cell_setting 'triclinic'
loop_
_space_group_symop_operation_xyz
x,y,z
-x,-y,-z
loop_
_atom_site_type_symbol
_atom_site_label
_atom_site_fract_x
_atom_site_fract_y
_atom_site_fract_z
Si Si1 0.131687 0.805030 0.642840
Si Si2 0.166637 0.536667 0.739262
Si Si3 0.326978 0.203999 0.563900
Si Si4 0.308722 0.901007 0.052005
Si Si5 0.357798 0.101236 0.256838
Si Si6 0.677129 0.641827 0.849643
O O1 0.127273 0.663329 0.727090
O O2 0.371348 0.862599 0.648882
O O3 0.900012 0.823262 0.424324
O O4 0.128938 0.855276 0.823787
O O5 0.422752 0.567694 0.786585
O O6 0.000000 0.500000 0.500000
O O7 0.157700 0.433621 0.939996
O O8 0.563477 0.205220 0.780576
O O9 0.317267 0.100671 0.453458
O O10 0.320685 0.322566 0.381186
O O11 0.250624 0.978484 0.152474
O O12 0.500000 0.000000 0.000000
O O13 0.287412 0.225610 0.097635
#
# Coordination Sequence:
#
# PCOD9104680 Si02
#       6
#     2   2   2   2   2   2
#     4  10  22  38  60  89 117 155 197 239 294 346
#     4  10  20  39  62  82 116 158 193 241 296 342
#     4  10  21  39  60  91 119 153 196 237 292 352
#     4  10  21  38  61  89 122 154 192 245 288 345
#     4   8  19  40  58  84 125 152 191 240 286 348
#     4   8  20  38  57  86 116 149 195 238 285 345
#
# _framework density 24.472028000000002
#
# number of rings (size 3 to 8) (size 9 to 14) (size 15 to 20)
#    1.000    1.667    0.000    0.500    0.000   10.667 
#    0.000    3.333    0.000    0.000    0.000    0.000 
#    0.000    0.000    0.000    0.000    0.000    0.000 
#
# Total GULP energy -66937.972961 kJ/mol
# GULP energy per Si atom -5578.164413 kJ/mol
# Density = 2.441633 g / cm^3
# Si number density = 24.472028 Si / 1000 Ang^3
#
#
#
# Elastic Constant Matrix: (Units=GPa)
#
#
# Indices 1 2 3 4 5 6 
#
# 1 89.5560 -5.9544 8.6625 -7.5706 21.6756 -3.3832
# 2 -5.9544 77.9142 28.0889 -15.6954 9.9700 5.5926
# 3 8.6625 28.0889 95.9536 -18.5135 15.4502 8.8823
# 4 -7.5706 -15.6954 -18.5135 41.7072 -1.6977 -2.3159
# 5 21.6756 9.9700 15.4502 -1.6977 27.9198 -2.4519
# 6 -3.3832 5.5926 8.8823 -2.3159 -2.4519 12.8987
#
#
#
# Elastic Compliance Matrix: (Units=1/GPa)
#
#
# Indices 1 2 3 4 5 6 
#
# 1 0.014703 0.003282 0.000384 0.003588 -0.012543 0.000429
# 2 0.003282 0.016260 -0.002482 0.005051 -0.007107 -0.004924
# 3 0.000384 -0.002482 0.014090 0.004566 -0.007737 -0.009177
# 4 0.003588 0.005051 0.004566 0.028316 -0.005423 -0.000340
# 5 -0.012543 -0.007107 -0.007737 -0.005423 0.053298 0.014277
# 6 0.000429 -0.004924 -0.009177 -0.000340 0.014277 0.088747
#
#
# Mechanical properties :
#
#
# Convention : Reuss Voigt Hill
#
# Bulk Modulus (GPa) = 21.08736 36.11310 28.60023
# Shear Modulus (GPa) = 21.84824 32.01360 26.93092
#
# Velocity S-wave (km/s) = 2.99119 3.62079 3.32094
# Velocity P-wave (km/s) = 4.53489 5.68059 5.13976
#
# Compressibility (1/GPa) = 0.04742177
#
# Stress axis : x y z
#
# Youngs Moduli (GPa) = 68.01502 61.49907 70.97399
#
# Poissons Ratio (x) = -0.20185 -0.02726
# Poissons Ratio (y) = -0.22323 0.17613
# Poissons Ratio (z) = -0.02612 0.15262
#
# Static dielectric constant tensor:
#      x y z
#    x 2.028710 -0.009910 0.008790 
#    y -0.009910 1.948460 -0.033240 
#    z 0.008790 -0.033240 2.059150 
# 
# From -- ./inp_files/42487.got.cif
#   From: 2010.05.17/outbox.cif.g08.bks.cpg/sg2_22_cif.got.tgz:42487.got - 2010.06.03 11:33:40.
