data_PCOD9104840
_publ_section_title
;
Structure prediction by ZEFSAII (Michael W. Deem and Ramdas Pophale) SiO2 
 PCOD9104840
Probable space group: P -1
;
_chemical_formula_sum "Si O2"
_cell_formula_units_Z 16
_cell_length_a 15.877047
_cell_length_b 9.593787
_cell_length_c 15.660512
_cell_angle_alpha 142.453027
_cell_angle_beta 38.339157
_cell_angle_gamma 142.473788
_cell_volume 803.983816
_symmetry_space_group_name_H-M "P -1"
_symmetry_group_IT_number 2
_symmetry_cell_setting 'triclinic'
loop_
_space_group_symop_operation_xyz
x,y,z
-x,-y,-z
loop_
_atom_site_type_symbol
_atom_site_label
_atom_site_fract_x
_atom_site_fract_y
_atom_site_fract_z
Si Si1 0.047034 0.545074 0.631940
Si Si2 0.427620 0.193677 0.163773
Si Si3 0.136358 0.704219 0.182441
Si Si4 0.033927 0.283007 0.825617
Si Si5 0.647385 0.998271 0.337893
Si Si6 0.710386 0.592219 0.194733
Si Si7 0.110192 0.282201 0.301587
Si Si8 0.456770 0.558662 0.155850
O O1 0.059615 0.332691 0.459023
O O2 0.915636 0.419830 0.745032
O O3 0.996490 0.699256 0.678709
O O4 0.207309 0.723596 0.637750
O O5 0.533339 0.391936 0.246795
O O6 0.447814 0.359217 0.141776
O O7 0.256743 0.003377 0.232321
O O8 0.500000 0.000000 0.000000
O O9 0.990470 0.689628 0.240840
O O10 0.209397 0.545101 0.994265
O O11 0.195130 0.323311 0.752534
O O12 0.908506 0.004479 0.821931
O O13 0.000000 0.500000 0.000000
O O14 0.707240 0.826095 0.260156
O O15 0.578718 0.839477 0.227928
O O16 0.500000 0.000000 0.500000
O O17 0.281552 0.504443 0.261987
O O18 0.500000 0.500000 0.000000
#
# Coordination Sequence:
#
# PCOD9104840 Si02
#       8
#     2   2   2   2   2   2   2   2
#     4  11  25  41  65  94 129 178 214 269 336 392
#     4   9  19  38  59  89 126 159 200 265 319 375
#     4  10  21  39  64  95 122 167 218 261 330 393
#     4  10  20  39  62  91 128 166 209 271 326 379
#     4  11  22  43  64  91 133 170 217 268 335 387
#     4   9  20  37  64  89 125 169 206 270 322 376
#     4  11  23  43  63  91 134 168 221 273 323 394
#     4  11  24  39  67  96 124 170 217 270 321 385
#
# _framework density 19.900898000000002
#
# number of rings (size 3 to 8) (size 9 to 14) (size 15 to 20)
#    0.000    1.750    3.750    0.000    5.250    3.000 
#    0.000    0.000    0.000    1.500    0.000    0.000 
#    0.000    0.000    0.000    0.000    0.000    0.000 
#
# Total GULP energy -89162.348648 kJ/mol
# GULP energy per Si atom -5572.646791 kJ/mol
# Density = 1.985560 g / cm^3
# Si number density = 19.900898 Si / 1000 Ang^3
#
#
#
# Elastic Constant Matrix: (Units=GPa)
#
#
# Indices 1 2 3 4 5 6 
#
# 1 106.4292 39.3604 33.3631 4.0215 7.3873 33.1651
# 2 39.3604 90.2000 21.9484 6.3148 15.2408 13.3225
# 3 33.3631 21.9484 47.3228 -6.9734 11.2438 -0.3158
# 4 4.0215 6.3148 -6.9734 11.4805 5.0706 0.5414
# 5 7.3873 15.2408 11.2438 5.0706 24.8438 2.3995
# 6 33.1651 13.3225 -0.3158 0.5414 2.3995 27.0853
#
#
#
# Elastic Compliance Matrix: (Units=1/GPa)
#
#
# Indices 1 2 3 4 5 6 
#
# 1 0.032701 -0.000658 -0.032290 -0.036116 0.016610 -0.040844
# 2 -0.000658 0.015498 -0.007787 -0.011473 -0.002826 -0.006429
# 3 -0.032290 -0.007787 0.065943 0.068443 -0.033855 0.045769
# 4 -0.036116 -0.011473 0.068443 0.168416 -0.052590 0.051957
# 5 0.016610 -0.002826 -0.033855 -0.052590 0.065428 -0.024088
# 6 -0.040844 -0.006429 0.045769 0.051957 -0.024088 0.091723
#
#
# Mechanical properties :
#
#
# Convention : Reuss Voigt Hill
#
# Bulk Modulus (GPa) = 30.60674 48.14398 39.37536
# Shear Modulus (GPa) = 9.39727 22.63393 16.01560
#
# Velocity S-wave (km/s) = 2.17538 3.37609 2.83992
# Velocity P-wave (km/s) = 4.66076 6.28027 5.53012
#
# Compressibility (1/GPa) = 0.03267254
#
# Stress axis : x y z
#
# Youngs Moduli (GPa) = 30.58030 64.52269 15.16461
#
# Poissons Ratio (x) = 0.04244 0.48967
# Poissons Ratio (y) = 0.02012 0.11808
# Poissons Ratio (z) = 0.98745 0.50241
#
# Static dielectric constant tensor:
#      x y z
#    x 1.735590 0.058420 0.015390 
#    y 0.058420 1.746060 0.097670 
#    z 0.015390 0.097670 1.942770 
# 
# From -- ./inp_files/389326.got.cif
#   From: 2010.05.17/outbox.cif.g08.bks.cpg/sg2_195_cif.got.tgz:389326.got - 2010.06.03 11:33:40.
