data_PCOD9104487
_publ_section_title
;
Structure prediction by ZEFSAII (Michael W. Deem and Ramdas Pophale) SiO2 
 PCOD9104487
Probable space group: P -1
;
_chemical_formula_sum "Si O2"
_cell_formula_units_Z 16
_cell_length_a 9.188290
_cell_length_b 20.672650
_cell_length_c 7.778732
_cell_angle_alpha 139.073811
_cell_angle_beta 102.589581
_cell_angle_gamma 53.429614
_cell_volume 697.551864
_symmetry_space_group_name_H-M "P -1"
_symmetry_group_IT_number 2
_symmetry_cell_setting 'triclinic'
loop_
_space_group_symop_operation_xyz
x,y,z
-x,-y,-z
loop_
_atom_site_type_symbol
_atom_site_label
_atom_site_fract_x
_atom_site_fract_y
_atom_site_fract_z
Si Si1 0.809398 0.008100 0.654902
Si Si2 0.554369 0.728876 0.798707
Si Si3 0.728463 0.925821 0.954686
Si Si4 0.211098 0.185689 0.870614
Si Si5 0.750692 0.126760 0.497670
Si Si6 0.326946 0.368683 0.753038
Si Si7 0.877503 0.457362 0.445798
Si Si8 0.999021 0.356590 0.668369
O O1 0.740913 0.924345 0.466637
O O2 0.046438 0.903368 0.540873
O O3 0.770419 0.072138 0.584116
O O4 0.679969 0.140262 0.002152
O O5 0.633419 0.686779 0.540624
O O6 0.643862 0.589992 0.628320
O O7 0.650893 0.778602 0.027234
O O8 0.895077 0.796616 0.621880
O O9 0.759080 0.871266 0.045568
O O10 0.500000 0.000000 0.000000
O O11 0.750350 0.032659 0.183062
O O12 0.978369 0.326144 0.094521
O O13 0.539701 0.276666 0.719095
O O14 0.177659 0.352293 0.761149
O O15 0.197905 0.526953 0.039967
O O16 0.930646 0.412799 0.567807
O O17 0.000000 0.500000 0.500000
#
# Coordination Sequence:
#
# PCOD9104487 Si02
#       8
#     2   2   2   2   2   2   2   2
#     4  10  22  36  56  77 109 149 181 215 270 319
#     4  11  19  35  56  84 108 141 178 228 266 314
#     4  10  16  33  56  82 109 133 177 226 268 314
#     4   9  18  33  52  82 108 136 179 223 263 319
#     4  10  21  38  55  79 109 145 181 220 265 327
#     4  11  20  33  54  83 109 137 179 218 274 314
#     4   9  16  32  53  79 109 136 172 221 269 315
#     4  10  19  32  54  85 109 140 168 226 273 318
#
# _framework density 22.937360999999999
#
# number of rings (size 3 to 8) (size 9 to 14) (size 15 to 20)
#    0.000    2.000    5.000    1.125    0.000    0.500 
#    0.000    3.750    0.000    7.500    0.000    0.000 
#    0.000    0.000    0.000    0.000    0.000    0.000 
#
# Total GULP energy -89354.221972 kJ/mol
# GULP energy per Si atom -5584.638873 kJ/mol
# Density = 2.288515 g / cm^3
# Si number density = 22.937361 Si / 1000 Ang^3
#
#
#
# Elastic Constant Matrix: (Units=GPa)
#
#
# Indices 1 2 3 4 5 6 
#
# 1 22.1629 19.9824 16.1266 4.5792 -7.3038 -10.6471
# 2 19.9824 108.7536 37.1747 26.4423 -11.0528 -11.1977
# 3 16.1266 37.1747 171.5380 37.1099 -11.1515 -12.9397
# 4 4.5792 26.4423 37.1099 31.4121 -8.2227 -7.5949
# 5 -7.3038 -11.0528 -11.1515 -8.2227 20.6080 8.5423
# 6 -10.6471 -11.1977 -12.9397 -7.5949 8.5423 24.8532
#
#
#
# Elastic Compliance Matrix: (Units=1/GPa)
#
#
# Indices 1 2 3 4 5 6 
#
# 1 0.070662 -0.011006 -0.004574 0.013118 0.012516 0.022638
# 2 -0.011006 0.013503 0.000243 -0.010459 0.000005 -0.001703
# 3 -0.004574 0.000243 0.008188 -0.009460 -0.000742 -0.000223
# 4 0.013118 -0.010459 -0.009460 0.055226 0.012391 0.008599
# 5 0.012516 0.000005 -0.000742 0.012391 0.062824 -0.012829
# 6 0.022638 -0.001703 -0.000223 0.008599 -0.012829 0.056089
#
#
# Mechanical properties :
#
#
# Convention : Reuss Voigt Hill
#
# Bulk Modulus (GPa) = 16.21335 49.89135 33.05235
# Shear Modulus (GPa) = 15.73685 30.65269 23.19477
#
# Velocity S-wave (km/s) = 2.62215 3.65960 3.18342
# Velocity P-wave (km/s) = 4.03131 6.29724 5.28709
#
# Compressibility (1/GPa) = 0.06167758
#
# Stress axis : x y z
#
# Youngs Moduli (GPa) = 14.15190 74.05992 122.12417
#
# Poissons Ratio (x) = 0.81513 0.55865
# Poissons Ratio (y) = 0.15576 -0.02970
# Poissons Ratio (z) = 0.06474 -0.01801
#
# Static dielectric constant tensor:
#      x y z
#    x 1.856500 -0.004480 -0.025670 
#    y -0.004480 1.896540 0.023320 
#    z -0.025670 0.023320 1.926780 
# 
# From -- ./inp_files/285614.got.cif
#   From: 2010.05.17/outbox.cif.g08.bks.cpg/sg2_143_cif.got.tgz:285614.got - 2010.06.03 11:33:40.
