data_PCOD9104863
_publ_section_title
;
Structure prediction by ZEFSAII (Michael W. Deem and Ramdas Pophale) SiO2 
 PCOD9104863
Probable space group: P -1
;
_chemical_formula_sum "Si O2"
_cell_formula_units_Z 16
_cell_length_a 15.716027
_cell_length_b 11.531885
_cell_length_c 11.148447
_cell_angle_alpha 56.910263
_cell_angle_beta 54.142245
_cell_angle_gamma 28.959203
_cell_volume 790.002845
_symmetry_space_group_name_H-M "P -1"
_symmetry_group_IT_number 2
_symmetry_cell_setting 'triclinic'
loop_
_space_group_symop_operation_xyz
x,y,z
-x,-y,-z
loop_
_atom_site_type_symbol
_atom_site_label
_atom_site_fract_x
_atom_site_fract_y
_atom_site_fract_z
Si Si1 0.500759 0.997808 0.697428
Si Si2 0.967489 0.248505 0.448044
Si Si3 0.012377 0.069233 0.263667
Si Si4 0.426582 0.294563 0.395892
Si Si5 0.789972 0.697631 0.037928
Si Si6 0.325915 0.018794 0.250898
Si Si7 0.560670 0.407823 0.865849
Si Si8 0.670799 0.527978 0.152794
O O1 0.526358 0.099003 0.527463
O O2 0.308208 0.202018 0.809207
O O3 0.530158 0.826820 0.696331
O O4 0.633122 0.888655 0.759448
O O5 0.145943 0.144883 0.378847
O O6 0.956652 0.236064 0.320813
O O7 0.783943 0.504820 0.510102
O O8 0.992040 0.074451 0.588563
O O9 0.850115 0.249667 0.199775
O O10 0.222788 0.865047 0.165012
O O11 0.457514 0.425680 0.285438
O O12 0.748382 0.600920 0.054252
O O13 0.704602 0.906261 0.904338
O O14 0.000000 0.500000 0.000000
O O15 0.500095 0.727998 0.274369
O O16 0.427785 0.437665 0.897997
O O17 0.500000 0.500000 0.000000
#
# Coordination Sequence:
#
# PCOD9104863 Si02
#       8
#     2   2   2   2   2   2   2   2
#     4  10  22  40  64  92 129 166 216 262 317 391
#     4  10  20  39  62  92 130 160 213 263 317 380
#     4  10  22  41  63  95 128 166 210 268 316 384
#     4  10  23  41  61  92 129 173 207 263 326 374
#     4  11  24  41  68  97 127 169 219 269 321 380
#     4  11  22  38  68  94 123 165 218 267 318 375
#     4  11  26  42  67  92 135 170 214 269 325 385
#     4  11  23  40  66  95 124 167 218 258 329 375
#
# _framework density 20.253093
#
# number of rings (size 3 to 8) (size 9 to 14) (size 15 to 20)
#    0.000    1.500    1.250    4.500    5.250    1.500 
#    0.000    0.000    0.000    0.000    0.000    0.000 
#    0.000    0.000    0.000    0.000    0.000    0.000 
#
# Total GULP energy -89248.428492 kJ/mol
# GULP energy per Si atom -5578.026781 kJ/mol
# Density = 2.020700 g / cm^3
# Si number density = 20.253093 Si / 1000 Ang^3
#
#
#
# Elastic Constant Matrix: (Units=GPa)
#
#
# Indices 1 2 3 4 5 6 
#
# 1 130.2228 56.3170 40.3675 21.2991 10.1015 -17.4179
# 2 56.3170 92.3463 42.5196 2.2168 11.9851 -10.5819
# 3 40.3675 42.5196 75.1466 18.5855 9.1614 -5.3564
# 4 21.2991 2.2168 18.5855 28.4417 0.9918 -0.5521
# 5 10.1015 11.9851 9.1614 0.9918 31.7552 4.8588
# 6 -17.4179 -10.5819 -5.3564 -0.5521 4.8588 34.5291
#
#
#
# Elastic Compliance Matrix: (Units=1/GPa)
#
#
# Indices 1 2 3 4 5 6 
#
# 1 0.012870 -0.006681 -0.000439 -0.008678 -0.001863 0.004500
# 2 -0.006681 0.019616 -0.009418 0.009772 -0.003139 0.001778
# 3 -0.000439 -0.009418 0.022572 -0.013591 -0.002474 0.000525
# 4 -0.008678 0.009772 -0.013591 0.049654 0.001896 -0.002964
# 5 -0.001863 -0.003139 -0.002474 0.001896 0.035022 -0.007183
# 6 0.004500 0.001778 0.000525 -0.002964 -0.007183 0.032821
#
#
# Mechanical properties :
#
#
# Convention : Reuss Voigt Hill
#
# Bulk Modulus (GPa) = 45.49030 64.01377 54.75203
# Shear Modulus (GPa) = 23.47866 29.51263 26.49564
#
# Velocity S-wave (km/s) = 3.40849 3.82146 3.62087
# Velocity P-wave (km/s) = 6.16442 7.15171 6.67634
#
# Compressibility (1/GPa) = 0.02198271
#
# Stress axis : x y z
#
# Youngs Moduli (GPa) = 77.69734 50.97891 44.30186
#
# Poissons Ratio (x) = 0.34058 0.01946
# Poissons Ratio (y) = 0.51908 0.41723
# Poissons Ratio (z) = 0.03414 0.48011
#
# Static dielectric constant tensor:
#      x y z
#    x 1.732510 0.014310 -0.010520 
#    y 0.014310 1.740710 -0.035190 
#    z -0.010520 -0.035190 1.733850 
# 
# From -- ./inp_files/306962.got.cif
#   From: 2010.05.17/outbox.cif.g08.bks.cpg/sg2_154_cif.got.tgz:306962.got - 2010.06.03 11:33:40.
