data_PCOD9104969
_publ_section_title
;
Structure prediction by ZEFSAII (Michael W. Deem and Ramdas Pophale) SiO2 
 PCOD9104969
Probable space group: P -1
;
_chemical_formula_sum "Si O2"
_cell_formula_units_Z 15
_cell_length_a 5.632474
_cell_length_b 9.699956
_cell_length_c 12.993919
_cell_angle_alpha 71.232711
_cell_angle_beta 113.053826
_cell_angle_gamma 111.996627
_cell_volume 592.786309
_symmetry_space_group_name_H-M "P -1"
_symmetry_group_IT_number 2
_symmetry_cell_setting 'triclinic'
loop_
_space_group_symop_operation_xyz
x,y,z
-x,-y,-z
loop_
_atom_site_type_symbol
_atom_site_label
_atom_site_fract_x
_atom_site_fract_y
_atom_site_fract_z
Si Si1 0.757336 0.140158 0.814470
Si Si2 0.812541 0.959802 0.191657
Si Si3 0.576873 0.153518 0.542753
Si Si4 0.413623 0.563821 0.075991
Si Si5 0.171042 0.264071 0.562503
Si Si6 0.074554 0.699406 0.856879
Si Si7 0.000000 0.500000 0.500000
Si Si8 0.935145 0.542038 0.244769
O O1 0.506671 0.060651 0.862018
O O2 0.655055 0.123878 0.680711
O O3 0.016968 0.077687 0.865271
O O4 0.850614 0.319965 0.810115
O O5 0.833455 0.853137 0.318445
O O6 0.948664 0.134412 0.201796
O O7 0.317347 0.214666 0.502756
O O8 0.847508 0.266996 0.506705
O O9 0.500000 0.000000 0.500000
O O10 0.671688 0.601678 0.182336
O O11 0.191750 0.422412 0.119500
O O12 0.500000 0.500000 0.000000
O O13 0.292672 0.694863 0.982649
O O14 0.278453 0.436846 0.570790
O O15 0.139249 0.620601 0.783561
O O16 0.948572 0.470330 0.622599
#
# Coordination Sequence:
#
# PCOD9104969 Si02
#       8
#     2   2   2   2   2   2   1   2
#     4  10  23  42  65  97 151 184 231 304 360 431
#     4  10  22  44  69 102 141 182 245 300 361 431
#     4  10  20  39  63  85 129 185 239 296 346 409
#     4   9  22  46  74 104 141 180 247 303 370 438
#     4  10  23  42  61  94 140 184 245 290 354 422
#     4  10  23  44  80 104 135 191 246 305 368 435
#     4  12  24  44  64 106 144 208 230 298 360 448
#     4  11  24  45  69 104 148 194 243 299 362 444
#
# _framework density 25.304226
#
# number of rings (size 3 to 8) (size 9 to 14) (size 15 to 20)
#    0.000    1.867    2.667    0.400    5.600    4.800 
#    4.800    1.333    0.000    0.000    0.000    0.000 
#    0.000    0.000    0.000    0.000    0.000    0.000 
#
# Total GULP energy -83602.048230 kJ/mol
# GULP energy per Si atom -5573.469882 kJ/mol
# Density = 2.524663 g / cm^3
# Si number density = 25.304226 Si / 1000 Ang^3
#
#
#
# Elastic Constant Matrix: (Units=GPa)
#
#
# Indices 1 2 3 4 5 6 
#
# 1 172.9319 39.1102 10.1353 -9.7931 -5.3129 -21.9177
# 2 39.1102 127.9197 33.7912 -9.9241 0.0676 -29.7577
# 3 10.1353 33.7912 88.8869 0.6019 1.9884 -2.1696
# 4 -9.7931 -9.9241 0.6019 31.0355 -2.8769 0.8116
# 5 -5.3129 0.0676 1.9884 -2.8769 19.9670 2.1044
# 6 -21.9177 -29.7577 -2.1696 0.8116 2.1044 40.2464
#
#
#
# Elastic Compliance Matrix: (Units=1/GPa)
#
#
# Indices 1 2 3 4 5 6 
#
# 1 0.006547 -0.001201 -0.000280 0.001785 0.001764 0.002534
# 2 -0.001201 0.011173 -0.003945 0.003050 -0.000299 0.007349
# 3 -0.000280 -0.003945 0.012767 -0.001661 -0.001332 -0.002278
# 4 0.001785 0.003050 -0.001661 0.034230 0.005333 0.002169
# 5 0.001764 -0.000299 -0.001332 0.005333 0.051680 -0.002142
# 6 0.002534 0.007349 -0.002278 0.002169 -0.002142 0.031606
#
#
# Mechanical properties :
#
#
# Convention : Reuss Voigt Hill
#
# Bulk Modulus (GPa) = 50.92658 61.75689 56.34173
# Shear Modulus (GPa) = 30.22978 38.69656 34.46317
#
# Velocity S-wave (km/s) = 3.46013 3.91481 3.69447
# Velocity P-wave (km/s) = 6.01105 6.70023 6.36497
#
# Compressibility (1/GPa) = 0.01963611
#
# Stress axis : x y z
#
# Youngs Moduli (GPa) = 152.74091 89.50137 78.32445
#
# Poissons Ratio (x) = 0.10747 0.02191
# Poissons Ratio (y) = 0.18340 0.30901
# Poissons Ratio (z) = 0.04273 0.35310
#
# Static dielectric constant tensor:
#      x y z
#    x 2.153330 0.022360 0.046270 
#    y 0.022360 1.053840 0.111160 
#    z 0.046270 0.111160 2.006010 
# 
# From -- ./inp_files/479762.got.cif
#   From: 2010.05.17/outbox.cif.g08.bks.cpg/sg2_240_cif.got.tgz:479762.got - 2010.06.03 11:33:40.
