data_PCOD9104598
_publ_section_title
;
Structure prediction by ZEFSAII (Michael W. Deem and Ramdas Pophale) SiO2 
 PCOD9104598
Probable space group: P -1
;
_chemical_formula_sum "Si O2"
_cell_formula_units_Z 16
_cell_length_a 7.817338
_cell_length_b 11.520190
_cell_length_c 9.798418
_cell_angle_alpha 64.237929
_cell_angle_beta 104.855176
_cell_angle_gamma 105.881555
_cell_volume 754.694651
_symmetry_space_group_name_H-M "P -1"
_symmetry_group_IT_number 2
_symmetry_cell_setting 'triclinic'
loop_
_space_group_symop_operation_xyz
x,y,z
-x,-y,-z
loop_
_atom_site_type_symbol
_atom_site_label
_atom_site_fract_x
_atom_site_fract_y
_atom_site_fract_z
Si Si1 0.249961 0.997637 0.925481
Si Si2 0.716257 0.175072 0.564336
Si Si3 0.313459 0.496785 0.237621
Si Si4 0.842242 0.925537 0.826088
Si Si5 0.962022 0.435554 0.377278
Si Si6 0.552338 0.212157 0.802099
Si Si7 0.308233 0.549315 0.916036
Si Si8 0.543711 0.743587 0.716383
O O1 0.054254 0.936999 0.861674
O O2 0.356357 0.119234 0.797656
O O3 0.355984 0.877845 0.028861
O O4 0.220769 0.055829 0.040781
O O5 0.861056 0.288077 0.465334
O O6 0.663696 0.218888 0.681478
O O7 0.534191 0.158978 0.447591
O O8 0.792386 0.044684 0.668866
O O9 0.434477 0.638301 0.225284
O O10 0.431557 0.383445 0.302254
O O11 0.153588 0.451296 0.333850
O O12 0.223835 0.518476 0.061813
O O13 0.728634 0.796214 0.802941
O O14 0.827301 0.495087 0.215039
O O15 0.000000 0.500000 0.500000
O O16 0.390026 0.700096 0.820978
O O17 0.500000 0.500000 0.000000
#
# Coordination Sequence:
#
# PCOD9104598 Si02
#       8
#     2   2   2   2   2   2   2   2
#     4   9  21  38  63  90 117 160 212 258 305 375
#     4  10  22  41  59  88 124 168 204 259 317 368
#     4  11  22  39  65  96 125 168 207 260 318 373
#     4  10  20  41  62  87 120 163 211 257 310 367
#     4  11  22  41  61  92 128 166 212 261 313 380
#     4  10  20  39  61  90 125 159 208 258 315 367
#     4   9  21  40  58  91 126 165 208 251 316 372
#     4  10  22  40  62  92 127 162 210 253 320 378
#
# _framework density 21.200627000000001
#
# number of rings (size 3 to 8) (size 9 to 14) (size 15 to 20)
#    0.000    2.000    1.250    1.500    0.000    4.500 
#   13.500    5.000    0.000    0.000    0.000    0.000 
#    0.000    0.000    0.000    0.000    0.000    0.000 
#
# Total GULP energy -89209.475851 kJ/mol
# GULP energy per Si atom -5575.592241 kJ/mol
# Density = 2.115237 g / cm^3
# Si number density = 21.200627 Si / 1000 Ang^3
#
#
#
# Elastic Constant Matrix: (Units=GPa)
#
#
# Indices 1 2 3 4 5 6 
#
# 1 57.2398 7.3009 5.2980 -3.7706 -16.8300 17.8238
# 2 7.3009 74.4000 0.3838 -6.0012 -7.9889 16.4258
# 3 5.2980 0.3838 79.2181 -5.0729 -17.3405 5.1503
# 4 -3.7706 -6.0012 -5.0729 23.8244 8.6139 1.8210
# 5 -16.8300 -7.9889 -17.3405 8.6139 37.6673 -1.4638
# 6 17.8238 16.4258 5.1503 1.8210 -1.4638 27.2606
#
#
#
# Elastic Compliance Matrix: (Units=1/GPa)
#
#
# Indices 1 2 3 4 5 6 
#
# 1 0.026637 0.003151 0.002311 0.002524 0.012308 -0.019259
# 2 0.003151 0.016707 0.001738 0.004504 0.004235 -0.012529
# 3 0.002311 0.001738 0.014536 0.001554 0.007544 -0.005004
# 4 0.002524 0.004504 0.001554 0.047504 -0.008387 -0.008281
# 5 0.012308 0.004235 0.007544 -0.008387 0.037970 -0.009425
# 6 -0.019259 -0.012529 -0.005004 -0.008281 -0.009425 0.057817
#
#
# Mechanical properties :
#
#
# Convention : Reuss Voigt Hill
#
# Bulk Modulus (GPa) = 13.83476 26.31368 20.07422
# Shear Modulus (GPa) = 23.71209 30.94214 27.32712
#
# Velocity S-wave (km/s) = 3.34797 3.82447 3.59413
# Velocity P-wave (km/s) = 4.63519 5.65162 5.16845
#
# Compressibility (1/GPa) = 0.07228168
#
# Stress axis : x y z
#
# Youngs Moduli (GPa) = 37.54211 59.85609 68.79264
#
# Poissons Ratio (x) = -0.18863 -0.15900
# Poissons Ratio (y) = -0.11831 -0.11958
# Poissons Ratio (z) = -0.08677 -0.10404
#
# Static dielectric constant tensor:
#      x y z
#    x 1.781060 0.015400 -0.004070 
#    y 0.015400 1.790800 0.006880 
#    z -0.004070 0.006880 1.816550 
# 
# From -- ./inp_files/176490.got.cif
#   From: 2010.05.17/outbox.cif.g08.bks.cpg/sg2_89_cif.got.tgz:176490.got - 2010.06.03 11:33:40.
