data_PCOD9104767
_publ_section_title
;
Structure prediction by ZEFSAII (Michael W. Deem and Ramdas Pophale) SiO2 
 PCOD9104767
Probable space group: P -1
;
_chemical_formula_sum "Si O2"
_cell_formula_units_Z 14
_cell_length_a 10.391074
_cell_length_b 9.055670
_cell_length_c 11.056145
_cell_angle_alpha 74.227643
_cell_angle_beta 54.864083
_cell_angle_gamma 111.518361
_cell_volume 611.599459
_symmetry_space_group_name_H-M "P -1"
_symmetry_group_IT_number 2
_symmetry_cell_setting 'triclinic'
loop_
_space_group_symop_operation_xyz
x,y,z
-x,-y,-z
loop_
_atom_site_type_symbol
_atom_site_label
_atom_site_fract_x
_atom_site_fract_y
_atom_site_fract_z
Si Si1 0.825161 0.273800 0.690024
Si Si2 0.802977 0.449248 0.873573
Si Si3 0.965716 0.833598 0.218140
Si Si4 0.283328 0.277182 0.041748
Si Si5 0.113877 0.482348 0.832617
Si Si6 0.382477 0.115742 0.249697
Si Si7 0.436971 0.347285 0.377801
O O1 0.706334 0.313114 0.834225
O O2 0.000000 0.500000 0.500000
O O3 0.927252 0.208763 0.731561
O O4 0.704653 0.105296 0.689389
O O5 0.798706 0.624702 0.865394
O O6 0.035729 0.536361 0.751041
O O7 0.633500 0.268393 0.098258
O O8 0.973447 0.743177 0.108973
O O9 0.725190 0.701529 0.421783
O O10 0.106933 0.077064 0.101660
O O11 0.345229 0.207673 0.136339
O O12 0.463338 0.458404 0.810956
O O13 0.361069 0.611393 0.686654
O O14 0.000000 0.500000 0.000000
O O15 0.303436 0.147921 0.405822
#
# Coordination Sequence:
#
# PCOD9104767 Si02
#       7
#     2   2   2   2   2   2   2
#     4  10  23  36  60  93 129 160 199 263 315 368
#     4  10  20  39  62  88 128 161 208 259 305 366
#     4  10  25  41  63  95 124 164 214 259 305 378
#     4  10  22  39  66  93 126 164 209 256 314 373
#     4  11  21  44  64  89 129 166 210 261 307 362
#     4  10  21  37  62  94 122 166 206 251 313 380
#     4  11  22  41  69  89 128 170 208 256 309 372
#
# _framework density 22.890799999999999
#
# number of rings (size 3 to 8) (size 9 to 14) (size 15 to 20)
#    0.000    1.714    2.857    2.571    6.000    1.714 
#    0.000    0.714    3.143    0.000    0.000    0.000 
#    0.000    0.000    0.000    0.000    0.000    0.000 
#
# Total GULP energy -77973.483198 kJ/mol
# GULP energy per Si atom -5569.534514 kJ/mol
# Density = 2.283870 g / cm^3
# Si number density = 22.890800 Si / 1000 Ang^3
#
#
#
# Elastic Constant Matrix: (Units=GPa)
#
#
# Indices 1 2 3 4 5 6 
#
# 1 75.7350 48.0129 18.2123 -2.4006 -12.9386 2.7168
# 2 48.0129 230.4995 58.7772 1.7551 -15.8913 -8.6887
# 3 18.2123 58.7772 56.7931 10.1330 -10.7819 -8.9576
# 4 -2.4006 1.7551 10.1330 36.2254 -7.7530 -2.4090
# 5 -12.9386 -15.8913 -10.7819 -7.7530 25.4192 -0.6928
# 6 2.7168 -8.6887 -8.9576 -2.4090 -0.6928 26.0288
#
#
#
# Elastic Compliance Matrix: (Units=1/GPa)
#
#
# Indices 1 2 3 4 5 6 
#
# 1 0.016776 -0.002520 -0.002524 0.003194 0.006786 -0.002985
# 2 -0.002520 0.006413 -0.005858 0.001338 0.000664 0.000529
# 3 -0.002524 -0.005858 0.027708 -0.006034 0.005168 0.007423
# 4 0.003194 0.001338 -0.006034 0.031567 0.009564 0.001213
# 5 0.006786 0.000664 0.005168 0.009564 0.048413 0.003466
# 6 -0.002985 0.000529 0.007423 0.001213 0.003466 0.041666
#
#
# Mechanical properties :
#
#
# Convention : Reuss Voigt Hill
#
# Bulk Modulus (GPa) = 34.37233 68.11472 51.24353
# Shear Modulus (GPa) = 24.50450 33.40301 28.95375
#
# Velocity S-wave (km/s) = 3.27539 3.82413 3.56035
# Velocity P-wave (km/s) = 5.41781 7.02280 6.27185
#
# Compressibility (1/GPa) = 0.02909317
#
# Stress axis : x y z
#
# Youngs Moduli (GPa) = 59.60910 155.94443 36.09064
#
# Poissons Ratio (x) = 0.39294 0.09110
# Poissons Ratio (y) = 0.15020 0.21141
# Poissons Ratio (z) = 0.15047 0.91348
#
# Static dielectric constant tensor:
#      x y z
#    x 1.940760 0.074340 0.034120 
#    y 0.074340 1.852290 -0.033840 
#    z 0.034120 -0.033840 1.785850 
# 
# From -- ./inp_files/179321.got.cif
#   From: 2010.05.17/outbox.cif.g08.bks.cpg/sg2_90_cif.got.tgz:179321.got - 2010.06.03 11:33:40.
