data_PCOD9104548
_publ_section_title
;
Structure prediction by ZEFSAII (Michael W. Deem and Ramdas Pophale) SiO2 
 PCOD9104548
Probable space group: P -1
;
_chemical_formula_sum "Si O2"
_cell_formula_units_Z 16
_cell_length_a 9.624937
_cell_length_b 21.628889
_cell_length_c 18.099547
_cell_angle_alpha 25.584280
_cell_angle_beta 28.296238
_cell_angle_gamma 44.277731
_cell_volume 712.790416
_symmetry_space_group_name_H-M "P -1"
_symmetry_group_IT_number 2
_symmetry_cell_setting 'triclinic'
loop_
_space_group_symop_operation_xyz
x,y,z
-x,-y,-z
loop_
_atom_site_type_symbol
_atom_site_label
_atom_site_fract_x
_atom_site_fract_y
_atom_site_fract_z
Si Si1 0.885368 0.369738 0.046010
Si Si2 0.796764 0.272653 0.514489
Si Si3 0.341465 0.730056 0.590122
Si Si4 0.677792 0.112209 0.229186
Si Si5 0.356477 0.046749 0.307033
Si Si6 0.157106 0.161253 0.577525
Si Si7 0.980400 0.167771 0.810381
Si Si8 0.730552 0.678773 0.199888
O O1 0.892728 0.384464 0.116026
O O2 0.525742 0.274605 0.290097
O O3 0.001746 0.543000 0.773408
O O4 0.116561 0.291238 0.986839
O O5 0.737153 0.245453 0.483828
O O6 0.482793 0.239765 0.747903
O O7 0.998992 0.184243 0.551724
O O8 0.394555 0.885789 0.444560
O O9 0.680669 0.712343 0.448347
O O10 0.500000 0.000000 0.500000
O O11 0.417238 0.105960 0.298504
O O12 0.864271 0.012759 0.214030
O O13 0.944617 0.272479 0.956759
O O14 0.000000 0.000000 0.500000
O O15 0.658092 0.170266 0.991092
O O16 0.978620 0.193638 0.696054
O O17 0.000000 0.000000 0.000000
O O18 0.500000 0.500000 0.500000
#
# Coordination Sequence:
#
# PCOD9104548 Si02
#       8
#     2   2   2   2   2   2   2   2
#     4  10  20  44  62  84 131 176 206 257 329 383
#     4  11  24  36  63  99 124 164 220 267 311 384
#     4  10  20  39  61  88 126 167 212 258 319 385
#     4  12  22  40  66  90 131 172 207 266 333 373
#     4  11  23  37  60  93 128 163 214 269 317 387
#     4  11  22  38  63  92 125 162 215 269 314 379
#     4   9  18  39  56  77 126 161 194 255 322 371
#     4  10  23  41  64  94 132 171 213 261 325 386
#
# _framework density 22.446992000000002
#
# number of rings (size 3 to 8) (size 9 to 14) (size 15 to 20)
#    0.000    1.500    5.000    1.500    3.500    2.500 
#    0.000    0.000    0.000    0.000    0.000   18.375 
#    0.000    0.000    0.000    0.000    0.000    0.000 
#
# Total GULP energy -89099.676945 kJ/mol
# GULP energy per Si atom -5568.729809 kJ/mol
# Density = 2.239590 g / cm^3
# Si number density = 22.446992 Si / 1000 Ang^3
#
#
#
# Elastic Constant Matrix: (Units=GPa)
#
#
# Indices 1 2 3 4 5 6 
#
# 1 171.5778 27.1192 55.5194 31.5630 -11.3658 16.0465
# 2 27.1192 34.1352 21.0817 22.3630 -1.7701 10.4070
# 3 55.5194 21.0817 108.3716 34.7827 -6.8158 11.2201
# 4 31.5630 22.3630 34.7827 45.7933 13.5918 1.0642
# 5 -11.3658 -1.7701 -6.8158 13.5918 36.7725 2.0102
# 6 16.0465 10.4070 11.2201 1.0642 2.0102 27.7992
#
#
#
# Elastic Compliance Matrix: (Units=1/GPa)
#
#
# Indices 1 2 3 4 5 6 
#
# 1 0.008062 -0.000571 -0.001689 -0.005174 0.004275 -0.003869
# 2 -0.000571 0.059184 0.004029 -0.036415 0.018157 -0.023372
# 3 -0.001689 0.004029 0.015239 -0.014683 0.008291 -0.006721
# 4 -0.005174 -0.036415 -0.014683 0.062883 -0.030538 0.022346
# 5 0.004275 0.018157 0.008291 -0.030538 0.043009 -0.014552
# 6 -0.003869 -0.023372 -0.006721 0.022346 -0.014552 0.049865
#
#
# Mechanical properties :
#
#
# Convention : Reuss Voigt Hill
#
# Bulk Modulus (GPa) = 11.62484 57.94721 34.78603
# Shear Modulus (GPa) = 18.98401 36.09728 27.54065
#
# Velocity S-wave (km/s) = 2.91129 4.01448 3.50654
# Velocity P-wave (km/s) = 4.06089 6.88180 5.65023
#
# Compressibility (1/GPa) = 0.08602272
#
# Stress axis : x y z
#
# Youngs Moduli (GPa) = 124.04091 16.89635 65.62138
#
# Poissons Ratio (x) = 0.00964 0.11083
# Poissons Ratio (y) = 0.07080 -0.26436
# Poissons Ratio (z) = 0.20950 -0.06807
#
# Static dielectric constant tensor:
#      x y z
#    x 1.916290 0.063100 0.017940 
#    y 0.063100 1.970660 0.034120 
#    z 0.017940 0.034120 1.963410 
# 
# From -- ./inp_files/563305.got.cif
#   From: 2010.05.17/outbox.cif.g08.bks.cpg/sg2_282_cif.got.tgz:563305.got - 2010.06.03 11:33:40.
