data_PCOD9104404
_publ_section_title
;
Structure prediction by ZEFSAII (Michael W. Deem and Ramdas Pophale) SiO2 
 PCOD9104404
Probable space group: P -1
;
_chemical_formula_sum "Si O2"
_cell_formula_units_Z 16
_cell_length_a 8.981879
_cell_length_b 13.668228
_cell_length_c 8.245266
_cell_angle_alpha 57.987594
_cell_angle_beta 111.665280
_cell_angle_gamma 104.149571
_cell_volume 796.151172
_symmetry_space_group_name_H-M "P -1"
_symmetry_group_IT_number 2
_symmetry_cell_setting 'triclinic'
loop_
_space_group_symop_operation_xyz
x,y,z
-x,-y,-z
loop_
_atom_site_type_symbol
_atom_site_label
_atom_site_fract_x
_atom_site_fract_y
_atom_site_fract_z
Si Si1 0.648522 0.751889 0.113204
Si Si2 0.100766 0.909391 0.401552
Si Si3 0.798686 0.311011 0.550102
Si Si4 0.865200 0.094996 0.197527
Si Si5 0.935643 0.708895 0.078204
Si Si6 0.591258 0.963413 0.725792
Si Si7 0.433514 0.850070 0.194890
Si Si8 0.341524 0.468598 0.860796
O O1 0.835272 0.769056 0.127597
O O2 0.584061 0.800773 0.209409
O O3 0.608152 0.616326 0.190060
O O4 0.571049 0.828379 0.874443
O O5 0.118304 0.781811 0.449366
O O6 0.152493 0.908510 0.612652
O O7 0.225391 0.991015 0.273942
O O8 0.934687 0.973586 0.277378
O O9 0.644867 0.242327 0.628636
O O10 0.740608 0.419838 0.335359
O O11 0.919523 0.344161 0.718527
O O12 0.707680 0.125794 0.009979
O O13 0.995723 0.197959 0.105091
O O14 0.801472 0.614017 0.041213
O O15 0.500000 0.000000 0.500000
O O16 0.530303 0.033887 0.791792
O O17 0.500000 0.500000 0.000000
#
# Coordination Sequence:
#
# PCOD9104404 Si02
#       8
#     2   2   2   2   2   2   2   2
#     4  10  22  39  61  89 124 162 197 253 301 362
#     4  10  21  35  63  89 122 159 201 245 303 365
#     4  10  22  40  62  87 118 164 206 253 298 363
#     4  10  20  39  60  92 122 160 198 249 304 368
#     4   9  21  40  63  84 123 155 207 249 304 355
#     4  11  22  37  60  92 128 157 196 250 310 364
#     4  10  23  36  64  90 124 158 200 245 311 365
#     4  10  23  39  67  85 122 161 208 250 308 350
#
# _framework density 20.096684
#
# number of rings (size 3 to 8) (size 9 to 14) (size 15 to 20)
#    0.750    1.250    1.250    1.500    7.000    2.000 
#    2.250    0.625    0.000    0.000    0.000    0.000 
#    0.000    0.000    0.000    0.000    0.000    0.000 
#
# Total GULP energy -89197.123983 kJ/mol
# GULP energy per Si atom -5574.820249 kJ/mol
# Density = 2.005094 g / cm^3
# Si number density = 20.096684 Si / 1000 Ang^3
#
#
#
# Elastic Constant Matrix: (Units=GPa)
#
#
# Indices 1 2 3 4 5 6 
#
# 1 72.0322 32.7093 19.8758 -11.6492 -16.5936 -8.6045
# 2 32.7093 86.8059 39.3514 -18.2033 -1.4416 -2.8921
# 3 19.8758 39.3514 80.6275 -23.2647 0.7479 -4.6130
# 4 -11.6492 -18.2033 -23.2647 28.4311 -3.4431 -0.5430
# 5 -16.5936 -1.4416 0.7479 -3.4431 29.0880 1.6109
# 6 -8.6045 -2.8921 -4.6130 -0.5430 1.6109 31.0696
#
#
#
# Elastic Compliance Matrix: (Units=1/GPa)
#
#
# Indices 1 2 3 4 5 6 
#
# 1 0.021127 -0.006211 -0.000286 0.006014 0.012203 0.004703
# 2 -0.006211 0.017182 -0.005918 0.003343 -0.002098 -0.000832
# 3 -0.000286 -0.005918 0.018838 0.011590 0.000301 0.002354
# 4 0.006014 0.003343 0.011590 0.050434 0.009041 0.004110
# 5 0.012203 -0.002098 0.000301 0.009041 0.042232 0.001197
# 6 0.004703 -0.000832 0.002354 0.004110 0.001197 0.033770
#
#
# Mechanical properties :
#
#
# Convention : Reuss Voigt Hill
#
# Bulk Modulus (GPa) = 30.94349 47.03763 38.99056
# Shear Modulus (GPa) = 22.81174 27.55300 25.18237
#
# Velocity S-wave (km/s) = 3.37278 3.70675 3.54370
# Velocity P-wave (km/s) = 5.53157 6.46347 6.01559
#
# Compressibility (1/GPa) = 0.03231698
#
# Stress axis : x y z
#
# Youngs Moduli (GPa) = 47.33178 58.20136 53.08529
#
# Poissons Ratio (x) = 0.36149 0.01517
# Poissons Ratio (y) = 0.29398 0.31417
# Poissons Ratio (z) = 0.01352 0.34445
#
# Static dielectric constant tensor:
#      x y z
#    x 1.758900 0.014330 0.009810 
#    y 0.014330 1.729820 -0.002320 
#    z 0.009810 -0.002320 1.696600 
# 
# From -- ./inp_files/205747.got.cif
#   From: 2010.05.17/outbox.cif.g08.bks.cpg/sg2_103_cif.got.tgz:205747.got - 2010.06.03 11:33:40.
