data_PCOD9104147
_publ_section_title
;
Structure prediction by ZEFSAII (Michael W. Deem and Ramdas Pophale) SiO2 
 PCOD9104147
Probable space group: P -1
;
_chemical_formula_sum "Si O2"
_cell_formula_units_Z 16
_cell_length_a 9.223618
_cell_length_b 14.940350
_cell_length_c 14.031254
_cell_angle_alpha 129.627387
_cell_angle_beta 125.739313
_cell_angle_gamma 95.007149
_cell_volume 818.980306
_symmetry_space_group_name_H-M "P -1"
_symmetry_group_IT_number 2
_symmetry_cell_setting 'triclinic'
loop_
_space_group_symop_operation_xyz
x,y,z
-x,-y,-z
loop_
_atom_site_type_symbol
_atom_site_label
_atom_site_fract_x
_atom_site_fract_y
_atom_site_fract_z
Si Si1 0.475365 0.849468 0.402917
Si Si2 0.066255 0.330477 0.941887
Si Si3 0.968057 0.040228 0.617368
Si Si4 0.385454 0.300644 0.550120
Si Si5 0.468962 0.644997 0.569560
Si Si6 0.179503 0.950834 0.774818
Si Si7 0.938923 0.737573 0.886102
Si Si8 0.419320 0.044915 0.142350
O O1 0.604897 0.835693 0.527839
O O2 0.164244 0.688586 0.181329
O O3 0.500000 0.000000 0.500000
O O4 0.653136 0.882355 0.409542
O O5 0.043417 0.210208 0.780356
O O6 0.354322 0.523092 0.182456
O O7 0.004849 0.260306 0.979894
O O8 0.000000 0.000000 0.500000
O O9 0.138594 0.049019 0.765729
O O10 0.408045 0.334467 0.470430
O O11 0.124538 0.230144 0.446874
O O12 0.698874 0.715459 0.777400
O O13 0.197790 0.443512 0.334959
O O14 0.442162 0.769686 0.646626
O O15 0.364802 0.952419 0.788163
O O16 0.297734 0.013304 0.969244
O O17 0.187574 0.897531 0.027149
#
# Coordination Sequence:
#
# PCOD9104147 Si02
#       8
#     2   2   2   2   2   2   2   2
#     4   9  20  35  59  84 111 149 201 238 288 347
#     4  10  21  37  61  89 115 154 191 250 298 336
#     4  10  22  39  58  83 117 156 197 239 291 360
#     4  10  20  39  58  86 123 147 193 252 291 350
#     4  10  21  36  62  92 115 155 199 240 296 347
#     4  10  23  40  54  88 118 158 199 230 300 353
#     4  10  21  36  62  93 120 146 203 243 291 356
#     4  11  22  38  62  84 124 161 192 243 290 353
#
# _framework density 19.536489
#
# number of rings (size 3 to 8) (size 9 to 14) (size 15 to 20)
#    0.000    2.000    1.250    1.500    7.000    1.000 
#    2.250    3.750    0.000    0.000    0.000    0.000 
#    0.000    0.000    0.000    0.000    0.000    0.000 
#
# Total GULP energy -89109.074524 kJ/mol
# GULP energy per Si atom -5569.317158 kJ/mol
# Density = 1.949202 g / cm^3
# Si number density = 19.536489 Si / 1000 Ang^3
#
#
#
# Elastic Constant Matrix: (Units=GPa)
#
#
# Indices 1 2 3 4 5 6 
#
# 1 106.9373 32.5706 45.1879 3.7695 3.7387 -9.9829
# 2 32.5706 65.9465 15.6381 8.9006 0.9927 -8.2578
# 3 45.1879 15.6381 78.3909 11.5309 11.6288 -14.8508
# 4 3.7695 8.9006 11.5309 34.6077 -6.0941 -1.5382
# 5 3.7387 0.9927 11.6288 -6.0941 22.3921 -4.5987
# 6 -9.9829 -8.2578 -14.8508 -1.5382 -4.5987 24.2067
#
#
#
# Elastic Compliance Matrix: (Units=1/GPa)
#
#
# Indices 1 2 3 4 5 6 
#
# 1 0.014201 -0.005603 -0.007971 0.003033 0.002797 -0.000221
# 2 -0.005603 0.018843 0.001081 -0.004545 -0.000807 0.004339
# 3 -0.007971 0.001081 0.021306 -0.007996 -0.010382 0.007672
# 4 0.003033 -0.004545 -0.007996 0.034699 0.013189 -0.000495
# 5 0.002797 -0.000807 -0.010382 0.013189 0.054374 0.005677
# 6 -0.000221 0.004339 0.007672 -0.000495 0.005677 0.048453
#
#
# Mechanical properties :
#
#
# Convention : Reuss Voigt Hill
#
# Bulk Modulus (GPa) = 34.05540 48.67423 41.36481
# Shear Modulus (GPa) = 22.06047 26.76652 24.41349
#
# Velocity S-wave (km/s) = 3.36399 3.70547 3.53885
# Velocity P-wave (km/s) = 5.70597 6.57845 6.15768
#
# Compressibility (1/GPa) = 0.02936392
#
# Stress axis : x y z
#
# Youngs Moduli (GPa) = 70.41928 53.06871 46.93618
#
# Poissons Ratio (x) = 0.29732 0.37413
# Poissons Ratio (y) = 0.39453 -0.05073
# Poissons Ratio (z) = 0.56132 -0.05735
#
# Static dielectric constant tensor:
#      x y z
#    x 1.647360 0.005450 0.000450 
#    y 0.005450 1.753350 0.014570 
#    z 0.000450 0.014570 1.737770 
# 
# From -- ./inp_files/314665.got.cif
#   From: 2010.05.17/outbox.cif.g08.bks.cpg/sg2_158_cif.got.tgz:314665.got - 2010.06.03 11:33:40.
