data_PCOD9104576
_publ_section_title
;
Structure prediction by ZEFSAII (Michael W. Deem and Ramdas Pophale) SiO2 
 PCOD9104576
Probable space group: P -1
;
_chemical_formula_sum "Si O2"
_cell_formula_units_Z 14
_cell_length_a 14.932815
_cell_length_b 12.529043
_cell_length_c 21.210558
_cell_angle_alpha 151.176276
_cell_angle_beta 19.642531
_cell_angle_gamma 150.591859
_cell_volume 616.655395
_symmetry_space_group_name_H-M "P -1"
_symmetry_group_IT_number 2
_symmetry_cell_setting 'triclinic'
loop_
_space_group_symop_operation_xyz
x,y,z
-x,-y,-z
loop_
_atom_site_type_symbol
_atom_site_label
_atom_site_fract_x
_atom_site_fract_y
_atom_site_fract_z
Si Si1 0.377676 0.173854 0.393383
Si Si2 0.410958 0.761313 0.972329
Si Si3 0.703735 0.703429 0.012193
Si Si4 0.545237 0.659175 0.329583
Si Si5 0.169815 0.716460 0.240898
Si Si6 0.226222 0.018971 0.769774
Si Si7 0.235967 0.440613 0.734869
O O1 0.389683 0.287498 0.512230
O O2 0.633423 0.303278 0.246773
O O3 0.113712 0.234669 0.567386
O O4 0.299112 0.898680 0.304355
O O5 0.584998 0.589321 0.745603
O O6 0.392736 0.781070 0.069706
O O7 0.088668 0.644225 0.107811
O O8 0.500000 0.000000 0.000000
O O9 0.617365 0.830157 0.195881
O O10 0.500000 0.500000 0.000000
O O11 0.886071 0.549070 0.843187
O O12 0.907144 0.905322 0.941372
O O13 0.732466 0.815901 0.232641
O O14 0.702451 0.598626 0.254432
O O15 0.346355 0.806950 0.561981
#
# Coordination Sequence:
#
# PCOD9104576 Si02
#       7
#     2   2   2   2   2   2   2
#     4   9  20  37  62  95 122 157 205 260 317 372
#     4  11  23  38  60  92 128 164 202 255 323 378
#     4  11  24  43  69  93 119 169 221 262 310 370
#     4  11  22  44  63  89 131 167 203 261 320 375
#     4  10  20  39  61  89 127 155 205 267 311 368
#     4  10  25  45  65  93 128 168 214 265 313 367
#     4  10  21  36  63  93 120 165 208 249 319 380
#
# _framework density 22.703116999999999
#
# number of rings (size 3 to 8) (size 9 to 14) (size 15 to 20)
#    0.000    1.714    1.429    2.143    2.000    4.571 
#    0.000    1.429    0.000    0.000    0.000    0.000 
#    0.000    0.000    0.000    0.000    0.000    0.000 
#
# Total GULP energy -78206.829479 kJ/mol
# GULP energy per Si atom -5586.202106 kJ/mol
# Density = 2.265144 g / cm^3
# Si number density = 22.703117 Si / 1000 Ang^3
#
#
#
# Elastic Constant Matrix: (Units=GPa)
#
#
# Indices 1 2 3 4 5 6 
#
# 1 63.2871 17.9496 18.5216 -19.6492 30.6015 0.5157
# 2 17.9496 118.6013 38.1659 13.5465 23.4361 -6.1737
# 3 18.5216 38.1659 73.2456 12.5272 14.7871 2.7094
# 4 -19.6492 13.5465 12.5272 33.6809 -6.4124 3.9984
# 5 30.6015 23.4361 14.7871 -6.4124 27.6555 1.2574
# 6 0.5157 -6.1737 2.7094 3.9984 1.2574 40.4808
#
#
#
# Elastic Compliance Matrix: (Units=1/GPa)
#
#
# Indices 1 2 3 4 5 6 
#
# 1 0.043109 0.001472 -0.006708 0.019335 -0.040856 -0.000516
# 2 0.001472 0.012460 -0.003731 -0.005325 -0.011565 0.003016
# 3 -0.006708 -0.003731 0.019444 -0.009955 -0.002087 -0.000737
# 4 0.019335 -0.005325 -0.009955 0.047348 -0.000352 -0.005058
# 5 -0.040856 -0.011565 -0.002087 -0.000352 0.092381 -0.003938
# 6 -0.000516 0.003016 -0.000737 -0.005058 -0.003938 0.025841
#
#
# Mechanical properties :
#
#
# Convention : Reuss Voigt Hill
#
# Bulk Modulus (GPa) = 17.51927 44.93426 31.22676
# Shear Modulus (GPa) = 18.01528 32.39656 25.20592
#
# Velocity S-wave (km/s) = 2.82000 3.78162 3.33564
# Velocity P-wave (km/s) = 4.28213 6.23719 5.34973
#
# Compressibility (1/GPa) = 0.05708001
#
# Stress axis : x y z
#
# Youngs Moduli (GPa) = 23.19699 80.25806 51.42953
#
# Poissons Ratio (x) = -0.11815 0.34498
# Poissons Ratio (y) = -0.03415 0.19188
# Poissons Ratio (z) = 0.15560 0.29943
#
# Static dielectric constant tensor:
#      x y z
#    x 1.886740 0.012640 0.005730 
#    y 0.012640 1.818220 0.036760 
#    z 0.005730 0.036760 1.898340 
# 
# From -- ./inp_files/285845.got.cif
#   From: 2010.05.17/outbox.cif.g08.bks.cpg/sg2_143_cif.got.tgz:285845.got - 2010.06.03 11:33:40.
