data_PCOD9104532
_publ_section_title
;
Structure prediction by ZEFSAII (Michael W. Deem and Ramdas Pophale) SiO2 
 PCOD9104532
Probable space group: P -1
;
_chemical_formula_sum "Si O2"
_cell_formula_units_Z 16
_cell_length_a 14.572847
_cell_length_b 11.432450
_cell_length_c 14.174732
_cell_angle_alpha 45.219728
_cell_angle_beta 139.711556
_cell_angle_gamma 152.080752
_cell_volume 711.406872
_symmetry_space_group_name_H-M "P -1"
_symmetry_group_IT_number 2
_symmetry_cell_setting 'triclinic'
loop_
_space_group_symop_operation_xyz
x,y,z
-x,-y,-z
loop_
_atom_site_type_symbol
_atom_site_label
_atom_site_fract_x
_atom_site_fract_y
_atom_site_fract_z
Si Si1 0.589843 0.584233 0.667496
Si Si2 0.906597 0.365270 0.296006
Si Si3 0.468699 0.859804 0.148101
Si Si4 0.825829 0.216380 0.892241
Si Si5 0.124179 0.281882 0.433000
Si Si6 0.973626 0.104960 0.225495
Si Si7 0.384173 0.653938 0.822239
Si Si8 0.541609 0.543596 0.165582
O O1 0.562397 0.360807 0.769775
O O2 0.380003 0.481046 0.514173
O O3 0.595737 0.639772 0.750071
O O4 0.814325 0.821729 0.658791
O O5 0.821882 0.409071 0.287699
O O6 0.017939 0.572308 0.183852
O O7 0.072775 0.358632 0.435281
O O8 0.686878 0.084942 0.248852
O O9 0.273621 0.756955 0.117713
O O10 0.500000 0.000000 0.000000
O O11 0.609292 0.952229 0.824337
O O12 0.951988 0.186989 0.065576
O O13 0.020101 0.255370 0.268524
O O14 0.000000 0.000000 0.500000
O O15 0.749044 0.813182 0.222135
O O16 0.376873 0.525433 0.801609
O O17 0.415359 0.567778 0.989658
#
# Coordination Sequence:
#
# PCOD9104532 Si02
#       8
#     2   2   2   2   2   2   2   2
#     4  12  23  37  57  84 118 156 194 234 284 345
#     4  11  21  38  58  83 119 155 191 237 290 336
#     4  11  20  32  55  85 116 148 184 234 295 346
#     4  10  21  36  60  91 117 147 190 240 291 349
#     4  12  23  40  58  83 119 160 195 232 281 348
#     4  11  22  37  60  88 118 153 190 235 292 344
#     4   9  21  38  62  89 114 149 190 244 293 339
#     4  10  20  39  61  88 119 146 191 241 293 344
#
# _framework density 22.490646000000002
#
# number of rings (size 3 to 8) (size 9 to 14) (size 15 to 20)
#    0.000    1.250    2.500    5.625    0.000    2.500 
#    0.000    4.375    0.000    1.500    0.000    0.000 
#    0.000    0.000    0.000    0.000    0.000    0.000 
#
# Total GULP energy -89431.785833 kJ/mol
# GULP energy per Si atom -5589.486615 kJ/mol
# Density = 2.243946 g / cm^3
# Si number density = 22.490646 Si / 1000 Ang^3
#
#
#
# Elastic Constant Matrix: (Units=GPa)
#
#
# Indices 1 2 3 4 5 6 
#
# 1 119.9007 23.5809 9.7927 13.0512 20.3399 3.3689
# 2 23.5809 46.5158 5.9584 -0.9284 3.0464 15.5233
# 3 9.7927 5.9584 34.7781 5.9818 11.9748 -2.2024
# 4 13.0512 -0.9284 5.9818 29.3883 6.8497 1.9588
# 5 20.3399 3.0464 11.9748 6.8497 40.3597 0.6545
# 6 3.3689 15.5233 -2.2024 1.9588 0.6545 31.7582
#
#
#
# Elastic Compliance Matrix: (Units=1/GPa)
#
#
# Indices 1 2 3 4 5 6 
#
# 1 0.010600 -0.005934 0.000368 -0.004101 -0.004342 0.002144
# 2 -0.005934 0.030252 -0.006011 0.005386 0.001819 -0.014944
# 3 0.000368 -0.006011 0.034105 -0.005584 -0.008997 0.005794
# 4 -0.004101 0.005386 -0.005584 0.038200 -0.003087 -0.004878
# 5 -0.004342 0.001819 -0.008997 -0.003087 0.030046 -0.001481
# 6 0.002144 -0.014944 0.005794 -0.004878 -0.001481 0.039298
#
#
# Mechanical properties :
#
#
# Convention : Reuss Voigt Hill
#
# Bulk Modulus (GPa) = 19.30375 31.09538 25.19956
# Shear Modulus (GPa) = 22.42945 31.09208 26.76076
#
# Velocity S-wave (km/s) = 3.16140 3.72216 3.45318
# Velocity P-wave (km/s) = 4.68269 5.68582 5.20846
#
# Compressibility (1/GPa) = 0.05180341
#
# Stress axis : x y z
#
# Youngs Moduli (GPa) = 94.34115 33.05612 29.32099
#
# Poissons Ratio (x) = 0.19614 -0.01079
# Poissons Ratio (y) = 0.55978 0.17625
# Poissons Ratio (z) = -0.03472 0.19870
#
# Static dielectric constant tensor:
#      x y z
#    x 1.876150 0.016080 0.018720 
#    y 0.016080 1.819320 -0.048550 
#    z 0.018720 -0.048550 1.909940 
# 
# From -- ./inp_files/518860.got.cif
#   From: 2010.05.17/outbox.cif.g08.bks.cpg/sg2_260_cif.got.tgz:518860.got - 2010.06.03 11:33:40.
