data_PCOD9104240
_publ_section_title
;
Structure prediction by ZEFSAII (Michael W. Deem and Ramdas Pophale) SiO2 
 PCOD9104240
Probable space group: P -1
;
_chemical_formula_sum "Si O2"
_cell_formula_units_Z 16
_cell_length_a 7.362394
_cell_length_b 18.631134
_cell_length_c 9.637486
_cell_angle_alpha 121.339295
_cell_angle_beta 131.432930
_cell_angle_gamma 93.307978
_cell_volume 659.049606
_symmetry_space_group_name_H-M "P -1"
_symmetry_group_IT_number 2
_symmetry_cell_setting 'triclinic'
loop_
_space_group_symop_operation_xyz
x,y,z
-x,-y,-z
loop_
_atom_site_type_symbol
_atom_site_label
_atom_site_fract_x
_atom_site_fract_y
_atom_site_fract_z
Si Si1 0.258385 0.658268 0.261361
Si Si2 0.392787 0.435681 0.680501
Si Si3 0.042180 0.673200 0.901925
Si Si4 0.354569 0.607512 0.814870
Si Si5 0.528904 0.918859 0.353288
Si Si6 0.151313 0.105587 0.277209
Si Si7 0.418881 0.910575 0.978773
Si Si8 0.250046 0.693453 0.605567
O O1 0.381388 0.593261 0.214396
O O2 0.999418 0.632137 0.994897
O O3 0.523709 0.787475 0.505474
O O4 0.197742 0.644559 0.379642
O O5 0.519631 0.557807 0.891441
O O6 0.081509 0.362295 0.543483
O O7 0.257747 0.399686 0.419137
O O8 0.202303 0.798225 0.088840
O O9 0.309915 0.668830 0.969442
O O10 0.443653 0.672678 0.782737
O O11 0.000000 0.500000 0.500000
O O12 0.785693 0.920248 0.565734
O O13 0.500000 0.000000 0.500000
O O14 0.593087 0.945069 0.249271
O O15 0.927493 0.136561 0.200096
O O16 0.000000 0.000000 0.000000
O O17 0.420314 0.820050 0.818589
O O18 0.500000 0.000000 0.000000
#
# Coordination Sequence:
#
# PCOD9104240 Si02
#       8
#     2   2   2   2   2   2   2   2
#     4  11  22  36  63  89 117 158 201 247 296 355
#     4  10  20  42  64  84 122 163 193 247 308 346
#     4   9  19  38  58  88 120 155 202 240 296 361
#     4   8  17  37  64  83 118 163 192 244 308 348
#     4  11  21  36  62  86 119 160 199 247 297 356
#     4  11  22  38  59  87 117 160 203 236 303 357
#     4  12  23  40  60  87 123 157 200 252 296 353
#     4  10  20  39  59  88 123 154 200 249 291 354
#
# _framework density 24.277384999999999
#
# number of rings (size 3 to 8) (size 9 to 14) (size 15 to 20)
#    0.000    2.000    5.000    0.750    1.750    1.500 
#    0.000    9.375    0.000    0.000    0.000    0.000 
#    0.000    0.000    0.000    0.000    0.000    0.000 
#
# Total GULP energy -89513.539135 kJ/mol
# GULP energy per Si atom -5594.596196 kJ/mol
# Density = 2.422213 g / cm^3
# Si number density = 24.277385 Si / 1000 Ang^3
#
#
#
# Elastic Constant Matrix: (Units=GPa)
#
#
# Indices 1 2 3 4 5 6 
#
# 1 53.9189 29.3342 14.2014 -2.5005 -17.0624 2.0167
# 2 29.3342 167.1431 45.4314 -4.3335 -20.5020 -18.2292
# 3 14.2014 45.4314 85.7668 -13.3657 -11.9892 -3.9917
# 4 -2.5005 -4.3335 -13.3657 54.7017 -2.5500 -15.0160
# 5 -17.0624 -20.5020 -11.9892 -2.5500 30.2887 -3.6326
# 6 2.0167 -18.2292 -3.9917 -15.0160 -3.6326 34.7079
#
#
#
# Elastic Compliance Matrix: (Units=1/GPa)
#
#
# Indices 1 2 3 4 5 6 
#
# 1 0.023878 -0.002710 -0.000901 0.000792 0.011159 -0.001404
# 2 -0.002710 0.008320 -0.002989 0.001395 0.003659 0.005170
# 3 -0.000901 -0.002989 0.014697 0.004149 0.003922 0.002378
# 4 0.000792 0.001395 0.004149 0.022969 0.006377 0.011768
# 5 0.011159 0.003659 0.003922 0.006377 0.044970 0.009190
# 6 -0.001404 0.005170 0.002378 0.011768 0.009190 0.037936
#
#
# Mechanical properties :
#
#
# Convention : Reuss Voigt Hill
#
# Bulk Modulus (GPa) = 29.67630 53.86253 41.76942
# Shear Modulus (GPa) = 28.21662 38.46378 33.34020
#
# Velocity S-wave (km/s) = 3.41289 3.98470 3.70983
# Velocity P-wave (km/s) = 5.27075 6.58824 5.96598
#
# Compressibility (1/GPa) = 0.03369692
#
# Stress axis : x y z
#
# Youngs Moduli (GPa) = 41.87932 120.19626 68.03972
#
# Poissons Ratio (x) = 0.32570 0.06127
# Poissons Ratio (y) = 0.11348 0.20336
# Poissons Ratio (z) = 0.03771 0.35925
#
# Static dielectric constant tensor:
#      x y z
#    x 1.975980 0.012190 0.038440 
#    y 0.012190 1.981650 -0.000850 
#    z 0.038440 -0.000850 1.949440 
# 
# From -- ./inp_files/218114.got.cif
#   From: 2010.05.17/outbox.cif.g08.bks.cpg/sg2_110_cif.got.tgz:218114.got - 2010.06.03 11:33:40.
