data_PCOD9104293
_publ_section_title
;
Structure prediction by ZEFSAII (Michael W. Deem and Ramdas Pophale) SiO2 
 PCOD9104293
Probable space group: P -1
;
_chemical_formula_sum "Si O2"
_cell_formula_units_Z 14
_cell_length_a 9.478396
_cell_length_b 22.059746
_cell_length_c 22.746593
_cell_angle_alpha 18.496003
_cell_angle_beta 27.146349
_cell_angle_gamma 27.469867
_cell_volume 656.786883
_symmetry_space_group_name_H-M "P -1"
_symmetry_group_IT_number 2
_symmetry_cell_setting 'triclinic'
loop_
_space_group_symop_operation_xyz
x,y,z
-x,-y,-z
loop_
_atom_site_type_symbol
_atom_site_label
_atom_site_fract_x
_atom_site_fract_y
_atom_site_fract_z
Si Si1 0.806152 0.021362 0.439359
Si Si2 0.335646 0.344651 0.229852
Si Si3 0.390675 0.218092 0.518426
Si Si4 0.125765 0.919017 0.092146
Si Si5 0.621120 0.528822 0.604437
Si Si6 0.371344 0.872917 0.289047
Si Si7 0.872977 0.381038 0.462118
O O1 0.768677 0.800826 0.643596
O O2 0.159825 0.010142 0.293011
O O3 0.569484 0.187231 0.332446
O O4 0.680494 0.090410 0.487381
O O5 0.032332 0.463828 0.272744
O O6 0.500000 0.500000 0.000000
O O7 0.522918 0.347977 0.396849
O O8 0.184403 0.093572 0.744017
O O9 0.109993 0.355429 0.453198
O O10 0.379635 0.696451 0.196884
O O11 0.337704 0.057001 0.908715
O O12 0.000000 0.000000 0.000000
O O13 0.512411 0.664715 0.462955
O O14 0.000000 0.500000 0.500000
O O15 0.136894 0.836768 0.358233
O O16 0.500000 0.500000 0.500000
#
# Coordination Sequence:
#
# PCOD9104293 Si02
#       7
#     2   2   2   2   2   2   2
#     4   9  21  38  55  88 122 154 199 239 300 344
#     4   9  19  38  59  81 125 167 185 236 302 359
#     4  10  21  40  60  85 122 155 195 250 290 353
#     4  11  22  39  63  85 113 162 199 238 300 354
#     4  10  20  39  60  81 117 156 196 239 301 343
#     4  11  22  39  62  86 122 156 195 249 292 356
#     4  10  21  35  60  94 118 148 196 249 295 338
#
# _framework density 21.315895000000001
#
# number of rings (size 3 to 8) (size 9 to 14) (size 15 to 20)
#    0.000    2.000    2.857    2.571    0.000    5.714 
#    2.571    0.714    0.000    0.000    0.000    0.000 
#    0.000    0.000    0.000    0.000    0.000    0.000 
#
# Total GULP energy -78066.697972 kJ/mol
# GULP energy per Si atom -5576.192712 kJ/mol
# Density = 2.126738 g / cm^3
# Si number density = 21.315895 Si / 1000 Ang^3
#
#
#
# Elastic Constant Matrix: (Units=GPa)
#
#
# Indices 1 2 3 4 5 6 
#
# 1 59.1925 -1.0049 7.2614 -8.4819 2.5592 7.5433
# 2 -1.0049 100.1603 13.7027 13.7491 19.2359 14.3316
# 3 7.2614 13.7027 100.6882 6.1160 1.9063 5.0313
# 4 -8.4819 13.7491 6.1160 31.7226 0.3325 2.6538
# 5 2.5592 19.2359 1.9063 0.3325 16.7013 6.9675
# 6 7.5433 14.3316 5.0313 2.6538 6.9675 37.0199
#
#
#
# Elastic Compliance Matrix: (Units=1/GPa)
#
#
# Indices 1 2 3 4 5 6 
#
# 1 0.018411 0.000552 -0.001501 0.005310 -0.001805 -0.003802
# 2 0.000552 0.014130 -0.001239 -0.005397 -0.015207 -0.002165
# 3 -0.001501 -0.001239 0.010336 -0.001812 0.000778 -0.000636
# 4 0.005310 -0.005397 -0.001812 0.035772 0.005908 -0.002423
# 5 -0.001805 -0.015207 0.000778 0.005908 0.081469 -0.009608
# 6 -0.003802 -0.002165 -0.000636 -0.002423 -0.009608 0.030694
#
#
# Mechanical properties :
#
#
# Convention : Reuss Voigt Hill
#
# Bulk Modulus (GPa) = 25.97366 33.32881 29.65124
# Shear Modulus (GPa) = 24.03595 33.09423 28.56509
#
# Velocity S-wave (km/s) = 3.36163 3.94453 3.66469
# Velocity P-wave (km/s) = 5.22293 6.03451 5.64333
#
# Compressibility (1/GPa) = 0.03850054
#
# Stress axis : x y z
#
# Youngs Moduli (GPa) = 54.31532 70.77001 96.75290
#
# Poissons Ratio (x) = -0.03906 0.14525
# Poissons Ratio (y) = -0.02998 0.11986
# Poissons Ratio (z) = 0.08154 0.08767
#
# Static dielectric constant tensor:
#      x y z
#    x 1.822460 0.033520 -0.024880 
#    y 0.033520 1.895510 -0.026020 
#    z -0.024880 -0.026020 1.768230 
# 
# From -- ./inp_files/404898.got.cif
#   From: 2010.05.17/outbox.cif.g08.bks.cpg/sg2_203_cif.got.tgz:404898.got - 2010.06.03 11:33:40.
