data_PCOD9104034
_publ_section_title
;
Structure prediction by ZEFSAII (Michael W. Deem and Ramdas Pophale) SiO2 
 PCOD9104034
Probable space group: P -1
;
_chemical_formula_sum "Si O2"
_cell_formula_units_Z 13
_cell_length_a 12.026273
_cell_length_b 12.320566
_cell_length_c 11.754296
_cell_angle_alpha 38.592977
_cell_angle_beta 144.998877
_cell_angle_gamma 146.811075
_cell_volume 520.616239
_symmetry_space_group_name_H-M "P -1"
_symmetry_group_IT_number 2
_symmetry_cell_setting 'triclinic'
loop_
_space_group_symop_operation_xyz
x,y,z
-x,-y,-z
loop_
_atom_site_type_symbol
_atom_site_label
_atom_site_fract_x
_atom_site_fract_y
_atom_site_fract_z
Si Si1 0.500000 0.500000 0.500000
Si Si2 0.972689 0.588387 0.145500
Si Si3 0.371207 0.128853 0.634457
Si Si4 0.032747 0.855737 0.765353
Si Si5 0.544660 0.630537 0.040812
Si Si6 0.146546 0.301970 0.567150
Si Si7 0.404360 0.946774 0.332508
O O1 0.578053 0.319203 0.720183
O O2 0.376486 0.429659 0.582157
O O3 0.992054 0.389891 0.333696
O O4 0.144998 0.742967 0.263354
O O5 0.702933 0.500626 0.997777
O O6 0.054921 0.729484 0.985586
O O7 0.443473 0.086275 0.608530
O O8 0.233283 0.256460 0.412361
O O9 0.215524 0.940203 0.745971
O O10 0.046933 0.060214 0.658683
O O11 0.596714 0.856554 0.873226
O O12 0.500000 0.500000 0.000000
O O13 0.764126 0.653700 0.266854
O O14 0.500000 0.000000 0.500000
#
# Coordination Sequence:
#
# PCOD9104034 Si02
#       7
#     1   2   2   2   2   2   2
#     4  10  20  38  74 102 150 190 228 314 364 428
#     4  12  26  47  79 109 147 200 250 306 383 444
#     4  10  22  44  73 112 154 190 251 308 371 446
#     4  10  23  44  77 111 147 201 241 310 384 440
#     4  12  29  49  73 108 150 201 255 308 369 449
#     4  11  23  46  70 111 150 187 250 308 367 446
#     4  12  27  48  77 111 152 202 250 309 367 451
#
# _framework density 24.970407999999999
#
# number of rings (size 3 to 8) (size 9 to 14) (size 15 to 20)
#    0.000    0.923    3.077    2.769    2.154    6.154 
#    0.000    8.462    0.000    0.000    0.000    0.000 
#    0.000    0.000    0.000    0.000    0.000    0.000 
#
# Total GULP energy -72480.982503 kJ/mol
# GULP energy per Si atom -5575.460193 kJ/mol
# Density = 2.491357 g / cm^3
# Si number density = 24.970408 Si / 1000 Ang^3
#
#
#
# Elastic Constant Matrix: (Units=GPa)
#
#
# Indices 1 2 3 4 5 6 
#
# 1 90.7511 20.9712 42.0007 -13.2235 5.9113 -20.3057
# 2 20.9712 140.8520 28.1358 -10.9292 1.2425 -14.2280
# 3 42.0007 28.1358 133.8387 -1.6258 -3.4405 -8.3628
# 4 -13.2235 -10.9292 -1.6258 34.2285 -9.0791 -5.4927
# 5 5.9113 1.2425 -3.4405 -9.0791 31.2001 4.0899
# 6 -20.3057 -14.2280 -8.3628 -5.4927 4.0899 49.7700
#
#
#
# Elastic Compliance Matrix: (Units=1/GPa)
#
#
# Indices 1 2 3 4 5 6 
#
# 1 0.015628 -0.000297 -0.004431 0.006099 -0.002505 0.006426
# 2 -0.000297 0.007850 -0.001385 0.002700 0.000091 0.002180
# 3 -0.004431 -0.001385 0.009117 -0.001450 0.001604 -0.000964
# 4 0.006099 0.002700 -0.001450 0.035517 0.008090 0.006271
# 5 -0.002505 0.000091 0.001604 0.008090 0.035413 -0.002744
# 6 0.006426 0.002180 -0.000964 0.006271 -0.002744 0.024093
#
#
# Mechanical properties :
#
#
# Convention : Reuss Voigt Hill
#
# Bulk Modulus (GPa) = 49.09811 60.85078 54.97444
# Shear Modulus (GPa) = 34.09864 41.32864 37.71364
#
# Velocity S-wave (km/s) = 3.69936 4.07271 3.89052
# Velocity P-wave (km/s) = 6.16054 6.82188 6.49963
#
# Compressibility (1/GPa) = 0.02036738
#
# Stress axis : x y z
#
# Youngs Moduli (GPa) = 63.98784 127.39490 109.68835
#
# Poissons Ratio (x) = 0.03789 0.48599
# Poissons Ratio (y) = 0.01903 0.15197
# Poissons Ratio (z) = 0.28350 0.17650
#
# Static dielectric constant tensor:
#      x y z
#    x 2.019030 0.087060 0.062670 
#    y 0.087060 2.374170 0.135270 
#    z 0.062670 0.135270 2.057530 
# 
# From -- ./inp_files/422924.got.cif
#   From: 2010.05.17/outbox.cif.g08.bks.cpg/sg2_212_cif.got.tgz:422924.got - 2010.06.03 11:33:40.
