data_PCOD9104932
_publ_section_title
;
Structure prediction by ZEFSAII (Michael W. Deem and Ramdas Pophale) SiO2 
 PCOD9104932
Probable space group: P -1
;
_chemical_formula_sum "Si O2"
_cell_formula_units_Z 12
_cell_length_a 15.298008
_cell_length_b 8.930510
_cell_length_c 10.944095
_cell_angle_alpha 119.767981
_cell_angle_beta 26.888621
_cell_angle_gamma 128.002091
_cell_volume 526.995459
_symmetry_space_group_name_H-M "P -1"
_symmetry_group_IT_number 2
_symmetry_cell_setting 'triclinic'
loop_
_space_group_symop_operation_xyz
x,y,z
-x,-y,-z
loop_
_atom_site_type_symbol
_atom_site_label
_atom_site_fract_x
_atom_site_fract_y
_atom_site_fract_z
Si Si1 0.989179 0.223398 0.042231
Si Si2 0.453050 0.970616 0.364803
Si Si3 0.844000 0.583776 0.672991
Si Si4 0.567755 0.417380 0.723028
Si Si5 0.067324 0.924166 0.686559
Si Si6 0.341030 0.582221 0.672793
O O1 0.103553 0.446008 0.962244
O O2 0.732818 0.103761 0.327293
O O3 0.060782 0.194818 0.079174
O O4 0.068433 0.125637 0.798062
O O5 0.594704 0.196037 0.288648
O O6 0.537157 0.809867 0.201368
O O7 0.304281 0.939203 0.417686
O O8 0.772503 0.523373 0.599230
O O9 0.000000 0.500000 0.500000
O O10 0.966059 0.809112 0.645143
O O11 0.612331 0.509145 0.998487
O O12 0.635357 0.435885 0.507528
O O13 0.500000 0.500000 0.500000
#
# Coordination Sequence:
#
# PCOD9104932 Si02
#       6
#     2   2   2   2   2   2
#     4   9  18  35  63  95 124 168 201 252 332 371
#     4  10  20  39  62  98 130 164 211 265 322 379
#     4  11  21  42  67  86 130 174 216 267 317 381
#     4  11  25  37  64 103 120 171 227 254 322 392
#     4   9  17  37  65  91 121 174 202 252 328 366
#     4  12  21  37  66 100 133 162 213 268 316 392
#
# _framework density 22.770596000000001
#
# number of rings (size 3 to 8) (size 9 to 14) (size 15 to 20)
#    1.000    0.667    3.333    2.500    0.000    0.667 
#    0.000    0.833    0.000   20.000    0.000    0.000 
#    0.000    0.000    0.000    0.000    0.000    0.000 
#
# Total GULP energy -66951.959159 kJ/mol
# GULP energy per Si atom -5579.329930 kJ/mol
# Density = 2.271877 g / cm^3
# Si number density = 22.770596 Si / 1000 Ang^3
#
#
#
# Elastic Constant Matrix: (Units=GPa)
#
#
# Indices 1 2 3 4 5 6 
#
# 1 118.4988 64.7867 18.5664 3.3323 -15.6997 26.2613
# 2 64.7867 159.0318 43.3206 -22.2970 -0.0012 11.2173
# 3 18.5664 43.3206 72.8985 6.7965 -20.6511 -9.7266
# 4 3.3323 -22.2970 6.7965 40.5000 -8.5902 -1.8150
# 5 -15.6997 -0.0012 -20.6511 -8.5902 24.3333 10.7464
# 6 26.2613 11.2173 -9.7266 -1.8150 10.7464 32.5214
#
#
#
# Elastic Compliance Matrix: (Units=1/GPa)
#
#
# Indices 1 2 3 4 5 6 
#
# 1 0.020257 -0.008366 0.004378 -0.002641 0.024927 -0.020547
# 2 -0.008366 0.012857 -0.009160 0.006820 -0.012583 0.004120
# 3 0.004378 -0.009160 0.024761 -0.004833 0.022419 -0.000648
# 4 -0.002641 0.006820 -0.004833 0.030628 0.005840 -0.001885
# 5 0.024927 -0.012583 0.022419 0.005840 0.096168 -0.040535
# 6 -0.020547 0.004120 -0.000648 -0.001885 -0.040535 0.059016
#
#
# Mechanical properties :
#
#
# Convention : Reuss Voigt Hill
#
# Bulk Modulus (GPa) = 31.66599 67.08627 49.37613
# Shear Modulus (GPa) = 17.82473 34.38797 26.10635
#
# Velocity S-wave (km/s) = 2.80088 3.89033 3.38966
# Velocity P-wave (km/s) = 4.93930 7.05020 6.08695
#
# Compressibility (1/GPa) = 0.03157962
#
# Stress axis : x y z
#
# Youngs Moduli (GPa) = 49.36518 77.77904 40.38578
#
# Poissons Ratio (x) = 0.65069 -0.17683
# Poissons Ratio (y) = 0.41299 0.36995
# Poissons Ratio (z) = -0.21614 0.71248
#
# Static dielectric constant tensor:
#      x y z
#    x 1.886180 0.011320 -0.071190 
#    y 0.011320 1.874800 0.022150 
#    z -0.071190 0.022150 1.900840 
# 
# From -- ./inp_files/213666.got.cif
#   From: 2010.05.17/outbox.cif.g08.bks.cpg/sg2_107_cif.got.tgz:213666.got - 2010.06.03 11:33:40.
