data_PCOD9104236
_publ_section_title
;
Structure prediction by ZEFSAII (Michael W. Deem and Ramdas Pophale) SiO2 
 PCOD9104236
Probable space group: P -1
;
_chemical_formula_sum "Si O2"
_cell_formula_units_Z 16
_cell_length_a 18.224824
_cell_length_b 7.282027
_cell_length_c 11.877083
_cell_angle_alpha 106.350607
_cell_angle_beta 28.676093
_cell_angle_gamma 119.452065
_cell_volume 614.802534
_symmetry_space_group_name_H-M "P -1"
_symmetry_group_IT_number 2
_symmetry_cell_setting 'triclinic'
loop_
_space_group_symop_operation_xyz
x,y,z
-x,-y,-z
loop_
_atom_site_type_symbol
_atom_site_label
_atom_site_fract_x
_atom_site_fract_y
_atom_site_fract_z
Si Si1 0.204513 0.485454 0.596823
Si Si2 0.952117 0.813535 0.935704
Si Si3 0.700014 0.557350 0.770349
Si Si4 0.663363 0.859510 0.601051
Si Si5 0.648658 0.158507 0.107016
Si Si6 0.242917 0.001267 0.267055
Si Si7 0.130743 0.378439 0.209915
Si Si8 0.799074 0.318425 0.152127
O O1 0.245560 0.548535 0.421229
O O2 0.293345 0.338520 0.481414
O O3 0.989523 0.335417 0.885430
O O4 0.267317 0.693702 0.633588
O O5 0.854774 0.772162 0.936099
O O6 0.847372 0.568850 0.092142
O O7 0.154189 0.910693 0.638650
O O8 0.000000 0.000000 0.000000
O O9 0.732627 0.535265 0.853148
O O10 0.824823 0.826575 0.625493
O O11 0.500000 0.500000 0.000000
O O12 0.513002 0.810678 0.705528
O O13 0.625486 0.910189 0.786909
O O14 0.658286 0.990266 0.978936
O O15 0.828053 0.398924 0.872902
O O16 0.664227 0.136466 0.213765
O O17 0.067171 0.763684 0.494320
#
# Coordination Sequence:
#
# PCOD9104236 Si02
#       8
#     2   2   2   2   2   2   2   2
#     4  10  21  40  60  85 119 161 205 238 307 364
#     4  10  20  39  59  88 116 158 204 250 298 367
#     4  11  23  40  61  91 126 163 203 259 310 359
#     4  10  21  37  62  88 122 159 198 258 308 354
#     4  11  22  38  60  98 122 155 205 257 311 357
#     4  10  21  37  60  88 126 161 204 247 305 370
#     4  10  21  37  61  90 119 165 203 249 306 362
#     4  10  22  39  65  86 118 164 205 251 299 370
#
# _framework density 26.024619000000001
#
# number of rings (size 3 to 8) (size 9 to 14) (size 15 to 20)
#    0.000    1.750    1.250    3.375    0.000    5.500 
#    2.250    0.000    0.000    3.750    0.000    0.000 
#    0.000    0.000    0.000    0.000    0.000    0.000 
#
# Total GULP energy -89408.527489 kJ/mol
# GULP energy per Si atom -5588.032968 kJ/mol
# Density = 2.596539 g / cm^3
# Si number density = 26.024619 Si / 1000 Ang^3
#
#
#
# Elastic Constant Matrix: (Units=GPa)
#
#
# Indices 1 2 3 4 5 6 
#
# 1 167.4018 42.4109 53.1215 33.9706 12.6103 67.5962
# 2 42.4109 89.1927 38.8374 23.0501 10.0398 35.6793
# 3 53.1215 38.8374 80.6797 29.6862 7.6045 33.0673
# 4 33.9706 23.0501 29.6862 55.0002 13.7461 19.6745
# 5 12.6103 10.0398 7.6045 13.7461 43.4229 2.1533
# 6 67.5962 35.6793 33.0673 19.6745 2.1533 64.1906
#
#
#
# Elastic Compliance Matrix: (Units=1/GPa)
#
#
# Indices 1 2 3 4 5 6 
#
# 1 0.011312 0.000542 -0.002743 -0.001587 -0.001919 -0.010250
# 2 0.000542 0.016339 -0.004646 -0.001734 -0.002242 -0.006652
# 3 -0.002743 -0.004646 0.019836 -0.006158 0.000489 -0.002876
# 4 -0.001587 -0.001734 -0.006158 0.025340 -0.005994 -0.001758
# 5 -0.001919 -0.002242 0.000489 -0.005994 0.025719 0.003990
# 6 -0.010250 -0.006652 -0.002876 -0.001758 0.003990 0.031956
#
#
# Mechanical properties :
#
#
# Convention : Reuss Voigt Hill
#
# Bulk Modulus (GPa) = 29.59242 67.33488 48.46365
# Shear Modulus (GPa) = 32.16249 46.04970 39.10609
#
# Velocity S-wave (km/s) = 3.51928 4.21107 3.88062
# Velocity P-wave (km/s) = 5.28293 7.04087 6.22427
#
# Compressibility (1/GPa) = 0.03379243
#
# Stress axis : x y z
#
# Youngs Moduli (GPa) = 88.39906 61.20463 50.41324
#
# Poissons Ratio (x) = -0.03317 0.13830
# Poissons Ratio (y) = -0.04790 0.23421
# Poissons Ratio (z) = 0.24251 0.28435
#
# Static dielectric constant tensor:
#      x y z
#    x 2.160170 0.035170 0.054700 
#    y 0.035170 2.135460 0.018220 
#    z 0.054700 0.018220 2.047480 
# 
# From -- ./inp_files/176648.got.cif
#   From: 2010.05.17/outbox.cif.g08.bks.cpg/sg2_89_cif.got.tgz:176648.got - 2010.06.03 11:33:40.
