data_PCOD9104343
_publ_section_title
;
Structure prediction by ZEFSAII (Michael W. Deem and Ramdas Pophale) SiO2 
 PCOD9104343
Probable space group: P -1
;
_chemical_formula_sum "Si O2"
_cell_formula_units_Z 12
_cell_length_a 5.017662
_cell_length_b 17.828632
_cell_length_c 5.485996
_cell_angle_alpha 103.856931
_cell_angle_beta 90.110654
_cell_angle_gamma 103.347178
_cell_volume 462.762131
_symmetry_space_group_name_H-M "P -1"
_symmetry_group_IT_number 2
_symmetry_cell_setting 'triclinic'
loop_
_space_group_symop_operation_xyz
x,y,z
-x,-y,-z
loop_
_atom_site_type_symbol
_atom_site_label
_atom_site_fract_x
_atom_site_fract_y
_atom_site_fract_z
Si Si1 0.113091 0.632497 0.708531
Si Si2 0.279988 0.485308 0.708200
Si Si3 0.607538 0.904229 0.329391
Si Si4 0.721273 0.665435 0.115834
Si Si5 0.705350 0.255037 0.593118
Si Si6 0.855884 0.042713 0.825460
O O1 0.217639 0.570237 0.831407
O O2 0.318547 0.706713 0.641403
O O3 0.998792 0.572378 0.440715
O O4 0.862967 0.660809 0.852515
O O5 0.500000 0.500000 0.500000
O O6 0.351621 0.425603 0.859363
O O7 0.421961 0.837610 0.445810
O O8 0.411312 0.921400 0.122579
O O9 0.886067 0.887849 0.208304
O O10 0.736066 0.979091 0.562557
O O11 0.471214 0.705758 0.188292
O O12 0.975249 0.717871 0.315251
O O13 0.000000 0.000000 0.000000
#
# Coordination Sequence:
#
# PCOD9104343 Si02
#       6
#     2   2   2   2   2   2
#     4  10  23  39  60  89 123 170 217 273 331 389
#     4  10  20  39  60  87 123 165 222 278 324 386
#     4  10  22  41  65  97 137 170 215 281 326 392
#     4  11  24  39  63  90 126 172 222 268 331 399
#     4  11  24  42  60  93 133 167 214 271 334 397
#     4  10  21  41  70  99 127 173 223 265 329 401
#
# _framework density 25.931246000000002
#
# number of rings (size 3 to 8) (size 9 to 14) (size 15 to 20)
#    0.000    1.667    1.667    2.000    2.333    2.000 
#    0.000    8.333    0.000    0.000    0.000    0.000 
#    0.000    0.000    0.000    0.000    0.000    0.000 
#
# Total GULP energy -67037.979202 kJ/mol
# GULP energy per Si atom -5586.498267 kJ/mol
# Density = 2.587223 g / cm^3
# Si number density = 25.931246 Si / 1000 Ang^3
#
#
#
# Elastic Constant Matrix: (Units=GPa)
#
#
# Indices 1 2 3 4 5 6 
#
# 1 136.5678 33.2726 32.0082 -11.8105 18.2908 1.7442
# 2 33.2726 126.8383 7.8220 -32.6388 10.7800 30.8863
# 3 32.0082 7.8220 60.8424 -23.5580 9.3249 -2.8382
# 4 -11.8105 -32.6388 -23.5580 28.5842 -2.6757 -1.8201
# 5 18.2908 10.7800 9.3249 -2.6757 54.2404 -6.7468
# 6 1.7442 30.8863 -2.8382 -1.8201 -6.7468 41.4849
#
#
#
# Elastic Compliance Matrix: (Units=1/GPa)
#
#
# Indices 1 2 3 4 5 6 
#
# 1 0.009427 -0.003820 -0.006426 -0.005797 -0.001412 0.001524
# 2 -0.003820 0.018540 0.010033 0.026657 -0.004361 -0.012496
# 3 -0.006426 0.010033 0.032505 0.034934 -0.004205 -0.004127
# 4 -0.005797 0.026657 0.034934 0.090280 -0.006679 -0.014338
# 5 -0.001412 -0.004361 -0.004205 -0.006679 0.020935 0.006130
# 6 0.001524 -0.012496 -0.004127 -0.014338 0.006130 0.033430
#
#
# Mechanical properties :
#
#
# Convention : Reuss Voigt Hill
#
# Bulk Modulus (GPa) = 16.65348 52.27268 34.46308
# Shear Modulus (GPa) = 22.16717 41.60495 31.88606
#
# Velocity S-wave (km/s) = 2.92694 4.00988 3.51042
# Velocity P-wave (km/s) = 4.22596 6.45297 5.45434
#
# Compressibility (1/GPa) = 0.06004752
#
# Stress axis : x y z
#
# Youngs Moduli (GPa) = 106.07586 53.93606 30.76482
#
# Poissons Ratio (x) = 0.20601 0.19768
# Poissons Ratio (y) = 0.40516 -0.30865
# Poissons Ratio (z) = 0.68160 -0.54112
#
# Static dielectric constant tensor:
#      x y z
#    x 2.114640 -0.027350 0.076020 
#    y -0.027350 2.070560 -0.059030 
#    z 0.076020 -0.059030 2.150460 
# 
# From -- ./inp_files/6873.got.cif
#   From: 2010.05.17/outbox.cif.g08.bks.cpg/sg2_4_cif.got.tgz:6873.got - 2010.06.03 11:33:40.
