data_PCOD9104447
_publ_section_title
;
Structure prediction by ZEFSAII (Michael W. Deem and Ramdas Pophale) SiO2 
 PCOD9104447
Probable space group: P -1
;
_chemical_formula_sum "Si O2"
_cell_formula_units_Z 16
_cell_length_a 13.027384
_cell_length_b 8.079150
_cell_length_c 18.610779
_cell_angle_alpha 132.383622
_cell_angle_beta 37.922991
_cell_angle_gamma 135.490686
_cell_volume 815.173965
_symmetry_space_group_name_H-M "P -1"
_symmetry_group_IT_number 2
_symmetry_cell_setting 'triclinic'
loop_
_space_group_symop_operation_xyz
x,y,z
-x,-y,-z
loop_
_atom_site_type_symbol
_atom_site_label
_atom_site_fract_x
_atom_site_fract_y
_atom_site_fract_z
Si Si1 0.071005 0.325333 0.725300
Si Si2 0.323275 0.779037 0.063252
Si Si3 0.587214 0.637010 0.158261
Si Si4 0.616224 0.220846 0.801641
Si Si5 0.366135 0.625666 0.414175
Si Si6 0.992194 0.729023 0.422367
Si Si7 0.653917 0.167009 0.250765
Si Si8 0.603882 0.834599 0.479989
O O1 0.058805 0.367648 0.659151
O O2 0.168511 0.590378 0.785659
O O3 0.207133 0.191228 0.620679
O O4 0.865860 0.185936 0.825937
O O5 0.355333 0.746690 0.120424
O O6 0.302180 0.529324 0.962089
O O7 0.500000 0.000000 0.000000
O O8 0.463889 0.609440 0.146862
O O9 0.459557 0.557175 0.274958
O O10 0.690514 0.933613 0.192317
O O11 0.807368 0.259032 0.670516
O O12 0.469139 0.948052 0.784560
O O13 0.164369 0.435110 0.486284
O O14 0.491151 0.664349 0.427150
O O15 0.361073 0.887850 0.477472
O O16 0.000000 0.000000 0.500000
O O17 0.524615 0.225448 0.396484
#
# Coordination Sequence:
#
# PCOD9104447 Si02
#       8
#     2   2   2   2   2   2   2   2
#     4  11  23  39  66  88 125 162 205 252 312 360
#     4  11  25  43  61  90 123 163 212 258 300 358
#     4   9  22  41  63  85 124 168 204 251 299 362
#     4   9  22  41  62  87 120 164 205 249 314 352
#     4  10  22  36  64  91 131 156 202 248 308 369
#     4  11  23  35  60  98 125 162 197 251 314 372
#     4   9  19  39  66  90 117 162 202 250 308 361
#     4  10  20  39  60  98 125 158 194 257 309 367
#
# _framework density 19.627711999999999
#
# number of rings (size 3 to 8) (size 9 to 14) (size 15 to 20)
#    0.750    1.250    1.250    1.500    5.250    2.000 
#    0.000    2.500    0.000    0.000    0.000    0.000 
#    0.000    0.000    0.000    0.000    0.000    0.000 
#
# Total GULP energy -89261.746089 kJ/mol
# GULP energy per Si atom -5578.859131 kJ/mol
# Density = 1.958304 g / cm^3
# Si number density = 19.627712 Si / 1000 Ang^3
#
#
#
# Elastic Constant Matrix: (Units=GPa)
#
#
# Indices 1 2 3 4 5 6 
#
# 1 39.2647 4.0334 19.2166 0.1010 -4.9549 8.1882
# 2 4.0334 58.1911 24.5945 -14.9163 3.9658 13.9142
# 3 19.2166 24.5945 85.3081 -3.4655 0.0265 1.4640
# 4 0.1010 -14.9163 -3.4655 28.7799 -0.3768 0.1945
# 5 -4.9549 3.9658 0.0265 -0.3768 31.6802 1.0309
# 6 8.1882 13.9142 1.4640 0.1945 1.0309 23.5211
#
#
#
# Elastic Compliance Matrix: (Units=1/GPa)
#
#
# Indices 1 2 3 4 5 6 
#
# 1 0.032594 0.004598 -0.008375 0.001419 0.004994 -0.013776
# 2 0.004598 0.028328 -0.008337 0.013756 -0.002075 -0.017863
# 3 -0.008375 -0.008337 0.015795 -0.002443 -0.000533 0.006908
# 4 0.001419 0.013756 -0.002443 0.041627 -0.000717 -0.008792
# 5 0.004994 -0.002075 -0.000533 -0.000717 0.032660 -0.001903
# 6 -0.013776 -0.017863 0.006908 -0.008792 -0.001903 0.057604
#
#
# Mechanical properties :
#
#
# Convention : Reuss Voigt Hill
#
# Bulk Modulus (GPa) = 19.05166 30.93922 24.99544
# Shear Modulus (GPa) = 19.97337 25.79085 22.88211
#
# Velocity S-wave (km/s) = 3.19346 3.62885 3.41809
# Velocity P-wave (km/s) = 4.82961 5.77541 5.32356
#
# Compressibility (1/GPa) = 0.05248887
#
# Stress axis : x y z
#
# Youngs Moduli (GPa) = 30.68014 35.30040 63.31210
#
# Poissons Ratio (x) = -0.16231 0.53026
# Poissons Ratio (y) = -0.14107 0.52782
# Poissons Ratio (z) = 0.25696 0.29429
#
# Static dielectric constant tensor:
#      x y z
#    x 1.704440 0.000440 0.006530 
#    y 0.000440 1.694570 0.021840 
#    z 0.006530 0.021840 1.674460 
# 
# From -- ./inp_files/597244.got.cif
#   From: 2010.05.17/outbox.cif.g08.bks.cpg/sg2_299_cif.got.tgz:597244.got - 2010.06.03 11:33:40.
