data_PCOD9104734
_publ_section_title
;
Structure prediction by ZEFSAII (Michael W. Deem and Ramdas Pophale) SiO2 
 PCOD9104734
Probable space group: P -1
;
_chemical_formula_sum "Si O2"
_cell_formula_units_Z 14
_cell_length_a 16.981703
_cell_length_b 8.380270
_cell_length_c 19.900341
_cell_angle_alpha 140.450560
_cell_angle_beta 19.011649
_cell_angle_gamma 139.271308
_cell_volume 581.752091
_symmetry_space_group_name_H-M "P -1"
_symmetry_group_IT_number 2
_symmetry_cell_setting 'triclinic'
loop_
_space_group_symop_operation_xyz
x,y,z
-x,-y,-z
loop_
_atom_site_type_symbol
_atom_site_label
_atom_site_fract_x
_atom_site_fract_y
_atom_site_fract_z
Si Si1 0.934384 0.888815 0.379670
Si Si2 0.881970 0.579323 0.553272
Si Si3 0.487054 0.576745 0.692341
Si Si4 0.646414 0.128375 0.342326
Si Si5 0.026556 0.231363 0.962205
Si Si6 0.910277 0.079096 0.311262
Si Si7 0.413521 0.718957 0.950364
O O1 0.652205 0.785218 0.583177
O O2 0.983185 0.980838 0.293485
O O3 0.010482 0.127178 0.445313
O O4 0.121602 0.687932 0.178777
O O5 0.945503 0.382682 0.382898
O O6 0.589057 0.548755 0.790547
O O7 0.000000 0.500000 0.500000
O O8 0.613224 0.327549 0.492500
O O9 0.203408 0.478789 0.874862
O O10 0.491735 0.678650 0.797300
O O11 0.795094 0.911059 0.179484
O O12 0.377123 0.017903 0.499138
O O13 0.798681 0.270098 0.204243
O O14 0.956675 0.039805 0.895443
O O15 0.500000 0.000000 0.000000
#
# Coordination Sequence:
#
# PCOD9104734 Si02
#       7
#     2   2   2   2   2   2   2
#     4  10  23  38  59  91 124 158 197 243 300 356
#     4   9  19  39  63  86 116 154 198 245 290 348
#     4  11  21  38  60  86 123 159 196 243 299 356
#     4  10  21  37  59  89 118 158 203 248 299 351
#     4  10  21  37  62  89 120 158 203 250 297 352
#     4  10  20  39  62  87 120 159 202 247 294 350
#     4  10  21  38  60  86 118 157 196 240 295 356
#
# _framework density 24.065232999999999
#
# number of rings (size 3 to 8) (size 9 to 14) (size 15 to 20)
#    0.000    2.000    0.000    4.286    0.000    6.857 
#    0.000   10.000    0.000   14.571    0.000    0.000 
#    0.000    0.000    0.000    0.000    0.000    0.000 
#
# Total GULP energy -78227.352359 kJ/mol
# GULP energy per Si atom -5587.668026 kJ/mol
# Density = 2.401046 g / cm^3
# Si number density = 24.065233 Si / 1000 Ang^3
#
#
#
# Elastic Constant Matrix: (Units=GPa)
#
#
# Indices 1 2 3 4 5 6 
#
# 1 95.7951 23.4340 49.6173 8.1501 4.1376 25.5260
# 2 23.4340 60.8432 42.5174 1.7221 12.2054 16.3626
# 3 49.6173 42.5174 117.1269 1.4464 22.1946 2.8927
# 4 8.1501 1.7221 1.4464 38.7716 -3.7828 9.9293
# 5 4.1376 12.2054 22.1946 -3.7828 43.6314 13.1023
# 6 25.5260 16.3626 2.8927 9.9293 13.1023 33.0840
#
#
#
# Elastic Compliance Matrix: (Units=1/GPa)
#
#
# Indices 1 2 3 4 5 6 
#
# 1 0.020286 0.003694 -0.011186 0.002209 0.009169 -0.020795
# 2 0.003694 0.027122 -0.011699 0.003333 0.003609 -0.017670
# 3 -0.011186 -0.011699 0.019250 -0.003628 -0.011264 0.018283
# 4 0.002209 0.003333 -0.003628 0.029956 0.007845 -0.015133
# 5 0.009169 0.003609 -0.011264 0.007845 0.034642 -0.023948
# 6 -0.020795 -0.017670 0.018283 -0.015133 -0.023948 0.067437
#
#
# Mechanical properties :
#
#
# Convention : Reuss Voigt Hill
#
# Bulk Modulus (GPa) = 35.36381 56.10028 45.73204
# Shear Modulus (GPa) = 20.28397 33.64382 26.96390
#
# Velocity S-wave (km/s) = 2.90638 3.74308 3.35094
# Velocity P-wave (km/s) = 5.09800 6.48407 5.83236
#
# Compressibility (1/GPa) = 0.02827749
#
# Stress axis : x y z
#
# Youngs Moduli (GPa) = 49.29510 36.87051 51.94670
#
# Poissons Ratio (x) = -0.13619 0.58105
# Poissons Ratio (y) = -0.18208 0.60771
# Poissons Ratio (z) = 0.55139 0.43134
#
# Static dielectric constant tensor:
#      x y z
#    x 1.951210 -0.019240 -0.034660 
#    y -0.019240 1.995030 0.018270 
#    z -0.034660 0.018270 1.934490 
# 
# From -- ./inp_files/577215.got.cif
#   From: 2010.05.17/outbox.cif.g08.bks.cpg/sg2_289_cif.got.tgz:577215.got - 2010.06.03 11:33:40.
