data_PCOD9104818
_publ_section_title
;
Structure prediction by ZEFSAII (Michael W. Deem and Ramdas Pophale) SiO2 
 PCOD9104818
Probable space group: P -1
;
_chemical_formula_sum "Si O2"
_cell_formula_units_Z 16
_cell_length_a 14.491245
_cell_length_b 14.235951
_cell_length_c 9.235921
_cell_angle_alpha 133.483222
_cell_angle_beta 68.452987
_cell_angle_gamma 141.372225
_cell_volume 799.676329
_symmetry_space_group_name_H-M "P -1"
_symmetry_group_IT_number 2
_symmetry_cell_setting 'triclinic'
loop_
_space_group_symop_operation_xyz
x,y,z
-x,-y,-z
loop_
_atom_site_type_symbol
_atom_site_label
_atom_site_fract_x
_atom_site_fract_y
_atom_site_fract_z
Si Si1 0.002280 0.145826 0.513028
Si Si2 0.183678 0.847063 0.563948
Si Si3 0.480084 0.100858 0.506990
Si Si4 0.340707 0.871684 0.039856
Si Si5 0.058229 0.920207 0.190361
Si Si6 0.301614 0.042385 0.016303
Si Si7 0.681654 0.412454 0.130635
Si Si8 0.199389 0.553808 0.217053
O O1 0.192780 0.348822 0.649014
O O2 0.944099 0.193939 0.485084
O O3 0.922659 0.085896 0.654042
O O4 0.971077 0.969679 0.287812
O O5 0.157163 0.664595 0.360063
O O6 0.353265 0.059360 0.617441
O O7 0.213725 0.906358 0.777479
O O8 0.661837 0.327803 0.618926
O O9 0.500000 0.000000 0.500000
O O10 0.395625 0.978004 0.276845
O O11 0.263880 0.899573 0.013046
O O12 0.258045 0.651096 0.880961
O O13 0.500000 0.000000 0.000000
O O14 0.219648 0.084753 0.177498
O O15 0.947040 0.693069 0.949106
O O16 0.493544 0.244005 0.090676
O O17 0.714533 0.402899 0.936448
#
# Coordination Sequence:
#
# PCOD9104818 Si02
#       8
#     2   2   2   2   2   2   2   2
#     4  10  24  43  63  83 117 167 203 239 295 366
#     4  11  21  37  66  90 117 157 204 238 301 360
#     4  10  16  33  58  91 117 154 193 239 294 361
#     4  10  18  31  55  91 123 144 189 251 293 335
#     4  10  24  42  60  86 125 153 202 253 296 343
#     4  11  23  38  60  91 125 153 196 257 296 344
#     4  10  19  37  63  88 121 158 197 237 304 358
#     4  10  19  36  65  91 120 155 195 244 299 360
#
# _framework density 20.008095999999998
#
# number of rings (size 3 to 8) (size 9 to 14) (size 15 to 20)
#    0.000    1.750    3.750    3.000    1.750    2.500 
#    4.500    0.625    2.750    0.000    0.000    0.000 
#    0.000    0.000    0.000    0.000    0.000    0.000 
#
# Total GULP energy -89101.002538 kJ/mol
# GULP energy per Si atom -5568.812659 kJ/mol
# Density = 1.996256 g / cm^3
# Si number density = 20.008096 Si / 1000 Ang^3
#
#
#
# Elastic Constant Matrix: (Units=GPa)
#
#
# Indices 1 2 3 4 5 6 
#
# 1 82.1337 30.9714 63.9064 4.1726 6.3742 9.2414
# 2 30.9714 72.5943 42.3356 -8.0674 2.6100 15.0709
# 3 63.9064 42.3356 100.4767 -7.9380 2.7916 3.5478
# 4 4.1726 -8.0674 -7.9380 35.5500 -0.6475 0.6984
# 5 6.3742 2.6100 2.7916 -0.6475 25.1806 -4.2092
# 6 9.2414 15.0709 3.5478 0.6984 -4.2092 25.1741
#
#
#
# Elastic Compliance Matrix: (Units=1/GPa)
#
#
# Indices 1 2 3 4 5 6 
#
# 1 0.027917 -0.000430 -0.017668 -0.007275 -0.006657 -0.008412
# 2 -0.000430 0.021729 -0.008091 0.003358 -0.003223 -0.012342
# 3 -0.017668 -0.008091 0.024635 0.005649 0.004128 0.008392
# 4 -0.007275 0.003358 0.005649 0.031049 0.001542 -0.000739
# 5 -0.006657 -0.003223 0.004128 0.001542 0.043147 0.010963
# 6 -0.008412 -0.012342 0.008392 -0.000739 0.010963 0.050871
#
#
# Mechanical properties :
#
#
# Convention : Reuss Voigt Hill
#
# Bulk Modulus (GPa) = 45.65721 58.84797 52.25259
# Shear Modulus (GPa) = 19.30306 25.04703 22.17504
#
# Velocity S-wave (km/s) = 3.10943 3.54198 3.33273
# Velocity P-wave (km/s) = 5.97999 6.79731 6.40171
#
# Compressibility (1/GPa) = 0.02190234
#
# Stress axis : x y z
#
# Youngs Moduli (GPa) = 35.82040 46.02225 40.59346
#
# Poissons Ratio (x) = 0.01977 0.71720
# Poissons Ratio (y) = 0.01539 0.32846
# Poissons Ratio (z) = 0.63287 0.37239
#
# Static dielectric constant tensor:
#      x y z
#    x 1.778710 -0.002950 0.000400 
#    y -0.002950 1.749490 0.035040 
#    z 0.000400 0.035040 1.714760 
# 
# From -- ./inp_files/314107.got.cif
#   From: 2010.05.17/outbox.cif.g08.bks.cpg/sg2_158_cif.got.tgz:314107.got - 2010.06.03 11:33:40.
