data_PCOD9104666
_publ_section_title
;
Structure prediction by ZEFSAII (Michael W. Deem and Ramdas Pophale) SiO2 
 PCOD9104666
Probable space group: P -1
;
_chemical_formula_sum "Si O2"
_cell_formula_units_Z 16
_cell_length_a 9.504433
_cell_length_b 9.667906
_cell_length_c 8.674155
_cell_angle_alpha 61.940161
_cell_angle_beta 98.223561
_cell_angle_gamma 100.522506
_cell_volume 690.033401
_symmetry_space_group_name_H-M "P -1"
_symmetry_group_IT_number 2
_symmetry_cell_setting 'triclinic'
loop_
_space_group_symop_operation_xyz
x,y,z
-x,-y,-z
loop_
_atom_site_type_symbol
_atom_site_label
_atom_site_fract_x
_atom_site_fract_y
_atom_site_fract_z
Si Si1 0.591926 0.852631 0.611660
Si Si2 0.919517 0.859295 0.656412
Si Si3 0.504080 0.814928 0.288888
Si Si4 0.451007 0.156583 0.058164
Si Si5 0.980791 0.343084 0.975228
Si Si6 0.890785 0.691807 0.442988
Si Si7 0.860300 0.870802 0.071229
Si Si8 0.809745 0.341222 0.646009
O O1 0.761193 0.898917 0.647285
O O2 0.582496 0.772218 0.481934
O O3 0.536051 0.765786 0.809142
O O4 0.500000 0.000000 0.500000
O O5 0.020406 0.805162 0.832800
O O6 0.894855 0.712971 0.613346
O O7 0.000000 0.000000 0.500000
O O8 0.339634 0.764247 0.339563
O O9 0.535403 0.004470 0.166708
O O10 0.515232 0.751195 0.147147
O O11 0.283951 0.085826 0.045460
O O12 0.111475 0.298386 0.910852
O O13 0.000000 0.500000 0.000000
O O14 0.854208 0.341296 0.833556
O O15 0.830709 0.829407 0.266899
O O16 0.807786 0.519194 0.492368
O O17 0.055088 0.709038 0.399140
O O18 0.000000 0.000000 0.000000
#
# Coordination Sequence:
#
# PCOD9104666 Si02
#       8
#     2   2   2   2   2   2   2   2
#     4  10  23  41  64  99 139 176 225 296 343 416
#     4  12  24  39  69 105 130 174 236 293 345 411
#     4  10  22  40  67  90 139 179 234 278 353 416
#     4  10  20  39  61  97 129 176 228 288 339 411
#     4  11  22  40  65  96 141 172 216 296 350 409
#     4  10  22  38  64  96 132 167 231 274 345 407
#     4  11  21  38  67  95 133 172 227 290 346 409
#     4  10  22  42  63  96 131 190 214 279 350 424
#
# _framework density 23.187283000000001
#
# number of rings (size 3 to 8) (size 9 to 14) (size 15 to 20)
#    0.000    1.500    2.500    3.000    3.500    3.000 
#    0.000    2.500    0.000    2.250    0.000    0.000 
#    0.000    0.000    0.000    0.000    0.000    0.000 
#
# Total GULP energy -89110.933858 kJ/mol
# GULP energy per Si atom -5569.433366 kJ/mol
# Density = 2.313451 g / cm^3
# Si number density = 23.187283 Si / 1000 Ang^3
#
#
#
# Elastic Constant Matrix: (Units=GPa)
#
#
# Indices 1 2 3 4 5 6 
#
# 1 62.1710 20.1858 24.6864 -2.5425 -6.2353 -0.9566
# 2 20.1858 50.4622 24.2125 8.8220 -1.3048 -9.8761
# 3 24.6864 24.2125 179.9608 15.4971 -1.6063 -0.9602
# 4 -2.5425 8.8220 15.4971 35.2872 -9.3969 -9.5833
# 5 -6.2353 -1.3048 -1.6063 -9.3969 32.7294 6.3073
# 6 -0.9566 -9.8761 -0.9602 -9.5833 6.3073 16.5087
#
#
#
# Elastic Compliance Matrix: (Units=1/GPa)
#
#
# Indices 1 2 3 4 5 6 
#
# 1 0.020390 -0.008546 -0.002055 0.005112 0.005526 -0.003194
# 2 -0.008546 0.027898 -0.002231 -0.003574 -0.004693 0.015783
# 3 -0.002055 -0.002231 0.006404 -0.003313 -0.000581 -0.002783
# 4 0.005112 -0.003574 -0.003313 0.037814 0.008298 0.016746
# 5 0.005526 -0.004693 -0.000581 0.008298 0.035980 -0.011450
# 6 -0.003194 0.015783 -0.002783 0.016746 -0.011450 0.083765
#
#
# Mechanical properties :
#
#
# Convention : Reuss Voigt Hill
#
# Bulk Modulus (GPa) = 34.45023 47.86261 41.15642
# Shear Modulus (GPa) = 20.19458 31.80568 26.00013
#
# Velocity S-wave (km/s) = 2.95436 3.70765 3.35223
# Velocity P-wave (km/s) = 5.15047 6.24623 5.72463
#
# Compressibility (1/GPa) = 0.02902738
#
# Stress axis : x y z
#
# Youngs Moduli (GPa) = 49.04442 35.84430 156.14901
#
# Poissons Ratio (x) = 0.30633 0.32090
# Poissons Ratio (y) = 0.41914 0.34838
# Poissons Ratio (z) = 0.10079 0.07997
#
# Static dielectric constant tensor:
#      x y z
#    x 1.899440 -0.088270 -0.005620 
#    y -0.088270 2.014250 0.102020 
#    z -0.005620 0.102020 1.984540 
# 
# From -- ./inp_files/175342.got.cif
#   From: 2010.05.17/outbox.cif.g08.bks.cpg/sg2_88_cif.got.tgz:175342.got - 2010.06.03 11:33:40.
