data_PCOD9104824
_publ_section_title
;
Structure prediction by ZEFSAII (Michael W. Deem and Ramdas Pophale) SiO2 
 PCOD9104824
Probable space group: P -1
;
_chemical_formula_sum "Si O2"
_cell_formula_units_Z 16
_cell_length_a 8.851693
_cell_length_b 9.282560
_cell_length_c 17.145141
_cell_angle_alpha 60.863867
_cell_angle_beta 144.371721
_cell_angle_gamma 100.892568
_cell_volume 654.933667
_symmetry_space_group_name_H-M "P -1"
_symmetry_group_IT_number 2
_symmetry_cell_setting 'triclinic'
loop_
_space_group_symop_operation_xyz
x,y,z
-x,-y,-z
loop_
_atom_site_type_symbol
_atom_site_label
_atom_site_fract_x
_atom_site_fract_y
_atom_site_fract_z
Si Si1 0.248278 0.715894 0.791389
Si Si2 0.354326 0.568708 0.546599
Si Si3 0.157034 0.691940 0.256795
Si Si4 0.209565 0.974816 0.401107
Si Si5 0.676906 0.640786 0.849893
Si Si6 0.323862 0.344914 0.883980
Si Si7 0.895218 0.936595 0.839899
Si Si8 0.492226 0.338154 0.790622
O O1 0.505807 0.693281 0.846707
O O2 0.147932 0.559475 0.766059
O O3 0.980058 0.903751 0.640806
O O4 0.386241 0.678421 0.945707
O O5 0.238329 0.605736 0.399946
O O6 0.694652 0.462095 0.703339
O O7 0.303328 0.413481 0.614507
O O8 0.271067 0.766498 0.493438
O O9 0.819966 0.762319 0.098893
O O10 0.239169 0.860704 0.236989
O O11 0.049001 0.032601 0.235149
O O12 0.500000 0.000000 0.500000
O O13 0.519223 0.523940 0.777399
O O14 0.695754 0.827774 0.785248
O O15 0.000000 0.500000 0.000000
O O16 0.353592 0.291077 0.820504
O O17 0.189690 0.816850 0.038883
#
# Coordination Sequence:
#
# PCOD9104824 Si02
#       8
#     2   2   2   2   2   2   2   2
#     4  10  21  39  64 100 123 159 218 258 321 375
#     4  10  23  41  58  87 127 169 209 250 318 388
#     4  10  23  41  61  88 127 170 211 254 323 384
#     4  11  21  39  65  93 128 171 208 259 320 377
#     4   9  20  36  62  97 129 156 201 276 317 360
#     4  10  21  38  64  92 125 158 206 273 308 373
#     4  10  21  39  61  95 123 162 221 258 309 380
#     4  10  20  39  62  91 124 158 214 266 315 358
#
# _framework density 24.429952
#
# number of rings (size 3 to 8) (size 9 to 14) (size 15 to 20)
#    0.000    2.000    1.250    1.500    5.250    1.500 
#    0.000    9.375    0.000    0.000    0.000    0.000 
#    0.000    0.000    0.000    0.000    0.000    0.000 
#
# Total GULP energy -89120.751736 kJ/mol
# GULP energy per Si atom -5570.046984 kJ/mol
# Density = 2.437435 g / cm^3
# Si number density = 24.429952 Si / 1000 Ang^3
#
#
#
# Elastic Constant Matrix: (Units=GPa)
#
#
# Indices 1 2 3 4 5 6 
#
# 1 103.7511 20.2154 34.9574 -23.7272 13.4361 -11.5282
# 2 20.2154 71.4773 23.1454 -20.6282 12.2333 -5.8627
# 3 34.9574 23.1454 83.1911 -24.4850 -10.8936 -11.7552
# 4 -23.7272 -20.6282 -24.4850 24.9023 -2.2554 5.7901
# 5 13.4361 12.2333 -10.8936 -2.2554 34.1414 -6.3058
# 6 -11.5282 -5.8627 -11.7552 5.7901 -6.3058 40.8515
#
#
#
# Elastic Compliance Matrix: (Units=1/GPa)
#
#
# Indices 1 2 3 4 5 6 
#
# 1 0.013865 0.001335 -0.004187 0.009481 -0.006544 0.000546
# 2 0.001335 0.020022 -0.003074 0.014325 -0.007897 -0.000884
# 3 -0.004187 -0.003074 0.020757 0.013924 0.011046 0.004082
# 4 0.009481 0.014325 0.013924 0.075204 0.000198 -0.001891
# 5 -0.006544 -0.007897 0.011046 0.000198 0.039387 0.006250
# 6 0.000546 -0.000884 0.004082 -0.001891 0.006250 0.026913
#
#
# Mechanical properties :
#
#
# Convention : Reuss Voigt Hill
#
# Bulk Modulus (GPa) = 23.36953 46.11732 34.74343
# Shear Modulus (GPa) = 22.49572 31.98580 27.24076
#
# Velocity S-wave (km/s) = 3.03780 3.62233 3.34287
# Velocity P-wave (km/s) = 4.67878 6.03435 5.39928
#
# Compressibility (1/GPa) = 0.04279076
#
# Stress axis : x y z
#
# Youngs Moduli (GPa) = 72.12215 49.94607 48.17729
#
# Poissons Ratio (x) = -0.06669 0.20173
# Poissons Ratio (y) = -0.09630 0.14812
# Poissons Ratio (z) = 0.30200 0.15355
#
# Static dielectric constant tensor:
#      x y z
#    x 2.092320 -0.043290 -0.036510 
#    y -0.043290 1.917970 0.041260 
#    z -0.036510 0.041260 2.119540 
# 
# From -- ./inp_files/557052.got.cif
#   From: 2010.05.17/outbox.cif.g08.bks.cpg/sg2_279_cif.got.tgz:557052.got - 2010.06.03 11:33:40.
