data_PCOD9104652
_publ_section_title
;
Structure prediction by ZEFSAII (Michael W. Deem and Ramdas Pophale) SiO2 
 PCOD9104652
Probable space group: P -1
;
_chemical_formula_sum "Si O2"
_cell_formula_units_Z 15
_cell_length_a 7.703416
_cell_length_b 11.595895
_cell_length_c 13.561281
_cell_angle_alpha 133.692882
_cell_angle_beta 77.243734
_cell_angle_gamma 127.986991
_cell_volume 644.428702
_symmetry_space_group_name_H-M "P -1"
_symmetry_group_IT_number 2
_symmetry_cell_setting 'triclinic'
loop_
_space_group_symop_operation_xyz
x,y,z
-x,-y,-z
loop_
_atom_site_type_symbol
_atom_site_label
_atom_site_fract_x
_atom_site_fract_y
_atom_site_fract_z
Si Si1 0.368532 0.021833 0.943060
Si Si2 0.124677 0.032920 0.345298
Si Si3 0.894659 0.437237 0.365411
Si Si4 0.500000 0.500000 0.500000
Si Si5 0.315356 0.247217 0.654586
Si Si6 0.694546 0.246269 0.646609
Si Si7 0.502112 0.382057 0.255517
Si Si8 0.227545 0.742747 0.126586
O O1 0.552117 0.168252 0.918674
O O2 0.174241 0.784423 0.787141
O O3 0.329563 0.163893 0.091500
O O4 0.500000 0.000000 0.000000
O O5 0.253988 0.251392 0.405734
O O6 0.220782 0.090948 0.480643
O O7 0.177748 0.899756 0.205638
O O8 0.847451 0.885674 0.310423
O O9 0.645636 0.392533 0.342848
O O10 0.000000 0.500000 0.500000
O O11 0.080618 0.623415 0.376232
O O12 0.405471 0.475529 0.381529
O O13 0.576660 0.348963 0.706977
O O14 0.312613 0.431805 0.733563
O O15 0.730995 0.245725 0.756328
O O16 0.500000 0.000000 0.500000
O O17 0.000000 0.500000 0.000000
#
# Coordination Sequence:
#
# PCOD9104652 Si02
#       8
#     2   2   2   1   2   2   2   2
#     4  10  21  42  66  95 130 172 219 275 334 402
#     4  10  20  39  61  95 123 172 214 270 331 399
#     4  11  24  40  68  99 137 173 224 281 331 393
#     4  10  22  34  70  94 126 164 226 262 336 400
#     4  10  22  40  65  89 133 168 222 275 330 390
#     4  12  25  41  64  98 129 172 232 280 325 399
#     4  10  22  42  68  95 128 177 220 271 336 407
#     4  12  23  41  70  96 130 177 224 273 339 409
#
# _framework density 23.276430999999999
#
# number of rings (size 3 to 8) (size 9 to 14) (size 15 to 20)
#    0.000    1.333    1.333    5.600    7.467    0.000 
#    0.000    3.333    0.000    0.000    0.000    0.000 
#    0.000    0.000    0.000    0.000    0.000    0.000 
#
# Total GULP energy -83504.078229 kJ/mol
# GULP energy per Si atom -5566.938549 kJ/mol
# Density = 2.322345 g / cm^3
# Si number density = 23.276431 Si / 1000 Ang^3
#
#
#
# Elastic Constant Matrix: (Units=GPa)
#
#
# Indices 1 2 3 4 5 6 
#
# 1 44.1452 8.1342 0.8207 -5.1057 8.2015 -0.8183
# 2 8.1342 172.5433 50.2270 -3.7665 14.1959 3.4958
# 3 0.8207 50.2270 179.9532 20.3117 8.7062 -8.7438
# 4 -5.1057 -3.7665 20.3117 45.3959 -7.0447 -6.4167
# 5 8.2015 14.1959 8.7062 -7.0447 29.6002 1.8724
# 6 -0.8183 3.4958 -8.7438 -6.4167 1.8724 26.6030
#
#
#
# Elastic Compliance Matrix: (Units=1/GPa)
#
#
# Indices 1 2 3 4 5 6 
#
# 1 0.024160 -0.000709 0.000262 0.001848 -0.006105 0.001798
# 2 -0.000709 0.006595 -0.001882 0.000812 -0.002146 -0.001160
# 3 0.000262 -0.001882 0.006619 -0.003139 -0.001979 0.001813
# 4 0.001848 0.000812 -0.003139 0.025250 0.005740 0.004605
# 5 -0.006105 -0.002146 -0.001979 0.005740 0.038572 -0.001886
# 6 0.001798 -0.001160 0.001813 0.004605 -0.001886 0.039637
#
#
# Mechanical properties :
#
#
# Convention : Reuss Voigt Hill
#
# Bulk Modulus (GPa) = 30.56630 57.22284 43.89457
# Shear Modulus (GPa) = 31.97047 42.81714 37.39381
#
# Velocity S-wave (km/s) = 3.71011 4.29360 4.01248
# Velocity P-wave (km/s) = 5.61370 7.01551 6.35339
#
# Compressibility (1/GPa) = 0.03271577
#
# Stress axis : x y z
#
# Youngs Moduli (GPa) = 41.39151 151.63903 151.07736
#
# Poissons Ratio (x) = 0.10751 -0.03956
# Poissons Ratio (y) = 0.02935 0.28427
# Poissons Ratio (z) = -0.01084 0.28533
#
# Static dielectric constant tensor:
#      x y z
#    x 1.568860 -0.123150 0.442290 
#    y -0.123150 1.837390 0.107530 
#    z 0.442290 0.107530 1.340110 
# 
# From -- ./inp_files/391362.got.cif
#   From: 2010.05.17/outbox.cif.g08.bks.cpg/sg2_196_cif.got.tgz:391362.got - 2010.06.03 11:33:40.
