data_PCOD9104424
_publ_section_title
;
Structure prediction by ZEFSAII (Michael W. Deem and Ramdas Pophale) SiO2 
 PCOD9104424
Probable space group: P -1
;
_chemical_formula_sum "Si O2"
_cell_formula_units_Z 14
_cell_length_a 18.684029
_cell_length_b 8.501692
_cell_length_c 8.269274
_cell_angle_alpha 130.716495
_cell_angle_beta 45.683529
_cell_angle_gamma 138.493743
_cell_volume 599.283530
_symmetry_space_group_name_H-M "P -1"
_symmetry_group_IT_number 2
_symmetry_cell_setting 'triclinic'
loop_
_space_group_symop_operation_xyz
x,y,z
-x,-y,-z
loop_
_atom_site_type_symbol
_atom_site_label
_atom_site_fract_x
_atom_site_fract_y
_atom_site_fract_z
Si Si1 0.819786 0.407716 0.308955
Si Si2 0.976182 0.216993 0.999627
Si Si3 0.509786 0.753751 0.622392
Si Si4 0.386682 0.125480 0.811501
Si Si5 0.886107 0.484169 0.745702
Si Si6 0.348563 0.940299 0.087267
Si Si7 0.212585 0.304846 0.190252
O O1 0.786036 0.583886 0.564773
O O2 0.923321 0.581127 0.140084
O O3 0.707521 0.168013 0.250960
O O4 0.880749 0.292093 0.240748
O O5 0.904100 0.960923 0.847217
O O6 0.054227 0.273027 0.073008
O O7 0.500000 0.500000 0.500000
O O8 0.531894 0.814284 0.435740
O O9 0.609592 0.942927 0.721333
O O10 0.396463 0.762266 0.858245
O O11 0.321372 0.270969 0.979201
O O12 0.412447 0.144203 0.977273
O O13 0.795562 0.222532 0.800871
O O14 0.799624 0.510344 0.780727
O O15 0.000000 0.500000 0.500000
#
# Coordination Sequence:
#
# PCOD9104424 Si02
#       7
#     2   2   2   2   2   2   2
#     4  10  20  39  60  93 136 177 225 272 331 405
#     4  10  21  37  59  92 135 183 224 270 330 399
#     4  11  26  49  75 102 134 174 236 291 341 410
#     4  11  24  45  72 100 137 180 227 284 348 405
#     4  12  23  42  67  99 142 181 225 279 342 409
#     4  11  26  48  72 102 137 183 226 285 348 402
#     4  11  23  37  62  99 137 181 224 278 331 405
#
# _framework density 23.361229000000002
#
# number of rings (size 3 to 8) (size 9 to 14) (size 15 to 20)
#    0.000    1.143    2.857    3.000    2.000    4.000 
#    5.143    0.000    0.000    0.000    0.000    0.000 
#    0.000    0.000    0.000    0.000    0.000    0.000 
#
# Total GULP energy -78082.142860 kJ/mol
# GULP energy per Si atom -5577.295919 kJ/mol
# Density = 2.330806 g / cm^3
# Si number density = 23.361229 Si / 1000 Ang^3
#
#
#
# Elastic Constant Matrix: (Units=GPa)
#
#
# Indices 1 2 3 4 5 6 
#
# 1 67.1780 4.0341 23.8232 -5.8352 3.3036 -7.0916
# 2 4.0341 84.8699 45.3479 -7.4307 -2.5175 -2.8349
# 3 23.8232 45.3479 143.3741 4.1606 -8.4519 6.8768
# 4 -5.8352 -7.4307 4.1606 36.1773 0.5675 2.1924
# 5 3.3036 -2.5175 -8.4519 0.5675 25.6980 3.0706
# 6 -7.0916 -2.8349 6.8768 2.1924 3.0706 29.8959
#
#
#
# Elastic Compliance Matrix: (Units=1/GPa)
#
#
# Indices 1 2 3 4 5 6 
#
# 1 0.017252 0.001657 -0.003983 0.003321 -0.004077 0.005341
# 2 0.001657 0.014935 -0.005299 0.003786 -0.000916 0.002845
# 3 -0.003983 -0.005299 0.009798 -0.002681 0.003739 -0.003889
# 4 0.003321 0.003786 -0.002681 0.029301 -0.001558 -0.000225
# 5 -0.004077 -0.000916 0.003739 -0.001558 0.041334 -0.006045
# 6 0.005341 0.002845 -0.003889 -0.000225 -0.006045 0.036518
#
#
# Mechanical properties :
#
#
# Convention : Reuss Voigt Hill
#
# Bulk Modulus (GPa) = 37.40845 49.09247 43.25046
# Shear Modulus (GPa) = 28.85152 33.16869 31.01011
#
# Velocity S-wave (km/s) = 3.51809 3.77213 3.64733
# Velocity P-wave (km/s) = 5.70530 6.32709 6.02423
#
# Compressibility (1/GPa) = 0.02673193
#
# Stress axis : x y z
#
# Youngs Moduli (GPa) = 57.96493 66.95716 102.06647
#
# Poissons Ratio (x) = -0.11093 0.40658
# Poissons Ratio (y) = -0.09603 0.54089
# Poissons Ratio (z) = 0.23090 0.35483
#
# Static dielectric constant tensor:
#      x y z
#    x 1.999650 -0.047080 0.055470 
#    y -0.047080 1.888370 -0.025840 
#    z 0.055470 -0.025840 1.864850 
# 
# From -- ./inp_files/53021.got.cif
#   From: 2010.05.17/outbox.cif.g08.bks.cpg/sg2_27_cif.got.tgz:53021.got - 2010.06.03 11:33:40.
