data_PCOD9104376
_publ_section_title
;
Structure prediction by ZEFSAII (Michael W. Deem and Ramdas Pophale) SiO2 
 PCOD9104376
Probable space group: P -1
;
_chemical_formula_sum "Si O2"
_cell_formula_units_Z 12
_cell_length_a 8.251339
_cell_length_b 11.104233
_cell_length_c 20.523668
_cell_angle_alpha 149.180003
_cell_angle_beta 140.612242
_cell_angle_gamma 60.797334
_cell_volume 514.251781
_symmetry_space_group_name_H-M "P -1"
_symmetry_group_IT_number 2
_symmetry_cell_setting 'triclinic'
loop_
_space_group_symop_operation_xyz
x,y,z
-x,-y,-z
loop_
_atom_site_type_symbol
_atom_site_label
_atom_site_fract_x
_atom_site_fract_y
_atom_site_fract_z
Si Si1 0.199397 0.328549 0.049969
Si Si2 0.129814 0.715725 0.881928
Si Si3 0.149075 0.376363 0.909423
Si Si4 0.808402 0.780541 0.282619
Si Si5 0.526417 0.653234 0.729341
Si Si6 0.819722 0.690639 0.651910
O O1 0.225755 0.304332 0.969725
O O2 0.465779 0.395361 0.213908
O O3 0.931845 0.014524 0.840655
O O4 0.113345 0.559648 0.137429
O O5 0.188472 0.493683 0.826497
O O6 0.829541 0.668710 0.803300
O O7 0.050631 0.662331 0.755752
O O8 0.398074 0.038692 0.120012
O O9 0.081664 0.159857 0.730178
O O10 0.456013 0.673561 0.125442
O O11 0.000000 0.000000 0.500000
O O12 0.239989 0.421279 0.491950
O O13 0.500000 0.500000 0.500000
#
# Coordination Sequence:
#
# PCOD9104376 Si02
#       6
#     2   2   2   2   2   2
#     4  10  20  39  60  90 119 148 202 242 295 335
#     4   9  18  34  54  87 113 146 200 238 289 338
#     4  10  24  39  58  85 124 161 188 244 287 356
#     4  11  24  39  59  85 121 163 195 230 296 360
#     4   9  17  33  60  85 113 146 192 252 285 329
#     4   9  19  30  60  90 112 146 193 250 285 337
#
# _framework density 23.334873999999999
#
# number of rings (size 3 to 8) (size 9 to 14) (size 15 to 20)
#    0.000    2.333    1.667    1.000    4.667    2.667 
#    0.000    6.667    0.000    6.000    0.000    0.000 
#    0.000    0.000    0.000    0.000    0.000    0.000 
#
# Total GULP energy -67012.948085 kJ/mol
# GULP energy per Si atom -5584.412340 kJ/mol
# Density = 2.328176 g / cm^3
# Si number density = 23.334874 Si / 1000 Ang^3
#
#
#
# Elastic Constant Matrix: (Units=GPa)
#
#
# Indices 1 2 3 4 5 6 
#
# 1 79.1066 20.2555 17.7523 -10.4249 -29.4234 21.6214
# 2 20.2555 88.0277 14.5037 -11.5308 -25.4977 23.1525
# 3 17.7523 14.5037 111.5777 -25.9821 -41.6774 16.6965
# 4 -10.4249 -11.5308 -25.9821 21.6950 18.6892 -13.4057
# 5 -29.4234 -25.4977 -41.6774 18.6892 32.7594 -14.7201
# 6 21.6214 23.1525 16.6965 -13.4057 -14.7201 35.1862
#
#
#
# Elastic Compliance Matrix: (Units=1/GPa)
#
#
# Indices 1 2 3 4 5 6 
#
# 1 0.028338 0.007358 0.010409 -0.022905 0.050920 -0.014618
# 2 0.007358 0.019600 0.007549 -0.013549 0.033795 -0.012024
# 3 0.010409 0.007549 0.022463 -0.006130 0.044771 -0.005628
# 4 -0.022905 -0.013549 -0.006130 0.121354 -0.093269 0.033114
# 5 0.050920 0.033795 0.044771 -0.093269 0.200940 -0.026243
# 6 -0.014618 -0.012024 -0.005628 0.033114 -0.026243 0.049623
#
#
# Mechanical properties :
#
#
# Convention : Reuss Voigt Hill
#
# Bulk Modulus (GPa) = 8.26222 42.63722 25.44972
# Shear Modulus (GPa) = 11.57328 33.00816 22.29072
#
# Velocity S-wave (km/s) = 2.22944 3.76512 3.09407
# Velocity P-wave (km/s) = 3.18993 6.10025 4.86768
#
# Compressibility (1/GPa) = 0.12103291
#
# Stress axis : x y z
#
# Youngs Moduli (GPa) = 35.28864 51.02104 44.51786
#
# Poissons Ratio (x) = -0.37542 -0.46338
# Poissons Ratio (y) = -0.25966 -0.33608
# Poissons Ratio (z) = -0.36732 -0.38517
#
# Static dielectric constant tensor:
#      x y z
#    x 1.990330 0.043680 -0.039090 
#    y 0.043680 1.891390 -0.036590 
#    z -0.039090 -0.036590 1.850670 
# 
# From -- ./inp_files/247443.got.cif
#   From: 2010.05.17/outbox.cif.g08.bks.cpg/sg2_124_cif.got.tgz:247443.got - 2010.06.03 11:33:40.
