data_PCOD9104230
_publ_section_title
;
Structure prediction by ZEFSAII (Michael W. Deem and Ramdas Pophale) SiO2 
 PCOD9104230
Probable space group: P -1
;
_chemical_formula_sum "Si O2"
_cell_formula_units_Z 14
_cell_length_a 13.582398
_cell_length_b 11.759197
_cell_length_c 8.766511
_cell_angle_alpha 128.061170
_cell_angle_beta 42.710631
_cell_angle_gamma 125.971315
_cell_volume 723.713554
_symmetry_space_group_name_H-M "P -1"
_symmetry_group_IT_number 2
_symmetry_cell_setting 'triclinic'
loop_
_space_group_symop_operation_xyz
x,y,z
-x,-y,-z
loop_
_atom_site_type_symbol
_atom_site_label
_atom_site_fract_x
_atom_site_fract_y
_atom_site_fract_z
Si Si1 0.161224 0.300016 0.930501
Si Si2 0.583758 0.852581 0.391543
Si Si3 0.893868 0.421945 0.921233
Si Si4 0.962796 0.020744 0.735329
Si Si5 0.976614 0.272034 0.426404
Si Si6 0.284211 0.827227 0.868384
Si Si7 0.694311 0.198696 0.502930
O O1 0.308479 0.246564 0.761724
O O2 0.061144 0.172050 0.827791
O O3 0.190165 0.458531 0.946800
O O4 0.075141 0.313745 0.197687
O O5 0.462907 0.865731 0.671965
O O6 0.475328 0.788273 0.317645
O O7 0.675082 0.019866 0.386031
O O8 0.997379 0.378065 0.635907
O O9 0.781416 0.274911 0.998746
O O10 0.000000 0.500000 0.000000
O O11 0.791893 0.035069 0.937045
O O12 0.000000 0.000000 0.500000
O O13 0.995701 0.885142 0.681206
O O14 0.805050 0.263398 0.564813
O O15 0.232033 0.743876 0.696729
#
# Coordination Sequence:
#
# PCOD9104230 Si02
#       7
#     2   2   2   2   2   2   2
#     4  12  22  39  64  91 118 167 204 240 301 369
#     4   9  20  37  65  89 123 154 200 253 303 353
#     4  12  24  41  60  89 129 160 199 253 304 356
#     4  12  21  37  62  94 119 152 205 256 298 345
#     4  12  22  38  67  92 116 158 211 252 295 355
#     4  10  20  39  59  86 130 157 189 255 302 350
#     4   9  18  38  62  89 118 153 199 252 299 341
#
# _framework density 19.344670000000001
#
# number of rings (size 3 to 8) (size 9 to 14) (size 15 to 20)
#    0.857    0.286    5.714    1.714    0.000    0.571 
#    0.000    3.571    3.143    0.000    0.000    0.000 
#    0.000    0.000    0.000    0.000    0.000    0.000 
#
# Total GULP energy -77984.288674 kJ/mol
# GULP energy per Si atom -5570.306334 kJ/mol
# Density = 1.930064 g / cm^3
# Si number density = 19.344670 Si / 1000 Ang^3
#
#
#
# Elastic Constant Matrix: (Units=GPa)
#
#
# Indices 1 2 3 4 5 6 
#
# 1 99.2046 28.0190 49.0173 2.7226 -11.6223 -14.6732
# 2 28.0190 54.7967 26.5268 1.0138 -5.9335 -25.8931
# 3 49.0173 26.5268 103.1079 -2.1846 2.5990 3.3055
# 4 2.7226 1.0138 -2.1846 27.0049 -9.2826 -0.8263
# 5 -11.6223 -5.9335 2.5990 -9.2826 44.8636 5.5742
# 6 -14.6732 -25.8931 3.3055 -0.8263 5.5742 30.0642
#
#
#
# Elastic Compliance Matrix: (Units=1/GPa)
#
#
# Indices 1 2 3 4 5 6 
#
# 1 0.015435 -0.000318 -0.007595 -0.000794 0.003305 0.007460
# 2 -0.000318 0.041638 -0.011792 -0.000894 0.001360 0.036726
# 3 -0.007595 -0.011792 0.016919 0.001305 -0.002342 -0.015253
# 4 -0.000794 -0.000894 0.001305 0.039976 0.008083 -0.001701
# 5 0.003305 0.001360 -0.002342 0.008083 0.025312 -0.001429
# 6 0.007460 0.036726 -0.015253 -0.001701 -0.001429 0.070429
#
#
# Mechanical properties :
#
#
# Convention : Reuss Voigt Hill
#
# Bulk Modulus (GPa) = 28.91685 51.58171 40.24928
# Shear Modulus (GPa) = 19.18312 30.62296 24.90304
#
# Velocity S-wave (km/s) = 3.15246 3.98303 3.59184
# Velocity P-wave (km/s) = 5.31332 6.91919 6.16873
#
# Compressibility (1/GPa) = 0.03458192
#
# Stress axis : x y z
#
# Youngs Moduli (GPa) = 64.78646 24.01657 59.10574
#
# Poissons Ratio (x) = 0.00763 0.44894
# Poissons Ratio (y) = 0.02059 0.69696
# Poissons Ratio (z) = 0.49208 0.28320
#
# Static dielectric constant tensor:
#      x y z
#    x 1.697020 0.000880 0.007080 
#    y 0.000880 1.687270 -0.017700 
#    z 0.007080 -0.017700 1.686900 
# 
# From -- ./inp_files/268527.got.cif
#   From: 2010.05.17/outbox.cif.g08.bks.cpg/sg2_135_cif.got.tgz:268527.got - 2010.06.03 11:33:40.
