data_PCOD9104106
_publ_section_title
;
Structure prediction by ZEFSAII (Michael W. Deem and Ramdas Pophale) SiO2 
 PCOD9104106
Probable space group: P -1
;
_chemical_formula_sum "Si O2"
_cell_formula_units_Z 16
_cell_length_a 12.184608
_cell_length_b 9.004584
_cell_length_c 13.310001
_cell_angle_alpha 107.946217
_cell_angle_beta 125.503741
_cell_angle_gamma 37.001238
_cell_volume 678.393928
_symmetry_space_group_name_H-M "P -1"
_symmetry_group_IT_number 2
_symmetry_cell_setting 'triclinic'
loop_
_space_group_symop_operation_xyz
x,y,z
-x,-y,-z
loop_
_atom_site_type_symbol
_atom_site_label
_atom_site_fract_x
_atom_site_fract_y
_atom_site_fract_z
Si Si1 0.109233 0.664796 0.544886
Si Si2 0.788790 0.132449 0.059894
Si Si3 0.831576 0.700033 0.859052
Si Si4 0.480284 0.833961 0.798402
Si Si5 0.315747 0.738562 0.530721
Si Si6 0.117806 0.707965 0.026836
Si Si7 0.057298 0.401684 0.722415
Si Si8 0.330784 0.447147 0.815639
O O1 0.198100 0.701587 0.515323
O O2 0.304868 0.449843 0.683664
O O3 0.036960 0.576860 0.428054
O O4 0.892904 0.949601 0.543314
O O5 0.748465 0.299802 0.156082
O O6 0.804959 0.220770 0.984532
O O7 0.574395 0.220885 0.950936
O O8 0.033524 0.827430 0.120040
O O9 0.585117 0.880930 0.801440
O O10 0.887970 0.557884 0.757317
O O11 0.000000 0.500000 0.000000
O O12 0.900750 0.813474 0.895407
O O13 0.434923 0.732859 0.678702
O O14 0.672375 0.600490 0.925945
O O15 0.258818 0.095278 0.789963
O O16 0.500000 0.500000 0.500000
O O17 0.165468 0.472201 0.780247
#
# Coordination Sequence:
#
# PCOD9104106 Si02
#       8
#     2   2   2   2   2   2   2   2
#     4  10  23  40  64  93 122 165 206 248 308 367
#     4  10  22  38  62  86 125 157 209 256 301 365
#     4  10  21  38  59  91 122 164 202 249 311 359
#     4  10  22  37  62  92 120 159 204 251 314 358
#     4  10  21  40  62  91 123 156 207 254 298 364
#     4  10  20  39  57  89 120 160 201 256 307 363
#     4  11  22  42  62  90 131 158 206 259 297 376
#     4  11  22  41  61  90 122 169 203 249 313 360
#
# _framework density 23.585118000000001
#
# number of rings (size 3 to 8) (size 9 to 14) (size 15 to 20)
#    0.000    1.750    1.250    2.625    1.750    2.000 
#   13.500    0.000    0.000    5.250    0.000    0.000 
#    0.000    0.000    0.000    0.000    0.000    0.000 
#
# Total GULP energy -89297.144403 kJ/mol
# GULP energy per Si atom -5581.071525 kJ/mol
# Density = 2.353144 g / cm^3
# Si number density = 23.585118 Si / 1000 Ang^3
#
#
#
# Elastic Constant Matrix: (Units=GPa)
#
#
# Indices 1 2 3 4 5 6 
#
# 1 74.3292 8.9323 17.4945 12.1394 19.4725 0.3615
# 2 8.9323 76.9368 12.3211 17.7603 -2.5044 -17.3803
# 3 17.4945 12.3211 93.1329 12.1156 17.1154 7.0731
# 4 12.1394 17.7603 12.1156 30.0781 6.8979 5.1242
# 5 19.4725 -2.5044 17.1154 6.8979 35.5526 8.1957
# 6 0.3615 -17.3803 7.0731 5.1242 8.1957 36.5229
#
#
#
# Elastic Compliance Matrix: (Units=1/GPa)
#
#
# Indices 1 2 3 4 5 6 
#
# 1 0.016668 -0.000459 -0.001141 -0.004495 -0.008276 0.002325
# 2 -0.000459 0.018682 -0.002034 -0.012391 0.002540 0.010457
# 3 -0.001141 -0.002034 0.012490 -0.001946 -0.004680 -0.002052
# 4 -0.004495 -0.012391 -0.001946 0.045924 -0.003835 -0.011058
# 5 -0.008276 0.002540 -0.004680 -0.003835 0.037127 -0.005596
# 6 0.002325 0.010457 -0.002052 -0.011058 -0.005596 0.035538
#
#
# Mechanical properties :
#
#
# Convention : Reuss Voigt Hill
#
# Bulk Modulus (GPa) = 24.64801 35.76608 30.20705
# Shear Modulus (GPa) = 26.70618 34.14078 30.42348
#
# Velocity S-wave (km/s) = 3.36866 3.80880 3.59548
# Velocity P-wave (km/s) = 5.06003 5.87710 5.48380
#
# Compressibility (1/GPa) = 0.04057122
#
# Stress axis : x y z
#
# Youngs Moduli (GPa) = 59.99371 53.52728 80.06381
#
# Poissons Ratio (x) = 0.02456 0.09137
# Poissons Ratio (y) = 0.02753 0.16289
# Poissons Ratio (z) = 0.06847 0.10890
#
# Static dielectric constant tensor:
#      x y z
#    x 1.890270 0.038120 -0.005560 
#    y 0.038120 2.090120 0.005420 
#    z -0.005560 0.005420 1.910860 
# 
# From -- ./inp_files/515970.got.cif
#   From: 2010.05.17/outbox.cif.g08.bks.cpg/sg2_258_cif.got.tgz:515970.got - 2010.06.03 11:33:40.
