data_PCOD9104709
_publ_section_title
;
Structure prediction by ZEFSAII (Michael W. Deem and Ramdas Pophale) SiO2 
 PCOD9104709
Probable space group: P -1
;
_chemical_formula_sum "Si O2"
_cell_formula_units_Z 16
_cell_length_a 17.629454
_cell_length_b 11.520128
_cell_length_c 11.530552
_cell_angle_alpha 136.504709
_cell_angle_beta 127.855381
_cell_angle_gamma 30.337738
_cell_volume 813.612353
_symmetry_space_group_name_H-M "P -1"
_symmetry_group_IT_number 2
_symmetry_cell_setting 'triclinic'
loop_
_space_group_symop_operation_xyz
x,y,z
-x,-y,-z
loop_
_atom_site_type_symbol
_atom_site_label
_atom_site_fract_x
_atom_site_fract_y
_atom_site_fract_z
Si Si1 0.314114 0.726885 0.806554
Si Si2 0.787606 0.200336 0.996478
Si Si3 0.824638 0.759180 0.055985
Si Si4 0.851825 0.827706 0.399289
Si Si5 0.623839 0.356615 0.711432
Si Si6 0.102486 0.604821 0.834968
Si Si7 0.976095 0.074391 0.396874
Si Si8 0.250147 0.490300 0.127983
O O1 0.327733 0.682327 0.924377
O O2 0.463740 0.509624 0.714657
O O3 0.187530 0.766418 0.676020
O O4 0.248582 0.001068 0.918946
O O5 0.845468 0.316062 0.144202
O O6 0.720536 0.257770 0.847918
O O7 0.934689 0.884376 0.917757
O O8 0.820146 0.831156 0.236737
O O9 0.741537 0.690584 0.920547
O O10 0.000000 0.500000 0.000000
O O11 0.890985 0.600795 0.336735
O O12 0.985654 0.784091 0.492805
O O13 0.711710 0.108360 0.532303
O O14 0.620002 0.544710 0.780132
O O15 0.214876 0.473792 0.953922
O O16 0.000000 0.000000 0.500000
O O17 0.101574 0.793625 0.245845
#
# Coordination Sequence:
#
# PCOD9104709 Si02
#       8
#     2   2   2   2   2   2   2   2
#     4  12  22  37  60  85 121 155 190 233 298 342
#     4  10  20  39  62  86 111 152 203 238 279 338
#     4  11  19  36  66  88 111 148 199 245 282 340
#     4  10  21  38  60  87 118 145 195 241 290 341
#     4  10  24  38  57  84 123 158 185 236 291 347
#     4   9  18  36  66  84 105 150 198 245 280 326
#     4  11  19  35  58  87 114 149 189 240 285 341
#     4   9  18  37  58  86 112 144 196 237 284 338
#
# _framework density 19.665385000000001
#
# number of rings (size 3 to 8) (size 9 to 14) (size 15 to 20)
#    0.000    1.750    3.750    1.125    1.750    1.500 
#    0.000    0.625   16.500    0.000    0.000    0.000 
#    0.000    0.000    0.000    0.000    0.000    0.000 
#
# Total GULP energy -89293.752716 kJ/mol
# GULP energy per Si atom -5580.859545 kJ/mol
# Density = 1.962063 g / cm^3
# Si number density = 19.665385 Si / 1000 Ang^3
#
#
#
# Elastic Constant Matrix: (Units=GPa)
#
#
# Indices 1 2 3 4 5 6 
#
# 1 145.4576 31.6178 68.2211 26.1913 8.4034 -12.9644
# 2 31.6178 20.1129 18.5245 10.0161 3.1406 -3.4506
# 3 68.2211 18.5245 97.4231 15.4907 11.8582 1.3308
# 4 26.1913 10.0161 15.4907 21.5122 10.4461 1.7497
# 5 8.4034 3.1406 11.8582 10.4461 42.9365 8.1160
# 6 -12.9644 -3.4506 1.3308 1.7497 8.1160 32.0720
#
#
#
# Elastic Compliance Matrix: (Units=1/GPa)
#
#
# Indices 1 2 3 4 5 6 
#
# 1 0.014472 -0.011714 -0.006795 -0.008133 0.000919 0.005083
# 2 -0.011714 0.084413 -0.004471 -0.023225 0.002003 0.005293
# 3 -0.006795 -0.004471 0.016179 0.000040 -0.002188 -0.003348
# 4 -0.008133 -0.023225 0.000040 0.074289 -0.013584 -0.006403
# 5 0.000919 0.002003 -0.002188 -0.013584 0.027941 -0.005652
# 6 0.005083 0.005293 -0.003348 -0.006403 -0.005652 0.035723
#
#
# Mechanical properties :
#
#
# Convention : Reuss Voigt Hill
#
# Bulk Modulus (GPa) = 14.47102 55.52451 34.99777
# Shear Modulus (GPa) = 15.52736 28.94613 22.23674
#
# Velocity S-wave (km/s) = 2.81299 3.84074 3.36632
# Velocity P-wave (km/s) = 4.23381 6.92563 5.73975
#
# Compressibility (1/GPa) = 0.06910361
#
# Stress axis : x y z
#
# Youngs Moduli (GPa) = 69.09687 11.84653 61.80899
#
# Poissons Ratio (x) = 0.13877 0.42001
# Poissons Ratio (y) = 0.80937 0.27638
# Poissons Ratio (z) = 0.46953 0.05297
#
# Static dielectric constant tensor:
#      x y z
#    x 1.746950 0.020330 0.002860 
#    y 0.020330 1.686540 -0.021120 
#    z 0.002860 -0.021120 1.707790 
# 
# From -- ./inp_files/176281.got.cif
#   From: 2010.05.17/outbox.cif.g08.bks.cpg/sg2_89_cif.got.tgz:176281.got - 2010.06.03 11:33:40.
