data_PCOD9104691
_publ_section_title
;
Structure prediction by ZEFSAII (Michael W. Deem and Ramdas Pophale) SiO2 
 PCOD9104691
Probable space group: P -1
;
_chemical_formula_sum "Si O2"
_cell_formula_units_Z 14
_cell_length_a 18.155845
_cell_length_b 8.218627
_cell_length_c 5.560539
_cell_angle_alpha 120.111909
_cell_angle_beta 110.294145
_cell_angle_gamma 67.371145
_cell_volume 650.085862
_symmetry_space_group_name_H-M "P -1"
_symmetry_group_IT_number 2
_symmetry_cell_setting 'triclinic'
loop_
_space_group_symop_operation_xyz
x,y,z
-x,-y,-z
loop_
_atom_site_type_symbol
_atom_site_label
_atom_site_fract_x
_atom_site_fract_y
_atom_site_fract_z
Si Si1 0.441946 0.744655 0.346378
Si Si2 0.322619 0.072549 0.693548
Si Si3 0.111410 0.768142 0.806481
Si Si4 0.935865 0.942556 0.630193
Si Si5 0.207609 0.019617 0.882957
Si Si6 0.539634 0.705942 0.933873
Si Si7 0.837635 0.687040 0.562509
O O1 0.491850 0.750507 0.658030
O O2 0.429288 0.527828 0.173947
O O3 0.360902 0.916071 0.417361
O O4 0.487226 0.770969 0.168235
O O5 0.239781 0.220454 0.622963
O O6 0.292971 0.964206 0.802707
O O7 0.388160 0.189371 0.915369
O O8 0.188669 0.856129 0.913849
O O9 0.135511 0.540780 0.618383
O O10 0.030751 0.859551 0.622419
O O11 0.080278 0.852523 0.096081
O O12 0.911579 0.784492 0.664497
O O13 0.867541 0.957838 0.366468
O O14 0.194858 0.227395 0.151586
#
# Coordination Sequence:
#
# PCOD9104691 Si02
#       7
#     2   2   2   2   2   2   2
#     4  10  23  43  67  97 124 164 218 259 314 384
#     4  11  24  39  62  86 129 159 196 258 317 376
#     4  10  20  39  62  84 121 162 209 257 308 374
#     4   9  20  39  60  85 119 162 208 261 306 366
#     4  10  23  37  56  92 121 160 207 250 320 371
#     4  10  23  42  68  97 122 167 215 261 315 379
#     4  10  23  37  57  92 121 162 205 253 317 376
#
# _framework density 21.535617999999999
#
# number of rings (size 3 to 8) (size 9 to 14) (size 15 to 20)
#    0.000    2.000    0.000    1.714    4.000    7.429 
#    2.571    0.000    0.000    0.000    0.000    0.000 
#    0.000    0.000    0.000    0.000    0.000    0.000 
#
# Total GULP energy -78120.804130 kJ/mol
# GULP energy per Si atom -5580.057438 kJ/mol
# Density = 2.148660 g / cm^3
# Si number density = 21.535618 Si / 1000 Ang^3
#
#
#
# Elastic Constant Matrix: (Units=GPa)
#
#
# Indices 1 2 3 4 5 6 
#
# 1 149.3317 17.8251 38.4931 23.2720 -4.6614 11.3378
# 2 17.8251 37.4837 30.0403 20.7843 0.7436 -4.8968
# 3 38.4931 30.0403 108.1227 26.7250 -5.8558 7.5569
# 4 23.2720 20.7843 26.7250 38.3494 2.0652 -5.8504
# 5 -4.6614 0.7436 -5.8558 2.0652 25.8663 0.6161
# 6 11.3378 -4.8968 7.5569 -5.8504 0.6161 14.3649
#
#
#
# Elastic Compliance Matrix: (Units=1/GPa)
#
#
# Indices 1 2 3 4 5 6 
#
# 1 0.008706 -0.002134 -0.000348 -0.005491 0.002222 -0.009748
# 2 -0.002134 0.045462 -0.009829 -0.013743 -0.003222 0.016894
# 3 -0.000348 -0.009829 0.015205 -0.007491 0.004601 -0.014324
# 4 -0.005491 -0.013743 -0.007491 0.045866 -0.006489 0.022548
# 5 0.002222 -0.003222 0.004601 -0.006489 0.040944 -0.009672
# 6 -0.009748 0.016894 -0.014324 0.022548 -0.009672 0.100200
#
#
# Mechanical properties :
#
#
# Convention : Reuss Voigt Hill
#
# Bulk Modulus (GPa) = 22.34598 51.96169 37.15384
# Shear Modulus (GPa) = 16.89627 29.62142 23.25884
#
# Velocity S-wave (km/s) = 2.80406 3.71275 3.28993
# Velocity P-wave (km/s) = 4.56974 6.52380 5.63216
#
# Compressibility (1/GPa) = 0.04475078
#
# Stress axis : x y z
#
# Youngs Moduli (GPa) = 114.86274 21.99633 65.76625
#
# Poissons Ratio (x) = 0.04695 0.02286
# Poissons Ratio (y) = 0.24516 0.64644
# Poissons Ratio (z) = 0.03993 0.21621
#
# Static dielectric constant tensor:
#      x y z
#    x 1.820520 0.054520 -0.066930 
#    y 0.054520 1.843150 -0.093310 
#    z -0.066930 -0.093310 1.823670 
# 
# From -- ./inp_files/43985.got.cif
#   From: 2010.05.17/outbox.cif.g08.bks.cpg/sg2_22_cif.got.tgz:43985.got - 2010.06.03 11:33:40.
