data_PCOD9104704
_publ_section_title
;
Structure prediction by ZEFSAII (Michael W. Deem and Ramdas Pophale) SiO2 
 PCOD9104704
Probable space group: P -1
;
_chemical_formula_sum "Si O2"
_cell_formula_units_Z 16
_cell_length_a 7.526902
_cell_length_b 11.280136
_cell_length_c 18.174567
_cell_angle_alpha 145.181844
_cell_angle_beta 74.116025
_cell_angle_gamma 116.443988
_cell_volume 776.032140
_symmetry_space_group_name_H-M "P -1"
_symmetry_group_IT_number 2
_symmetry_cell_setting 'triclinic'
loop_
_space_group_symop_operation_xyz
x,y,z
-x,-y,-z
loop_
_atom_site_type_symbol
_atom_site_label
_atom_site_fract_x
_atom_site_fract_y
_atom_site_fract_z
Si Si1 0.666909 0.752725 0.124857
Si Si2 0.437107 0.611197 0.830567
Si Si3 0.816492 0.957318 0.055086
Si Si4 0.680537 0.349457 0.298686
Si Si5 0.806880 0.459782 0.049252
Si Si6 0.399452 0.985799 0.246617
Si Si7 0.881850 0.881726 0.556294
Si Si8 0.669329 0.899048 0.434210
O O1 0.798188 0.842383 0.080444
O O2 0.770417 0.682321 0.144316
O O3 0.556554 0.918358 0.242199
O O4 0.500000 0.500000 0.000000
O O5 0.429988 0.672890 0.778509
O O6 0.225974 0.572676 0.876431
O O7 0.443569 0.365927 0.707606
O O8 0.619323 0.794089 0.948474
O O9 0.810728 0.199433 0.197306
O O10 0.000000 0.000000 0.000000
O O11 0.801986 0.611019 0.437018
O O12 0.520795 0.223807 0.315590
O O13 0.658985 0.213962 0.908807
O O14 0.000000 0.500000 0.000000
O O15 0.207100 0.997352 0.312910
O O16 0.768932 0.911162 0.509983
O O17 0.123016 0.978111 0.572140
O O18 0.500000 0.000000 0.500000
#
# Coordination Sequence:
#
# PCOD9104704 Si02
#       8
#     2   2   2   2   2   2   2   2
#     4   9  19  38  54  88 119 157 203 242 308 357
#     4  11  22  40  59  91 124 156 203 254 312 359
#     4  11  23  36  62  90 123 163 197 256 312 368
#     4  10  22  40  62  87 121 164 201 249 311 372
#     4  11  22  34  60  92 119 157 203 257 309 361
#     4  10  20  39  62  85 120 161 202 251 304 372
#     4  10  22  42  63  89 120 166 210 245 312 370
#     4  10  24  40  63  92 122 162 204 260 302 366
#
# _framework density 20.617701
#
# number of rings (size 3 to 8) (size 9 to 14) (size 15 to 20)
#    0.000    1.750    3.750    1.500    5.250    0.000 
#    2.250    0.000    0.000    2.250    0.000    0.000 
#    0.000    0.000    0.000    0.000    0.000    0.000 
#
# Total GULP energy -89112.097343 kJ/mol
# GULP energy per Si atom -5569.506084 kJ/mol
# Density = 2.057077 g / cm^3
# Si number density = 20.617701 Si / 1000 Ang^3
#
#
#
# Elastic Constant Matrix: (Units=GPa)
#
#
# Indices 1 2 3 4 5 6 
#
# 1 70.9471 45.3495 35.8175 7.0931 -17.3063 22.3713
# 2 45.3495 107.8105 44.1319 13.9542 -20.3622 20.6207
# 3 35.8175 44.1319 108.1288 7.6376 -19.2967 2.6570
# 4 7.0931 13.9542 7.6376 30.2730 4.5792 -9.6396
# 5 -17.3063 -20.3622 -19.2967 4.5792 28.7733 -5.2746
# 6 22.3713 20.6207 2.6570 -9.6396 -5.2746 32.7403
#
#
#
# Elastic Compliance Matrix: (Units=1/GPa)
#
#
# Indices 1 2 3 4 5 6 
#
# 1 0.027816 -0.002725 -0.005093 -0.011397 0.009780 -0.018657
# 2 -0.002725 0.016601 -0.003534 -0.010507 0.007544 -0.010185
# 3 -0.005093 -0.003534 0.012903 0.000720 0.003985 0.005513
# 4 -0.011397 -0.010507 0.000720 0.051467 -0.017095 0.026745
# 5 0.009780 0.007544 0.003985 -0.017095 0.049760 -0.008774
# 6 -0.018657 -0.010185 0.005513 0.026745 -0.008774 0.055720
#
#
# Mechanical properties :
#
#
# Convention : Reuss Voigt Hill
#
# Bulk Modulus (GPa) = 28.88893 59.72047 44.30470
# Shear Modulus (GPa) = 20.11990 29.12982 24.62486
#
# Velocity S-wave (km/s) = 3.12726 3.76287 3.45969
# Velocity P-wave (km/s) = 5.20402 6.92152 6.12329
#
# Compressibility (1/GPa) = 0.03461533
#
# Stress axis : x y z
#
# Youngs Moduli (GPa) = 35.95032 60.23585 77.50388
#
# Poissons Ratio (x) = 0.16414 0.39473
# Poissons Ratio (y) = 0.09797 0.27393
# Poissons Ratio (z) = 0.18310 0.21289
#
# Static dielectric constant tensor:
#      x y z
#    x 1.730430 -0.299150 0.069930 
#    y -0.299150 1.020060 0.090810 
#    z 0.069930 0.090810 1.711250 
# 
# From -- ./inp_files/589207.got.cif
#   From: 2010.05.17/outbox.cif.g08.bks.cpg/sg2_295_cif.got.tgz:589207.got - 2010.06.03 11:33:40.
