data_PCOD9104621
_publ_section_title
;
Structure prediction by ZEFSAII (Michael W. Deem and Ramdas Pophale) SiO2 
 PCOD9104621
Probable space group: P -1
;
_chemical_formula_sum "Si O2"
_cell_formula_units_Z 14
_cell_length_a 24.649962
_cell_length_b 11.805358
_cell_length_c 8.880072
_cell_angle_alpha 135.665843
_cell_angle_beta 149.278466
_cell_angle_gamma 30.883121
_cell_volume 675.112315
_symmetry_space_group_name_H-M "P -1"
_symmetry_group_IT_number 2
_symmetry_cell_setting 'triclinic'
loop_
_space_group_symop_operation_xyz
x,y,z
-x,-y,-z
loop_
_atom_site_type_symbol
_atom_site_label
_atom_site_fract_x
_atom_site_fract_y
_atom_site_fract_z
Si Si1 0.284224 0.138210 0.054394
Si Si2 0.984898 0.573482 0.859823
Si Si3 0.656569 0.301539 0.260895
Si Si4 0.102321 0.771507 0.434994
Si Si5 0.581480 0.537356 0.619208
Si Si6 0.734591 0.599663 0.268245
Si Si7 0.466306 0.973492 0.636095
O O1 0.375191 0.152561 0.170114
O O2 0.355383 0.095345 0.347527
O O3 0.118037 0.360557 0.882060
O O4 0.311214 0.922943 0.877214
O O5 0.837775 0.644557 0.519434
O O6 0.005432 0.744889 0.083047
O O7 0.000000 0.500000 0.000000
O O8 0.782492 0.258421 0.425044
O O9 0.644934 0.381417 0.477475
O O10 0.500000 0.500000 0.000000
O O11 0.193453 0.573936 0.587584
O O12 0.000000 0.000000 0.500000
O O13 0.500000 0.500000 0.500000
O O14 0.468964 0.791727 0.536279
O O15 0.703584 0.508624 0.974270
O O16 0.584742 0.834831 0.190034
#
# Coordination Sequence:
#
# PCOD9104621 Si02
#       7
#     2   2   2   2   2   2   2
#     4  11  21  39  67  98 123 170 231 274 319 390
#     4  10  20  39  61  91 131 168 220 262 321 402
#     4  12  23  39  66  97 131 171 225 280 325 385
#     4  11  23  41  68 101 130 174 227 279 327 388
#     4  12  26  42  64 103 141 173 218 281 343 387
#     4  11  24  42  65  97 135 178 221 266 339 402
#     4  11  22  40  68  93 131 171 224 273 326 397
#
# _framework density 20.737289000000001
#
# number of rings (size 3 to 8) (size 9 to 14) (size 15 to 20)
#    0.000    0.857    4.286    5.571    0.000    0.000 
#    0.000    5.714    0.000    1.714    0.000    0.000 
#    0.000    0.000    0.000    0.000    0.000    0.000 
#
# Total GULP energy -78315.772593 kJ/mol
# GULP energy per Si atom -5593.983757 kJ/mol
# Density = 2.069009 g / cm^3
# Si number density = 20.737289 Si / 1000 Ang^3
#
#
#
# Elastic Constant Matrix: (Units=GPa)
#
#
# Indices 1 2 3 4 5 6 
#
# 1 125.9511 55.4575 55.5427 9.6863 19.7453 -17.7023
# 2 55.4575 105.3942 15.5617 30.9246 1.3996 -18.3165
# 3 55.5427 15.5617 129.0533 26.6019 -0.1552 -18.4362
# 4 9.6863 30.9246 26.6019 39.2956 -6.7349 0.1159
# 5 19.7453 1.3996 -0.1552 -6.7349 35.3850 7.4666
# 6 -17.7023 -18.3165 -18.4362 0.1159 7.4666 36.5438
#
#
#
# Elastic Compliance Matrix: (Units=1/GPa)
#
#
# Indices 1 2 3 4 5 6 
#
# 1 0.015693 -0.008816 -0.006846 0.006419 -0.007477 0.001236
# 2 -0.008816 0.020239 0.006505 -0.018419 -0.001361 0.009492
# 3 -0.006846 0.006505 0.013489 -0.012621 -0.000222 0.006834
# 4 0.006419 -0.018419 -0.012621 0.048560 0.009407 -0.014566
# 5 -0.007477 -0.001361 -0.000222 0.009407 0.036801 -0.011965
# 6 0.001236 0.009492 0.006834 -0.014566 -0.011965 0.038660
#
#
# Mechanical properties :
#
#
# Convention : Reuss Voigt Hill
#
# Bulk Modulus (GPa) = 32.14902 68.16914 50.15908
# Shear Modulus (GPa) = 24.73720 37.83402 31.28561
#
# Velocity S-wave (km/s) = 3.45756 4.27598 3.88837
# Velocity P-wave (km/s) = 5.61038 7.57118 6.66330
#
# Compressibility (1/GPa) = 0.03110514
#
# Stress axis : x y z
#
# Youngs Moduli (GPa) = 63.72340 49.41029 74.13653
#
# Poissons Ratio (x) = 0.43559 0.50757
# Poissons Ratio (y) = 0.56178 -0.48225
# Poissons Ratio (z) = 0.43628 -0.32141
#
# Static dielectric constant tensor:
#      x y z
#    x 1.799650 0.014050 -0.031630 
#    y 0.014050 1.723670 -0.004600 
#    z -0.031630 -0.004600 1.774140 
# 
# From -- ./inp_files/177724.got.cif
#   From: 2010.05.17/outbox.cif.g08.bks.cpg/sg2_89_cif.got.tgz:177724.got - 2010.06.03 11:33:40.
