data_PCOD9104663
_publ_section_title
;
Structure prediction by ZEFSAII (Michael W. Deem and Ramdas Pophale) SiO2 
 PCOD9104663
Probable space group: P -1
;
_chemical_formula_sum "Si O2"
_cell_formula_units_Z 14
_cell_length_a 11.207783
_cell_length_b 5.368972
_cell_length_c 10.751482
_cell_angle_alpha 93.119671
_cell_angle_beta 56.398743
_cell_angle_gamma 97.021098
_cell_volume 534.751804
_symmetry_space_group_name_H-M "P -1"
_symmetry_group_IT_number 2
_symmetry_cell_setting 'triclinic'
loop_
_space_group_symop_operation_xyz
x,y,z
-x,-y,-z
loop_
_atom_site_type_symbol
_atom_site_label
_atom_site_fract_x
_atom_site_fract_y
_atom_site_fract_z
Si Si1 0.762576 0.166016 0.142675
Si Si2 0.735747 0.143393 0.864194
Si Si3 0.222220 0.310972 0.726598
Si Si4 0.803933 0.459156 0.508654
Si Si5 0.924713 0.798661 0.678191
Si Si6 0.334842 0.359399 0.042454
Si Si7 0.520789 0.780946 0.296687
O O1 0.830160 0.944112 0.174015
O O2 0.588850 0.073067 0.254629
O O3 0.810604 0.435850 0.178425
O O4 0.782111 0.168821 0.982998
O O5 0.644081 0.371192 0.899834
O O6 0.876041 0.079675 0.705066
O O7 0.636548 0.880109 0.899413
O O8 0.183652 0.349007 0.608477
O O9 0.395109 0.306108 0.635027
O O10 0.850203 0.623976 0.607271
O O11 0.645975 0.307131 0.606563
O O12 0.912938 0.253015 0.414734
O O13 0.841415 0.691302 0.848885
O O14 0.401204 0.341445 0.868978
#
# Coordination Sequence:
#
# PCOD9104663 Si02
#       7
#     2   2   2   2   2   2   2
#     4   9  18  38  66  94 124 148 212 258 320 347
#     4   9  16  40  65  88 118 164 203 267 291 371
#     4  10  20  39  61  97 125 162 196 266 310 378
#     4  11  22  44  58  98 129 172 203 249 318 374
#     4   9  23  42  64  87 132 172 207 251 300 386
#     4   9  18  39  68  84 124 154 219 252 308 347
#     4   9  20  37  68  94 124 156 210 266 311 363
#
# _framework density 26.180368999999999
#
# number of rings (size 3 to 8) (size 9 to 14) (size 15 to 20)
#    1.714    0.857    1.429    0.429    0.000    1.143 
#    5.143    5.714    0.000    0.000    0.000    0.000 
#    0.000    0.000    0.000    0.000    0.000    0.000 
#
# Total GULP energy -78099.601892 kJ/mol
# GULP energy per Si atom -5578.542992 kJ/mol
# Density = 2.612078 g / cm^3
# Si number density = 26.180369 Si / 1000 Ang^3
#
#
#
# Elastic Constant Matrix: (Units=GPa)
#
#
# Indices 1 2 3 4 5 6 
#
# 1 78.0717 16.7706 45.0713 5.1207 -3.3386 -5.4039
# 2 16.7706 130.3133 11.0010 0.7736 -1.9974 12.0822
# 3 45.0713 11.0010 88.3638 -3.4382 -4.5311 -1.1038
# 4 5.1207 0.7736 -3.4382 35.3921 -11.1753 9.8021
# 5 -3.3386 -1.9974 -4.5311 -11.1753 32.9283 -5.4908
# 6 -5.4039 12.0822 -1.1038 9.8021 -5.4908 13.4493
#
#
#
# Elastic Compliance Matrix: (Units=1/GPa)
#
#
# Indices 1 2 3 4 5 6 
#
# 1 0.021473 -0.003419 -0.010627 -0.008738 0.000439 0.017374
# 2 -0.003419 0.009191 0.000556 0.003619 -0.000561 -0.012451
# 3 -0.010627 0.000556 0.016914 0.005676 0.002099 -0.006661
# 4 -0.008738 0.003619 0.005676 0.041999 0.008815 -0.033308
# 5 0.000439 -0.000561 0.002099 0.008815 0.035122 0.008767
# 6 0.017374 -0.012451 -0.006661 -0.033308 0.008767 0.119828
#
#
# Mechanical properties :
#
#
# Convention : Reuss Voigt Hill
#
# Bulk Modulus (GPa) = 48.54915 49.15939 48.85427
# Shear Modulus (GPa) = 17.96156 31.28102 24.62129
#
# Velocity S-wave (km/s) = 2.62213 3.46038 3.07000
# Velocity P-wave (km/s) = 5.26800 5.89776 5.59175
#
# Compressibility (1/GPa) = 0.02059768
#
# Stress axis : x y z
#
# Youngs Moduli (GPa) = 46.57066 108.79968 59.12416
#
# Poissons Ratio (x) = 0.37193 0.62833
# Poissons Ratio (y) = 0.15920 -0.03287
# Poissons Ratio (z) = 0.49492 -0.06048
#
# Static dielectric constant tensor:
#      x y z
#    x 2.066320 0.016990 -0.059380 
#    y 0.016990 2.217710 -0.025120 
#    z -0.059380 -0.025120 2.077360 
# 
# From -- ./inp_files/409275.got.cif
#   From: 2010.05.17/outbox.cif.g08.bks.cpg/sg2_205_cif.got.tgz:409275.got - 2010.06.03 11:33:40.
