data_PCOD9104111
_publ_section_title
;
Structure prediction by ZEFSAII (Michael W. Deem and Ramdas Pophale) SiO2 
 PCOD9104111
Probable space group: P -1
;
_chemical_formula_sum "Si O2"
_cell_formula_units_Z 16
_cell_length_a 10.518852
_cell_length_b 11.388640
_cell_length_c 12.352998
_cell_angle_alpha 79.740596
_cell_angle_beta 35.932985
_cell_angle_gamma 57.320955
_cell_volume 622.341112
_symmetry_space_group_name_H-M "P -1"
_symmetry_group_IT_number 2
_symmetry_cell_setting 'triclinic'
loop_
_space_group_symop_operation_xyz
x,y,z
-x,-y,-z
loop_
_atom_site_type_symbol
_atom_site_label
_atom_site_fract_x
_atom_site_fract_y
_atom_site_fract_z
Si Si1 0.246127 0.535635 0.243128
Si Si2 0.660858 0.082787 0.215991
Si Si3 0.537544 0.598420 0.640811
Si Si4 0.632771 0.207136 0.605263
Si Si5 0.901083 0.167528 0.646730
Si Si6 0.006786 0.732117 0.740919
Si Si7 0.421245 0.223960 0.119673
Si Si8 0.864330 0.760611 0.075310
O O1 0.344414 0.469405 0.307910
O O2 0.022288 0.730560 0.376671
O O3 0.199098 0.423022 0.244854
O O4 0.500000 0.500000 0.000000
O O5 0.494124 0.245979 0.375643
O O6 0.543069 0.146380 0.165147
O O7 0.696841 0.927152 0.232142
O O8 0.000000 0.000000 0.000000
O O9 0.741174 0.459658 0.432719
O O10 0.215363 0.653673 0.860137
O O11 0.698194 0.253947 0.664007
O O12 0.818208 0.210098 0.389120
O O13 0.301295 0.302116 0.780462
O O14 0.802563 0.019351 0.543363
O O15 0.694696 0.169586 0.869630
O O16 0.761408 0.812748 0.802892
O O17 0.833618 0.782099 0.962966
#
# Coordination Sequence:
#
# PCOD9104111 Si02
#       8
#     2   2   2   2   2   2   2   2
#     4   9  19  39  65  91 123 162 210 266 311 369
#     4   9  21  40  64  91 122 167 214 256 312 376
#     4  10  22  42  64  93 125 167 218 258 311 378
#     4  11  24  37  62  92 130 160 208 252 316 376
#     4  10  20  39  57  94 125 154 207 264 299 377
#     4  12  24  40  64  99 128 164 214 257 314 380
#     4  10  21  37  67  90 125 164 205 261 322 358
#     4  11  24  43  65  90 132 173 201 262 321 369
#
# _framework density 25.709371999999998
#
# number of rings (size 3 to 8) (size 9 to 14) (size 15 to 20)
#    0.000    1.750    2.500    1.125    3.500    4.500 
#    0.000    1.250    0.000   32.250    0.000    0.000 
#    0.000    0.000    0.000    0.000    0.000    0.000 
#
# Total GULP energy -89458.662089 kJ/mol
# GULP energy per Si atom -5591.166381 kJ/mol
# Density = 2.565086 g / cm^3
# Si number density = 25.709372 Si / 1000 Ang^3
#
#
#
# Elastic Constant Matrix: (Units=GPa)
#
#
# Indices 1 2 3 4 5 6 
#
# 1 46.7926 8.9055 42.8541 -15.7214 -5.1087 14.0422
# 2 8.9055 74.2736 37.1235 16.2396 3.3867 28.0393
# 3 42.8541 37.1235 111.1118 -3.7071 -10.1072 12.5676
# 4 -15.7214 16.2396 -3.7071 51.3247 19.3144 6.5523
# 5 -5.1087 3.3867 -10.1072 19.3144 38.2091 -2.7286
# 6 14.0422 28.0393 12.5676 6.5523 -2.7286 32.1716
#
#
#
# Elastic Compliance Matrix: (Units=1/GPa)
#
#
# Indices 1 2 3 4 5 6 
#
# 1 0.052819 0.012099 -0.021419 0.018926 -0.011390 -0.030053
# 2 0.012099 0.027718 -0.011584 -0.000657 -0.005373 -0.025236
# 3 -0.021419 -0.011584 0.020089 -0.005966 0.007453 0.013444
# 4 0.018926 -0.000657 -0.005966 0.033052 -0.016661 -0.013502
# 5 -0.011390 -0.005373 0.007453 -0.016661 0.036463 0.013229
# 6 -0.030053 -0.025236 0.013444 -0.013502 0.013229 0.064815
#
#
# Mechanical properties :
#
#
# Convention : Reuss Voigt Hill
#
# Bulk Modulus (GPa) = 17.00131 45.54936 31.27533
# Shear Modulus (GPa) = 16.87076 33.89407 25.38241
#
# Velocity S-wave (km/s) = 2.56444 3.63485 3.14551
# Velocity P-wave (km/s) = 3.92374 5.94741 5.03822
#
# Compressibility (1/GPa) = 0.05881901
#
# Stress axis : x y z
#
# Youngs Moduli (GPa) = 18.93276 36.07704 49.77726
#
# Poissons Ratio (x) = -0.43650 1.06619
# Poissons Ratio (y) = -0.22907 0.57661
# Poissons Ratio (z) = 0.40552 0.41791
#
# Static dielectric constant tensor:
#      x y z
#    x 2.015810 0.021750 -0.024110 
#    y 0.021750 2.091410 0.068140 
#    z -0.024110 0.068140 2.016290 
# 
# From -- ./inp_files/519668.got.cif
#   From: 2010.05.17/outbox.cif.g08.bks.cpg/sg2_260_cif.got.tgz:519668.got - 2010.06.03 11:33:40.
