data_PCOD9104610
_publ_section_title
;
Structure prediction by ZEFSAII (Michael W. Deem and Ramdas Pophale) SiO2 
 PCOD9104610
Probable space group: P -1
;
_chemical_formula_sum "Si O2"
_cell_formula_units_Z 14
_cell_length_a 20.091906
_cell_length_b 11.119704
_cell_length_c 6.981686
_cell_angle_alpha 71.889158
_cell_angle_beta 58.073011
_cell_angle_gamma 32.946507
_cell_volume 689.481903
_symmetry_space_group_name_H-M "P -1"
_symmetry_group_IT_number 2
_symmetry_cell_setting 'triclinic'
loop_
_space_group_symop_operation_xyz
x,y,z
-x,-y,-z
loop_
_atom_site_type_symbol
_atom_site_label
_atom_site_fract_x
_atom_site_fract_y
_atom_site_fract_z
Si Si1 0.504843 0.999618 0.719756
Si Si2 0.959649 0.453087 0.421040
Si Si3 0.690985 0.356396 0.164390
Si Si4 0.291902 0.048692 0.583476
Si Si5 0.634014 0.273577 0.636554
Si Si6 0.232536 0.959595 0.053188
Si Si7 0.720656 0.600522 0.871945
O O1 0.500000 0.000000 0.500000
O O2 0.578730 0.035404 0.630518
O O3 0.608293 0.760060 0.785854
O O4 0.351980 0.211108 0.949967
O O5 0.849617 0.675263 0.339248
O O6 0.868359 0.462603 0.649363
O O7 0.000000 0.500000 0.500000
O O8 0.093155 0.215256 0.223706
O O9 0.678573 0.337781 0.416959
O O10 0.532735 0.532457 0.239449
O O11 0.729421 0.447719 0.014379
O O12 0.795197 0.119428 0.010247
O O13 0.282698 0.952304 0.486454
O O14 0.314457 0.951700 0.800932
O O15 0.676944 0.213129 0.820480
#
# Coordination Sequence:
#
# PCOD9104610 Si02
#       7
#     2   2   2   2   2   2   2
#     4  10  22  36  62  93 117 155 198 250 311 352
#     4  11  23  41  63  86 123 163 202 246 300 355
#     4  10  22  39  60  89 125 153 204 248 299 356
#     4  10  21  38  63  92 119 150 204 254 298 356
#     4  10  20  39  61  91 119 159 196 253 300 351
#     4  11  23  37  65  87 120 168 200 238 300 363
#     4  10  23  41  58  89 127 156 193 259 294 349
#
# _framework density 20.305101000000001
#
# number of rings (size 3 to 8) (size 9 to 14) (size 15 to 20)
#    0.000    1.714    2.857    0.857    4.000    1.714 
#    0.000    0.714    0.000    0.000    0.000    0.000 
#    0.000    0.000    0.000    0.000    0.000    0.000 
#
# Total GULP energy -78178.171504 kJ/mol
# GULP energy per Si atom -5584.155107 kJ/mol
# Density = 2.025889 g / cm^3
# Si number density = 20.305101 Si / 1000 Ang^3
#
#
#
# Elastic Constant Matrix: (Units=GPa)
#
#
# Indices 1 2 3 4 5 6 
#
# 1 34.8137 9.3060 23.7000 -15.1216 -10.5007 14.6500
# 2 9.3060 59.8242 29.8659 -3.5170 -3.2964 17.4873
# 3 23.7000 29.8659 110.3412 -23.6491 -0.2031 4.8014
# 4 -15.1216 -3.5170 -23.6491 53.0916 5.1493 0.1967
# 5 -10.5007 -3.2964 -0.2031 5.1493 37.7442 -11.2696
# 6 14.6500 17.4873 4.8014 0.1967 -11.2696 22.7343
#
#
#
# Elastic Compliance Matrix: (Units=1/GPa)
#
#
# Indices 1 2 3 4 5 6 
#
# 1 0.055736 0.008639 -0.010069 0.011823 0.002922 -0.039088
# 2 0.008639 0.026754 -0.007704 0.001216 -0.003276 -0.026154
# 3 -0.010069 -0.007704 0.013497 0.002705 -0.001082 0.009005
# 4 0.011823 0.001216 0.002705 0.023828 -0.003083 -0.010860
# 5 0.002922 -0.003276 -0.001082 -0.003083 0.032515 0.017010
# 6 -0.039088 -0.026154 0.009005 -0.010860 0.017010 0.095916
#
#
# Mechanical properties :
#
#
# Convention : Reuss Voigt Hill
#
# Bulk Modulus (GPa) = 12.86721 36.74697 24.80709
# Shear Modulus (GPa) = 17.09866 32.18783 24.64325
#
# Velocity S-wave (km/s) = 2.90502 3.98579 3.48752
# Velocity P-wave (km/s) = 4.19558 6.27046 5.33487
#
# Compressibility (1/GPa) = 0.07771695
#
# Stress axis : x y z
#
# Youngs Moduli (GPa) = 17.94185 37.37755 74.09098
#
# Poissons Ratio (x) = -0.32290 0.74605
# Poissons Ratio (y) = -0.15500 0.57083
# Poissons Ratio (z) = 0.18066 0.28797
#
# Static dielectric constant tensor:
#      x y z
#    x 1.705950 0.009970 0.014510 
#    y 0.009970 1.772260 0.002490 
#    z 0.014510 0.002490 1.709340 
# 
# From -- ./inp_files/65940.got.cif
#   From: 2010.05.17/outbox.cif.g08.bks.cpg/sg2_33_cif.got.tgz:65940.got - 2010.06.03 11:33:40.
