data_PCOD9104057
_publ_section_title
;
Structure prediction by ZEFSAII (Michael W. Deem and Ramdas Pophale) SiO2 
 PCOD9104057
Probable space group: P -1
;
_chemical_formula_sum "Si O2"
_cell_formula_units_Z 12
_cell_length_a 15.735882
_cell_length_b 16.303110
_cell_length_c 6.440465
_cell_angle_alpha 53.398108
_cell_angle_beta 58.966490
_cell_angle_gamma 19.619923
_cell_volume 438.828317
_symmetry_space_group_name_H-M "P -1"
_symmetry_group_IT_number 2
_symmetry_cell_setting 'triclinic'
loop_
_space_group_symop_operation_xyz
x,y,z
-x,-y,-z
loop_
_atom_site_type_symbol
_atom_site_label
_atom_site_fract_x
_atom_site_fract_y
_atom_site_fract_z
Si Si1 0.832918 0.116750 0.343838
Si Si2 0.460366 0.957709 0.429888
Si Si3 0.250908 0.623213 0.283899
Si Si4 0.795469 0.781561 0.044311
Si Si5 0.870253 0.374436 0.939797
Si Si6 0.583318 0.160017 0.981614
O O1 0.014219 0.864518 0.373089
O O2 0.861313 0.941098 0.922210
O O3 0.000000 0.000000 0.500000
O O4 0.779517 0.258145 0.030071
O O5 0.412255 0.901092 0.706149
O O6 0.500000 0.000000 0.500000
O O7 0.703967 0.760738 0.279802
O O8 0.221675 0.201430 0.206841
O O9 0.218570 0.551816 0.295782
O O10 0.544666 0.350513 0.405422
O O11 0.580460 0.071999 0.949360
O O12 0.657409 0.540732 0.120112
O O13 0.958214 0.402152 0.876568
#
# Coordination Sequence:
#
# PCOD9104057 Si02
#       6
#     2   2   2   2   2   2
#     4  10  21  40  65  88 114 157 193 227 289 352
#     4   9  16  38  57  79 109 153 194 235 274 336
#     4  10  21  39  61  87 124 148 190 245 279 345
#     4   8  19  35  56  80 110 148 193 236 280 329
#     4  10  20  39  55  83 119 145 182 239 288 324
#     4   9  20  36  55  79 113 146 189 230 284 330
#
# _framework density 27.345548000000001
#
# number of rings (size 3 to 8) (size 9 to 14) (size 15 to 20)
#    1.000    1.667    0.000    1.500    0.000    0.667 
#    9.000    4.167    0.000    0.000    0.000    0.000 
#    0.000    0.000    0.000    0.000    0.000    0.000 
#
# Total GULP energy -66963.042739 kJ/mol
# GULP energy per Si atom -5580.253562 kJ/mol
# Density = 2.728331 g / cm^3
# Si number density = 27.345548 Si / 1000 Ang^3
#
#
#
# Elastic Constant Matrix: (Units=GPa)
#
#
# Indices 1 2 3 4 5 6 
#
# 1 137.0053 64.6637 45.1734 7.4813 36.8793 -25.6779
# 2 64.6637 214.7334 45.1553 29.5875 20.1159 -16.9899
# 3 45.1734 45.1553 121.5480 -7.3791 16.7328 -6.3741
# 4 7.4813 29.5875 -7.3791 52.8174 -3.7093 2.9700
# 5 36.8793 20.1159 16.7328 -3.7093 49.0169 -3.0065
# 6 -25.6779 -16.9899 -6.3741 2.9700 -3.0065 41.3531
#
#
#
# Elastic Compliance Matrix: (Units=1/GPa)
#
#
# Indices 1 2 3 4 5 6 
#
# 1 0.012210 -0.001652 -0.002715 -0.002043 -0.007362 0.006096
# 2 -0.001652 0.006216 -0.001714 -0.003633 -0.000908 0.001459
# 3 -0.002715 -0.001714 0.010060 0.002773 -0.000544 -0.001078
# 4 -0.002043 -0.003633 0.002773 0.022099 0.003529 -0.003664
# 5 -0.007362 -0.000908 -0.000544 0.003529 0.026560 -0.003351
# 6 0.006096 0.001459 -0.001078 -0.003664 -0.003351 0.028420
#
#
# Mechanical properties :
#
#
# Convention : Reuss Voigt Hill
#
# Bulk Modulus (GPa) = 61.26423 87.03018 74.14720
# Shear Modulus (GPa) = 40.59474 49.85708 45.22591
#
# Velocity S-wave (km/s) = 3.85711 4.27456 4.07119
# Velocity P-wave (km/s) = 6.50298 7.50051 7.01949
#
# Compressibility (1/GPa) = 0.01632274
#
# Stress axis : x y z
#
# Youngs Moduli (GPa) = 81.90129 160.87162 99.40640
#
# Poissons Ratio (x) = 0.26584 0.26986
# Poissons Ratio (y) = 0.13534 0.17041
# Poissons Ratio (z) = 0.22234 0.27577
#
# Static dielectric constant tensor:
#      x y z
#    x 2.116810 0.004580 -0.004740 
#    y 0.004580 2.306500 -0.059830 
#    z -0.004740 -0.059830 2.179090 
# 
# From -- ./inp_files/111637.got.cif
#   From: 2010.05.17/outbox.cif.g08.bks.cpg/sg2_56_cif.got.tgz:111637.got - 2010.06.03 11:33:40.
