data_PCOD9104955
_publ_section_title
;
Structure prediction by ZEFSAII (Michael W. Deem and Ramdas Pophale) SiO2 
 PCOD9104955
Probable space group: P -1
;
_chemical_formula_sum "Si O2"
_cell_formula_units_Z 14
_cell_length_a 9.120064
_cell_length_b 10.143493
_cell_length_c 7.386387
_cell_angle_alpha 115.234480
_cell_angle_beta 61.214778
_cell_angle_gamma 105.793221
_cell_volume 539.792440
_symmetry_space_group_name_H-M "P -1"
_symmetry_group_IT_number 2
_symmetry_cell_setting 'triclinic'
loop_
_space_group_symop_operation_xyz
x,y,z
-x,-y,-z
loop_
_atom_site_type_symbol
_atom_site_label
_atom_site_fract_x
_atom_site_fract_y
_atom_site_fract_z
Si Si1 0.985446 0.869820 0.080446
Si Si2 0.006676 0.588084 0.355221
Si Si3 0.504710 0.885556 0.763941
Si Si4 0.627090 0.382751 0.800015
Si Si5 0.147649 0.116425 0.346734
Si Si6 0.253327 0.639896 0.700686
Si Si7 0.649900 0.864328 0.133309
O O1 0.790431 0.816722 0.159119
O O2 0.055542 0.956850 0.266825
O O3 0.104920 0.748228 0.878404
O O4 0.000000 0.000000 0.000000
O O5 0.974229 0.756307 0.494110
O O6 0.852132 0.514169 0.286359
O O7 0.000000 0.500000 0.500000
O O8 0.198188 0.585934 0.178340
O O9 0.699792 0.885306 0.604594
O O10 0.410803 0.725665 0.759706
O O11 0.392093 0.966399 0.732947
O O12 0.500000 0.000000 0.000000
O O13 0.674865 0.380215 0.556908
O O14 0.526087 0.228494 0.806702
O O15 0.500000 0.500000 0.000000
O O16 0.258766 0.162264 0.127170
#
# Coordination Sequence:
#
# PCOD9104955 Si02
#       7
#     2   2   2   2   2   2   2
#     4  10  16  33  59  88 109 148 199 241 279 338
#     4  10  21  36  60  85 113 156 199 236 289 347
#     4  10  20  37  59  90 118 151 196 243 290 346
#     4  11  22  37  57  90 126 148 192 252 295 336
#     4  10  20  38  59  86 121 152 195 242 290 350
#     4  11  20  36  62  87 117 155 201 234 291 355
#     4  10  19  33  61  88 117 149 193 246 296 330
#
# _framework density 25.935894999999999
#
# number of rings (size 3 to 8) (size 9 to 14) (size 15 to 20)
#    0.000    1.714    4.286    6.000    0.000    1.143 
#    0.000    0.714    0.000    4.286    0.000    0.000 
#    0.000    0.000    0.000    0.000    0.000    0.000 
#
# Total GULP energy -78230.062808 kJ/mol
# GULP energy per Si atom -5587.861629 kJ/mol
# Density = 2.587686 g / cm^3
# Si number density = 25.935895 Si / 1000 Ang^3
#
#
#
# Elastic Constant Matrix: (Units=GPa)
#
#
# Indices 1 2 3 4 5 6 
#
# 1 124.4747 24.2805 34.0869 7.0089 -28.7814 30.5430
# 2 24.2805 91.3676 21.9742 6.6698 -7.8746 26.4196
# 3 34.0869 21.9742 122.0181 22.8084 0.9910 -18.7715
# 4 7.0089 6.6698 22.8084 29.8595 -1.7079 -5.9526
# 5 -28.7814 -7.8746 0.9910 -1.7079 39.6296 13.6556
# 6 30.5430 26.4196 -18.7715 -5.9526 13.6556 54.1093
#
#
#
# Elastic Compliance Matrix: (Units=1/GPa)
#
#
# Indices 1 2 3 4 5 6 
#
# 1 0.024001 0.007754 -0.012468 -0.002002 0.029283 -0.029270
# 2 0.007754 0.018530 -0.008312 -0.002808 0.016567 -0.020798
# 3 -0.012468 -0.008312 0.017640 -0.005509 -0.018738 0.021339
# 4 -0.002002 -0.002808 -0.005509 0.039771 -0.002050 0.005483
# 5 0.029283 0.016567 -0.018738 -0.002050 0.066781 -0.048198
# 6 -0.029270 -0.020798 0.021339 0.005483 -0.048198 0.065328
#
#
# Mechanical properties :
#
#
# Convention : Reuss Voigt Hill
#
# Bulk Modulus (GPa) = 29.30917 55.39375 42.35146
# Shear Modulus (GPa) = 18.55437 41.88758 30.22098
#
# Velocity S-wave (km/s) = 2.67759 4.02312 3.41723
# Velocity P-wave (km/s) = 4.56995 6.55629 5.65108
#
# Compressibility (1/GPa) = 0.03411901
#
# Stress axis : x y z
#
# Youngs Moduli (GPa) = 41.66439 53.96599 56.68839
#
# Poissons Ratio (x) = -0.41845 0.70678
# Poissons Ratio (y) = -0.32306 0.47122
# Poissons Ratio (z) = 0.51946 0.44859
#
# Static dielectric constant tensor:
#      x y z
#    x 2.265600 -0.035910 0.156790 
#    y -0.035910 2.098180 -0.072710 
#    z 0.156790 -0.072710 2.113610 
# 
# From -- ./inp_files/189778.got.cif
#   From: 2010.05.17/outbox.cif.g08.bks.cpg/sg2_95_cif.got.tgz:189778.got - 2010.06.03 11:33:40.
