data_PCOD9104085
_publ_section_title
;
Structure prediction by ZEFSAII (Michael W. Deem and Ramdas Pophale) SiO2 
 PCOD9104085
Probable space group: P -1
;
_chemical_formula_sum "Si O2"
_cell_formula_units_Z 16
_cell_length_a 6.166609
_cell_length_b 5.127396
_cell_length_c 25.595175
_cell_angle_alpha 53.520949
_cell_angle_beta 84.527480
_cell_angle_gamma 86.524889
_cell_volume 647.751369
_symmetry_space_group_name_H-M "P -1"
_symmetry_group_IT_number 2
_symmetry_cell_setting 'triclinic'
loop_
_space_group_symop_operation_xyz
x,y,z
-x,-y,-z
loop_
_atom_site_type_symbol
_atom_site_label
_atom_site_fract_x
_atom_site_fract_y
_atom_site_fract_z
Si Si1 0.711267 0.683238 0.836988
Si Si2 0.878094 0.918199 0.250980
Si Si3 0.830689 0.950750 0.462597
Si Si4 0.307743 0.906297 0.869949
Si Si5 0.126938 0.316092 0.351957
Si Si6 0.490440 0.812655 0.715564
Si Si7 0.942346 0.745110 0.076012
Si Si8 0.442457 0.475878 0.420523
O O1 0.554535 0.783130 0.876066
O O2 0.574964 0.714222 0.783422
O O3 0.839046 0.352662 0.885794
O O4 0.902661 0.935027 0.793377
O O5 0.942883 0.585163 0.315237
O O6 0.727007 0.881164 0.207657
O O7 0.765722 0.158690 0.266773
O O8 0.689095 0.623930 0.511703
O O9 0.650170 0.238411 0.437427
O O10 0.000000 0.000000 0.500000
O O11 0.982537 0.992437 0.402790
O O12 0.158567 0.585523 0.905712
O O13 0.232422 0.106269 0.897554
O O14 0.316987 0.362752 0.299786
O O15 0.266502 0.376233 0.393001
O O16 0.507784 0.156776 0.641402
O O17 0.000000 0.000000 0.000000
#
# Coordination Sequence:
#
# PCOD9104085 Si02
#       8
#     2   2   2   2   2   2   2   2
#     4  10  23  42  64  94 132 171 212 273 323 383
#     4  10  21  40  60  91 127 161 212 268 319 382
#     4   9  20  38  59  81 119 159 197 265 319 383
#     4  10  24  42  67 100 136 177 224 268 325 392
#     4  11  21  36  61  84 117 160 204 262 326 380
#     4  11  22  37  62  91 115 162 212 258 324 389
#     4  11  24  44  70 102 138 178 222 269 323 388
#     4  10  20  39  57  84 120 151 207 262 316 389
#
# _framework density 24.700835999999999
#
# number of rings (size 3 to 8) (size 9 to 14) (size 15 to 20)
#    0.000    1.750    2.500    1.125    0.000    7.500 
#    0.000    5.625    0.000    0.000    0.000    0.000 
#    0.000    0.000    0.000    0.000    0.000    0.000 
#
# Total GULP energy -89249.277734 kJ/mol
# GULP energy per Si atom -5578.079858 kJ/mol
# Density = 2.464462 g / cm^3
# Si number density = 24.700836 Si / 1000 Ang^3
#
#
#
# Elastic Constant Matrix: (Units=GPa)
#
#
# Indices 1 2 3 4 5 6 
#
# 1 -51.3237 -19.2126 13.6841 -4.7816 -77.4368 14.5815
# 2 -19.2126 50.4596 12.4119 -4.7450 -15.2073 -10.4467
# 3 13.6841 12.4119 105.2608 -17.0449 -17.2001 -4.0884
# 4 -4.7816 -4.7450 -17.0449 32.6860 -10.2859 -0.9592
# 5 -77.4368 -15.2073 -17.2001 -10.2859 -4.8299 26.0767
# 6 14.5815 -10.4467 -4.0884 -0.9592 26.0767 18.9816
#
#
#
# Elastic Compliance Matrix: (Units=1/GPa)
#
#
# Indices 1 2 3 4 5 6 
#
# 1 0.007519 0.001875 -0.004007 -0.005218 -0.015773 0.015799
# 2 0.001875 0.023556 -0.002876 0.001293 -0.004457 0.017093
# 3 -0.004007 -0.002876 0.012146 0.006755 0.004717 -0.002028
# 4 -0.005218 0.001293 0.006755 0.034577 0.002930 0.003897
# 5 -0.015773 -0.004457 0.004717 0.002930 0.011323 -0.004727
# 6 0.015799 0.017093 -0.002028 0.003897 -0.004727 0.056207
#
#
# Mechanical properties :
#
#
# Convention : Reuss Voigt Hill
#
# Bulk Modulus (GPa) = 30.11682 13.12929 21.62305
# Shear Modulus (GPa) = 30.04548 15.86843 22.95696
#
# Velocity S-wave (km/s) = 3.49144 2.53736 3.05191
# Velocity P-wave (km/s) = 5.33598 3.72976 4.60346
#
# Compressibility (1/GPa) = 0.03320404
#
# Stress axis : x y z
#
# Youngs Moduli (GPa) = 132.99802 42.45138 82.32995
#
# Poissons Ratio (x) = -0.07959 0.32992
# Poissons Ratio (y) = -0.24937 0.23681
# Poissons Ratio (z) = 0.53296 0.12211
#
# Static dielectric constant tensor:
#      x y z
#    x 1.952610 -0.014970 0.107540 
#    y -0.014970 2.016870 0.063850 
#    z 0.107540 0.063850 1.747300 
# 
# From -- ./inp_files/12743.got.cif
#   From: 2010.05.17/outbox.cif.g08.bks.cpg/sg2_7_cif.got.tgz:12743.got - 2010.06.03 11:33:40.
