data_PCOD9104363
_publ_section_title
;
Structure prediction by ZEFSAII (Michael W. Deem and Ramdas Pophale) SiO2 
 PCOD9104363
Probable space group: P -1
;
_chemical_formula_sum "Si O2"
_cell_formula_units_Z 16
_cell_length_a 13.953939
_cell_length_b 10.580118
_cell_length_c 12.590957
_cell_angle_alpha 34.592151
_cell_angle_beta 50.235562
_cell_angle_gamma 41.887467
_cell_volume 702.851231
_symmetry_space_group_name_H-M "P -1"
_symmetry_group_IT_number 2
_symmetry_cell_setting 'triclinic'
loop_
_space_group_symop_operation_xyz
x,y,z
-x,-y,-z
loop_
_atom_site_type_symbol
_atom_site_label
_atom_site_fract_x
_atom_site_fract_y
_atom_site_fract_z
Si Si1 0.895821 0.097359 0.903763
Si Si2 0.875429 0.083164 0.315874
Si Si3 0.422397 0.357399 0.559423
Si Si4 0.985390 0.709455 0.776277
Si Si5 0.838672 0.674658 0.273769
Si Si6 0.860721 0.577552 0.672766
Si Si7 0.688317 0.849258 0.801758
Si Si8 0.596106 0.597083 0.210351
O O1 0.820592 0.405053 0.746914
O O2 0.004186 0.970624 0.818239
O O3 0.800067 0.961375 0.070003
O O4 0.000000 0.000000 0.000000
O O5 0.727172 0.346640 0.237428
O O6 0.952327 0.114518 0.345162
O O7 0.835954 0.861196 0.478917
O O8 0.304682 0.329566 0.596316
O O9 0.454991 0.568552 0.339557
O O10 0.368671 0.407109 0.686238
O O11 0.575751 0.097749 0.643969
O O12 0.817800 0.868829 0.752187
O O13 0.076542 0.532587 0.735660
O O14 0.000000 0.500000 0.000000
O O15 0.964550 0.581477 0.335609
O O16 0.776147 0.614671 0.818935
O O17 0.597410 0.808964 0.986401
#
# Coordination Sequence:
#
# PCOD9104363 Si02
#       8
#     2   2   2   2   2   2   2   2
#     4  10  21  39  64  87 116 161 206 259 303 347
#     4  12  20  37  65  92 124 153 203 262 302 365
#     4  11  23  39  57  92 129 165 202 235 312 372
#     4  11  19  34  62  95 118 155 200 250 313 352
#     4  10  20  39  60  88 127 154 202 255 295 367
#     4  10  23  39  63  93 117 161 211 252 302 352
#     4  11  22  40  62  89 128 165 199 247 306 368
#     4  11  22  36  59  87 130 162 192 249 300 372
#
# _framework density 22.764419
#
# number of rings (size 3 to 8) (size 9 to 14) (size 15 to 20)
#    0.000    1.250    5.000    2.250    0.000    4.000 
#    2.250    0.625    0.000    3.750    0.000    0.000 
#    0.000    0.000    0.000    0.000    0.000    0.000 
#
# Total GULP energy -89276.686704 kJ/mol
# GULP energy per Si atom -5579.792919 kJ/mol
# Density = 2.271261 g / cm^3
# Si number density = 22.764419 Si / 1000 Ang^3
#
#
#
# Elastic Constant Matrix: (Units=GPa)
#
#
# Indices 1 2 3 4 5 6 
#
# 1 50.1451 21.3528 19.0868 1.1305 -18.4206 -1.6115
# 2 21.3528 72.8135 7.8771 -8.7360 -10.0782 -0.5846
# 3 19.0868 7.8771 93.6369 14.5729 -19.9593 -1.0687
# 4 1.1305 -8.7360 14.5729 36.1768 2.6536 -7.1314
# 5 -18.4206 -10.0782 -19.9593 2.6536 29.9617 0.1157
# 6 -1.6115 -0.5846 -1.0687 -7.1314 0.1157 35.3670
#
#
#
# Elastic Compliance Matrix: (Units=1/GPa)
#
#
# Indices 1 2 3 4 5 6 
#
# 1 0.028857 -0.006574 -0.001791 -0.002728 0.014576 0.000554
# 2 -0.006574 0.016366 -0.000587 0.004515 0.000669 0.000861
# 3 -0.001791 -0.000587 0.013921 -0.006521 0.008556 -0.001014
# 4 -0.002728 0.004515 -0.006521 0.033271 -0.007474 0.006487
# 5 0.014576 0.000669 0.008556 -0.007474 0.048928 -0.000733
# 6 0.000554 0.000861 -0.001014 0.006487 -0.000733 0.029594
#
#
# Mechanical properties :
#
#
# Convention : Reuss Voigt Hill
#
# Bulk Modulus (GPa) = 24.24808 34.80320 29.52564
# Shear Modulus (GPa) = 24.68055 31.51969 28.10012
#
# Velocity S-wave (km/s) = 3.29625 3.72506 3.51720
# Velocity P-wave (km/s) = 5.01616 5.81576 5.43070
#
# Compressibility (1/GPa) = 0.04124037
#
# Stress axis : x y z
#
# Youngs Moduli (GPa) = 34.65339 61.10137 71.83272
#
# Poissons Ratio (x) = 0.40168 0.12867
# Poissons Ratio (y) = 0.22781 0.04216
# Poissons Ratio (z) = 0.06207 0.03586
#
# Static dielectric constant tensor:
#      x y z
#    x 1.907570 0.046170 0.015150 
#    y 0.046170 1.889120 -0.066230 
#    z 0.015150 -0.066230 1.997540 
# 
# From -- ./inp_files/320131.got.cif
#   From: 2010.05.17/outbox.cif.g08.bks.cpg/sg2_161_cif.got.tgz:320131.got - 2010.06.03 11:33:40.
