data_PCOD9104703
_publ_section_title
;
Structure prediction by ZEFSAII (Michael W. Deem and Ramdas Pophale) SiO2 
 PCOD9104703
Probable space group: P -1
;
_chemical_formula_sum "Si O2"
_cell_formula_units_Z 14
_cell_length_a 22.142088
_cell_length_b 7.265976
_cell_length_c 13.509382
_cell_angle_alpha 82.453386
_cell_angle_beta 22.054142
_cell_angle_gamma 96.797669
_cell_volume 618.243080
_symmetry_space_group_name_H-M "P -1"
_symmetry_group_IT_number 2
_symmetry_cell_setting 'triclinic'
loop_
_space_group_symop_operation_xyz
x,y,z
-x,-y,-z
loop_
_atom_site_type_symbol
_atom_site_label
_atom_site_fract_x
_atom_site_fract_y
_atom_site_fract_z
Si Si1 0.400337 0.094625 0.921170
Si Si2 0.429293 0.495370 0.217511
Si Si3 0.760833 0.774393 0.174371
Si Si4 0.131428 0.508019 0.887777
Si Si5 0.264784 0.340884 0.996118
Si Si6 0.728978 0.425791 0.847414
Si Si7 0.978532 0.680373 0.249369
O O1 0.457056 0.238243 0.928644
O O2 0.624874 0.256494 0.512779
O O3 0.257546 0.137692 0.077667
O O4 0.313416 0.823729 0.076878
O O5 0.186806 0.361696 0.577232
O O6 0.500000 0.500000 0.000000
O O7 0.511652 0.383421 0.165026
O O8 0.872359 0.716934 0.084891
O O9 0.511527 0.567301 0.582755
O O10 0.830106 0.757012 0.960967
O O11 0.828502 0.035400 0.062906
O O12 0.000000 0.500000 0.000000
O O13 0.046926 0.532677 0.115617
O O14 0.188297 0.441860 0.181167
O O15 0.874876 0.591382 0.521483
#
# Coordination Sequence:
#
# PCOD9104703 Si02
#       7
#     2   2   2   2   2   2   2
#     4  10  20  39  62  85 120 159 195 246 288 355
#     4   9  20  35  54  86 120 157 195 229 297 351
#     4  10  23  41  65  84 123 155 199 252 287 355
#     4  11  23  38  59  92 119 152 200 244 300 346
#     4   9  21  44  62  87 113 164 204 236 298 347
#     4  10  22  38  63  87 121 161 198 241 295 354
#     4  11  23  37  58  94 121 158 195 242 306 350
#
# _framework density 22.644815000000001
#
# number of rings (size 3 to 8) (size 9 to 14) (size 15 to 20)
#    0.000    2.000    1.429    0.857    2.000    8.000 
#    0.000    5.714    0.000    0.000    0.000    0.000 
#    0.000    0.000    0.000    0.000    0.000    0.000 
#
# Total GULP energy -78229.146317 kJ/mol
# GULP energy per Si atom -5587.796165 kJ/mol
# Density = 2.259327 g / cm^3
# Si number density = 22.644815 Si / 1000 Ang^3
#
#
#
# Elastic Constant Matrix: (Units=GPa)
#
#
# Indices 1 2 3 4 5 6 
#
# 1 77.1503 11.5458 2.8301 3.2760 15.4019 16.6170
# 2 11.5458 129.5112 22.2641 -9.8966 7.0078 2.9777
# 3 2.8301 22.2641 42.8490 7.3997 6.2934 0.9285
# 4 3.2760 -9.8966 7.3997 32.7365 5.6015 16.8443
# 5 15.4019 7.0078 6.2934 5.6015 27.4842 10.8371
# 6 16.6170 2.9777 0.9285 16.8443 10.8371 30.3392
#
#
#
# Elastic Compliance Matrix: (Units=1/GPa)
#
#
# Indices 1 2 3 4 5 6 
#
# 1 0.015968 -0.000548 -0.000340 0.003784 -0.006111 -0.008599
# 2 -0.000548 0.009337 -0.005712 0.006143 -0.000581 -0.003645
# 3 -0.000340 -0.005712 0.029016 -0.011555 -0.005955 0.008401
# 4 0.003784 0.006143 -0.011555 0.050175 0.000736 -0.030442
# 5 -0.006111 -0.000581 -0.005955 0.000736 0.046462 -0.013419
# 6 -0.008599 -0.003645 0.008401 -0.030442 -0.013419 0.059466
#
#
# Mechanical properties :
#
#
# Convention : Reuss Voigt Hill
#
# Bulk Modulus (GPa) = 24.31759 35.86562 30.09161
# Shear Modulus (GPa) = 21.06784 32.30334 26.68559
#
# Velocity S-wave (km/s) = 3.05349 3.78103 3.43657
# Velocity P-wave (km/s) = 4.81599 5.91053 5.39111
#
# Compressibility (1/GPa) = 0.04112249
#
# Stress axis : x y z
#
# Youngs Moduli (GPa) = 62.62688 107.10385 34.46354
#
# Poissons Ratio (x) = 0.05865 0.01170
# Poissons Ratio (y) = 0.03429 0.19685
# Poissons Ratio (z) = 0.02127 0.61175
#
# Static dielectric constant tensor:
#      x y z
#    x 1.838840 -0.050080 -0.079510 
#    y -0.050080 1.672650 -0.099720 
#    z -0.079510 -0.099720 1.706750 
# 
# From -- ./inp_files/26975.got.cif
#   From: 2010.05.17/outbox.cif.g08.bks.cpg/sg2_14_cif.got.tgz:26975.got - 2010.06.03 11:33:40.
