data_PCOD9104757
_publ_section_title
;
Structure prediction by ZEFSAII (Michael W. Deem and Ramdas Pophale) SiO2 
 PCOD9104757
Probable space group: P -1
;
_chemical_formula_sum "Si O2"
_cell_formula_units_Z 16
_cell_length_a 19.217861
_cell_length_b 11.036755
_cell_length_c 10.055281
_cell_angle_alpha 96.476912
_cell_angle_beta 41.568486
_cell_angle_gamma 64.679670
_cell_volume 885.620847
_symmetry_space_group_name_H-M "P -1"
_symmetry_group_IT_number 2
_symmetry_cell_setting 'triclinic'
loop_
_space_group_symop_operation_xyz
x,y,z
-x,-y,-z
loop_
_atom_site_type_symbol
_atom_site_label
_atom_site_fract_x
_atom_site_fract_y
_atom_site_fract_z
Si Si1 0.516464 0.215441 0.190381
Si Si2 0.634007 0.321289 0.683740
Si Si3 0.834774 0.371872 0.972563
Si Si4 0.420267 0.570903 0.770264
Si Si5 0.819659 0.369844 0.312806
Si Si6 0.110449 0.288339 0.865350
Si Si7 0.366117 0.205799 0.648147
Si Si8 0.779061 0.949942 0.569973
O O1 0.585665 0.284508 0.150901
O O2 0.341656 0.403716 0.390984
O O3 0.463429 0.179868 0.383431
O O4 0.650360 0.036033 0.880252
O O5 0.534325 0.398285 0.695599
O O6 0.786005 0.275053 0.424696
O O7 0.711548 0.133744 0.619036
O O8 0.500000 0.500000 0.000000
O O9 0.033648 0.206270 0.659477
O O10 0.753879 0.341240 0.992344
O O11 0.807174 0.366163 0.169256
O O12 0.732029 0.590373 0.121055
O O13 0.500000 0.500000 0.500000
O O14 0.990330 0.286772 0.081636
O O15 0.226008 0.238511 0.805275
O O16 0.212356 0.153359 0.574641
O O17 0.000000 0.500000 0.000000
O O18 0.500000 0.000000 0.500000
#
# Coordination Sequence:
#
# PCOD9104757 Si02
#       8
#     2   2   2   2   2   2   2   2
#     4  10  20  39  62  88 123 157 199 249 317 359
#     4  11  21  38  61  98 127 152 207 257 304 370
#     4  10  21  39  61  87 125 161 205 251 308 362
#     4  11  19  38  65  86 123 169 196 245 313 371
#     4   9  18  38  61  85 124 156 201 246 300 360
#     4  11  21  40  63  84 117 166 209 249 301 358
#     4  11  23  42  61  87 116 160 214 254 293 374
#     4  11  23  38  63  93 125 159 200 262 310 361
#
# _framework density 18.066423
#
# number of rings (size 3 to 8) (size 9 to 14) (size 15 to 20)
#    0.000    1.500   10.000    0.000    1.750    3.000 
#    2.250    0.625    0.000    0.000    0.000    0.000 
#    0.000    0.000    0.000    0.000    0.000    0.000 
#
# Total GULP energy -89162.341520 kJ/mol
# GULP energy per Si atom -5572.646345 kJ/mol
# Density = 1.802530 g / cm^3
# Si number density = 18.066423 Si / 1000 Ang^3
#
#
#
# Elastic Constant Matrix: (Units=GPa)
#
#
# Indices 1 2 3 4 5 6 
#
# 1 74.5832 5.1561 4.6500 -0.5716 -17.0256 4.5348
# 2 5.1561 80.2774 1.2934 10.5306 -1.7121 -6.3295
# 3 4.6500 1.2934 82.7251 3.7143 8.4968 -0.5165
# 4 -0.5716 10.5306 3.7143 26.3654 5.3812 -4.4739
# 5 -17.0256 -1.7121 8.4968 5.3812 28.0462 5.5053
# 6 4.5348 -6.3295 -0.5165 -4.4739 5.5053 24.0753
#
#
#
# Elastic Compliance Matrix: (Units=1/GPa)
#
#
# Indices 1 2 3 4 5 6 
#
# 1 0.016918 -0.000968 -0.002166 -0.002714 0.012744 -0.006906
# 2 -0.000968 0.013405 0.000018 -0.005075 0.000687 0.002607
# 3 -0.002166 0.000018 0.012803 -0.000425 -0.005476 0.001861
# 4 -0.002714 -0.005075 -0.000425 0.044200 -0.012311 0.010196
# 5 0.012744 0.000687 -0.005476 -0.012311 0.050635 -0.016204
# 6 -0.006906 0.002607 0.001861 0.010196 -0.016204 0.049163
#
#
# Mechanical properties :
#
#
# Convention : Reuss Voigt Hill
#
# Bulk Modulus (GPa) = 27.10496 28.86499 27.98498
# Shear Modulus (GPa) = 24.31283 30.79646 27.55464
#
# Velocity S-wave (km/s) = 3.67242 4.13319 3.90960
# Velocity P-wave (km/s) = 5.74611 6.22812 5.99196
#
# Compressibility (1/GPa) = 0.03689361
#
# Stress axis : x y z
#
# Youngs Moduli (GPa) = 59.10860 74.60086 78.10767
#
# Poissons Ratio (x) = 0.07224 0.16918
# Poissons Ratio (y) = 0.05724 -0.00144
# Poissons Ratio (z) = 0.12803 -0.00138
#
# Static dielectric constant tensor:
#      x y z
#    x 1.627340 0.013020 -0.003780 
#    y 0.013020 1.637940 0.011720 
#    z -0.003780 0.011720 1.642240 
# 
# From -- ./inp_files/282305.got.cif
#   From: 2010.05.17/outbox.cif.g08.bks.cpg/sg2_142_cif.got.tgz:282305.got - 2010.06.03 11:33:40.
