data_PCOD9104345
_publ_section_title
;
Structure prediction by ZEFSAII (Michael W. Deem and Ramdas Pophale) SiO2 
 PCOD9104345
Probable space group: P -1
;
_chemical_formula_sum "Si O2"
_cell_formula_units_Z 14
_cell_length_a 8.129425
_cell_length_b 7.276993
_cell_length_c 20.737354
_cell_angle_alpha 143.892307
_cell_angle_beta 115.311777
_cell_angle_gamma 78.690437
_cell_volume 627.345398
_symmetry_space_group_name_H-M "P -1"
_symmetry_group_IT_number 2
_symmetry_cell_setting 'triclinic'
loop_
_space_group_symop_operation_xyz
x,y,z
-x,-y,-z
loop_
_atom_site_type_symbol
_atom_site_label
_atom_site_fract_x
_atom_site_fract_y
_atom_site_fract_z
Si Si1 0.029479 0.272064 0.177658
Si Si2 0.629369 0.655273 0.661556
Si Si3 0.785439 0.881338 0.128072
Si Si4 0.823818 0.010138 0.320391
Si Si5 0.035906 0.436283 0.085416
Si Si6 0.566165 0.351676 0.849642
Si Si7 0.761856 0.678468 0.543729
O O1 0.224797 0.438296 0.292848
O O2 0.985694 0.432982 0.151034
O O3 0.865426 0.177373 0.176611
O O4 0.049254 0.924993 0.057494
O O5 0.722902 0.726015 0.625874
O O6 0.435156 0.371152 0.540490
O O7 0.588199 0.995296 0.771203
O O8 0.775566 0.003869 0.233537
O O9 0.943412 0.681934 0.103267
O O10 0.611239 0.618520 0.990099
O O11 0.798379 0.327102 0.441928
O O12 0.049601 0.065276 0.377956
O O13 0.647684 0.715118 0.231095
O O14 0.261337 0.518626 0.134979
#
# Coordination Sequence:
#
# PCOD9104345 Si02
#       7
#     2   2   2   2   2   2   2
#     4  10  18  31  56  82 105 135 174 221 258 306
#     4  10  16  33  56  77 103 134 185 220 250 300
#     4  11  18  34  55  81 108 138 168 218 267 316
#     4  10  19  31  52  78 109 140 174 211 264 318
#     4  10  19  31  55  82 109 132 174 217 264 310
#     4  10  18  31  54  81 106 138 169 217 272 310
#     4   9  19  30  52  83  97 143 187 209 249 313
#
# _framework density 22.316255999999999
#
# number of rings (size 3 to 8) (size 9 to 14) (size 15 to 20)
#    0.000    2.000    4.286    1.286    0.000    0.000 
#    0.000    0.000    6.286   18.857    0.000    0.000 
#    0.000    0.000    0.000    0.000    0.000    0.000 
#
# Total GULP energy -78082.612173 kJ/mol
# GULP energy per Si atom -5577.329441 kJ/mol
# Density = 2.226546 g / cm^3
# Si number density = 22.316256 Si / 1000 Ang^3
#
#
#
# Elastic Constant Matrix: (Units=GPa)
#
#
# Indices 1 2 3 4 5 6 
#
# 1 85.7267 0.1244 33.8601 11.8249 25.2039 15.4638
# 2 0.1244 45.7959 0.0620 -7.5525 7.6138 0.8066
# 3 33.8601 0.0620 113.3227 1.4302 25.9924 -2.4943
# 4 11.8249 -7.5525 1.4302 16.8955 7.0443 -0.5132
# 5 25.2039 7.6138 25.9924 7.0443 56.1630 2.5234
# 6 15.4638 0.8066 -2.4943 -0.5132 2.5234 19.2830
#
#
#
# Elastic Compliance Matrix: (Units=1/GPa)
#
#
# Indices 1 2 3 4 5 6 
#
# 1 0.019465 -0.001188 -0.005113 -0.012579 -0.003909 -0.016044
# 2 -0.001188 0.025043 0.001414 0.014170 -0.005346 0.001165
# 3 -0.005113 0.001414 0.011357 0.005136 -0.004075 0.006180
# 4 -0.012579 0.014170 0.005136 0.078071 -0.009048 0.013421
# 5 -0.003909 -0.005346 -0.004075 -0.009048 0.023326 -0.000462
# 6 -0.016044 0.001165 0.006180 0.013421 -0.000462 0.065894
#
#
# Mechanical properties :
#
#
# Convention : Reuss Voigt Hill
#
# Bulk Modulus (GPa) = 21.69615 34.77092 28.23354
# Shear Modulus (GPa) = 20.13753 32.52155 26.32954
#
# Velocity S-wave (km/s) = 3.00721 3.82161 3.43860
# Velocity P-wave (km/s) = 4.66915 5.92349 5.33332
#
# Compressibility (1/GPa) = 0.04609113
#
# Stress axis : x y z
#
# Youngs Moduli (GPa) = 51.37471 39.93210 88.04938
#
# Poissons Ratio (x) = 0.04743 0.45020
# Poissons Ratio (y) = 0.06103 -0.12452
# Poissons Ratio (z) = 0.26268 -0.05647
#
# Static dielectric constant tensor:
#      x y z
#    x 1.865010 0.030460 0.022280 
#    y 0.030460 1.791280 0.020710 
#    z 0.022280 0.020710 1.844050 
# 
# From -- ./inp_files/354000.got.cif
#   From: 2010.05.17/outbox.cif.g08.bks.cpg/sg2_177_cif.got.tgz:354000.got - 2010.06.03 11:33:40.
