data_PCOD9104013
_publ_section_title
;
Structure prediction by ZEFSAII (Michael W. Deem and Ramdas Pophale) SiO2 
 PCOD9104013
Probable space group: P -1
;
_chemical_formula_sum "Si O2"
_cell_formula_units_Z 16
_cell_length_a 11.453944
_cell_length_b 11.011437
_cell_length_c 14.287559
_cell_angle_alpha 149.280813
_cell_angle_beta 59.979151
_cell_angle_gamma 99.742082
_cell_volume 643.599967
_symmetry_space_group_name_H-M "P -1"
_symmetry_group_IT_number 2
_symmetry_cell_setting 'triclinic'
loop_
_space_group_symop_operation_xyz
x,y,z
-x,-y,-z
loop_
_atom_site_type_symbol
_atom_site_label
_atom_site_fract_x
_atom_site_fract_y
_atom_site_fract_z
Si Si1 0.315254 0.719129 0.933365
Si Si2 0.566604 0.793770 0.964906
Si Si3 0.490436 0.770534 0.600813
Si Si4 0.467569 0.189839 0.730680
Si Si5 0.746723 0.308276 0.719860
Si Si6 0.006870 0.761636 0.130732
Si Si7 0.134948 0.918990 0.810062
Si Si8 0.179233 0.334022 0.363705
O O1 0.480430 0.639665 0.865900
O O2 0.384066 0.568308 0.703945
O O3 0.201070 0.624077 0.950017
O O4 0.196328 0.068565 0.233877
O O5 0.698624 0.565462 0.836421
O O6 0.662735 0.849227 0.888404
O O7 0.444962 0.120490 0.272269
O O8 0.297768 0.887562 0.761968
O O9 0.485493 0.960210 0.644476
O O10 0.614615 0.229208 0.711901
O O11 0.500000 0.000000 0.500000
O O12 0.299206 0.514744 0.044888
O O13 0.915047 0.019798 0.417932
O O14 0.929481 0.900186 0.146105
O O15 0.000000 0.500000 0.000000
O O16 0.194897 0.591119 0.551107
O O17 0.000000 0.000000 0.000000
O O18 0.000000 0.500000 0.500000
#
# Coordination Sequence:
#
# PCOD9104013 Si02
#       8
#     2   2   2   2   2   2   2   2
#     4  12  25  44  73 112 153 198 253 329 378 463
#     4  11  23  43  71 108 148 195 256 310 391 458
#     4  11  25  43  73 108 149 196 255 322 387 464
#     4  10  20  38  72 104 138 190 248 308 381 454
#     4  10  21  43  71 104 148 201 250 310 388 470
#     4  12  26  48  79 113 158 206 266 328 391 465
#     4  12  26  48  76 113 153 208 262 320 396 467
#     4  12  23  46  71 100 151 201 248 309 382 464
#
# _framework density 24.860164999999999
#
# number of rings (size 3 to 8) (size 9 to 14) (size 15 to 20)
#    0.000    0.750    3.750    3.375    0.000    3.500 
#    0.000    2.500    0.000   20.250    0.000    0.000 
#    0.000    0.000    0.000    0.000    0.000    0.000 
#
# Total GULP energy -89106.909745 kJ/mol
# GULP energy per Si atom -5569.181859 kJ/mol
# Density = 2.480358 g / cm^3
# Si number density = 24.860165 Si / 1000 Ang^3
#
#
#
# Elastic Constant Matrix: (Units=GPa)
#
#
# Indices 1 2 3 4 5 6 
#
# 1 77.6072 33.0764 40.7146 -5.4523 13.6973 28.2391
# 2 33.0764 129.2154 35.4493 11.2114 2.8222 20.5629
# 3 40.7146 35.4493 167.3932 -4.7156 22.3887 0.5705
# 4 -5.4523 11.2114 -4.7156 50.9703 9.9189 1.5073
# 5 13.6973 2.8222 22.3887 9.9189 50.1235 -1.5062
# 6 28.2391 20.5629 0.5705 1.5073 -1.5062 45.8672
#
#
#
# Elastic Compliance Matrix: (Units=1/GPa)
#
#
# Indices 1 2 3 4 5 6 
#
# 1 0.021833 -0.002777 -0.003866 0.003977 -0.005244 -0.012452
# 2 -0.002777 0.009470 -0.001586 -0.002730 0.001403 -0.002380
# 3 -0.003866 -0.001586 0.007584 0.001010 -0.002355 0.002887
# 4 0.003977 -0.002730 0.001010 0.021928 -0.005788 -0.002148
# 5 -0.005244 0.001403 -0.002355 -0.005788 0.023610 0.003595
# 6 -0.012452 -0.002380 0.002887 -0.002148 0.003595 0.030688
#
#
# Mechanical properties :
#
#
# Convention : Reuss Voigt Hill
#
# Bulk Modulus (GPa) = 44.58846 65.85515 55.22181
# Shear Modulus (GPa) = 35.95826 47.05724 41.50775
#
# Velocity S-wave (km/s) = 3.80731 4.35544 4.09057
# Velocity P-wave (km/s) = 6.10755 7.20006 6.67619
#
# Compressibility (1/GPa) = 0.02242733
#
# Stress axis : x y z
#
# Youngs Moduli (GPa) = 45.80131 105.59545 131.85834
#
# Poissons Ratio (x) = 0.29326 0.50982
# Poissons Ratio (y) = 0.12720 0.20919
# Poissons Ratio (z) = 0.17709 0.16752
#
# Static dielectric constant tensor:
#      x y z
#    x 1.965840 -0.102100 0.178010 
#    y -0.102100 1.973950 0.041460 
#    z 0.178010 0.041460 0.786810 
# 
# From -- ./inp_files/519942.got.cif
#   From: 2010.05.17/outbox.cif.g08.bks.cpg/sg2_260_cif.got.tgz:519942.got - 2010.06.03 11:33:40.
