data_PCOD9104692
_publ_section_title
;
Structure prediction by ZEFSAII (Michael W. Deem and Ramdas Pophale) SiO2 
 PCOD9104692
Probable space group: P -1
;
_chemical_formula_sum "Si O2"
_cell_formula_units_Z 14
_cell_length_a 12.128456
_cell_length_b 18.073183
_cell_length_c 8.385211
_cell_angle_alpha 121.008807
_cell_angle_beta 87.481622
_cell_angle_gamma 40.736235
_cell_volume 647.820521
_symmetry_space_group_name_H-M "P -1"
_symmetry_group_IT_number 2
_symmetry_cell_setting 'triclinic'
loop_
_space_group_symop_operation_xyz
x,y,z
-x,-y,-z
loop_
_atom_site_type_symbol
_atom_site_label
_atom_site_fract_x
_atom_site_fract_y
_atom_site_fract_z
Si Si1 0.507722 0.077543 0.468984
Si Si2 0.341123 0.172098 0.026412
Si Si3 0.981059 0.755216 0.502274
Si Si4 0.975625 0.014004 0.265465
Si Si5 0.244101 0.707441 0.643553
Si Si6 0.028406 0.425128 0.658830
Si Si7 0.827843 0.991762 0.534797
O O1 0.228538 0.300418 0.652254
O O2 0.614444 0.083417 0.562444
O O3 0.500000 0.000000 0.500000
O O4 0.680379 0.910933 0.128626
O O5 0.210026 0.278868 0.326221
O O6 0.174184 0.354909 0.126265
O O7 0.656566 0.973481 0.781403
O O8 0.104930 0.571832 0.290014
O O9 0.100135 0.725422 0.605065
O O10 0.022713 0.779708 0.364228
O O11 0.196119 0.926748 0.219532
O O12 0.737932 0.241917 0.456505
O O13 0.916798 0.993142 0.392484
O O14 0.067075 0.886599 0.978105
O O15 0.500000 0.500000 0.500000
#
# Coordination Sequence:
#
# PCOD9104692 Si02
#       7
#     2   2   2   2   2   2   2
#     4  11  20  38  60  87 125 155 191 243 297 352
#     4  10  22  39  58  89 121 158 201 239 294 351
#     4  10  20  39  62  84 123 158 187 253 296 344
#     4   9  22  41  63  85 119 156 196 247 292 347
#     4  10  22  42  64  91 113 150 206 245 295 350
#     4  10  22  38  58  92 118 157 205 236 293 354
#     4  10  20  40  61  85 120 161 191 238 304 346
#
# _framework density 21.610927
#
# number of rings (size 3 to 8) (size 9 to 14) (size 15 to 20)
#    0.000    2.000    2.857    1.714    4.000    4.000 
#    2.571    9.286    0.000    0.000    0.000    0.000 
#    0.000    0.000    0.000    0.000    0.000    0.000 
#
# Total GULP energy -77997.361414 kJ/mol
# GULP energy per Si atom -5571.240101 kJ/mol
# Density = 2.156174 g / cm^3
# Si number density = 21.610927 Si / 1000 Ang^3
#
#
#
# Elastic Constant Matrix: (Units=GPa)
#
#
# Indices 1 2 3 4 5 6 
#
# 1 123.2585 74.8372 16.5469 0.4268 37.7845 -16.5129
# 2 74.8372 188.1976 32.7670 16.5326 19.6373 -6.9533
# 3 16.5469 32.7670 47.9330 7.8198 16.5201 -8.6902
# 4 0.4268 16.5326 7.8198 37.5221 2.0501 11.0858
# 5 37.7845 19.6373 16.5201 2.0501 29.6523 -12.8441
# 6 -16.5129 -6.9533 -8.6902 11.0858 -12.8441 51.9813
#
#
#
# Elastic Compliance Matrix: (Units=1/GPa)
#
#
# Indices 1 2 3 4 5 6 
#
# 1 0.017536 -0.005814 0.004857 0.002601 -0.021494 -0.000261
# 2 -0.005814 0.008207 -0.004787 -0.002913 0.004972 0.000300
# 3 0.004857 -0.004787 0.029820 -0.003784 -0.018445 0.002137
# 4 0.002601 -0.002913 -0.003784 0.031360 -0.004958 -0.008109
# 5 -0.021494 0.004972 -0.018445 -0.004958 0.072669 0.009767
# 6 -0.000261 0.000300 0.002137 -0.008109 0.009767 0.023695
#
#
# Mechanical properties :
#
#
# Convention : Reuss Voigt Hill
#
# Bulk Modulus (GPa) = 22.68882 67.52123 45.10503
# Shear Modulus (GPa) = 23.86988 39.51367 31.69178
#
# Velocity S-wave (km/s) = 3.32705 4.28063 3.83361
# Velocity P-wave (km/s) = 5.02798 7.46616 6.36491
#
# Compressibility (1/GPa) = 0.04407457
#
# Stress axis : x y z
#
# Youngs Moduli (GPa) = 57.02515 121.84202 33.53417
#
# Poissons Ratio (x) = 0.70844 -0.16288
# Poissons Ratio (y) = 0.33157 0.16054
# Poissons Ratio (z) = -0.27698 0.58331
#
# Static dielectric constant tensor:
#      x y z
#    x 1.717490 -0.001100 -0.108790 
#    y -0.001100 1.833600 -0.040890 
#    z -0.108790 -0.040890 1.748230 
# 
# From -- ./inp_files/253362.got.cif
#   From: 2010.05.17/outbox.cif.g08.bks.cpg/sg2_127_cif.got.tgz:253362.got - 2010.06.03 11:33:40.
