data_PCOD9104012
_publ_section_title
;
Structure prediction by ZEFSAII (Michael W. Deem and Ramdas Pophale) SiO2 
 PCOD9104012
Probable space group: P -1
;
_chemical_formula_sum "Si O2"
_cell_formula_units_Z 15
_cell_length_a 10.297307
_cell_length_b 9.782947
_cell_length_c 9.006412
_cell_angle_alpha 49.465401
_cell_angle_beta 93.834208
_cell_angle_gamma 103.218041
_cell_volume 667.174131
_symmetry_space_group_name_H-M "P -1"
_symmetry_group_IT_number 2
_symmetry_cell_setting 'triclinic'
loop_
_space_group_symop_operation_xyz
x,y,z
-x,-y,-z
loop_
_atom_site_type_symbol
_atom_site_label
_atom_site_fract_x
_atom_site_fract_y
_atom_site_fract_z
Si Si1 0.527234 0.391414 0.722262
Si Si2 0.824491 0.881778 0.684669
Si Si3 0.203588 0.323452 0.454481
Si Si4 0.000000 0.500000 0.500000
Si Si5 0.351543 0.052368 0.840984
Si Si6 0.362708 0.887493 0.647870
Si Si7 0.112481 0.919587 0.144491
Si Si8 0.363150 0.469557 0.920249
O O1 0.500000 0.500000 0.500000
O O2 0.673121 0.503793 0.710675
O O3 0.494522 0.178739 0.818904
O O4 0.407091 0.405878 0.811575
O O5 0.878884 0.787273 0.613858
O O6 0.742329 0.011079 0.504055
O O7 0.889879 0.006286 0.739572
O O8 0.740879 0.697812 0.892858
O O9 0.276092 0.186535 0.646276
O O10 0.108384 0.399050 0.501686
O O11 0.922233 0.300497 0.705436
O O12 0.370850 0.912536 0.809720
O O13 0.252376 0.984277 0.019099
O O14 0.328386 0.668453 0.765219
O O15 0.500000 0.000000 0.500000
O O16 0.000000 0.000000 0.000000
O O17 0.500000 0.500000 0.000000
#
# Coordination Sequence:
#
# PCOD9104012 Si02
#       8
#     2   2   2   1   2   2   2   2
#     4  10  20  38  72 103 142 180 220 287 357 412
#     4  11  25  44  72 100 137 188 232 291 352 417
#     4  10  22  45  68 104 143 180 233 287 352 425
#     4  12  28  46  74  96 140 186 238 294 354 410
#     4  10  22  43  71 102 140 186 229 293 349 418
#     4  11  23  41  66 105 149 181 225 279 354 428
#     4  12  27  50  71  99 137 186 248 298 348 415
#     4  12  21  40  68 104 145 182 221 283 351 427
#
# _framework density 22.482886000000001
#
# number of rings (size 3 to 8) (size 9 to 14) (size 15 to 20)
#    0.000    1.067    5.333    1.600    1.867    4.800 
#    0.000    2.667    0.000    0.000    0.000    0.000 
#    0.000    0.000    0.000    0.000    0.000    0.000 
#
# Total GULP energy -83508.100771 kJ/mol
# GULP energy per Si atom -5567.206718 kJ/mol
# Density = 2.243171 g / cm^3
# Si number density = 22.482886 Si / 1000 Ang^3
#
#
#
# Elastic Constant Matrix: (Units=GPa)
#
#
# Indices 1 2 3 4 5 6 
#
# 1 50.3107 13.9825 9.5672 7.2784 -6.9069 -16.0962
# 2 13.9825 74.7958 28.6983 7.4607 16.6355 -3.2820
# 3 9.5672 28.6983 105.2121 -15.8131 -15.1010 8.4432
# 4 7.2784 7.4607 -15.8131 55.6027 -4.2300 1.7774
# 5 -6.9069 16.6355 -15.1010 -4.2300 33.7591 5.4373
# 6 -16.0962 -3.2820 8.4432 1.7774 5.4373 26.7212
#
#
#
# Elastic Compliance Matrix: (Units=1/GPa)
#
#
# Indices 1 2 3 4 5 6 
#
# 1 0.027958 -0.003272 -0.003367 -0.004543 0.002470 0.017303
# 2 -0.003272 0.023588 -0.010775 -0.007564 -0.019477 0.008797
# 3 -0.003367 -0.010775 0.017213 0.008350 0.015376 -0.012474
# 4 -0.004543 -0.007564 0.008350 0.023133 0.011057 -0.010093
# 5 0.002470 -0.019477 0.015376 0.011057 0.050696 -0.016814
# 6 0.017303 0.008797 -0.012474 -0.010093 -0.016814 0.056961
#
#
# Mechanical properties :
#
#
# Convention : Reuss Voigt Hill
#
# Bulk Modulus (GPa) = 29.47058 37.20164 33.33611
# Shear Modulus (GPa) = 20.35109 35.08797 27.71953
#
# Velocity S-wave (km/s) = 3.01189 3.95480 3.51510
# Velocity P-wave (km/s) = 5.02312 6.11853 5.59769
#
# Compressibility (1/GPa) = 0.03393215
#
# Stress axis : x y z
#
# Youngs Moduli (GPa) = 35.76761 42.39417 58.09652
#
# Poissons Ratio (x) = 0.13870 0.19560
# Poissons Ratio (y) = 0.11702 0.62599
# Poissons Ratio (z) = 0.12042 0.45680
#
# Static dielectric constant tensor:
#      x y z
#    x 1.795720 0.048250 -0.023040 
#    y 0.048250 1.869950 -0.010100 
#    z -0.023040 -0.010100 1.859170 
# 
# From -- ./inp_files/236728.got.cif
#   From: 2010.05.17/outbox.cif.g08.bks.cpg/sg2_119_cif.got.tgz:236728.got - 2010.06.03 11:33:40.
