data_PCOD9104832
_publ_section_title
;
Structure prediction by ZEFSAII (Michael W. Deem and Ramdas Pophale) SiO2 
 PCOD9104832
Probable space group: P -1
;
_chemical_formula_sum "Si O2"
_cell_formula_units_Z 16
_cell_length_a 8.341207
_cell_length_b 15.200373
_cell_length_c 8.034528
_cell_angle_alpha 105.605527
_cell_angle_beta 106.572631
_cell_angle_gamma 53.505687
_cell_volume 778.368780
_symmetry_space_group_name_H-M "P -1"
_symmetry_group_IT_number 2
_symmetry_cell_setting 'triclinic'
loop_
_space_group_symop_operation_xyz
x,y,z
-x,-y,-z
loop_
_atom_site_type_symbol
_atom_site_label
_atom_site_fract_x
_atom_site_fract_y
_atom_site_fract_z
Si Si1 0.511605 0.248182 0.278278
Si Si2 0.127441 0.876678 0.898277
Si Si3 0.345329 0.615778 0.425261
Si Si4 0.211889 0.384266 0.998816
Si Si5 0.492786 0.150260 0.547051
Si Si6 0.903507 0.749816 0.310333
Si Si7 0.093585 0.063804 0.481374
Si Si8 0.603036 0.299165 0.854439
O O1 0.655497 0.161159 0.135277
O O2 0.625874 0.296818 0.426651
O O3 0.461196 0.189833 0.369592
O O4 0.312275 0.349700 0.190320
O O5 0.005221 0.883890 0.700760
O O6 0.205739 0.775903 0.002413
O O7 0.000000 0.000000 0.000000
O O8 0.500000 0.500000 0.500000
O O9 0.377484 0.628931 0.244678
O O10 0.117492 0.649170 0.390765
O O11 0.167636 0.294681 0.878891
O O12 0.390284 0.372819 0.929840
O O13 0.000000 0.500000 0.000000
O O14 0.278938 0.194905 0.585835
O O15 0.581173 0.209823 0.705238
O O16 0.671281 0.023097 0.530721
O O17 0.940744 0.846209 0.347296
O O18 0.000000 0.000000 0.500000
#
# Coordination Sequence:
#
# PCOD9104832 Si02
#       8
#     2   2   2   2   2   2   2   2
#     4  10  21  41  63  90 122 170 214 253 318 389
#     4  11  20  35  65  93 120 165 213 247 312 376
#     4  11  22  41  67  93 122 167 221 266 313 378
#     4  10  22  43  64  90 129 168 207 272 325 367
#     4  10  20  39  62  91 126 166 207 262 316 382
#     4  11  24  40  62  97 129 159 218 270 311 380
#     4  12  21  40  67  91 129 177 209 252 322 389
#     4   9  21  39  65  91 125 167 213 256 316 387
#
# _framework density 20.555810000000001
#
# number of rings (size 3 to 8) (size 9 to 14) (size 15 to 20)
#    0.000    1.500    3.750    1.875    0.000    1.000 
#    2.250   10.000    0.000    0.000    0.000    0.000 
#    0.000    0.000    0.000    0.000    0.000    0.000 
#
# Total GULP energy -89225.852993 kJ/mol
# GULP energy per Si atom -5576.615812 kJ/mol
# Density = 2.050902 g / cm^3
# Si number density = 20.555810 Si / 1000 Ang^3
#
#
#
# Elastic Constant Matrix: (Units=GPa)
#
#
# Indices 1 2 3 4 5 6 
#
# 1 80.2138 43.2447 35.0016 -15.4447 6.0856 -13.5635
# 2 43.2447 87.4700 33.8794 -16.5587 -18.5045 -22.0363
# 3 35.0016 33.8794 96.1688 -27.6032 -7.9901 -4.9199
# 4 -15.4447 -16.5587 -27.6032 40.8875 0.0179 9.4166
# 5 6.0856 -18.5045 -7.9901 0.0179 23.9839 -2.8736
# 6 -13.5635 -22.0363 -4.9199 9.4166 -2.8736 37.5071
#
#
#
# Elastic Compliance Matrix: (Units=1/GPa)
#
#
# Indices 1 2 3 4 5 6 
#
# 1 0.023367 -0.013928 -0.005212 0.000107 -0.018635 -0.001871
# 2 -0.013928 0.027996 -0.001320 0.002254 0.026212 0.012681
# 3 -0.005212 -0.001320 0.015513 0.008512 0.005182 -0.002366
# 4 0.000107 0.002254 0.008512 0.032389 0.003882 -0.005355
# 5 -0.018635 0.026212 0.005182 0.003882 0.070015 0.013730
# 6 -0.001871 0.012681 -0.002366 -0.005355 0.013730 0.035522
#
#
# Mechanical properties :
#
#
# Convention : Reuss Voigt Hill
#
# Bulk Modulus (GPa) = 38.52407 54.23378 46.37893
# Shear Modulus (GPa) = 19.65618 30.59083 25.12350
#
# Velocity S-wave (km/s) = 3.09566 3.86188 3.49980
# Velocity P-wave (km/s) = 5.61777 6.80636 6.24043
#
# Compressibility (1/GPa) = 0.02595780
#
# Stress axis : x y z
#
# Youngs Moduli (GPa) = 42.79460 35.71929 64.46189
#
# Poissons Ratio (x) = 0.49748 0.33594
# Poissons Ratio (y) = 0.59602 0.08511
# Poissons Ratio (z) = 0.22303 0.04716
#
# Static dielectric constant tensor:
#      x y z
#    x 1.808920 0.071740 0.014730 
#    y 0.071740 1.865950 0.016830 
#    z 0.014730 0.016830 1.752470 
# 
# From -- ./inp_files/207899.got.cif
#   From: 2010.05.17/outbox.cif.g08.bks.cpg/sg2_104_cif.got.tgz:207899.got - 2010.06.03 11:33:40.
