data_PCOD9104574
_publ_section_title
;
Structure prediction by ZEFSAII (Michael W. Deem and Ramdas Pophale) SiO2 
 PCOD9104574
Probable space group: P -1
;
_chemical_formula_sum "Si O2"
_cell_formula_units_Z 16
_cell_length_a 9.436446
_cell_length_b 14.707463
_cell_length_c 14.509633
_cell_angle_alpha 129.943580
_cell_angle_beta 145.908103
_cell_angle_gamma 40.349115
_cell_volume 730.467870
_symmetry_space_group_name_H-M "P -1"
_symmetry_group_IT_number 2
_symmetry_cell_setting 'triclinic'
loop_
_space_group_symop_operation_xyz
x,y,z
-x,-y,-z
loop_
_atom_site_type_symbol
_atom_site_label
_atom_site_fract_x
_atom_site_fract_y
_atom_site_fract_z
Si Si1 0.316751 0.005667 0.993865
Si Si2 0.206362 0.774794 0.782434
Si Si3 0.557827 0.751258 0.228962
Si Si4 0.076182 0.182667 0.152017
Si Si5 0.697122 0.213049 0.692374
Si Si6 0.237574 0.537236 0.116723
Si Si7 0.166130 0.538622 0.869679
Si Si8 0.286438 0.043127 0.502009
O O1 0.982194 0.104709 0.837886
O O2 0.386399 0.850638 0.947861
O O3 0.312214 0.075011 0.134083
O O4 0.500000 0.000000 0.000000
O O5 0.958476 0.831717 0.767516
O O6 0.435771 0.607830 0.800451
O O7 0.039147 0.838267 0.636801
O O8 0.552243 0.723598 0.318682
O O9 0.815483 0.605200 0.229117
O O10 0.615008 0.875140 0.326656
O O11 0.242128 0.793413 0.040484
O O12 0.057417 0.329002 0.225084
O O13 0.736917 0.333503 0.749116
O O14 0.681448 0.102055 0.545155
O O15 0.127989 0.583805 0.983496
O O16 0.000000 0.500000 0.000000
O O17 0.500000 0.500000 0.000000
O O18 0.500000 0.000000 0.500000
#
# Coordination Sequence:
#
# PCOD9104574 Si02
#       8
#     2   2   2   2   2   2   2   2
#     4  10  19  31  49  79 115 146 174 227 287 330
#     4  11  21  33  55  91 106 140 198 237 265 333
#     4   9  15  32  58  80 104 149 179 220 284 336
#     4  10  18  33  57  82 114 137 186 243 277 324
#     4   9  17  34  51  74 112 149 175 221 279 330
#     4  12  21  33  57  89 116 143 187 238 283 330
#     4  10  16  33  57  80 111 146 177 235 295 313
#     4   9  20  35  56  81 115 154 180 227 287 331
#
# _framework density 21.903770000000002
#
# number of rings (size 3 to 8) (size 9 to 14) (size 15 to 20)
#    0.000    2.000    6.250    1.875    0.000    0.000 
#    0.000    5.625    0.000    1.500    9.750    2.625 
#    0.000    0.000    0.000    0.000    0.000    0.000 
#
# Total GULP energy -89115.545091 kJ/mol
# GULP energy per Si atom -5569.721568 kJ/mol
# Density = 2.185392 g / cm^3
# Si number density = 21.903770 Si / 1000 Ang^3
#
#
#
# Elastic Constant Matrix: (Units=GPa)
#
#
# Indices 1 2 3 4 5 6 
#
# 1 79.5590 10.6124 9.0683 7.1129 4.9783 16.8629
# 2 10.6124 120.0307 47.8462 37.9721 6.1964 25.7909
# 3 9.0683 47.8462 44.4036 22.2149 3.7694 3.5245
# 4 7.1129 37.9721 22.2149 41.4928 10.8457 4.7352
# 5 4.9783 6.1964 3.7694 10.8457 16.8776 4.5180
# 6 16.8629 25.7909 3.5245 4.7352 4.5180 25.6369
#
#
#
# Elastic Compliance Matrix: (Units=1/GPa)
#
#
# Indices 1 2 3 4 5 6 
#
# 1 0.015770 0.004712 -0.006110 -0.002187 0.000106 -0.013887
# 2 0.004712 0.024476 -0.020229 -0.011749 0.008174 -0.024211
# 3 -0.006110 -0.020229 0.048177 -0.008047 -0.001583 0.019512
# 4 -0.002187 -0.011749 -0.008047 0.044840 -0.024860 0.010464
# 5 0.000106 0.008174 -0.001583 -0.024860 0.077117 -0.017074
# 6 -0.013887 -0.024211 0.019512 0.010464 -0.017074 0.070891
#
#
# Mechanical properties :
#
#
# Convention : Reuss Voigt Hill
#
# Bulk Modulus (GPa) = 22.14009 42.11635 32.12822
# Shear Modulus (GPa) = 14.72398 28.56587 21.64492
#
# Velocity S-wave (km/s) = 2.59552 3.61522 3.14695
# Velocity P-wave (km/s) = 4.37174 6.05773 5.28243
#
# Compressibility (1/GPa) = 0.04516693
#
# Stress axis : x y z
#
# Youngs Moduli (GPa) = 63.41317 40.85715 20.75660
#
# Poissons Ratio (x) = -0.19250 0.12683
# Poissons Ratio (y) = -0.29878 0.41989
# Poissons Ratio (z) = 0.38746 0.82651
#
# Static dielectric constant tensor:
#      x y z
#    x 1.835310 -0.015270 0.018190 
#    y -0.015270 1.884630 -0.000010 
#    z 0.018190 -0.000010 1.902720 
# 
# From -- ./inp_files/504303.got.cif
#   From: 2010.05.17/outbox.cif.g08.bks.cpg/sg2_253_cif.got.tgz:504303.got - 2010.06.03 11:33:40.
