data_PCOD9104994
_publ_section_title
;
Structure prediction by ZEFSAII (Michael W. Deem and Ramdas Pophale) SiO2 
 PCOD9104994
Probable space group: P -1
;
_chemical_formula_sum "Si O2"
_cell_formula_units_Z 15
_cell_length_a 11.110287
_cell_length_b 17.505463
_cell_length_c 8.997640
_cell_angle_alpha 132.462568
_cell_angle_beta 105.476167
_cell_angle_gamma 39.735008
_cell_volume 697.169763
_symmetry_space_group_name_H-M "P -1"
_symmetry_group_IT_number 2
_symmetry_cell_setting 'triclinic'
loop_
_space_group_symop_operation_xyz
x,y,z
-x,-y,-z
loop_
_atom_site_type_symbol
_atom_site_label
_atom_site_fract_x
_atom_site_fract_y
_atom_site_fract_z
Si Si1 0.737466 0.869701 0.602612
Si Si2 0.959345 0.156869 0.311153
Si Si3 0.907435 0.140121 0.936123
Si Si4 0.271051 0.513812 0.962073
Si Si5 0.455496 0.569481 0.285482
Si Si6 0.441280 0.189722 0.715178
Si Si7 0.500000 0.000000 0.000000
Si Si8 0.814571 0.901009 0.213144
O O1 0.532880 0.085808 0.766031
O O2 0.962109 0.781732 0.547471
O O3 0.726294 0.779815 0.371151
O O4 0.687442 0.873882 0.759980
O O5 0.706336 0.301912 0.460732
O O6 0.102159 0.976764 0.216559
O O7 0.996478 0.112046 0.090683
O O8 0.070380 0.074478 0.780494
O O9 0.668825 0.355712 0.119547
O O10 0.443673 0.402072 0.732361
O O11 0.336618 0.374363 0.906048
O O12 0.309954 0.597461 0.164804
O O13 0.019873 0.686241 0.046852
O O14 0.655685 0.034235 0.473483
O O15 0.330616 0.052604 0.901439
#
# Coordination Sequence:
#
# PCOD9104994 Si02
#       8
#     2   2   2   2   2   2   1   2
#     4  10  21  38  61  86 118 158 197 248 291 345
#     4  11  20  36  58  87 119 158 194 240 296 354
#     4  10  21  35  60  88 121 155 195 234 301 353
#     4  10  21  38  61  89 120 156 197 238 298 350
#     4  10  21  36  58  89 122 152 192 249 286 348
#     4  10  21  39  62  87 119 155 203 242 289 351
#     4  10  20  40  60  80 120 156 192 244 296 336
#     4  10  20  39  63  87 120 159 189 249 289 349
#
# _framework density 21.515561999999999
#
# number of rings (size 3 to 8) (size 9 to 14) (size 15 to 20)
#    0.000    1.867    1.333    2.800    0.000    0.000 
#    0.000   21.333    5.867    0.000    0.000    0.000 
#    0.000    0.000    0.000    0.000    0.000    0.000 
#
# Total GULP energy -83545.782862 kJ/mol
# GULP energy per Si atom -5569.718857 kJ/mol
# Density = 2.146659 g / cm^3
# Si number density = 21.515562 Si / 1000 Ang^3
#
#
#
# Elastic Constant Matrix: (Units=GPa)
#
#
# Indices 1 2 3 4 5 6 
#
# 1 62.1545 1.6790 5.8676 4.9772 -0.4166 0.3557
# 2 1.6790 45.5600 -4.6499 3.6090 8.2269 -3.6361
# 3 5.8676 -4.6499 35.8689 0.8715 -10.5754 1.9010
# 4 4.9772 3.6090 0.8715 26.9292 3.9609 4.0085
# 5 -0.4166 8.2269 -10.5754 3.9609 24.6943 -5.4371
# 6 0.3557 -3.6361 1.9010 4.0085 -5.4371 28.9227
#
#
#
# Elastic Compliance Matrix: (Units=1/GPa)
#
#
# Indices 1 2 3 4 5 6 
#
# 1 0.016599 -0.000611 -0.002793 -0.002908 -0.000186 0.000271
# 2 -0.000611 0.023626 0.001187 -0.002428 -0.006542 0.002007
# 3 -0.002793 0.001187 0.032717 -0.002973 0.014295 0.001132
# 4 -0.002908 -0.002428 -0.002973 0.040446 -0.008607 -0.007298
# 5 -0.000186 -0.006542 0.014295 -0.008607 0.052210 0.009248
# 6 0.000271 0.002007 0.001132 -0.007298 0.009248 0.037499
#
#
# Mechanical properties :
#
#
# Convention : Reuss Voigt Hill
#
# Bulk Modulus (GPa) = 14.59700 16.59741 15.59720
# Shear Modulus (GPa) = 21.70431 25.48836 23.59634
#
# Velocity S-wave (km/s) = 3.17956 3.44560 3.31525
# Velocity P-wave (km/s) = 4.50318 4.85391 4.68183
#
# Compressibility (1/GPa) = 0.06850725
#
# Stress axis : x y z
#
# Youngs Moduli (GPa) = 60.24368 42.32536 30.56527
#
# Poissons Ratio (x) = 0.02587 0.08538
# Poissons Ratio (y) = 0.03682 -0.03627
# Poissons Ratio (z) = 0.16828 -0.05023
#
# Static dielectric constant tensor:
#      x y z
#    x 1.777180 0.024320 0.002600 
#    y 0.024320 1.790800 -0.009190 
#    z 0.002600 -0.009190 1.781720 
# 
# From -- ./inp_files/94961.got.cif
#   From: 2010.05.17/outbox.cif.g08.bks.cpg/sg2_48_cif.got.tgz:94961.got - 2010.06.03 11:33:40.
