data_PCOD9104430
_publ_section_title
;
Structure prediction by ZEFSAII (Michael W. Deem and Ramdas Pophale) SiO2 
 PCOD9104430
Probable space group: P -1
;
_chemical_formula_sum "Si O2"
_cell_formula_units_Z 13
_cell_length_a 5.227420
_cell_length_b 9.051600
_cell_length_c 11.253662
_cell_angle_alpha 73.575329
_cell_angle_beta 79.953973
_cell_angle_gamma 82.383825
_cell_volume 500.967985
_symmetry_space_group_name_H-M "P -1"
_symmetry_group_IT_number 2
_symmetry_cell_setting 'triclinic'
loop_
_space_group_symop_operation_xyz
x,y,z
-x,-y,-z
loop_
_atom_site_type_symbol
_atom_site_label
_atom_site_fract_x
_atom_site_fract_y
_atom_site_fract_z
Si Si1 0.394404 0.893963 0.803039
Si Si2 0.944006 0.996912 0.643228
Si Si3 0.029912 0.666902 0.904435
Si Si4 0.691290 0.294516 0.688390
Si Si5 0.742084 0.798406 0.110433
Si Si6 0.500000 0.500000 0.500000
Si Si7 0.986459 0.493277 0.296088
O O1 0.673015 0.931480 0.722112
O O2 0.191007 0.914850 0.707042
O O3 0.319288 0.723948 0.887211
O O4 0.288976 0.027341 0.876210
O O5 0.911051 0.169715 0.659038
O O6 0.000000 0.000000 0.500000
O O7 0.961541 0.631570 0.781840
O O8 0.837557 0.785602 0.970368
O O9 0.000000 0.500000 0.000000
O O10 0.544490 0.254916 0.828146
O O11 0.488711 0.317545 0.591697
O O12 0.769817 0.472086 0.646716
O O13 0.921094 0.662115 0.197769
O O14 0.753053 0.448455 0.405107
#
# Coordination Sequence:
#
# PCOD9104430 Si02
#       7
#     2   2   2   2   2   1   2
#     4  11  23  47  69 103 134 188 232 283 355 405
#     4  11  25  44  73 102 142 179 237 289 340 420
#     4  10  23  43  66  99 137 178 231 290 338 413
#     4  10  21  40  64  95 129 183 225 284 348 409
#     4   9  20  42  64  89 132 174 228 280 337 406
#     4  10  22  36  62  92 136 176 220 288 342 420
#     4  10  20  39  60  94 131 172 227 273 354 401
#
# _framework density 25.949757999999999
#
# number of rings (size 3 to 8) (size 9 to 14) (size 15 to 20)
#    0.000    1.846    1.538    1.385    2.154    1.846 
#   13.846    2.308    0.000    0.000    0.000    0.000 
#    0.000    0.000    0.000    0.000    0.000    0.000 
#
# Total GULP energy -72424.495487 kJ/mol
# GULP energy per Si atom -5571.115037 kJ/mol
# Density = 2.589070 g / cm^3
# Si number density = 25.949758 Si / 1000 Ang^3
#
#
#
# Elastic Constant Matrix: (Units=GPa)
#
#
# Indices 1 2 3 4 5 6 
#
# 1 90.6793 41.7158 44.3466 3.5436 -30.9321 24.5719
# 2 41.7158 144.1724 63.2466 15.4190 -16.5564 26.3724
# 3 44.3466 63.2466 163.5247 34.9913 -40.5724 25.5346
# 4 3.5436 15.4190 34.9913 47.3877 -8.7227 0.6260
# 5 -30.9321 -16.5564 -40.5724 -8.7227 34.4110 -14.8615
# 6 24.5719 26.3724 25.5346 0.6260 -14.8615 34.8516
#
#
#
# Elastic Compliance Matrix: (Units=1/GPa)
#
#
# Indices 1 2 3 4 5 6 
#
# 1 0.018243 -0.003019 -0.000255 0.002289 0.013140 -0.004828
# 2 -0.003019 0.009615 -0.002789 -0.001476 -0.003774 -0.004687
# 3 -0.000255 -0.002789 0.011002 -0.005468 0.009273 -0.001718
# 4 0.002289 -0.001476 -0.005468 0.026024 0.003445 0.004511
# 5 0.013140 -0.003774 0.009273 0.003445 0.055322 0.010327
# 6 -0.004828 -0.004687 -0.001718 0.004511 0.010327 0.041225
#
#
# Mechanical properties :
#
#
# Convention : Reuss Voigt Hill
#
# Bulk Modulus (GPa) = 37.40625 77.44382 57.42503
# Shear Modulus (GPa) = 27.40202 39.93457 33.66830
#
# Velocity S-wave (km/s) = 3.25309 3.92716 3.60591
# Velocity P-wave (km/s) = 5.34381 7.10436 6.28603
#
# Compressibility (1/GPa) = 0.02673350
#
# Stress axis : x y z
#
# Youngs Moduli (GPa) = 54.81636 104.00595 90.89151
#
# Poissons Ratio (x) = 0.31401 0.02321
# Poissons Ratio (y) = 0.16550 0.25346
# Poissons Ratio (z) = 0.01400 0.29003
#
# Static dielectric constant tensor:
#      x y z
#    x 1.562550 -0.131300 -0.199190 
#    y -0.131300 2.092550 -0.185210 
#    z -0.199190 -0.185210 1.973750 
# 
# From -- ./inp_files/23630.got.cif
#   From: 2010.05.17/outbox.cif.g08.bks.cpg/sg2_12_cif.got.tgz:23630.got - 2010.06.03 11:33:40.
