data_PCOD9104706
_publ_section_title
;
Structure prediction by ZEFSAII (Michael W. Deem and Ramdas Pophale) SiO2 
 PCOD9104706
Probable space group: P -1
;
_chemical_formula_sum "Si O2"
_cell_formula_units_Z 14
_cell_length_a 9.077416
_cell_length_b 11.543244
_cell_length_c 14.729761
_cell_angle_alpha 147.238064
_cell_angle_beta 116.316289
_cell_angle_gamma 59.359805
_cell_volume 718.253566
_symmetry_space_group_name_H-M "P -1"
_symmetry_group_IT_number 2
_symmetry_cell_setting 'triclinic'
loop_
_space_group_symop_operation_xyz
x,y,z
-x,-y,-z
loop_
_atom_site_type_symbol
_atom_site_label
_atom_site_fract_x
_atom_site_fract_y
_atom_site_fract_z
Si Si1 0.838873 0.213699 0.572801
Si Si2 0.169020 0.388666 0.031523
Si Si3 0.329053 0.439543 0.935073
Si Si4 0.987741 0.184850 0.975052
Si Si5 0.183941 0.197996 0.355135
Si Si6 0.053733 0.505615 0.364662
Si Si7 0.450123 0.001274 0.592679
O O1 0.827289 0.415344 0.770945
O O2 0.874395 0.318141 0.555824
O O3 0.661921 0.154185 0.503235
O O4 0.000000 0.000000 0.500000
O O5 0.144884 0.184753 0.950257
O O6 0.320013 0.346691 0.972429
O O7 0.000000 0.500000 0.000000
O O8 0.174663 0.653717 0.014329
O O9 0.323304 0.244830 0.737178
O O10 0.500000 0.500000 0.000000
O O11 0.010074 0.324115 0.163429
O O12 0.939843 0.952484 0.810832
O O13 0.185073 0.362232 0.380015
O O14 0.372497 0.049292 0.336412
O O15 0.102525 0.347481 0.519263
O O16 0.500000 0.000000 0.500000
#
# Coordination Sequence:
#
# PCOD9104706 Si02
#       7
#     2   2   2   2   2   2   2
#     4  11  22  38  63  88 121 155 200 259 300 364
#     4   9  20  33  55  86 115 150 195 244 301 356
#     4  11  20  34  55  91 119 151 195 255 306 363
#     4  10  20  39  62  85 122 156 206 248 300 364
#     4  11  23  41  63  86 125 166 200 256 305 362
#     4  10  24  41  62  90 117 165 216 242 302 371
#     4  12  24  37  61  93 123 156 201 253 318 356
#
# _framework density 19.491724000000001
#
# number of rings (size 3 to 8) (size 9 to 14) (size 15 to 20)
#    0.000    1.429    1.429    5.571    8.000    0.571 
#    0.000    0.000    0.000    1.714    0.000    0.000 
#    0.000    0.000    0.000    0.000    0.000    0.000 
#
# Total GULP energy -78012.896539 kJ/mol
# GULP energy per Si atom -5572.349753 kJ/mol
# Density = 1.944736 g / cm^3
# Si number density = 19.491724 Si / 1000 Ang^3
#
#
#
# Elastic Constant Matrix: (Units=GPa)
#
#
# Indices 1 2 3 4 5 6 
#
# 1 121.2373 46.1250 32.6773 -9.5124 7.8049 35.3828
# 2 46.1250 81.8019 17.2337 4.0098 5.6624 31.7169
# 3 32.6773 17.2337 64.2837 -0.0686 9.1733 22.7620
# 4 -9.5124 4.0098 -0.0686 22.5382 0.0935 -0.8038
# 5 7.8049 5.6624 9.1733 0.0935 36.4175 -0.0556
# 6 35.3828 31.7169 22.7620 -0.8038 -0.0556 35.4722
#
#
#
# Elastic Compliance Matrix: (Units=1/GPa)
#
#
# Indices 1 2 3 4 5 6 
#
# 1 0.013419 -0.004171 -0.002720 0.006126 -0.001570 -0.007774
# 2 -0.004171 0.020865 0.002768 -0.006037 -0.003057 -0.016413
# 3 -0.002720 0.002768 0.021864 -0.002045 -0.005371 -0.013846
# 4 0.006126 -0.006037 -0.002045 0.048083 0.000020 0.001688
# 5 -0.001570 -0.003057 -0.005371 0.000020 0.029636 0.007793
# 6 -0.007774 -0.016413 -0.013846 0.001688 0.007793 0.059557
#
#
# Mechanical properties :
#
#
# Convention : Reuss Voigt Hill
#
# Bulk Modulus (GPa) = 20.87589 51.04387 35.95988
# Shear Modulus (GPa) = 22.97432 30.30471 26.63951
#
# Velocity S-wave (km/s) = 3.43690 3.94731 3.70091
# Velocity P-wave (km/s) = 5.14617 6.85706 6.06228
#
# Compressibility (1/GPa) = 0.04790215
#
# Stress axis : x y z
#
# Youngs Moduli (GPa) = 74.52274 47.92804 45.73832
#
# Poissons Ratio (x) = 0.19989 0.12440
# Poissons Ratio (y) = 0.31081 -0.12661
# Poissons Ratio (z) = 0.20268 -0.13267
#
# Static dielectric constant tensor:
#      x y z
#    x 1.760130 0.048110 0.028740 
#    y 0.048110 1.691060 0.027580 
#    z 0.028740 0.027580 1.743710 
# 
# From -- ./inp_files/204341.got.cif
#   From: 2010.05.17/outbox.cif.g08.bks.cpg/sg2_103_cif.got.tgz:204341.got - 2010.06.03 11:33:40.
