data_PCOD9104375
_publ_section_title
;
Structure prediction by ZEFSAII (Michael W. Deem and Ramdas Pophale) SiO2 
 PCOD9104375
Probable space group: P -1
;
_chemical_formula_sum "Si O2"
_cell_formula_units_Z 16
_cell_length_a 15.652931
_cell_length_b 9.486403
_cell_length_c 13.135214
_cell_angle_alpha 84.491817
_cell_angle_beta 151.279948
_cell_angle_gamma 76.841973
_cell_volume 707.429992
_symmetry_space_group_name_H-M "P -1"
_symmetry_group_IT_number 2
_symmetry_cell_setting 'triclinic'
loop_
_space_group_symop_operation_xyz
x,y,z
-x,-y,-z
loop_
_atom_site_type_symbol
_atom_site_label
_atom_site_fract_x
_atom_site_fract_y
_atom_site_fract_z
Si Si1 0.780684 0.663779 0.057514
Si Si2 0.739062 0.119609 0.758450
Si Si3 0.146240 0.604172 0.574463
Si Si4 0.265498 0.459601 0.184921
Si Si5 0.385515 0.941264 0.161770
Si Si6 0.587704 0.270214 0.189344
Si Si7 0.292296 0.008832 0.826228
Si Si8 0.800009 0.796639 0.739852
O O1 0.535309 0.759338 0.851343
O O2 0.012746 0.551358 0.376981
O O3 0.796831 0.540357 0.996147
O O4 0.756143 0.838849 0.983767
O O5 0.543837 0.330205 0.498696
O O6 0.710359 0.119279 0.850484
O O7 0.690480 0.989776 0.666112
O O8 0.000000 0.000000 0.000000
O O9 0.360782 0.438489 0.876618
O O10 0.259731 0.673701 0.622211
O O11 0.942159 0.779303 0.417159
O O12 0.220328 0.333839 0.204389
O O13 0.076530 0.668586 0.014269
O O14 0.650955 0.837195 0.480480
O O15 0.359779 0.920032 0.016978
O O16 0.737334 0.099204 0.279283
O O17 0.500000 0.000000 0.000000
#
# Coordination Sequence:
#
# PCOD9104375 Si02
#       8
#     2   2   2   2   2   2   2   2
#     4  11  20  39  65  90 122 163 209 247 309 367
#     4  11  22  40  62  87 129 159 193 257 309 362
#     4  10  24  40  60  90 124 164 203 257 301 365
#     4  10  21  37  62  90 112 157 205 249 296 366
#     4  10  20  39  60  90 117 158 210 241 304 364
#     4  11  23  42  61  89 129 163 203 256 310 358
#     4  11  22  38  64  92 121 167 206 251 306 366
#     4  10  20  39  61  85 119 154 201 251 299 364
#
# _framework density 22.617080000000001
#
# number of rings (size 3 to 8) (size 9 to 14) (size 15 to 20)
#    0.000    1.500    5.000    1.500    1.750    2.500 
#    0.000    2.500    0.000    0.000    0.000    0.000 
#    0.000    0.000    0.000    0.000    0.000    0.000 
#
# Total GULP energy -89329.260347 kJ/mol
# GULP energy per Si atom -5583.078772 kJ/mol
# Density = 2.256560 g / cm^3
# Si number density = 22.617080 Si / 1000 Ang^3
#
#
#
# Elastic Constant Matrix: (Units=GPa)
#
#
# Indices 1 2 3 4 5 6 
#
# 1 56.0662 13.6974 26.3950 7.6364 -3.4791 -11.8131
# 2 13.6974 41.5877 9.5501 0.8547 0.3298 -11.3281
# 3 26.3950 9.5501 100.0818 -12.4685 29.8722 -1.2025
# 4 7.6364 0.8547 -12.4685 32.4172 2.7720 9.5442
# 5 -3.4791 0.3298 29.8722 2.7720 24.0868 5.7960
# 6 -11.8131 -11.3281 -1.2025 9.5442 5.7960 30.0017
#
#
#
# Elastic Compliance Matrix: (Units=1/GPa)
#
#
# Indices 1 2 3 4 5 6 
#
# 1 0.036962 -0.003158 -0.021695 -0.023780 0.031670 0.013939
# 2 -0.003158 0.028614 -0.002185 -0.004007 -0.000277 0.010802
# 3 -0.021695 -0.002185 0.031643 0.023130 -0.043302 -0.007091
# 4 -0.023780 -0.004007 0.023130 0.054433 -0.033317 -0.020829
# 5 0.031670 -0.000277 -0.043302 -0.033317 0.103327 0.001267
# 6 0.013939 0.010802 -0.007091 -0.020829 0.001267 0.048995
#
#
# Mechanical properties :
#
#
# Convention : Reuss Voigt Hill
#
# Bulk Modulus (GPa) = 23.17760 33.00231 28.08996
# Shear Modulus (GPa) = 13.42533 27.17402 20.29967
#
# Velocity S-wave (km/s) = 2.43902 3.47000 2.99914
# Velocity P-wave (km/s) = 4.26636 5.53877 4.94367
#
# Compressibility (1/GPa) = 0.04314510
#
# Stress axis : x y z
#
# Youngs Moduli (GPa) = 27.05480 34.94783 31.60244
#
# Poissons Ratio (x) = 0.11035 0.68561
# Poissons Ratio (y) = 0.08543 0.06904
# Poissons Ratio (z) = 0.58695 0.07635
#
# Static dielectric constant tensor:
#      x y z
#    x 1.901870 0.042160 -0.003410 
#    y 0.042160 1.851540 0.035850 
#    z -0.003410 0.035850 1.879060 
# 
# From -- ./inp_files/428042.got.cif
#   From: 2010.05.17/outbox.cif.g08.bks.cpg/sg2_215_cif.got.tgz:428042.got - 2010.06.03 11:33:40.
