data_PCOD9104988
_publ_section_title
;
Structure prediction by ZEFSAII (Michael W. Deem and Ramdas Pophale) SiO2 
 PCOD9104988
Probable space group: P -1
;
_chemical_formula_sum "Si O2"
_cell_formula_units_Z 15
_cell_length_a 11.123082
_cell_length_b 12.256975
_cell_length_c 12.840124
_cell_angle_alpha 70.669227
_cell_angle_beta 137.881510
_cell_angle_gamma 80.431039
_cell_volume 841.272509
_symmetry_space_group_name_H-M "P -1"
_symmetry_group_IT_number 2
_symmetry_cell_setting 'triclinic'
loop_
_space_group_symop_operation_xyz
x,y,z
-x,-y,-z
loop_
_atom_site_type_symbol
_atom_site_label
_atom_site_fract_x
_atom_site_fract_y
_atom_site_fract_z
Si Si1 0.500000 0.000000 0.500000
Si Si2 0.806309 0.329781 0.466755
Si Si3 0.499923 0.976155 0.755387
Si Si4 0.668275 0.835406 0.216880
Si Si5 0.034645 0.830779 0.171397
Si Si6 0.744056 0.160259 0.311579
Si Si7 0.968598 0.130413 0.076839
Si Si8 0.565307 0.314326 0.929680
O O1 0.539919 0.984407 0.403516
O O2 0.219450 0.083144 0.274745
O O3 0.809662 0.297507 0.601336
O O4 0.760389 0.234372 0.399325
O O5 0.615132 0.505938 0.260322
O O6 0.067926 0.262829 0.624865
O O7 0.428322 0.875139 0.767589
O O8 0.346503 0.123854 0.684252
O O9 0.772843 0.886296 0.985927
O O10 0.563774 0.753051 0.156182
O O11 0.500000 0.000000 0.000000
O O12 0.121259 0.792714 0.119789
O O13 0.008343 0.975572 0.142583
O O14 0.657153 0.267768 0.121557
O O15 0.000000 0.000000 0.500000
O O16 0.782809 0.233395 0.015344
#
# Coordination Sequence:
#
# PCOD9104988 Si02
#       8
#     1   2   2   2   2   2   2   2
#     4  10  22  36  60  94 112 146 202 260 294 338
#     4  12  24  37  59  92 128 159 192 251 317 357
#     4  11  20  36  64  87 116 148 208 254 286 338
#     4  12  20  39  64  89 116 162 209 243 290 359
#     4  10  20  39  63  87 113 160 211 249 285 355
#     4  12  22  38  62  86 118 161 204 246 295 360
#     4  10  21  38  64  87 117 156 208 253 288 358
#     4  12  24  39  58  92 129 155 194 252 316 361
#
# _framework density 17.830131999999999
#
# number of rings (size 3 to 8) (size 9 to 14) (size 15 to 20)
#    0.000    0.800    5.333    3.200    0.000    0.533 
#    0.000    0.000    0.000    4.000    0.000    0.000 
#    0.000    0.000    0.000    0.000    0.000    0.000 
#
# Total GULP energy -83556.758013 kJ/mol
# GULP energy per Si atom -5570.450534 kJ/mol
# Density = 1.778955 g / cm^3
# Si number density = 17.830132 Si / 1000 Ang^3
#
#
#
# Elastic Constant Matrix: (Units=GPa)
#
#
# Indices 1 2 3 4 5 6 
#
# 1 61.5854 8.5513 25.3868 20.0057 -5.9664 -9.2540
# 2 8.5513 57.0898 31.4325 12.8007 -9.1499 3.0389
# 3 25.3868 31.4325 103.7094 14.0291 -23.9858 -2.9851
# 4 20.0057 12.8007 14.0291 22.3376 -7.5294 -9.8927
# 5 -5.9664 -9.1499 -23.9858 -7.5294 39.2406 8.7771
# 6 -9.2540 3.0389 -2.9851 -9.8927 8.7771 25.0096
#
#
#
# Elastic Compliance Matrix: (Units=1/GPa)
#
#
# Indices 1 2 3 4 5 6 
#
# 1 0.024544 0.003294 -0.004675 -0.021592 -0.002613 0.000499
# 2 0.003294 0.024985 -0.005944 -0.017418 0.001582 -0.009972
# 3 -0.004675 -0.005944 0.014101 0.000363 0.006955 -0.001622
# 4 -0.021592 -0.017418 0.000363 0.087179 0.003468 0.027437
# 5 -0.002613 0.001582 0.006955 0.003468 0.032706 -0.010435
# 6 0.000499 -0.009972 -0.001622 0.027437 -0.010435 0.055703
#
#
# Mechanical properties :
#
#
# Convention : Reuss Voigt Hill
#
# Bulk Modulus (GPa) = 20.41687 39.23620 29.82654
# Shear Modulus (GPa) = 18.50518 27.78517 23.14518
#
# Velocity S-wave (km/s) = 3.22508 3.95185 3.60681
# Velocity P-wave (km/s) = 5.03426 6.54799 5.84037
#
# Compressibility (1/GPa) = 0.04897911
#
# Stress axis : x y z
#
# Youngs Moduli (GPa) = 40.74396 40.02365 70.91723
#
# Poissons Ratio (x) = -0.13184 0.33156
# Poissons Ratio (y) = -0.13421 0.42153
# Poissons Ratio (z) = 0.19049 0.23790
#
# Static dielectric constant tensor:
#      x y z
#    x 1.621980 -0.002260 -0.017400 
#    y -0.002260 1.585960 0.023720 
#    z -0.017400 0.023720 1.591390 
# 
# From -- ./inp_files/170645.got.cif
#   From: 2010.05.17/outbox.cif.g08.bks.cpg/sg2_86_cif.got.tgz:170645.got - 2010.06.03 11:33:40.
