data_PCOD9104380
_publ_section_title
;
Structure prediction by ZEFSAII (Michael W. Deem and Ramdas Pophale) SiO2 
 PCOD9104380
Probable space group: P -1
;
_chemical_formula_sum "Si O2"
_cell_formula_units_Z 15
_cell_length_a 9.288758
_cell_length_b 8.633543
_cell_length_c 12.936921
_cell_angle_alpha 123.447670
_cell_angle_beta 131.222630
_cell_angle_gamma 87.535752
_cell_volume 559.974878
_symmetry_space_group_name_H-M "P -1"
_symmetry_group_IT_number 2
_symmetry_cell_setting 'triclinic'
loop_
_space_group_symop_operation_xyz
x,y,z
-x,-y,-z
loop_
_atom_site_type_symbol
_atom_site_label
_atom_site_fract_x
_atom_site_fract_y
_atom_site_fract_z
Si Si1 0.819476 0.770275 0.285024
Si Si2 0.500000 0.000000 0.000000
Si Si3 0.342759 0.696132 0.461953
Si Si4 0.740886 0.330902 0.814086
Si Si5 0.478754 0.912607 0.182118
Si Si6 0.809845 0.908681 0.120633
Si Si7 0.807400 0.721626 0.666440
Si Si8 0.385609 0.496002 0.721167
O O1 0.584529 0.761307 0.168210
O O2 0.768966 0.594675 0.284452
O O3 0.868228 0.786278 0.190878
O O4 0.000000 0.000000 0.500000
O O5 0.250168 0.922768 0.796255
O O6 0.626908 0.095081 0.979426
O O7 0.313056 0.770416 0.362997
O O8 0.586155 0.723019 0.595368
O O9 0.172357 0.441476 0.305939
O O10 0.338552 0.850546 0.602820
O O11 0.683429 0.179835 0.830000
O O12 0.577606 0.430987 0.780532
O O13 0.000000 0.500000 0.000000
O O14 0.999165 0.033052 0.172982
O O15 0.544755 0.755894 0.903076
O O16 0.747631 0.598142 0.481625
#
# Coordination Sequence:
#
# PCOD9104380 Si02
#       8
#     2   1   2   2   2   2   2   2
#     4  10  20  39  60  90 122 162 215 255 298 375
#     4  10  24  42  60  96 124 156 218 254 298 382
#     4  10  22  42  61  94 125 161 209 256 316 373
#     4  10  23  38  62  95 128 158 207 260 308 379
#     4  10  22  41  65  88 129 162 204 265 308 369
#     4  11  22  39  65  85 126 169 199 260 316 359
#     4  10  22  40  63  91 124 158 209 259 304 383
#     4  10  21  40  61  92 122 160 213 254 309 372
#
# _framework density 26.786915
#
# number of rings (size 3 to 8) (size 9 to 14) (size 15 to 20)
#    0.000    1.867    1.333    1.600    3.733    1.067 
#    2.400    4.667    0.000    0.000    0.000    0.000 
#    0.000    0.000    0.000    0.000    0.000    0.000 
#
# Total GULP energy -83645.708495 kJ/mol
# GULP energy per Si atom -5576.380566 kJ/mol
# Density = 2.672595 g / cm^3
# Si number density = 26.786915 Si / 1000 Ang^3
#
#
#
# Elastic Constant Matrix: (Units=GPa)
#
#
# Indices 1 2 3 4 5 6 
#
# 1 91.1912 36.6581 9.3322 3.6036 -3.4108 8.0721
# 2 36.6581 143.3730 23.6378 9.6216 -5.8571 38.9735
# 3 9.3322 23.6378 76.4756 13.4444 -2.7076 12.2441
# 4 3.6036 9.6216 13.4444 47.0957 15.6383 2.4054
# 5 -3.4108 -5.8571 -2.7076 15.6383 48.1062 -2.1807
# 6 8.0721 38.9735 12.2441 2.4054 -2.1807 33.6841
#
#
#
# Elastic Compliance Matrix: (Units=1/GPa)
#
#
# Indices 1 2 3 4 5 6 
#
# 1 0.012292 -0.003316 -0.000577 -0.000359 0.000605 0.001165
# 2 -0.003316 0.011327 -0.000895 -0.001555 0.001064 -0.011806
# 3 -0.000577 -0.000895 0.014888 -0.004485 0.001974 -0.003790
# 4 -0.000359 -0.001555 -0.004485 0.025717 -0.008777 0.001111
# 5 0.000605 0.001064 0.001974 -0.008777 0.023928 0.000082
# 6 0.001165 -0.011806 -0.003790 0.001111 0.000082 0.044372
#
#
# Mechanical properties :
#
#
# Convention : Reuss Voigt Hill
#
# Bulk Modulus (GPa) = 34.56483 50.03289 42.29886
# Shear Modulus (GPa) = 32.95047 41.87131 37.41089
#
# Velocity S-wave (km/s) = 3.51108 3.95793 3.74118
# Velocity P-wave (km/s) = 5.41927 6.29330 5.87257
#
# Compressibility (1/GPa) = 0.02893114
#
# Stress axis : x y z
#
# Youngs Moduli (GPa) = 81.35700 88.28257 67.16663
#
# Poissons Ratio (x) = 0.29270 0.03877
# Poissons Ratio (y) = 0.26974 0.06013
# Poissons Ratio (z) = 0.04696 0.07903
#
# Static dielectric constant tensor:
#      x y z
#    x 2.461530 -0.175080 -0.156220 
#    y -0.175080 2.322210 0.180740 
#    z -0.156220 0.180740 2.255080 
# 
# From -- ./inp_files/418335.got.cif
#   From: 2010.05.17/outbox.cif.g08.bks.cpg/sg2_210_cif.got.tgz:418335.got - 2010.06.03 11:33:40.
