data_PCOD9104484
_publ_section_title
;
Structure prediction by ZEFSAII (Michael W. Deem and Ramdas Pophale) SiO2 
 PCOD9104484
Probable space group: P -1
;
_chemical_formula_sum "Si O2"
_cell_formula_units_Z 14
_cell_length_a 15.721023
_cell_length_b 9.357470
_cell_length_c 25.059697
_cell_angle_alpha 130.969406
_cell_angle_beta 152.945056
_cell_angle_gamma 30.569583
_cell_volume 747.923795
_symmetry_space_group_name_H-M "P -1"
_symmetry_group_IT_number 2
_symmetry_cell_setting 'triclinic'
loop_
_space_group_symop_operation_xyz
x,y,z
-x,-y,-z
loop_
_atom_site_type_symbol
_atom_site_label
_atom_site_fract_x
_atom_site_fract_y
_atom_site_fract_z
Si Si1 0.395111 0.804382 0.404178
Si Si2 0.629403 0.839639 0.444234
Si Si3 0.220616 0.870382 0.043129
Si Si4 0.331568 0.792499 0.609398
Si Si5 0.953825 0.324676 0.910203
Si Si6 0.356162 0.187243 0.673409
Si Si7 0.309112 0.747198 0.904359
O O1 0.553729 0.739277 0.420692
O O2 0.537380 0.486388 0.420995
O O3 0.474581 0.889255 0.515313
O O4 0.020952 0.089822 0.253414
O O5 0.501285 0.907912 0.329897
O O6 0.002447 0.556967 0.571857
O O7 0.437862 0.868723 0.182433
O O8 0.443737 0.507641 0.066142
O O9 0.000000 0.000000 0.000000
O O10 0.018241 0.116889 0.941178
O O11 0.600573 0.597190 0.757052
O O12 0.321228 0.995729 0.621390
O O13 0.000000 0.000000 0.500000
O O14 0.197804 0.049596 0.932957
O O15 0.000000 0.500000 0.000000
O O16 0.500000 0.500000 0.000000
#
# Coordination Sequence:
#
# PCOD9104484 Si02
#       7
#     2   2   2   2   2   2   2
#     4  10  20  39  61  85 119 157 199 242 302 364
#     4  10  22  36  61  89 118 156 201 249 295 358
#     4  11  23  39  62  88 119 161 203 252 301 351
#     4  11  22  38  62  88 122 161 195 243 307 360
#     4  10  21  40  63  87 119 161 200 244 298 367
#     4  11  22  38  59  89 124 152 202 255 297 348
#     4   9  20  36  60  84 115 154 203 242 294 357
#
# _framework density 18.718482999999999
#
# number of rings (size 3 to 8) (size 9 to 14) (size 15 to 20)
#    0.000    1.714    4.286    0.000    6.000    0.571 
#    0.000    0.714    0.000    0.000    0.000    0.000 
#    0.000    0.000    0.000    0.000    0.000    0.000 
#
# Total GULP energy -78000.219506 kJ/mol
# GULP energy per Si atom -5571.444250 kJ/mol
# Density = 1.867588 g / cm^3
# Si number density = 18.718483 Si / 1000 Ang^3
#
#
#
# Elastic Constant Matrix: (Units=GPa)
#
#
# Indices 1 2 3 4 5 6 
#
# 1 71.0831 30.4320 -7.6571 -2.9679 2.6955 -23.5149
# 2 30.4320 118.3644 20.0875 12.9013 6.4342 -12.0272
# 3 -7.6571 20.0875 36.2919 -5.5448 -2.6352 -11.3910
# 4 -2.9679 12.9013 -5.5448 28.0657 -1.8646 3.7548
# 5 2.6955 6.4342 -2.6352 -1.8646 26.4375 -1.5413
# 6 -23.5149 -12.0272 -11.3910 3.7548 -1.5413 28.5956
#
#
#
# Elastic Compliance Matrix: (Units=1/GPa)
#
#
# Indices 1 2 3 4 5 6 
#
# 1 0.030587 -0.009905 0.022665 0.008630 0.003856 0.029090
# 2 -0.009905 0.013950 -0.013747 -0.009593 -0.004826 -0.006754
# 3 0.022665 -0.013747 0.053195 0.015495 0.009325 0.032514
# 4 0.008630 -0.009593 0.015495 0.043925 0.006319 0.003807
# 5 0.003856 -0.004826 0.009325 0.006319 0.040343 0.006200
# 6 0.029090 -0.006754 0.032514 0.003807 0.006200 0.068837
#
#
# Mechanical properties :
#
#
# Convention : Reuss Voigt Hill
#
# Bulk Modulus (GPa) = 10.44304 34.60713 22.52508
# Shear Modulus (GPa) = 17.56054 28.81157 23.18605
#
# Velocity S-wave (km/s) = 3.06623 3.92753 3.52329
# Velocity P-wave (km/s) = 4.25756 6.25265 5.34894
#
# Compressibility (1/GPa) = 0.09575755
#
# Stress axis : x y z
#
# Youngs Moduli (GPa) = 32.69343 71.68666 18.79880
#
# Poissons Ratio (x) = 0.71005 -0.42607
# Poissons Ratio (y) = 0.32382 0.25843
# Poissons Ratio (z) = -0.74099 0.98547
#
# Static dielectric constant tensor:
#      x y z
#    x 1.654820 -0.026780 -0.029160 
#    y -0.026780 1.682490 0.030760 
#    z -0.029160 0.030760 1.677600 
# 
# From -- ./inp_files/157902.got.cif
#   From: 2010.05.17/outbox.cif.g08.bks.cpg/sg2_79_cif.got.tgz:157902.got - 2010.06.03 11:33:40.
