data_PCOD9104134
_publ_section_title
;
Structure prediction by ZEFSAII (Michael W. Deem and Ramdas Pophale) SiO2 
 PCOD9104134
Probable space group: P -1
;
_chemical_formula_sum "Si O2"
_cell_formula_units_Z 14
_cell_length_a 24.691200
_cell_length_b 7.328960
_cell_length_c 8.957871
_cell_angle_alpha 129.428480
_cell_angle_beta 31.726409
_cell_angle_gamma 132.921718
_cell_volume 617.620179
_symmetry_space_group_name_H-M "P -1"
_symmetry_group_IT_number 2
_symmetry_cell_setting 'triclinic'
loop_
_space_group_symop_operation_xyz
x,y,z
-x,-y,-z
loop_
_atom_site_type_symbol
_atom_site_label
_atom_site_fract_x
_atom_site_fract_y
_atom_site_fract_z
Si Si1 0.537855 0.804030 0.218080
Si Si2 0.855359 0.734797 0.727944
Si Si3 0.771774 0.011676 0.279223
Si Si4 0.879602 0.812560 0.364321
Si Si5 0.925333 0.303958 0.307270
Si Si6 0.380160 0.324447 0.744558
Si Si7 0.668985 0.677182 0.621704
O O1 0.605737 0.713994 0.135218
O O2 0.429453 0.578002 0.309299
O O3 0.500000 0.000000 0.500000
O O4 0.616013 0.867906 0.923634
O O5 0.877839 0.827806 0.554158
O O6 0.926127 0.562651 0.510692
O O7 0.866786 0.963024 0.932867
O O8 0.723553 0.582155 0.979611
O O9 0.668906 0.944092 0.370230
O O10 0.725360 0.789182 0.393326
O O11 0.829894 0.244905 0.371746
O O12 0.760547 0.641229 0.494678
O O13 0.899595 0.080669 0.373329
O O14 0.967475 0.699585 0.032453
O O15 0.500000 0.500000 0.500000
#
# Coordination Sequence:
#
# PCOD9104134 Si02
#       7
#     2   2   2   2   2   2   2
#     4  11  22  37  60  87 116 160 198 244 308 357
#     4  10  21  41  61  85 129 157 196 258 304 349
#     4   9  21  37  59  87 118 156 203 244 295 368
#     4  10  21  40  64  90 123 155 210 251 293 372
#     4  10  22  41  63  90 119 164 201 251 308 351
#     4  10  20  40  56  85 122 151 197 251 295 357
#     4  10  20  39  58  84 125 151 197 257 289 361
#
# _framework density 22.667653999999999
#
# number of rings (size 3 to 8) (size 9 to 14) (size 15 to 20)
#    0.857    1.143    2.857    0.429    0.000    6.286 
#    0.000   10.714    0.000    0.000    0.000    0.000 
#    0.000    0.000    0.000    0.000    0.000    0.000 
#
# Total GULP energy -78038.164216 kJ/mol
# GULP energy per Si atom -5574.154587 kJ/mol
# Density = 2.261606 g / cm^3
# Si number density = 22.667654 Si / 1000 Ang^3
#
#
#
# Elastic Constant Matrix: (Units=GPa)
#
#
# Indices 1 2 3 4 5 6 
#
# 1 60.1077 15.0009 36.9284 -11.3791 5.0289 1.0797
# 2 15.0009 31.7073 20.3705 3.1732 -1.1947 9.2123
# 3 36.9284 20.3705 117.4029 2.8981 14.9841 -1.1594
# 4 -11.3791 3.1732 2.8981 27.3684 1.9827 -2.8405
# 5 5.0289 -1.1947 14.9841 1.9827 36.8365 -11.0220
# 6 1.0797 9.2123 -1.1594 -2.8405 -11.0220 26.9826
#
#
#
# Elastic Compliance Matrix: (Units=1/GPa)
#
#
# Indices 1 2 3 4 5 6 
#
# 1 0.025620 -0.010223 -0.006450 0.012917 -0.000956 0.003157
# 2 -0.010223 0.045074 -0.004560 -0.010700 0.000468 -0.016111
# 3 -0.006450 -0.004560 0.011905 -0.003092 -0.003810 0.000444
# 4 0.012917 -0.010700 -0.003092 0.044305 -0.001075 0.007228
# 5 -0.000956 0.000468 -0.003810 -0.001075 0.032789 0.012995
# 6 0.003157 -0.016111 0.000444 0.007228 0.012995 0.048524
#
#
# Mechanical properties :
#
#
# Convention : Reuss Voigt Hill
#
# Bulk Modulus (GPa) = 24.91767 39.31307 32.11537
# Shear Modulus (GPa) = 18.93512 27.36539 23.15025
#
# Velocity S-wave (km/s) = 2.89335 3.47831 3.19923
# Velocity P-wave (km/s) = 4.70940 5.78899 5.27688
#
# Compressibility (1/GPa) = 0.04013216
#
# Stress axis : x y z
#
# Youngs Moduli (GPa) = 39.03249 22.18583 83.99933
#
# Poissons Ratio (x) = 0.22680 0.54184
# Poissons Ratio (y) = 0.39902 0.38303
# Poissons Ratio (z) = 0.25178 0.10117
#
# Static dielectric constant tensor:
#      x y z
#    x 1.777570 0.291620 -0.061390 
#    y 0.291620 0.933430 0.137040 
#    z -0.061390 0.137040 1.843280 
# 
# From -- ./inp_files/356509.got.cif
#   From: 2010.05.17/outbox.cif.g08.bks.cpg/sg2_179_cif.got.tgz:356509.got - 2010.06.03 11:33:40.
