data_PCOD9104885
_publ_section_title
;
Structure prediction by ZEFSAII (Michael W. Deem and Ramdas Pophale) SiO2 
 PCOD9104885
Probable space group: P -1
;
_chemical_formula_sum "Si O2"
_cell_formula_units_Z 14
_cell_length_a 17.466301
_cell_length_b 9.215037
_cell_length_c 6.916080
_cell_angle_alpha 119.669111
_cell_angle_beta 70.530703
_cell_angle_gamma 145.822366
_cell_volume 536.685820
_symmetry_space_group_name_H-M "P -1"
_symmetry_group_IT_number 2
_symmetry_cell_setting 'triclinic'
loop_
_space_group_symop_operation_xyz
x,y,z
-x,-y,-z
loop_
_atom_site_type_symbol
_atom_site_label
_atom_site_fract_x
_atom_site_fract_y
_atom_site_fract_z
Si Si1 0.186364 0.364229 0.655420
Si Si2 0.914685 0.069383 0.282381
Si Si3 0.667457 0.887254 0.428702
Si Si4 0.525048 0.872248 0.276302
Si Si5 0.522920 0.293987 0.210919
Si Si6 0.228197 0.290279 0.195161
Si Si7 0.988509 0.657068 0.011514
O O1 0.080943 0.044890 0.612099
O O2 0.339648 0.555717 0.710668
O O3 0.197171 0.389978 0.430681
O O4 0.133376 0.442504 0.851146
O O5 0.818887 0.062541 0.426605
O O6 0.830859 0.800843 0.031110
O O7 0.019365 0.323005 0.203048
O O8 0.652891 0.978546 0.313440
O O9 0.571201 0.561508 0.285948
O O10 0.603856 0.891079 0.657840
O O11 0.389930 0.536021 0.216967
O O12 0.500000 0.000000 0.500000
O O13 0.520307 0.879995 0.056265
O O14 0.138927 0.988968 0.148934
O O15 0.000000 0.500000 0.000000
#
# Coordination Sequence:
#
# PCOD9104885 Si02
#       7
#     2   2   2   2   2   2   2
#     4  11  19  41  69  94 130 175 221 271 326 399
#     4   9  22  38  69  95 127 174 221 259 336 387
#     4  10  20  39  62  93 133 168 218 265 321 394
#     4  12  24  39  62  97 139 177 215 266 329 394
#     4  10  21  37  67  94 128 176 222 257 331 389
#     4  10  22  41  64  95 130 175 222 263 337 387
#     4  10  23  43  69  97 129 168 223 283 332 387
#
# _framework density 26.086027000000001
#
# number of rings (size 3 to 8) (size 9 to 14) (size 15 to 20)
#    0.857    0.857    4.286    1.286    0.000    1.714 
#    0.000    3.571    0.000    0.000    0.000    0.000 
#    0.000    0.000    0.000    0.000    0.000    0.000 
#
# Total GULP energy -78210.960198 kJ/mol
# GULP energy per Si atom -5586.497157 kJ/mol
# Density = 2.602665 g / cm^3
# Si number density = 26.086027 Si / 1000 Ang^3
#
#
#
# Elastic Constant Matrix: (Units=GPa)
#
#
# Indices 1 2 3 4 5 6 
#
# 1 104.9776 19.4022 25.8449 -6.0686 -30.7738 -0.2204
# 2 19.4022 79.9284 30.8606 -11.2525 -12.2922 -9.9313
# 3 25.8449 30.8606 155.1285 -35.5571 -9.7062 9.4092
# 4 -6.0686 -11.2525 -35.5571 41.3294 7.6966 -9.4041
# 5 -30.7738 -12.2922 -9.7062 7.6966 37.0352 -11.1072
# 6 -0.2204 -9.9313 9.4092 -9.4041 -11.1072 27.1300
#
#
#
# Elastic Compliance Matrix: (Units=1/GPa)
#
#
# Indices 1 2 3 4 5 6 
#
# 1 0.013736 0.000022 -0.002023 -0.000783 0.012788 0.005786
# 2 0.000022 0.016583 -0.002758 0.003309 0.007482 0.011238
# 3 -0.002023 -0.002758 0.008803 0.006327 -0.002473 -0.002898
# 4 -0.000783 0.003309 0.006327 0.032972 -0.001841 0.009686
# 5 0.012788 0.007482 -0.002473 -0.001841 0.046470 0.022088
# 6 0.005786 0.011238 -0.002898 0.009686 0.022088 0.054426
#
#
# Mechanical properties :
#
#
# Convention : Reuss Voigt Hill
#
# Bulk Modulus (GPa) = 33.77744 54.69443 44.23594
# Shear Modulus (GPa) = 25.99091 38.69405 32.34248
#
# Velocity S-wave (km/s) = 3.15993 3.85557 3.52496
# Velocity P-wave (km/s) = 5.12739 6.39008 5.79324
#
# Compressibility (1/GPa) = 0.02960556
#
# Stress axis : x y z
#
# Youngs Moduli (GPa) = 72.80383 60.30101 113.59594
#
# Poissons Ratio (x) = -0.00134 0.22980
# Poissons Ratio (y) = -0.00162 0.31326
# Poissons Ratio (z) = 0.14728 0.16629
#
# Static dielectric constant tensor:
#      x y z
#    x 2.006770 0.011430 0.052360 
#    y 0.011430 2.068000 0.010450 
#    z 0.052360 0.010450 2.079230 
# 
# From -- ./inp_files/296042.got.cif
#   From: 2010.05.17/outbox.cif.g08.bks.cpg/sg2_149_cif.got.tgz:296042.got - 2010.06.03 11:33:40.
