data_PCOD9104277
_publ_section_title
;
Structure prediction by ZEFSAII (Michael W. Deem and Ramdas Pophale) SiO2 
 PCOD9104277
Probable space group: P -1
;
_chemical_formula_sum "Si O2"
_cell_formula_units_Z 16
_cell_length_a 9.490136
_cell_length_b 13.803208
_cell_length_c 11.566922
_cell_angle_alpha 80.278025
_cell_angle_beta 42.891763
_cell_angle_gamma 112.879443
_cell_volume 655.853908
_symmetry_space_group_name_H-M "P -1"
_symmetry_group_IT_number 2
_symmetry_cell_setting 'triclinic'
loop_
_space_group_symop_operation_xyz
x,y,z
-x,-y,-z
loop_
_atom_site_type_symbol
_atom_site_label
_atom_site_fract_x
_atom_site_fract_y
_atom_site_fract_z
Si Si1 0.660239 0.304497 0.816788
Si Si2 0.855918 0.958360 0.966154
Si Si3 0.742163 0.046526 0.436995
Si Si4 0.241590 0.275446 0.631233
Si Si5 0.312424 0.377702 0.988463
Si Si6 0.658468 0.471127 0.534516
Si Si7 0.312118 0.593307 0.874197
Si Si8 0.616287 0.882075 0.760479
O O1 0.542129 0.373448 0.896331
O O2 0.036854 0.442733 0.587113
O O3 0.503171 0.211814 0.808180
O O4 0.496010 0.164333 0.030313
O O5 0.067786 0.971342 0.743255
O O6 0.924874 0.097500 0.871519
O O7 0.000000 0.000000 0.000000
O O8 0.587878 0.957291 0.667589
O O9 0.500000 0.000000 0.500000
O O10 0.986538 0.223858 0.272169
O O11 0.516100 0.349496 0.546276
O O12 0.218613 0.384297 0.630398
O O13 0.389307 0.307973 0.411823
O O14 0.360642 0.382526 0.818822
O O15 0.322699 0.498567 0.964180
O O16 0.391562 0.714777 0.879013
O O17 0.000000 0.500000 0.000000
O O18 0.000000 0.000000 0.500000
#
# Coordination Sequence:
#
# PCOD9104277 Si02
#       8
#     2   2   2   2   2   2   2   2
#     4  11  23  42  66  96 133 181 219 279 350 403
#     4  11  23  41  67  95 133 173 231 284 333 408
#     4  11  23  43  68  99 140 181 226 277 350 407
#     4  10  20  39  59  95 125 171 219 275 327 408
#     4  10  22  39  62  95 131 170 224 279 328 405
#     4  10  22  39  66  92 136 171 220 276 349 401
#     4  11  22  38  64  92 129 171 224 271 330 400
#     4  12  22  43  66  93 135 179 216 281 340 401
#
# _framework density 24.395676999999999
#
# number of rings (size 3 to 8) (size 9 to 14) (size 15 to 20)
#    0.000    1.250    3.750    3.375    0.000    4.000 
#    0.000    2.500    0.000    0.000    0.000    0.000 
#    0.000    0.000    0.000    0.000    0.000    0.000 
#
# Total GULP energy -89264.714745 kJ/mol
# GULP energy per Si atom -5579.044672 kJ/mol
# Density = 2.434015 g / cm^3
# Si number density = 24.395677 Si / 1000 Ang^3
#
#
#
# Elastic Constant Matrix: (Units=GPa)
#
#
# Indices 1 2 3 4 5 6 
#
# 1 138.6557 35.0033 38.8405 -27.3131 10.0857 1.8646
# 2 35.0033 81.0600 34.4682 -29.4816 6.8521 14.8590
# 3 38.8405 34.4682 71.8332 -21.3339 17.5591 -14.0886
# 4 -27.3131 -29.4816 -21.3339 39.1094 4.3629 8.6566
# 5 10.0857 6.8521 17.5591 4.3629 57.8871 -9.7053
# 6 1.8646 14.8590 -14.0886 8.6566 -9.7053 39.0147
#
#
#
# Elastic Compliance Matrix: (Units=1/GPa)
#
#
# Indices 1 2 3 4 5 6 
#
# 1 0.009531 0.000612 -0.004049 0.005944 -0.001601 -0.003868
# 2 0.000612 0.028606 -0.010416 0.021524 -0.005445 -0.020816
# 3 -0.004049 -0.010416 0.024431 0.000372 -0.003483 0.012034
# 4 0.005944 0.021524 0.000372 0.052487 -0.011483 -0.022850
# 5 -0.001601 -0.005445 -0.003483 -0.011483 0.021598 0.008814
# 6 -0.003868 -0.020816 0.012034 -0.022850 0.008814 0.045352
#
#
# Mechanical properties :
#
#
# Convention : Reuss Voigt Hill
#
# Bulk Modulus (GPa) = 28.68513 56.46366 42.57440
# Shear Modulus (GPa) = 22.59059 39.41804 31.00431
#
# Velocity S-wave (km/s) = 3.04634 4.02404 3.56883
# Velocity P-wave (km/s) = 4.91502 6.69221 5.87125
#
# Compressibility (1/GPa) = 0.03486126
#
# Stress axis : x y z
#
# Youngs Moduli (GPa) = 104.91863 34.95822 40.93241
#
# Poissons Ratio (x) = -0.02141 0.16575
# Poissons Ratio (y) = -0.06424 0.42635
# Poissons Ratio (z) = 0.42485 0.36413
#
# Static dielectric constant tensor:
#      x y z
#    x 2.065070 -0.114200 0.017940 
#    y -0.114200 2.117900 0.042900 
#    z 0.017940 0.042900 1.955690 
# 
# From -- ./inp_files/398911.got.cif
#   From: 2010.05.17/outbox.cif.g08.bks.cpg/sg2_200_cif.got.tgz:398911.got - 2010.06.03 11:33:40.
