data_PCOD9104070
_publ_section_title
;
Structure prediction by ZEFSAII (Michael W. Deem and Ramdas Pophale) SiO2 
 PCOD9104070
Probable space group: P -1
;
_chemical_formula_sum "Si O2"
_cell_formula_units_Z 16
_cell_length_a 20.542921
_cell_length_b 7.826181
_cell_length_c 9.516695
_cell_angle_alpha 112.630854
_cell_angle_beta 135.466107
_cell_angle_gamma 58.434996
_cell_volume 914.117990
_symmetry_space_group_name_H-M "P -1"
_symmetry_group_IT_number 2
_symmetry_cell_setting 'triclinic'
loop_
_space_group_symop_operation_xyz
x,y,z
-x,-y,-z
loop_
_atom_site_type_symbol
_atom_site_label
_atom_site_fract_x
_atom_site_fract_y
_atom_site_fract_z
Si Si1 0.732747 0.951812 0.319515
Si Si2 0.521757 0.664428 0.676714
Si Si3 0.546246 0.298677 0.094797
Si Si4 0.761803 0.671754 0.705884
Si Si5 0.881867 0.877489 0.770340
Si Si6 0.410813 0.109039 0.682018
Si Si7 0.739689 0.674977 0.984281
Si Si8 0.119591 0.695711 0.055266
O O1 0.831724 0.911942 0.549909
O O2 0.659097 0.899972 0.298406
O O3 0.666441 0.181862 0.249094
O O4 0.751547 0.811902 0.169160
O O5 0.500000 0.500000 0.500000
O O6 0.494886 0.654577 0.795545
O O7 0.636579 0.640820 0.832161
O O8 0.451677 0.893455 0.600823
O O9 0.500000 0.500000 0.000000
O O10 0.502793 0.149628 0.903213
O O11 0.828484 0.764714 0.749362
O O12 0.659063 0.722399 0.478050
O O13 0.737717 0.767392 0.854990
O O14 0.822193 0.438013 0.763086
O O15 0.862498 0.099997 0.866895
O O16 0.001022 0.754965 0.907289
O O17 0.831411 0.458876 0.044867
#
# Coordination Sequence:
#
# PCOD9104070 Si02
#       8
#     2   2   2   2   2   2   2   2
#     4  10  20  39  57  80 112 154 189 230 288 345
#     4  11  23  37  57  84 121 154 192 237 287 341
#     4  11  23  36  56  83 117 158 191 230 281 350
#     4   9  22  34  63  84 114 147 195 234 284 347
#     4  10  20  41  65  81 111 155 192 239 294 344
#     4  10  20  39  57  78 115 160 188 228 283 348
#     4  10  21  38  54  85 119 142 194 243 281 340
#     4   9  22  38  63  86 114 144 198 243 287 348
#
# _framework density 17.503209999999999
#
# number of rings (size 3 to 8) (size 9 to 14) (size 15 to 20)
#    0.750    1.250    2.500    1.125    8.750    2.000 
#    0.000    0.000    0.000    1.500    0.000    0.000 
#    0.000    0.000    0.000    0.000    0.000    0.000 
#
# Total GULP energy -89144.713553 kJ/mol
# GULP energy per Si atom -5571.544597 kJ/mol
# Density = 1.746337 g / cm^3
# Si number density = 17.503210 Si / 1000 Ang^3
#
#
#
# Elastic Constant Matrix: (Units=GPa)
#
#
# Indices 1 2 3 4 5 6 
#
# 1 39.2045 28.7415 9.7875 2.3466 -4.6852 -15.4566
# 2 28.7415 105.9867 37.3328 -13.2593 -8.2568 -16.8485
# 3 9.7875 37.3328 79.2499 -4.4604 -6.5225 -16.4827
# 4 2.3466 -13.2593 -4.4604 35.6525 -2.1918 -4.4796
# 5 -4.6852 -8.2568 -6.5225 -2.1918 16.2091 5.4452
# 6 -15.4566 -16.8485 -16.4827 -4.4796 5.4452 21.6662
#
#
#
# Elastic Compliance Matrix: (Units=1/GPa)
#
#
# Indices 1 2 3 4 5 6 
#
# 1 0.041005 -0.008901 0.004220 -0.002323 0.000309 0.024983
# 2 -0.008901 0.014874 -0.004915 0.005938 0.003190 0.001904
# 3 0.004220 -0.004915 0.017182 0.001681 0.001772 0.012162
# 4 -0.002323 0.005938 0.001681 0.032108 0.004060 0.009857
# 5 0.000309 0.003190 0.001772 0.004060 0.068840 -0.012413
# 6 0.024983 0.001904 0.012162 0.009857 -0.012413 0.079869
#
#
# Mechanical properties :
#
#
# Convention : Reuss Voigt Hill
#
# Bulk Modulus (GPa) = 18.56343 41.79607 30.17975
# Shear Modulus (GPa) = 17.18048 24.61082 20.89565
#
# Velocity S-wave (km/s) = 3.13639 3.75383 3.45892
# Velocity P-wave (km/s) = 4.87285 6.53600 5.76472
#
# Compressibility (1/GPa) = 0.05386935
#
# Stress axis : x y z
#
# Youngs Moduli (GPa) = 24.38703 67.23050 58.19879
#
# Poissons Ratio (x) = 0.59844 -0.24559
# Poissons Ratio (y) = 0.21707 0.28604
# Poissons Ratio (z) = -0.10291 0.33043
#
# Static dielectric constant tensor:
#      x y z
#    x 1.581530 0.012320 -0.000090 
#    y 0.012320 1.616010 -0.017810 
#    z -0.000090 -0.017810 1.588740 
# 
# From -- ./inp_files/208171.got.cif
#   From: 2010.05.17/outbox.cif.g08.bks.cpg/sg2_105_cif.got.tgz:208171.got - 2010.06.03 11:33:40.
