data_PCOD9104512
_publ_section_title
;
Structure prediction by ZEFSAII (Michael W. Deem and Ramdas Pophale) SiO2 
 PCOD9104512
Probable space group: P -1
;
_chemical_formula_sum "Si O2"
_cell_formula_units_Z 14
_cell_length_a 18.621100
_cell_length_b 19.424137
_cell_length_c 12.711164
_cell_angle_alpha 33.488613
_cell_angle_beta 18.706636
_cell_angle_gamma 25.403889
_cell_volume 624.742602
_symmetry_space_group_name_H-M "P -1"
_symmetry_group_IT_number 2
_symmetry_cell_setting 'triclinic'
loop_
_space_group_symop_operation_xyz
x,y,z
-x,-y,-z
loop_
_atom_site_type_symbol
_atom_site_label
_atom_site_fract_x
_atom_site_fract_y
_atom_site_fract_z
Si Si1 0.705542 0.566719 0.694770
Si Si2 0.347450 0.378871 0.070580
Si Si3 0.823305 0.243502 0.938956
Si Si4 0.563699 0.002449 0.703511
Si Si5 0.618118 0.034374 0.196264
Si Si6 0.760693 0.153358 0.364470
Si Si7 0.684615 0.168715 0.682868
O O1 0.579574 0.589792 0.957659
O O2 0.794048 0.397893 0.748458
O O3 0.011232 0.530696 0.321249
O O4 0.460638 0.715811 0.772988
O O5 0.376563 0.220823 0.260202
O O6 0.559884 0.307991 0.766458
O O7 0.122751 0.088626 0.671596
O O8 0.798562 0.232339 0.112536
O O9 0.341419 0.070075 0.827317
O O10 0.556412 0.115184 0.654411
O O11 0.519454 0.882984 0.970606
O O12 0.500000 0.000000 0.500000
O O13 0.906744 0.005116 0.866948
O O14 0.669336 0.231446 0.507420
O O15 0.000000 0.000000 0.500000
#
# Coordination Sequence:
#
# PCOD9104512 Si02
#       7
#     2   2   2   2   2   2   2
#     4  10  21  39  63  84 121 162 210 245 296 353
#     4  10  20  39  61  87 117 167 198 246 306 362
#     4  11  22  38  61  93 117 160 210 256 290 359
#     4  11  22  38  61  93 123 162 197 253 313 353
#     4  11  20  35  60  94 124 147 201 261 300 354
#     4  12  23  38  62  93 129 155 201 256 314 358
#     4  11  22  41  60  92 128 159 195 250 316 376
#
# _framework density 22.409229
#
# number of rings (size 3 to 8) (size 9 to 14) (size 15 to 20)
#    0.000    1.143    7.143    1.714    2.000    0.000 
#    0.000    1.429    0.000    0.000    0.000    0.000 
#    0.000    0.000    0.000    0.000    0.000    0.000 
#
# Total GULP energy -78020.813524 kJ/mol
# GULP energy per Si atom -5572.915252 kJ/mol
# Density = 2.235822 g / cm^3
# Si number density = 22.409229 Si / 1000 Ang^3
#
#
#
# Elastic Constant Matrix: (Units=GPa)
#
#
# Indices 1 2 3 4 5 6 
#
# 1 140.7128 14.8368 29.4048 22.3060 14.1238 -14.5812
# 2 14.8368 31.1520 7.9040 12.0658 -2.8792 -6.3825
# 3 29.4048 7.9040 62.7730 10.7785 9.2145 -13.4294
# 4 22.3060 12.0658 10.7785 25.7802 2.5383 -1.2487
# 5 14.1238 -2.8792 9.2145 2.5383 52.8651 1.2118
# 6 -14.5812 -6.3825 -13.4294 -1.2487 1.2118 37.6547
#
#
#
# Elastic Compliance Matrix: (Units=1/GPa)
#
#
# Indices 1 2 3 4 5 6 
#
# 1 0.009101 -0.001065 -0.002298 -0.006118 -0.001850 0.002381
# 2 -0.001065 0.041304 -0.000910 -0.018098 0.003434 0.005553
# 3 -0.002298 -0.000910 0.019689 -0.005261 -0.002750 0.005892
# 4 -0.006118 -0.018098 -0.005261 0.054580 -0.000929 -0.005473
# 5 -0.001850 0.003434 -0.002750 -0.000929 0.020162 -0.001795
# 6 0.002381 0.005553 0.005892 -0.005473 -0.001795 0.030398
#
#
# Mechanical properties :
#
#
# Convention : Reuss Voigt Hill
#
# Bulk Modulus (GPa) = 16.24755 37.65877 26.95316
# Shear Modulus (GPa) = 24.47416 35.42614 29.95015
#
# Velocity S-wave (km/s) = 3.30835 3.98033 3.65980
# Velocity P-wave (km/s) = 4.67543 6.16162 5.46924
#
# Compressibility (1/GPa) = 0.06154774
#
# Stress axis : x y z
#
# Youngs Moduli (GPa) = 109.87265 24.21078 50.78976
#
# Poissons Ratio (x) = 0.02579 0.11671
# Poissons Ratio (y) = 0.11704 0.04623
# Poissons Ratio (z) = 0.25247 0.02204
#
# Static dielectric constant tensor:
#      x y z
#    x 1.907970 0.046090 -0.021140 
#    y 0.046090 1.854360 -0.016050 
#    z -0.021140 -0.016050 1.901180 
# 
# From -- ./inp_files/174999.got.cif
#   From: 2010.05.17/outbox.cif.g08.bks.cpg/sg2_88_cif.got.tgz:174999.got - 2010.06.03 11:33:40.
