data_PCOD9104040
_publ_section_title
;
Structure prediction by ZEFSAII (Michael W. Deem and Ramdas Pophale) SiO2 
 PCOD9104040
Probable space group: P -1
;
_chemical_formula_sum "Si O2"
_cell_formula_units_Z 15
_cell_length_a 9.942643
_cell_length_b 15.133098
_cell_length_c 9.045067
_cell_angle_alpha 54.424423
_cell_angle_beta 133.471553
_cell_angle_gamma 137.854104
_cell_volume 655.524359
_symmetry_space_group_name_H-M "P -1"
_symmetry_group_IT_number 2
_symmetry_cell_setting 'triclinic'
loop_
_space_group_symop_operation_xyz
x,y,z
-x,-y,-z
loop_
_atom_site_type_symbol
_atom_site_label
_atom_site_fract_x
_atom_site_fract_y
_atom_site_fract_z
Si Si1 0.496896 0.391824 0.003269
Si Si2 0.093074 0.118821 0.069808
Si Si3 0.936566 0.429361 0.180603
Si Si4 0.398259 0.505724 0.570336
Si Si5 0.305402 0.863979 0.182044
Si Si6 0.750084 0.147372 0.189632
Si Si7 0.630508 0.796751 0.537238
Si Si8 0.000000 0.000000 0.500000
O O1 0.374537 0.392161 0.762850
O O2 0.500000 0.500000 0.000000
O O3 0.344918 0.244967 0.099301
O O4 0.748736 0.438707 0.109252
O O5 0.134962 0.094981 0.297359
O O6 0.920935 0.160878 0.898950
O O7 0.000000 0.000000 0.000000
O O8 0.832890 0.275269 0.225005
O O9 0.166233 0.491337 0.385025
O O10 0.000000 0.500000 0.000000
O O11 0.500000 0.500000 0.500000
O O12 0.571622 0.651639 0.630450
O O13 0.418149 0.800008 0.412111
O O14 0.500283 0.022277 0.170321
O O15 0.252991 0.816630 0.018947
O O16 0.914430 0.099657 0.368391
O O17 0.728119 0.872679 0.382513
#
# Coordination Sequence:
#
# PCOD9104040 Si02
#       8
#     2   2   2   2   2   2   2   1
#     4  12  29  49  74 109 157 199 245 308 386 452
#     4  12  27  47  71  99 150 194 242 301 382 440
#     4  12  26  45  75 109 151 189 255 309 359 451
#     4  12  26  45  77 109 143 199 251 303 369 444
#     4  10  23  41  71  99 140 188 236 310 364 429
#     4  10  21  42  67 110 142 186 248 303 374 431
#     4  11  24  42  68 105 141 186 250 301 366 437
#     4  10  20  38  74  98 142 182 236 318 358 422
#
# _framework density 22.882446999999999
#
# number of rings (size 3 to 8) (size 9 to 14) (size 15 to 20)
#    0.000    0.800    4.000    2.400    3.733    5.333 
#    2.400    0.000    0.000    0.000    0.000    0.000 
#    0.000    0.000    0.000    0.000    0.000    0.000 
#
# Total GULP energy -83696.717569 kJ/mol
# GULP energy per Si atom -5579.781171 kJ/mol
# Density = 2.283037 g / cm^3
# Si number density = 22.882447 Si / 1000 Ang^3
#
#
#
# Elastic Constant Matrix: (Units=GPa)
#
#
# Indices 1 2 3 4 5 6 
#
# 1 132.3361 28.0786 38.5153 8.4863 36.7378 -0.0478
# 2 28.0786 90.0853 6.5084 9.4500 -3.4094 -18.7007
# 3 38.5153 6.5084 90.8703 5.4116 29.4230 -8.7227
# 4 8.4863 9.4500 5.4116 31.8146 1.2018 2.8027
# 5 36.7378 -3.4094 29.4230 1.2018 41.7346 5.7220
# 6 -0.0478 -18.7007 -8.7227 2.8027 5.7220 37.6957
#
#
#
# Elastic Compliance Matrix: (Units=1/GPa)
#
#
# Indices 1 2 3 4 5 6 
#
# 1 0.011448 -0.003830 -0.001637 -0.001224 -0.009092 -0.000793
# 2 -0.003830 0.014258 0.000402 -0.004022 0.003417 0.006942
# 3 -0.001637 0.000402 0.015675 -0.002451 -0.010270 0.005566
# 4 -0.001224 -0.004022 -0.002451 0.033763 0.002247 -0.005416
# 5 -0.009092 0.003417 -0.010270 0.002247 0.040377 -0.006989
# 6 -0.000793 0.006942 0.005566 -0.005416 -0.006989 0.032722
#
#
# Mechanical properties :
#
#
# Convention : Reuss Voigt Hill
#
# Bulk Modulus (GPa) = 32.00089 51.05513 41.52801
# Shear Modulus (GPa) = 29.62243 38.26161 33.94202
#
# Velocity S-wave (km/s) = 3.60189 4.09356 3.85557
# Velocity P-wave (km/s) = 5.59584 6.68606 6.16509
#
# Compressibility (1/GPa) = 0.03124913
#
# Stress axis : x y z
#
# Youngs Moduli (GPa) = 87.35193 70.13746 63.79463
#
# Poissons Ratio (x) = 0.26865 0.10445
# Poissons Ratio (y) = 0.33459 -0.02562
# Poissons Ratio (z) = 0.14302 -0.02817
#
# Static dielectric constant tensor:
#      x y z
#    x 1.651270 -0.057100 0.198410 
#    y -0.057100 1.812650 0.121290 
#    z 0.198410 0.121290 1.643180 
# 
# From -- ./inp_files/200473.got.cif
#   From: 2010.05.17/outbox.cif.g08.bks.cpg/sg2_101_cif.got.tgz:200473.got - 2010.06.03 11:33:40.
