data_PCOD9104379
_publ_section_title
;
Structure prediction by ZEFSAII (Michael W. Deem and Ramdas Pophale) SiO2 
 PCOD9104379
Probable space group: P -1
;
_chemical_formula_sum "Si O2"
_cell_formula_units_Z 16
_cell_length_a 9.153481
_cell_length_b 17.744948
_cell_length_c 9.055650
_cell_angle_alpha 47.059754
_cell_angle_beta 116.205559
_cell_angle_gamma 130.167286
_cell_volume 822.836503
_symmetry_space_group_name_H-M "P -1"
_symmetry_group_IT_number 2
_symmetry_cell_setting 'triclinic'
loop_
_space_group_symop_operation_xyz
x,y,z
-x,-y,-z
loop_
_atom_site_type_symbol
_atom_site_label
_atom_site_fract_x
_atom_site_fract_y
_atom_site_fract_z
Si Si1 0.800063 0.053057 0.806221
Si Si2 0.269350 0.170387 0.387531
Si Si3 0.405430 0.983424 0.643394
Si Si4 0.601493 0.441806 0.214073
Si Si5 0.169284 0.481128 0.057119
Si Si6 0.021411 0.801222 0.605030
Si Si7 0.555882 0.571589 0.278402
Si Si8 0.850757 0.841042 0.985582
O O1 0.581556 0.012795 0.786554
O O2 0.902923 0.153176 0.587739
O O3 0.931575 0.103746 0.941154
O O4 0.798998 0.936805 0.896361
O O5 0.334292 0.074760 0.524256
O O6 0.454925 0.299096 0.340396
O O7 0.105441 0.144176 0.467855
O O8 0.189904 0.178424 0.180876
O O9 0.500000 0.000000 0.500000
O O10 0.210870 0.853971 0.720439
O O11 0.635336 0.505486 0.299954
O O12 0.500000 0.500000 0.000000
O O13 0.783655 0.479824 0.144783
O O14 0.366913 0.557927 0.134527
O O15 0.104162 0.342078 0.240644
O O16 0.000000 0.500000 0.000000
O O17 0.500000 0.500000 0.500000
O O18 0.714680 0.711951 0.173062
#
# Coordination Sequence:
#
# PCOD9104379 Si02
#       8
#     2   2   2   2   2   2   2   2
#     4  10  24  39  58  91 120 161 202 251 296 365
#     4  12  20  39  67  87 119 160 202 257 300 366
#     4  10  22  36  61  89 119 157 204 250 295 353
#     4  10  20  39  60  90 122 155 208 246 301 366
#     4  11  23  36  64  95 121 158 205 253 300 366
#     4  11  21  37  62  91 119 156 210 241 302 371
#     4  11  22  41  64  90 120 165 200 250 309 373
#     4  11  21  38  65  82 124 159 199 242 316 351
#
# _framework density 19.444932000000001
#
# number of rings (size 3 to 8) (size 9 to 14) (size 15 to 20)
#    0.000    1.250    7.500    1.125    5.250    0.000 
#    0.000    1.250    2.750    0.000    0.000    0.000 
#    0.000    0.000    0.000    0.000    0.000    0.000 
#
# Total GULP energy -89300.671970 kJ/mol
# GULP energy per Si atom -5581.291998 kJ/mol
# Density = 1.940067 g / cm^3
# Si number density = 19.444932 Si / 1000 Ang^3
#
#
#
# Elastic Constant Matrix: (Units=GPa)
#
#
# Indices 1 2 3 4 5 6 
#
# 1 110.4511 13.6927 -2.2203 12.3967 1.7257 7.6023
# 2 13.6927 83.8321 11.7985 -16.4842 7.4817 15.1138
# 3 -2.2203 11.7985 32.5913 7.6083 -2.8767 0.1695
# 4 12.3967 -16.4842 7.6083 23.2896 3.0983 -1.2961
# 5 1.7257 7.4817 -2.8767 3.0983 26.8232 7.0281
# 6 7.6023 15.1138 0.1695 -1.2961 7.0281 24.1138
#
#
#
# Elastic Compliance Matrix: (Units=1/GPa)
#
#
# Indices 1 2 3 4 5 6 
#
# 1 0.011162 -0.004790 0.005500 -0.011657 0.003101 -0.002086
# 2 -0.004790 0.021336 -0.013992 0.022769 -0.007592 -0.008328
# 3 0.005500 -0.013992 0.043731 -0.028471 0.011006 0.001991
# 4 -0.011657 0.022769 -0.028471 0.076776 -0.017193 -0.001258
# 5 0.003101 -0.007592 0.011006 -0.017193 0.045080 -0.010360
# 6 -0.002086 -0.008328 0.001991 -0.001258 -0.010360 0.050285
#
#
# Mechanical properties :
#
#
# Convention : Reuss Voigt Hill
#
# Bulk Modulus (GPa) = 20.13522 30.37960 25.25741
# Shear Modulus (GPa) = 17.15329 28.41889 22.78609
#
# Velocity S-wave (km/s) = 2.97332 3.82711 3.42691
# Velocity P-wave (km/s) = 4.70797 5.93181 5.35497
#
# Compressibility (1/GPa) = 0.04966421
#
# Stress axis : x y z
#
# Youngs Moduli (GPa) = 89.59276 46.86836 22.86719
#
# Poissons Ratio (x) = 0.22450 -0.12578
# Poissons Ratio (y) = 0.42915 0.31997
# Poissons Ratio (z) = -0.49278 0.65580
#
# Static dielectric constant tensor:
#      x y z
#    x 1.694820 0.018570 -0.001600 
#    y 0.018570 1.688070 0.013140 
#    z -0.001600 0.013140 1.684900 
# 
# From -- ./inp_files/214495.got.cif
#   From: 2010.05.17/outbox.cif.g08.bks.cpg/sg2_108_cif.got.tgz:214495.got - 2010.06.03 11:33:40.
