data_PCOD9104339
_publ_section_title
;
Structure prediction by ZEFSAII (Michael W. Deem and Ramdas Pophale) SiO2 
 PCOD9104339
Probable space group: P -1
;
_chemical_formula_sum "Si O2"
_cell_formula_units_Z 12
_cell_length_a 8.547968
_cell_length_b 14.117160
_cell_length_c 7.566325
_cell_angle_alpha 57.853297
_cell_angle_beta 127.129963
_cell_angle_gamma 130.372324
_cell_volume 539.418202
_symmetry_space_group_name_H-M "P -1"
_symmetry_group_IT_number 2
_symmetry_cell_setting 'triclinic'
loop_
_space_group_symop_operation_xyz
x,y,z
-x,-y,-z
loop_
_atom_site_type_symbol
_atom_site_label
_atom_site_fract_x
_atom_site_fract_y
_atom_site_fract_z
Si Si1 0.002571 0.884074 0.010211
Si Si2 0.504168 0.683793 0.927579
Si Si3 0.730996 0.034645 0.225537
Si Si4 0.430077 0.876915 0.453008
Si Si5 0.820023 0.306638 0.076504
Si Si6 0.057182 0.490385 0.752730
O O1 0.196831 0.854027 0.237145
O O2 0.766827 0.755870 0.003765
O O3 0.079807 0.940993 0.810181
O O4 0.000000 0.000000 0.000000
O O5 0.416959 0.760019 0.666599
O O6 0.426921 0.707300 0.045351
O O7 0.323919 0.537610 0.906643
O O8 0.807901 0.171651 0.231498
O O9 0.634369 0.920574 0.411366
O O10 0.500000 0.000000 0.000000
O O11 0.500000 0.000000 0.500000
O O12 0.965877 0.409252 0.226338
O O13 0.912063 0.359735 0.891605
O O14 0.000000 0.500000 0.500000
#
# Coordination Sequence:
#
# PCOD9104339 Si02
#       6
#     2   2   2   2   2   2
#     4  11  22  37  56  91 125 161 200 253 307 364
#     4  10  20  39  60  87 122 155 208 251 297 366
#     4  10  21  34  60  89 123 162 191 253 314 362
#     4  11  19  37  60  87 122 160 197 242 313 374
#     4   9  19  39  62  88 124 160 209 252 310 369
#     4   9  20  37  68  86 116 171 208 250 310 366
#
# _framework density 22.246189999999999
#
# number of rings (size 3 to 8) (size 9 to 14) (size 15 to 20)
#    1.000    1.000    3.333    1.000    4.667    0.667 
#    0.000    0.833    0.000    3.000    0.000    0.000 
#    0.000    0.000    0.000    0.000    0.000    0.000 
#
# Total GULP energy -66845.824405 kJ/mol
# GULP energy per Si atom -5570.485367 kJ/mol
# Density = 2.219556 g / cm^3
# Si number density = 22.246190 Si / 1000 Ang^3
#
#
#
# Elastic Constant Matrix: (Units=GPa)
#
#
# Indices 1 2 3 4 5 6 
#
# 1 122.2719 53.0566 41.1698 14.3096 -17.5575 39.9403
# 2 53.0566 105.2202 27.7841 -0.8187 -8.5036 36.0891
# 3 41.1698 27.7841 75.1353 -3.8768 -11.4712 26.8765
# 4 14.3096 -0.8187 -3.8768 35.5345 10.8647 -7.9367
# 5 -17.5575 -8.5036 -11.4712 10.8647 41.4654 -1.0045
# 6 39.9403 36.0891 26.8765 -7.9367 -1.0045 65.0835
#
#
#
# Elastic Compliance Matrix: (Units=1/GPa)
#
#
# Indices 1 2 3 4 5 6 
#
# 1 0.015963 -0.004012 -0.004159 -0.010830 0.007453 -0.007060
# 2 -0.004012 0.013366 -0.001056 0.000678 0.000465 -0.004424
# 3 -0.004159 -0.001056 0.017854 0.001999 0.002342 -0.003955
# 4 -0.010830 0.000678 0.001999 0.039233 -0.013931 0.010014
# 5 0.007453 0.000465 0.002342 -0.013931 0.031496 -0.007012
# 6 -0.007060 -0.004424 -0.003955 0.010014 -0.007012 0.024897
#
#
# Mechanical properties :
#
#
# Convention : Reuss Voigt Hill
#
# Bulk Modulus (GPa) = 34.80681 60.73872 47.77277
# Shear Modulus (GPa) = 29.26737 40.45781 34.86259
#
# Velocity S-wave (km/s) = 3.63107 4.26918 3.96299
# Velocity P-wave (km/s) = 5.76713 7.18773 6.51626
#
# Compressibility (1/GPa) = 0.02873001
#
# Stress axis : x y z
#
# Youngs Moduli (GPa) = 62.64299 74.81856 56.00907
#
# Poissons Ratio (x) = 0.30015 0.23295
# Poissons Ratio (y) = 0.25130 0.05914
# Poissons Ratio (z) = 0.26054 0.07900
#
# Static dielectric constant tensor:
#      x y z
#    x 1.901560 0.042690 -0.041560 
#    y 0.042690 1.933660 0.017630 
#    z -0.041560 0.017630 1.846590 
# 
# From -- ./inp_files/212339.got.cif
#   From: 2010.05.17/outbox.cif.g08.bks.cpg/sg2_107_cif.got.tgz:212339.got - 2010.06.03 11:33:40.
