data_PCOD9104381
_publ_section_title
;
Structure prediction by ZEFSAII (Michael W. Deem and Ramdas Pophale) SiO2 
 PCOD9104381
Probable space group: P -1
;
_chemical_formula_sum "Si O2"
_cell_formula_units_Z 16
_cell_length_a 11.980666
_cell_length_b 11.804346
_cell_length_c 8.572420
_cell_angle_alpha 137.674639
_cell_angle_beta 57.396621
_cell_angle_gamma 130.915623
_cell_volume 613.311497
_symmetry_space_group_name_H-M "P -1"
_symmetry_group_IT_number 2
_symmetry_cell_setting 'triclinic'
loop_
_space_group_symop_operation_xyz
x,y,z
-x,-y,-z
loop_
_atom_site_type_symbol
_atom_site_label
_atom_site_fract_x
_atom_site_fract_y
_atom_site_fract_z
Si Si1 0.634524 0.875002 0.411828
Si Si2 0.170219 0.588115 0.510331
Si Si3 0.781419 0.703134 0.631151
Si Si4 0.835613 0.537241 0.096962
Si Si5 0.604809 0.246519 0.768748
Si Si6 0.435148 0.219307 0.301872
Si Si7 0.038508 0.069412 0.721403
Si Si8 0.746418 0.213595 0.025932
O O1 0.551053 0.789862 0.226217
O O2 0.563934 0.736189 0.470796
O O3 0.807967 0.930181 0.340653
O O4 0.597707 0.053427 0.648035
O O5 0.209563 0.420563 0.360961
O O6 0.279005 0.707890 0.414450
O O7 0.197862 0.715886 0.771898
O O8 0.000000 0.500000 0.500000
O O9 0.822970 0.623312 0.360088
O O10 0.621218 0.681222 0.680822
O O11 0.905579 0.919231 0.771983
O O12 0.932606 0.713763 0.093202
O O13 0.854714 0.353384 0.953489
O O14 0.683240 0.426765 0.002562
O O15 0.590120 0.225405 0.148956
O O16 0.302014 0.004615 0.180356
O O17 0.000000 0.000000 0.500000
#
# Coordination Sequence:
#
# PCOD9104381 Si02
#       8
#     2   2   2   2   2   2   2   2
#     4  11  21  39  64  90 130 164 200 266 312 371
#     4  11  24  44  61  93 133 168 205 262 314 380
#     4  10  23  43  67  90 126 170 212 258 320 367
#     4  10  21  38  63  94 121 160 213 257 302 384
#     4  11  24  40  63  93 128 166 207 254 331 363
#     4  11  20  41  69  91 123 167 213 267 304 375
#     4  10  20  39  60  90 123 160 209 259 310 366
#     4  10  23  40  66  95 121 165 223 250 313 376
#
# _framework density 26.087886999999998
#
# number of rings (size 3 to 8) (size 9 to 14) (size 15 to 20)
#    0.000    1.500    5.000    0.750    0.000    4.500 
#    0.000    8.125    0.000    0.000    0.000    0.000 
#    0.000    0.000    0.000    0.000    0.000    0.000 
#
# Total GULP energy -89571.516133 kJ/mol
# GULP energy per Si atom -5598.219758 kJ/mol
# Density = 2.602851 g / cm^3
# Si number density = 26.087887 Si / 1000 Ang^3
#
#
#
# Elastic Constant Matrix: (Units=GPa)
#
#
# Indices 1 2 3 4 5 6 
#
# 1 188.4365 34.4668 12.5655 -3.0863 7.4996 -12.1779
# 2 34.4668 126.3262 27.3238 18.7229 12.3623 -4.5157
# 3 12.5655 27.3238 43.5014 9.2613 15.2857 -5.9650
# 4 -3.0863 18.7229 9.2613 36.4587 4.9611 -0.2420
# 5 7.4996 12.3623 15.2857 4.9611 39.1399 -1.5011
# 6 -12.1779 -4.5157 -5.9650 -0.2420 -1.5011 40.6655
#
#
#
# Elastic Compliance Matrix: (Units=1/GPa)
#
#
# Indices 1 2 3 4 5 6 
#
# 1 0.005774 -0.001564 -0.000636 0.001531 -0.000503 0.001453
# 2 -0.001564 0.010024 -0.004844 -0.003986 -0.000473 -0.000107
# 3 -0.000636 -0.004844 0.031000 -0.004084 -0.009806 0.003433
# 4 0.001531 -0.003986 -0.004084 0.030825 -0.001364 -0.000450
# 5 -0.000503 -0.000473 -0.009806 -0.001364 0.029776 -0.000550
# 6 0.001453 -0.000107 0.003433 -0.000450 -0.000550 0.025495
#
#
# Mechanical properties :
#
#
# Convention : Reuss Voigt Hill
#
# Bulk Modulus (GPa) = 30.57158 56.33069 43.45113
# Shear Modulus (GPa) = 31.66880 42.18003 36.92442
#
# Velocity S-wave (km/s) = 3.48793 4.02536 3.76624
# Velocity P-wave (km/s) = 5.28819 6.57604 5.96696
#
# Compressibility (1/GPa) = 0.03271012
#
# Stress axis : x y z
#
# Youngs Moduli (GPa) = 173.18327 99.76419 32.25836
#
# Poissons Ratio (x) = 0.15601 0.02051
# Poissons Ratio (y) = 0.27082 0.15626
# Poissons Ratio (z) = 0.11013 0.48326
#
# Static dielectric constant tensor:
#      x y z
#    x 2.101710 -0.001280 -0.006150 
#    y -0.001280 2.087680 0.069250 
#    z -0.006150 0.069250 2.067720 
# 
# From -- ./inp_files/263465.got.cif
#   From: 2010.05.17/outbox.cif.g08.bks.cpg/sg2_132_cif.got.tgz:263465.got - 2010.06.03 11:33:40.
