data_PCOD9104224
_publ_section_title
;
Structure prediction by ZEFSAII (Michael W. Deem and Ramdas Pophale) SiO2 
 PCOD9104224
Probable space group: P -1
;
_chemical_formula_sum "Si O2"
_cell_formula_units_Z 16
_cell_length_a 16.011069
_cell_length_b 21.676236
_cell_length_c 9.968183
_cell_angle_alpha 60.951647
_cell_angle_beta 126.800341
_cell_angle_gamma 163.968846
_cell_volume 698.492447
_symmetry_space_group_name_H-M "P -1"
_symmetry_group_IT_number 2
_symmetry_cell_setting 'triclinic'
loop_
_space_group_symop_operation_xyz
x,y,z
-x,-y,-z
loop_
_atom_site_type_symbol
_atom_site_label
_atom_site_fract_x
_atom_site_fract_y
_atom_site_fract_z
Si Si1 0.506525 0.361737 0.089369
Si Si2 0.429349 0.018610 0.010087
Si Si3 0.568967 0.479180 0.772089
Si Si4 0.667946 0.054460 0.706830
Si Si5 0.267822 0.268652 0.223528
Si Si6 0.414049 0.290233 0.588089
Si Si7 0.420361 0.731764 0.061356
Si Si8 0.682211 0.317652 0.285628
O O1 0.280684 0.255041 0.096936
O O2 0.523973 0.289989 0.207876
O O3 0.911603 0.655314 0.181930
O O4 0.404501 0.313839 0.888827
O O5 0.518101 0.057740 0.208309
O O6 0.997421 0.748256 0.881115
O O7 0.500000 0.000000 0.000000
O O8 0.605563 0.209543 0.950551
O O9 0.531281 0.528511 0.759907
O O10 0.423576 0.368331 0.601782
O O11 0.500000 0.000000 0.500000
O O12 0.594931 0.927071 0.727046
O O13 0.479613 0.348668 0.434254
O O14 0.848075 0.003923 0.142645
O O15 0.641616 0.376609 0.790079
O O16 0.000000 0.000000 0.500000
O O17 0.212017 0.599923 0.857292
O O18 0.000000 0.500000 0.500000
#
# Coordination Sequence:
#
# PCOD9104224 Si02
#       8
#     2   2   2   2   2   2   2   2
#     4  11  22  40  64  95 125 163 207 255 309 371
#     4   9  20  38  62  84 110 160 208 246 302 364
#     4  10  20  39  63  82 124 162 194 253 315 357
#     4  10  21  39  60  89 124 157 204 253 301 361
#     4  10  22  39  63  94 121 158 209 253 308 371
#     4  10  20  39  59  86 122 163 198 247 308 367
#     4   9  20  41  62  88 125 158 203 261 304 364
#     4  11  21  39  66  87 125 169 201 251 314 362
#
# _framework density 22.906476000000001
#
# number of rings (size 3 to 8) (size 9 to 14) (size 15 to 20)
#    0.000    2.000    2.500    1.500    0.000    1.500 
#    6.750    0.625    0.000    0.000    0.000    0.000 
#    0.000    0.000    0.000    0.000    0.000    0.000 
#
# Total GULP energy -89408.175996 kJ/mol
# GULP energy per Si atom -5588.011000 kJ/mol
# Density = 2.285434 g / cm^3
# Si number density = 22.906476 Si / 1000 Ang^3
#
#
#
# Elastic Constant Matrix: (Units=GPa)
#
#
# Indices 1 2 3 4 5 6 
#
# 1 146.9373 34.3902 16.1173 -6.3852 -3.8770 -23.6376
# 2 34.3902 49.7145 17.6773 -5.5448 4.4078 -21.4164
# 3 16.1173 17.6773 110.6763 -7.5397 -3.4225 -10.8335
# 4 -6.3852 -5.5448 -7.5397 25.2617 -11.8998 0.1727
# 5 -3.8770 4.4078 -3.4225 -11.8998 31.8613 -1.7836
# 6 -23.6376 -21.4164 -10.8335 0.1727 -1.7836 34.4294
#
#
#
# Elastic Compliance Matrix: (Units=1/GPa)
#
#
# Indices 1 2 3 4 5 6 
#
# 1 0.008556 -0.004524 0.000044 0.002467 0.002772 0.003205
# 2 -0.004524 0.031532 -0.002725 0.003416 -0.003063 0.015475
# 3 0.000044 -0.002725 0.009969 0.003767 0.002950 0.001606
# 4 0.002467 0.003416 0.003767 0.051338 0.019729 0.005768
# 5 0.002772 -0.003063 0.002950 0.019729 0.039995 0.002899
# 6 0.003205 0.015475 0.001606 0.005768 0.002899 0.041498
#
#
# Mechanical properties :
#
#
# Convention : Reuss Voigt Hill
#
# Bulk Modulus (GPa) = 28.05242 49.29975 38.67608
# Shear Modulus (GPa) = 23.90289 34.25336 29.07813
#
# Velocity S-wave (km/s) = 3.23383 3.87118 3.56677
# Velocity P-wave (km/s) = 5.12022 6.44595 5.82095
#
# Compressibility (1/GPa) = 0.03564755
#
# Stress axis : x y z
#
# Youngs Moduli (GPa) = 116.88344 31.71346 100.30869
#
# Poissons Ratio (x) = 0.14348 -0.00443
# Poissons Ratio (y) = 0.52880 0.27332
# Poissons Ratio (z) = -0.00516 0.08641
#
# Static dielectric constant tensor:
#      x y z
#    x 1.920330 0.012040 0.007690 
#    y 0.012040 1.906400 -0.011620 
#    z 0.007690 -0.011620 1.911400 
# 
# From -- ./inp_files/319334.got.cif
#   From: 2010.05.17/outbox.cif.g08.bks.cpg/sg2_160_cif.got.tgz:319334.got - 2010.06.03 11:33:40.
