data_PCOD9104848
_publ_section_title
;
Structure prediction by ZEFSAII (Michael W. Deem and Ramdas Pophale) SiO2 
 PCOD9104848
Probable space group: P -1
;
_chemical_formula_sum "Si O2"
_cell_formula_units_Z 14
_cell_length_a 10.501576
_cell_length_b 22.034009
_cell_length_c 5.290395
_cell_angle_alpha 68.921310
_cell_angle_beta 68.374414
_cell_angle_gamma 34.410721
_cell_volume 639.489468
_symmetry_space_group_name_H-M "P -1"
_symmetry_group_IT_number 2
_symmetry_cell_setting 'triclinic'
loop_
_space_group_symop_operation_xyz
x,y,z
-x,-y,-z
loop_
_atom_site_type_symbol
_atom_site_label
_atom_site_fract_x
_atom_site_fract_y
_atom_site_fract_z
Si Si1 0.765087 0.637249 0.751096
Si Si2 0.194716 0.975739 0.822184
Si Si3 0.875337 0.739885 0.471728
Si Si4 0.575722 0.081415 0.757266
Si Si5 0.616892 0.483553 0.689819
Si Si6 0.705098 0.599035 0.350643
Si Si7 0.753809 0.910530 0.567576
O O1 0.806353 0.696275 0.700414
O O2 0.657007 0.667328 0.509647
O O3 0.020504 0.511397 0.718853
O O4 0.631511 0.651713 0.050222
O O5 0.116032 0.080620 0.686518
O O6 0.374169 0.910992 0.016174
O O7 0.689130 0.081325 0.448722
O O8 0.000000 0.000000 0.000000
O O9 0.685282 0.826491 0.268769
O O10 0.869488 0.798482 0.598189
O O11 0.121279 0.637909 0.325120
O O12 0.703625 0.963280 0.795111
O O13 0.500000 0.500000 0.500000
O O14 0.615384 0.562529 0.552157
O O15 0.500000 0.500000 0.000000
O O16 0.500000 0.000000 0.500000
#
# Coordination Sequence:
#
# PCOD9104848 Si02
#       7
#     2   2   2   2   2   2   2
#     4   9  18  33  58  85 109 152 198 262 305 359
#     4  10  20  39  62  91 133 170 198 258 328 376
#     4  10  21  41  63  96 120 169 224 262 310 390
#     4   9  21  38  64  93 124 166 206 259 313 380
#     4  11  24  42  62  90 127 171 212 266 325 377
#     4   9  18  36  56  80 117 150 200 255 317 360
#     4   8  19  39  60  95 126 164 209 259 310 384
#
# _framework density 21.892464
#
# number of rings (size 3 to 8) (size 9 to 14) (size 15 to 20)
#    0.857    1.714    0.000    1.286    0.000    8.000 
#    5.143    4.286    0.000    0.000    0.000    0.000 
#    0.000    0.000    0.000    0.000    0.000    0.000 
#
# Total GULP energy -78090.374659 kJ/mol
# GULP energy per Si atom -5577.883904 kJ/mol
# Density = 2.184264 g / cm^3
# Si number density = 21.892464 Si / 1000 Ang^3
#
#
#
# Elastic Constant Matrix: (Units=GPa)
#
#
# Indices 1 2 3 4 5 6 
#
# 1 99.0738 34.5106 58.0294 14.9511 -22.8519 9.7536
# 2 34.5106 79.2873 29.3185 10.9847 -14.1033 15.9360
# 3 58.0294 29.3185 162.4526 13.9646 -20.3995 7.8203
# 4 14.9511 10.9847 13.9646 14.4790 -7.8759 3.2946
# 5 -22.8519 -14.1033 -20.3995 -7.8759 41.5760 -0.5922
# 6 9.7536 15.9360 7.8203 3.2946 -0.5922 24.5603
#
#
#
# Elastic Compliance Matrix: (Units=1/GPa)
#
#
# Indices 1 2 3 4 5 6 
#
# 1 0.015722 -0.003311 -0.003764 -0.007369 0.004249 -0.001805
# 2 -0.003311 0.017334 -0.000717 -0.005653 0.002511 -0.008885
# 3 -0.003764 -0.000717 0.008006 -0.002638 0.001114 -0.000209
# 4 -0.007369 -0.005653 -0.002638 0.089769 0.009681 -0.004374
# 5 0.004249 0.002511 0.001114 0.009681 0.029559 -0.004257
# 6 -0.001805 -0.008885 -0.000209 -0.004374 -0.004257 0.047749
#
#
# Mechanical properties :
#
#
# Convention : Reuss Voigt Hill
#
# Bulk Modulus (GPa) = 39.25010 64.94784 52.09897
# Shear Modulus (GPa) = 21.53164 30.72009 26.12587
#
# Velocity S-wave (km/s) = 3.13951 3.75003 3.45827
# Velocity P-wave (km/s) = 5.57759 6.96286 6.30837
#
# Compressibility (1/GPa) = 0.02547764
#
# Stress axis : x y z
#
# Youngs Moduli (GPa) = 63.60621 57.68899 124.90248
#
# Poissons Ratio (x) = 0.19103 0.47018
# Poissons Ratio (y) = 0.21063 0.08950
# Poissons Ratio (z) = 0.23944 0.04134
#
# Static dielectric constant tensor:
#      x y z
#    x 1.791130 0.031400 -0.005140 
#    y 0.031400 1.836230 -0.024970 
#    z -0.005140 -0.024970 1.832160 
# 
# From -- ./inp_files/51286.got.cif
#   From: 2010.05.17/outbox.cif.g08.bks.cpg/sg2_26_cif.got.tgz:51286.got - 2010.06.03 11:33:40.
