data_PCOD9104648
_publ_section_title
;
Structure prediction by ZEFSAII (Michael W. Deem and Ramdas Pophale) SiO2 
 PCOD9104648
Probable space group: P -1
;
_chemical_formula_sum "Si O2"
_cell_formula_units_Z 15
_cell_length_a 9.229611
_cell_length_b 11.300551
_cell_length_c 10.780705
_cell_angle_alpha 38.802740
_cell_angle_beta 113.956602
_cell_angle_gamma 120.111866
_cell_volume 609.285781
_symmetry_space_group_name_H-M "P -1"
_symmetry_group_IT_number 2
_symmetry_cell_setting 'triclinic'
loop_
_space_group_symop_operation_xyz
x,y,z
-x,-y,-z
loop_
_atom_site_type_symbol
_atom_site_label
_atom_site_fract_x
_atom_site_fract_y
_atom_site_fract_z
Si Si1 0.385164 0.617381 0.921034
Si Si2 0.000000 0.000000 0.500000
Si Si3 0.357231 0.952767 0.280906
Si Si4 0.020587 0.955210 0.286617
Si Si5 0.669451 0.428025 0.769934
Si Si6 0.977980 0.585270 0.059357
Si Si7 0.640156 0.834700 0.426927
Si Si8 0.321074 0.084826 0.888123
O O1 0.500520 0.846407 0.784898
O O2 0.203519 0.555316 0.842278
O O3 0.500000 0.500000 0.000000
O O4 0.339630 0.548100 0.103685
O O5 0.017478 0.140830 0.512975
O O6 0.793213 0.934394 0.489161
O O7 0.186170 0.932556 0.306456
O O8 0.458300 0.796964 0.453497
O O9 0.318002 0.965502 0.110885
O O10 0.035617 0.188959 0.135636
O O11 0.858021 0.876556 0.206993
O O12 0.649676 0.628680 0.546309
O O13 0.500210 0.254790 0.819501
O O14 0.848004 0.399823 0.824240
O O15 0.000000 0.500000 0.000000
O O16 0.671971 0.984519 0.196440
#
# Coordination Sequence:
#
# PCOD9104648 Si02
#       8
#     2   1   2   2   2   2   2   2
#     4  10  20  39  61  94 125 162 211 255 318 375
#     4  10  24  38  62  94 126 166 200 262 316 376
#     4  11  24  40  68  95 127 168 208 268 314 377
#     4  11  23  43  65  96 129 163 215 263 317 376
#     4  10  23  40  62  91 124 169 213 258 310 377
#     4  10  21  36  65  90 125 164 212 256 311 377
#     4  11  24  41  64  94 133 161 214 259 321 377
#     4  10  24  43  66  91 124 175 219 255 310 377
#
# _framework density 24.618988000000002
#
# number of rings (size 3 to 8) (size 9 to 14) (size 15 to 20)
#    0.000    1.600    1.333    2.800   14.933    0.533 
#    0.000    0.667    0.000    0.000    0.000    0.000 
#    0.000    0.000    0.000    0.000    0.000    0.000 
#
# Total GULP energy -83526.371527 kJ/mol
# GULP energy per Si atom -5568.424768 kJ/mol
# Density = 2.456295 g / cm^3
# Si number density = 24.618988 Si / 1000 Ang^3
#
#
#
# Elastic Constant Matrix: (Units=GPa)
#
#
# Indices 1 2 3 4 5 6 
#
# 1 241.4636 46.4687 39.4113 12.7740 45.8532 33.8560
# 2 46.4687 99.2188 29.2240 12.5909 21.1822 32.1534
# 3 39.4113 29.2240 34.8478 1.8614 19.4610 6.9543
# 4 12.7740 12.5909 1.8614 27.8392 3.5179 10.3299
# 5 45.8532 21.1822 19.4610 3.5179 35.4532 10.1898
# 6 33.8560 32.1534 6.9543 10.3299 10.1898 48.5872
#
#
#
# Elastic Compliance Matrix: (Units=1/GPa)
#
#
# Indices 1 2 3 4 5 6 
#
# 1 0.006088 0.000323 -0.003679 -0.001068 -0.005191 -0.002614
# 2 0.000323 0.017021 -0.012102 -0.003653 -0.001065 -0.008757
# 3 -0.003679 -0.012102 0.052020 0.003727 -0.018736 0.006264
# 4 -0.001068 -0.003653 0.003727 0.040036 -0.000812 -0.005713
# 5 -0.005191 -0.001065 -0.018736 -0.000812 0.046672 -0.002612
# 6 -0.002614 -0.008757 0.006264 -0.005713 -0.002612 0.029064
#
#
# Mechanical properties :
#
#
# Convention : Reuss Voigt Hill
#
# Bulk Modulus (GPa) = 22.61768 67.30424 44.96096
# Shear Modulus (GPa) = 21.13678 39.73765 30.43722
#
# Velocity S-wave (km/s) = 2.93329 4.02195 3.51996
# Velocity P-wave (km/s) = 4.54745 6.99756 5.90106
#
# Compressibility (1/GPa) = 0.04421320
#
# Stress axis : x y z
#
# Youngs Moduli (GPa) = 164.24546 58.75241 19.22332
#
# Poissons Ratio (x) = -0.01897 0.07073
# Poissons Ratio (y) = -0.05304 0.23264
# Poissons Ratio (z) = 0.60428 0.71101
#
# Static dielectric constant tensor:
#      x y z
#    x 1.966870 0.055020 0.104700 
#    y 0.055020 1.922110 -0.332040 
#    z 0.104700 -0.332040 1.507930 
# 
# From -- ./inp_files/292528.got.cif
#   From: 2010.05.17/outbox.cif.g08.bks.cpg/sg2_147_cif.got.tgz:292528.got - 2010.06.03 11:33:40.
