data_PCOD9104119
_publ_section_title
;
Structure prediction by ZEFSAII (Michael W. Deem and Ramdas Pophale) SiO2 
 PCOD9104119
Probable space group: P -1
;
_chemical_formula_sum "Si O2"
_cell_formula_units_Z 16
_cell_length_a 8.260580
_cell_length_b 7.165792
_cell_length_c 16.075112
_cell_angle_alpha 126.355763
_cell_angle_beta 98.068772
_cell_angle_gamma 112.558597
_cell_volume 615.111892
_symmetry_space_group_name_H-M "P -1"
_symmetry_group_IT_number 2
_symmetry_cell_setting 'triclinic'
loop_
_space_group_symop_operation_xyz
x,y,z
-x,-y,-z
loop_
_atom_site_type_symbol
_atom_site_label
_atom_site_fract_x
_atom_site_fract_y
_atom_site_fract_z
Si Si1 0.721821 0.246602 0.547445
Si Si2 0.565168 0.521747 0.161400
Si Si3 0.763009 0.190958 0.815183
Si Si4 0.603235 0.393895 0.420447
Si Si5 0.805685 0.559142 0.059285
Si Si6 0.857436 0.602188 0.338133
Si Si7 0.768768 0.127845 0.083306
Si Si8 0.800314 0.576253 0.786903
O O1 0.772340 0.525732 0.674006
O O2 0.906497 0.233232 0.581732
O O3 0.500000 0.000000 0.500000
O O4 0.295737 0.712399 0.539837
O O5 0.679775 0.661825 0.118445
O O6 0.762450 0.676213 0.276940
O O7 0.398407 0.493005 0.202473
O O8 0.424840 0.186570 0.032764
O O9 0.805126 0.319546 0.759678
O O10 0.954770 0.211718 0.868412
O O11 0.569562 0.875306 0.715686
O O12 0.733195 0.394770 0.923713
O O13 0.500000 0.500000 0.500000
O O14 0.759676 0.600470 0.416934
O O15 0.790785 0.328759 0.061828
O O16 0.776649 0.285294 0.210701
O O17 0.975034 0.149815 0.105483
#
# Coordination Sequence:
#
# PCOD9104119 Si02
#       8
#     2   2   2   2   2   2   2   2
#     4  11  23  44  64  83 120 169 203 250 311 359
#     4  11  19  34  59  95 121 150 206 247 305 362
#     4  10  20  39  58  81 125 163 197 243 320 360
#     4  12  24  41  65  92 121 159 214 262 301 356
#     4   9  19  34  59  87 117 161 199 245 303 381
#     4  10  22  40  63  89 121 160 209 247 306 367
#     4   9  18  35  61  85 123 159 197 242 312 364
#     4  10  21  36  57  88 119 163 201 251 295 373
#
# _framework density 26.011527999999998
#
# number of rings (size 3 to 8) (size 9 to 14) (size 15 to 20)
#    0.000    1.750    1.250    5.250    0.000    0.500 
#    2.250    5.000    0.000    0.000    0.000    0.000 
#    0.000    0.000    0.000    0.000    0.000    0.000 
#
# Total GULP energy -89312.620221 kJ/mol
# GULP energy per Si atom -5582.038764 kJ/mol
# Density = 2.595232 g / cm^3
# Si number density = 26.011528 Si / 1000 Ang^3
#
#
#
# Elastic Constant Matrix: (Units=GPa)
#
#
# Indices 1 2 3 4 5 6 
#
# 1 121.7338 16.0022 55.4920 -9.6341 21.9410 37.3251
# 2 16.0022 50.6751 30.0236 -21.1367 3.6950 6.5567
# 3 55.4920 30.0236 114.7112 -11.3492 23.8547 14.6589
# 4 -9.6341 -21.1367 -11.3492 39.2041 9.1279 -6.9906
# 5 21.9410 3.6950 23.8547 9.1279 48.6755 -5.2356
# 6 37.3251 6.5567 14.6589 -6.9906 -5.2356 39.5140
#
#
#
# Elastic Compliance Matrix: (Units=1/GPa)
#
#
# Indices 1 2 3 4 5 6 
#
# 1 0.015840 0.000859 -0.004438 0.002194 -0.006947 -0.013991
# 2 0.000859 0.029520 -0.005983 0.014782 -0.002599 -0.001220
# 3 -0.004438 -0.005983 0.013392 0.000500 -0.004230 -0.000255
# 4 0.002194 0.014782 0.000500 0.036377 -0.009122 0.000517
# 5 -0.006947 -0.002599 -0.004230 -0.009122 0.028814 0.010766
# 6 -0.013991 -0.001220 -0.000255 0.000517 0.010766 0.040339
#
#
# Mechanical properties :
#
#
# Convention : Reuss Voigt Hill
#
# Bulk Modulus (GPa) = 25.23434 54.46175 39.84805
# Shear Modulus (GPa) = 25.43022 37.85221 31.64122
#
# Velocity S-wave (km/s) = 3.13013 3.81886 3.49152
# Velocity P-wave (km/s) = 4.77346 6.35829 5.62200
#
# Compressibility (1/GPa) = 0.03962853
#
# Stress axis : x y z
#
# Youngs Moduli (GPa) = 63.12966 33.87516 74.67089
#
# Poissons Ratio (x) = -0.02911 0.33140
# Poissons Ratio (y) = -0.05424 0.44676
# Poissons Ratio (z) = 0.28018 0.20268
#
# Static dielectric constant tensor:
#      x y z
#    x 2.281810 -0.039360 -0.015900 
#    y -0.039360 2.028440 0.029370 
#    z -0.015900 0.029370 2.041020 
# 
# From -- ./inp_files/557588.got.cif
#   From: 2010.05.17/outbox.cif.g08.bks.cpg/sg2_279_cif.got.tgz:557588.got - 2010.06.03 11:33:40.
