data_PCOD9104641
_publ_section_title
;
Structure prediction by ZEFSAII (Michael W. Deem and Ramdas Pophale) SiO2 
 PCOD9104641
Probable space group: P -1
;
_chemical_formula_sum "Si O2"
_cell_formula_units_Z 14
_cell_length_a 20.437266
_cell_length_b 11.866196
_cell_length_c 8.060171
_cell_angle_alpha 113.959642
_cell_angle_beta 133.381849
_cell_angle_gamma 29.217985
_cell_volume 581.399665
_symmetry_space_group_name_H-M "P -1"
_symmetry_group_IT_number 2
_symmetry_cell_setting 'triclinic'
loop_
_space_group_symop_operation_xyz
x,y,z
-x,-y,-z
loop_
_atom_site_type_symbol
_atom_site_label
_atom_site_fract_x
_atom_site_fract_y
_atom_site_fract_z
Si Si1 0.272122 0.782926 0.329689
Si Si2 0.187137 0.750649 0.856976
Si Si3 0.497509 0.177141 0.643127
Si Si4 0.406176 0.249566 0.019139
Si Si5 0.221782 0.345749 0.052668
Si Si6 0.776450 0.892647 0.649128
Si Si7 0.723771 0.302878 0.354304
O O1 0.500000 0.500000 0.500000
O O2 0.269344 0.792125 0.528545
O O3 0.177071 0.019023 0.221266
O O4 0.199431 0.754854 0.080479
O O5 0.305064 0.691541 0.889456
O O6 0.276827 0.503158 0.833328
O O7 0.954468 0.063655 0.612471
O O8 0.315073 0.311545 0.347388
O O9 0.417765 0.409897 0.676562
O O10 0.619170 0.961263 0.871505
O O11 0.664043 0.984045 0.671916
O O12 0.247909 0.406305 0.981780
O O13 0.603530 0.082007 0.324651
O O14 0.500000 0.000000 0.000000
O O15 0.997947 0.566998 0.813626
#
# Coordination Sequence:
#
# PCOD9104641 Si02
#       7
#     2   2   2   2   2   2   2
#     4  12  21  41  66  93 130 169 210 268 328 386
#     4  11  24  42  66  98 128 171 221 270 329 394
#     4  10  20  39  61  93 130 169 213 271 325 386
#     4  11  23  42  62  88 131 171 218 270 327 389
#     4  10  21  37  64  91 126 174 221 265 324 392
#     4  11  22  40  64  94 125 171 221 267 328 390
#     4  11  23  41  66  95 131 170 218 273 331 389
#
# _framework density 24.079823000000001
#
# number of rings (size 3 to 8) (size 9 to 14) (size 15 to 20)
#    0.000    1.143    2.857    4.286    0.000    1.143 
#    0.000    2.857    0.000    0.000    0.000    0.000 
#    0.000    0.000    0.000    0.000    0.000    0.000 
#
# Total GULP energy -77989.189558 kJ/mol
# GULP energy per Si atom -5570.656397 kJ/mol
# Density = 2.402502 g / cm^3
# Si number density = 24.079823 Si / 1000 Ang^3
#
#
#
# Elastic Constant Matrix: (Units=GPa)
#
#
# Indices 1 2 3 4 5 6 
#
# 1 121.2657 8.6484 9.4275 5.7389 -18.6866 -7.0504
# 2 8.6484 73.0634 10.9064 -10.5177 9.5317 14.1211
# 3 9.4275 10.9064 53.4915 -12.9445 8.3092 -12.8378
# 4 5.7389 -10.5177 -12.9445 26.6008 -2.4498 0.2345
# 5 -18.6866 9.5317 8.3092 -2.4498 35.7284 -6.5895
# 6 -7.0504 14.1211 -12.8378 0.2345 -6.5895 46.3802
#
#
#
# Elastic Compliance Matrix: (Units=1/GPa)
#
#
# Indices 1 2 3 4 5 6 
#
# 1 0.010029 -0.002763 -0.002572 -0.003905 0.006800 0.002640
# 2 -0.002763 0.017484 -0.002435 0.005790 -0.006505 -0.007371
# 3 -0.002572 -0.002435 0.024569 0.011080 -0.004458 0.006462
# 4 -0.003905 0.005790 0.011080 0.045839 -0.003011 0.000051
# 5 0.006800 -0.006505 -0.004458 -0.003011 0.035369 0.006821
# 6 0.002640 -0.007371 0.006462 0.000051 0.006821 0.026964
#
#
# Mechanical properties :
#
#
# Convention : Reuss Voigt Hill
#
# Bulk Modulus (GPa) = 27.36535 33.97614 30.67074
# Shear Modulus (GPa) = 26.59937 36.33110 31.46524
#
# Velocity S-wave (km/s) = 3.32721 3.88851 3.61876
# Velocity P-wave (km/s) = 5.11366 5.85672 5.49776
#
# Compressibility (1/GPa) = 0.03654257
#
# Stress axis : x y z
#
# Youngs Moduli (GPa) = 99.70665 57.19524 40.70173
#
# Poissons Ratio (x) = 0.15801 0.10469
# Poissons Ratio (y) = 0.27545 0.09912
# Poissons Ratio (z) = 0.25645 0.13929
#
# Static dielectric constant tensor:
#      x y z
#    x 1.983760 -0.001360 -0.063040 
#    y -0.001360 1.908120 0.051790 
#    z -0.063040 0.051790 2.185160 
# 
# From -- ./inp_files/332677.got.cif
#   From: 2010.05.17/outbox.cif.g08.bks.cpg/sg2_167_cif.got.tgz:332677.got - 2010.06.03 11:33:40.
