data_PCOD9104699
_publ_section_title
;
Structure prediction by ZEFSAII (Michael W. Deem and Ramdas Pophale) SiO2 
 PCOD9104699
Probable space group: P -1
;
_chemical_formula_sum "Si O2"
_cell_formula_units_Z 16
_cell_length_a 12.844365
_cell_length_b 30.617925
_cell_length_c 5.032852
_cell_angle_alpha 93.402901
_cell_angle_beta 91.381042
_cell_angle_gamma 17.137540
_cell_volume 578.601852
_symmetry_space_group_name_H-M "P -1"
_symmetry_group_IT_number 2
_symmetry_cell_setting 'triclinic'
loop_
_space_group_symop_operation_xyz
x,y,z
-x,-y,-z
loop_
_atom_site_type_symbol
_atom_site_label
_atom_site_fract_x
_atom_site_fract_y
_atom_site_fract_z
Si Si1 0.496308 0.278404 0.859359
Si Si2 0.445304 0.449113 0.500272
Si Si3 0.271656 0.049002 0.597661
Si Si4 0.124039 0.637955 0.158290
Si Si5 0.276141 0.949037 0.554798
Si Si6 0.598183 0.779002 0.004447
Si Si7 0.932099 0.251100 0.965662
Si Si8 0.494986 0.336184 0.407350
O O1 0.334215 0.297918 0.947090
O O2 0.331707 0.372305 0.644127
O O3 0.521623 0.299639 0.122338
O O4 0.878352 0.112071 0.698363
O O5 0.205981 0.586083 0.439212
O O6 0.614413 0.375329 0.773159
O O7 0.287347 0.465461 0.422685
O O8 0.781910 0.318139 0.272154
O O9 0.144581 0.120918 0.897169
O O10 0.902569 0.185825 0.467189
O O11 0.500000 0.000000 0.500000
O O12 0.431205 0.936194 0.593562
O O13 0.892614 0.774211 0.134927
O O14 0.941960 0.670656 0.018563
O O15 0.500000 0.500000 0.000000
O O16 0.324753 0.911674 0.246025
O O17 0.464268 0.839194 0.720770
#
# Coordination Sequence:
#
# PCOD9104699 Si02
#       8
#     2   2   2   2   2   2   2   2
#     4  11  22  42  64  90 125 163 203 254 305 361
#     4  10  20  39  62  85 115 158 200 245 302 358
#     4  10  21  37  60  92 126 159 198 247 304 368
#     4  10  24  43  64  91 124 161 204 257 309 361
#     4  11  23  40  62  92 126 163 202 250 304 364
#     4  12  25  41  63  92 122 163 211 252 302 367
#     4  10  21  37  59  87 119 157 197 241 301 368
#     4  10  21  39  62  89 121 162 204 250 305 361
#
# _framework density 27.65287
#
# number of rings (size 3 to 8) (size 9 to 14) (size 15 to 20)
#    0.000    1.500    0.000    6.375    0.000    9.000 
#    0.000   12.500    0.000    0.000    0.000    0.000 
#    0.000    0.000    0.000    0.000    0.000    0.000 
#
# Total GULP energy -89556.173264 kJ/mol
# GULP energy per Si atom -5597.260829 kJ/mol
# Density = 2.758993 g / cm^3
# Si number density = 27.652870 Si / 1000 Ang^3
#
#
#
# Elastic Constant Matrix: (Units=GPa)
#
#
# Indices 1 2 3 4 5 6 
#
# 1 212.0980 27.3158 16.9963 -0.6899 -20.3895 18.6339
# 2 27.3158 52.5022 27.4906 -5.0131 -0.8024 -1.7335
# 3 16.9963 27.4906 72.7269 4.5164 0.8310 7.6003
# 4 -0.6899 -5.0131 4.5164 39.1803 8.6984 -1.5764
# 5 -20.3895 -0.8024 0.8310 8.6984 53.5181 -3.8496
# 6 18.6339 -1.7335 7.6003 -1.5764 -3.8496 41.7032
#
#
#
# Elastic Compliance Matrix: (Units=1/GPa)
#
#
# Indices 1 2 3 4 5 6 
#
# 1 0.005506 -0.003086 0.000168 -0.000863 0.002012 -0.002466
# 2 -0.003086 0.026514 -0.010054 0.004919 -0.001105 0.004397
# 3 0.000168 -0.010054 0.018142 -0.003515 -0.000080 -0.003940
# 4 -0.000863 0.004919 -0.003515 0.027629 -0.004558 0.001854
# 5 0.002012 -0.001105 -0.000080 -0.004558 0.020232 0.000765
# 6 -0.002466 0.004397 -0.003940 0.001854 0.000765 0.026122
#
#
# Mechanical properties :
#
#
# Convention : Reuss Voigt Hill
#
# Bulk Modulus (GPa) = 41.28878 53.43694 47.36286
# Shear Modulus (GPa) = 31.61326 44.58198 38.09762
#
# Velocity S-wave (km/s) = 3.38482 4.01958 3.71578
# Velocity P-wave (km/s) = 5.49905 6.39600 5.96441
#
# Compressibility (1/GPa) = 0.02421966
#
# Stress axis : x y z
#
# Youngs Moduli (GPa) = 181.62097 37.71543 55.12081
#
# Poissons Ratio (x) = 0.11638 -0.00926
# Poissons Ratio (y) = 0.56042 0.55416
# Poissons Ratio (z) = -0.03050 0.37918
#
# Static dielectric constant tensor:
#      x y z
#    x 2.205860 0.060550 0.026100 
#    y 0.060550 2.324370 0.063850 
#    z 0.026100 0.063850 2.191020 
# 
# From -- ./inp_files/85404.got.cif
#   From: 2010.05.17/outbox.cif.g08.bks.cpg/sg2_43_cif.got.tgz:85404.got - 2010.06.03 11:33:40.
