data_PCOD9104406
_publ_section_title
;
Structure prediction by ZEFSAII (Michael W. Deem and Ramdas Pophale) SiO2 
 PCOD9104406
Probable space group: P -1
;
_chemical_formula_sum "Si O2"
_cell_formula_units_Z 14
_cell_length_a 5.375993
_cell_length_b 16.120741
_cell_length_c 7.677516
_cell_angle_alpha 64.260900
_cell_angle_beta 116.131715
_cell_angle_gamma 101.919829
_cell_volume 537.994629
_symmetry_space_group_name_H-M "P -1"
_symmetry_group_IT_number 2
_symmetry_cell_setting 'triclinic'
loop_
_space_group_symop_operation_xyz
x,y,z
-x,-y,-z
loop_
_atom_site_type_symbol
_atom_site_label
_atom_site_fract_x
_atom_site_fract_y
_atom_site_fract_z
Si Si1 0.314307 0.536103 0.169371
Si Si2 0.242089 0.594818 0.459298
Si Si3 0.308820 0.131275 0.039772
Si Si4 0.662506 0.767177 0.386287
Si Si5 0.767620 0.062168 0.466438
Si Si6 0.045735 0.637636 0.733701
Si Si7 0.755679 0.081469 0.828972
O O1 0.156482 0.579062 0.247613
O O2 0.611746 0.501035 0.354650
O O3 0.163320 0.437618 0.175736
O O4 0.319256 0.607934 0.947001
O O5 0.455817 0.680652 0.430014
O O6 0.061838 0.619032 0.549250
O O7 0.587838 0.136332 0.235460
O O8 0.320123 0.025308 0.066767
O O9 0.305873 0.213549 0.826242
O O10 0.980542 0.121973 0.000660
O O11 0.511548 0.857557 0.319256
O O12 0.924834 0.738843 0.608664
O O13 0.883524 0.092330 0.663526
O O14 0.500000 0.000000 0.500000
O O15 0.000000 0.000000 0.500000
#
# Coordination Sequence:
#
# PCOD9104406 Si02
#       7
#     2   2   2   2   2   2   2
#     4   9  20  38  66  88 119 169 211 263 323 409
#     4  10  20  39  60  92 126 164 213 265 334 397
#     4  10  23  42  67  88 127 176 223 273 334 395
#     4  11  23  39  57  94 129 163 216 271 336 399
#     4  10  24  42  67 100 123 168 238 284 336 411
#     4  10  20  39  62  92 126 161 217 265 327 400
#     4  10  23  42  67  89 127 179 223 278 335 399
#
# _framework density 26.022565
#
# number of rings (size 3 to 8) (size 9 to 14) (size 15 to 20)
#    0.000    2.000    0.000    2.143   10.000    0.000 
#   10.286    0.000    0.000    0.000    0.000    0.000 
#    0.000    0.000    0.000    0.000    0.000    0.000 
#
# Total GULP energy -78023.034782 kJ/mol
# GULP energy per Si atom -5573.073913 kJ/mol
# Density = 2.596334 g / cm^3
# Si number density = 26.022565 Si / 1000 Ang^3
#
#
#
# Elastic Constant Matrix: (Units=GPa)
#
#
# Indices 1 2 3 4 5 6 
#
# 1 64.5778 12.0487 25.1704 -4.7040 4.5004 -5.0523
# 2 12.0487 40.7171 48.5000 -10.1965 9.3736 14.1392
# 3 25.1704 48.5000 201.5987 -31.8781 16.4813 -2.5308
# 4 -4.7040 -10.1965 -31.8781 54.6709 1.6793 2.9826
# 5 4.5004 9.3736 16.4813 1.6793 33.1205 -6.5909
# 6 -5.0523 14.1392 -2.5308 2.9826 -6.5909 44.0963
#
#
#
# Elastic Compliance Matrix: (Units=1/GPa)
#
#
# Indices 1 2 3 4 5 6 
#
# 1 0.017088 -0.005540 -0.000830 -0.000265 0.000422 0.003768
# 2 -0.005540 0.047570 -0.009320 0.004339 -0.011975 -0.018506
# 3 -0.000830 -0.009320 0.007809 0.002596 -0.000657 0.003068
# 4 -0.000265 0.004339 0.002596 0.020902 -0.004203 -0.003314
# 5 0.000422 -0.011975 -0.000657 -0.004203 0.035957 0.009509
# 6 0.003768 -0.018506 0.003068 -0.003314 0.009509 0.030865
#
#
# Mechanical properties :
#
#
# Convention : Reuss Voigt Hill
#
# Bulk Modulus (GPa) = 24.33835 53.14796 38.74315
# Shear Modulus (GPa) = 24.35875 41.12252 32.74064
#
# Velocity S-wave (km/s) = 3.06283 3.97957 3.55091
# Velocity P-wave (km/s) = 4.67772 6.44857 5.63316
#
# Compressibility (1/GPa) = 0.04108742
#
# Stress axis : x y z
#
# Youngs Moduli (GPa) = 58.51942 21.02175 128.05991
#
# Poissons Ratio (x) = 0.11646 0.10628
# Poissons Ratio (y) = 0.32420 1.19349
# Poissons Ratio (z) = 0.04857 0.19592
#
# Static dielectric constant tensor:
#      x y z
#    x 2.207500 0.029920 0.110510 
#    y 0.029920 2.087900 0.092830 
#    z 0.110510 0.092830 2.242310 
# 
# From -- ./inp_files/138779.got.cif
#   From: 2010.05.17/outbox.cif.g08.bks.cpg/sg2_70_cif.got.tgz:138779.got - 2010.06.03 11:33:40.
