data_PCOD9104513
_publ_section_title
;
Structure prediction by ZEFSAII (Michael W. Deem and Ramdas Pophale) SiO2 
 PCOD9104513
Probable space group: P -1
;
_chemical_formula_sum "Si O2"
_cell_formula_units_Z 12
_cell_length_a 13.551173
_cell_length_b 8.512669
_cell_length_c 11.309667
_cell_angle_alpha 56.374230
_cell_angle_beta 47.811582
_cell_angle_gamma 95.733368
_cell_volume 518.671858
_symmetry_space_group_name_H-M "P -1"
_symmetry_group_IT_number 2
_symmetry_cell_setting 'triclinic'
loop_
_space_group_symop_operation_xyz
x,y,z
-x,-y,-z
loop_
_atom_site_type_symbol
_atom_site_label
_atom_site_fract_x
_atom_site_fract_y
_atom_site_fract_z
Si Si1 0.877673 0.669995 0.752271
Si Si2 0.928786 0.647478 0.133108
Si Si3 0.981685 0.106691 0.794407
Si Si4 0.631936 0.370946 0.861084
Si Si5 0.729314 0.267444 0.249790
Si Si6 0.237141 0.902005 0.221994
O O1 0.662787 0.432743 0.950387
O O2 0.027479 0.685104 0.557550
O O3 0.836740 0.550736 0.966649
O O4 0.000000 0.000000 0.500000
O O5 0.137100 0.773737 0.866961
O O6 0.945163 0.681366 0.245301
O O7 0.904274 0.832113 0.028947
O O8 0.748232 0.334283 0.345629
O O9 0.812929 0.018168 0.882362
O O10 0.190142 0.301295 0.471296
O O11 0.699550 0.231892 0.825629
O O12 0.416067 0.168478 0.054501
O O13 0.500000 0.000000 0.500000
#
# Coordination Sequence:
#
# PCOD9104513 Si02
#       6
#     2   2   2   2   2   2
#     4  11  23  40  62  90 123 156 196 249 300 352
#     4  10  23  39  60  86 121 162 198 241 299 357
#     4  10  20  39  61  87 119 154 200 252 296 349
#     4  10  21  37  64  90 114 154 203 250 301 351
#     4  11  24  41  61  88 124 163 199 239 296 362
#     4  10  21  38  62  88 117 152 200 253 299 348
#
# _framework density 23.136013999999999
#
# number of rings (size 3 to 8) (size 9 to 14) (size 15 to 20)
#    0.000    1.667    0.000    6.000    0.000   10.000 
#    0.000    3.333    0.000    0.000    0.000    0.000 
#    0.000    0.000    0.000    0.000    0.000    0.000 
#
# Total GULP energy -67077.565907 kJ/mol
# GULP energy per Si atom -5589.797159 kJ/mol
# Density = 2.308336 g / cm^3
# Si number density = 23.136014 Si / 1000 Ang^3
#
#
#
# Elastic Constant Matrix: (Units=GPa)
#
#
# Indices 1 2 3 4 5 6 
#
# 1 151.4849 39.1640 44.6979 -15.7568 -16.2257 23.8595
# 2 39.1640 88.2477 1.8608 -8.8892 -6.0078 32.4888
# 3 44.6979 1.8608 43.6875 -18.0298 -18.2128 0.0528
# 4 -15.7568 -8.8892 -18.0298 19.8297 10.0288 -3.3037
# 5 -16.2257 -6.0078 -18.2128 10.0288 49.9683 -22.0031
# 6 23.8595 32.4888 0.0528 -3.3037 -22.0031 40.0526
#
#
#
# Elastic Compliance Matrix: (Units=1/GPa)
#
#
# Indices 1 2 3 4 5 6 
#
# 1 0.012693 -0.003195 -0.017408 -0.006005 -0.005010 -0.008194
# 2 -0.003195 0.019375 0.003954 0.010342 -0.006663 -0.016626
# 3 -0.017408 0.003954 0.065896 0.041315 0.020004 0.021473
# 4 -0.006005 0.010342 0.041315 0.089662 -0.003336 0.000697
# 5 -0.005010 -0.006663 0.020004 -0.003336 0.038395 0.029180
# 6 -0.008194 -0.016626 0.021473 0.000697 0.029180 0.059394
#
#
# Mechanical properties :
#
#
# Convention : Reuss Voigt Hill
#
# Bulk Modulus (GPa) = 15.46381 50.54060 33.00220
# Shear Modulus (GPa) = 14.69424 35.14997 24.92210
#
# Velocity S-wave (km/s) = 2.52290 3.90202 3.28563
# Velocity P-wave (km/s) = 3.89680 6.49564 5.35623
#
# Compressibility (1/GPa) = 0.06466712
#
# Stress axis : x y z
#
# Youngs Moduli (GPa) = 78.78201 51.61193 15.17533
#
# Poissons Ratio (x) = 0.16492 0.26417
# Poissons Ratio (y) = 0.25174 -0.06001
# Poissons Ratio (z) = 1.37144 -0.20410
#
# Static dielectric constant tensor:
#      x y z
#    x 1.879880 0.022160 0.025870 
#    y 0.022160 1.916480 -0.026490 
#    z 0.025870 -0.026490 1.849760 
# 
# From -- ./inp_files/167254.got.cif
#   From: 2010.05.17/outbox.cif.g08.bks.cpg/sg2_84_cif.got.tgz:167254.got - 2010.06.03 11:33:40.
