data_PCOD9104934
_publ_section_title
;
Structure prediction by ZEFSAII (Michael W. Deem and Ramdas Pophale) SiO2 
 PCOD9104934
Probable space group: P -1
;
_chemical_formula_sum "Si O2"
_cell_formula_units_Z 14
_cell_length_a 19.145859
_cell_length_b 4.805243
_cell_length_c 5.954191
_cell_angle_alpha 84.730988
_cell_angle_beta 91.619280
_cell_angle_gamma 67.715798
_cell_volume 503.550576
_symmetry_space_group_name_H-M "P -1"
_symmetry_group_IT_number 2
_symmetry_cell_setting 'triclinic'
loop_
_space_group_symop_operation_xyz
x,y,z
-x,-y,-z
loop_
_atom_site_type_symbol
_atom_site_label
_atom_site_fract_x
_atom_site_fract_y
_atom_site_fract_z
Si Si1 0.682008 0.742531 0.482743
Si Si2 0.452360 0.912284 0.311550
Si Si3 0.071467 0.867095 0.357723
Si Si4 0.726728 0.226830 0.903525
Si Si5 0.587306 0.566524 0.106190
Si Si6 0.122671 0.294698 0.106170
Si Si7 0.181327 0.557528 0.736672
O O1 0.706433 0.475489 0.687889
O O2 0.633725 0.655543 0.296523
O O3 0.756669 0.726404 0.363521
O O4 0.626111 0.047473 0.576477
O O5 0.508538 0.604565 0.219917
O O6 0.500000 0.000000 0.500000
O O7 0.432324 0.172314 0.102380
O O8 0.088814 0.540986 0.277499
O O9 0.142130 0.814455 0.532992
O O10 0.077555 0.077141 0.140157
O O11 0.000000 0.000000 0.500000
O O12 0.786495 0.903598 0.851166
O O13 0.647612 0.266122 0.016938
O O14 0.776001 0.325666 0.082092
O O15 0.119149 0.461329 0.858601
#
# Coordination Sequence:
#
# PCOD9104934 Si02
#       7
#     2   2   2   2   2   2   2
#     4   9  16  32  57  89 134 176 228 281 335 399
#     4   8  13  24  45  86 132 177 229 278 332 396
#     4  12  29  49  72 102 138 177 223 280 344 415
#     4  10  20  39  62  98 132 177 231 280 335 403
#     4   8  15  25  51  87 129 181 224 280 338 388
#     4  12  25  47  70 104 137 175 230 276 341 413
#     4  11  23  42  71  96 138 178 226 281 341 403
#
# _framework density 27.802572999999999
#
# number of rings (size 3 to 8) (size 9 to 14) (size 15 to 20)
#    0.000    2.000    2.857    0.429    2.000    1.143 
#    0.000    0.000    0.000    0.857    0.000   99.000 
#    0.000    0.000    0.000    0.000    0.000    0.000 
#
# Total GULP energy -78505.806975 kJ/mol
# GULP energy per Si atom -5607.557641 kJ/mol
# Density = 2.773929 g / cm^3
# Si number density = 27.802573 Si / 1000 Ang^3
#
#
#
# Elastic Constant Matrix: (Units=GPa)
#
#
# Indices 1 2 3 4 5 6 
#
# 1 90.3347 49.7321 26.0247 20.4440 -36.8532 -25.8832
# 2 49.7321 144.2317 35.3996 45.3062 -29.8547 -25.8464
# 3 26.0247 35.3996 115.6597 24.5739 -8.9850 -15.8897
# 4 20.4440 45.3062 24.5739 58.9061 -23.3832 -25.0690
# 5 -36.8532 -29.8547 -8.9850 -23.3832 65.3662 20.0585
# 6 -25.8832 -25.8464 -15.8897 -25.0690 20.0585 54.2183
#
#
#
# Elastic Compliance Matrix: (Units=1/GPa)
#
#
# Indices 1 2 3 4 5 6 
#
# 1 0.017570 -0.004083 -0.002108 0.002700 0.007386 0.004340
# 2 -0.004083 0.010570 -0.000988 -0.006303 0.000192 -0.000185
# 3 -0.002108 -0.000988 0.010035 -0.003039 -0.001540 0.000629
# 4 0.002700 -0.006303 -0.003039 0.027899 0.005694 0.008187
# 5 0.007386 0.000192 -0.001540 0.005694 0.022106 -0.002379
# 6 0.004340 -0.000185 0.000629 0.008187 -0.002379 0.025277
#
#
# Mechanical properties :
#
#
# Convention : Reuss Voigt Hill
#
# Bulk Modulus (GPa) = 41.98319 63.61545 52.79932
# Shear Modulus (GPa) = 36.83144 51.63610 44.23377
#
# Velocity S-wave (km/s) = 3.64366 4.31425 3.99306
# Velocity P-wave (km/s) = 5.73018 6.90998 6.34755
#
# Compressibility (1/GPa) = 0.02381905
#
# Stress axis : x y z
#
# Youngs Moduli (GPa) = 56.91390 94.60700 99.65115
#
# Poissons Ratio (x) = 0.38626 0.21003
# Poissons Ratio (y) = 0.23237 0.09843
# Poissons Ratio (z) = 0.11995 0.09345
#
# Static dielectric constant tensor:
#      x y z
#    x 2.158950 -0.065850 0.011340 
#    y -0.065850 2.153730 0.045270 
#    z 0.011340 0.045270 2.138790 
# 
# From -- ./inp_files/12277.got.cif
#   From: 2010.05.17/outbox.cif.g08.bks.cpg/sg2_7_cif.got.tgz:12277.got - 2010.06.03 11:33:40.
