data_PCOD9104868
_publ_section_title
;
Structure prediction by ZEFSAII (Michael W. Deem and Ramdas Pophale) SiO2 
 PCOD9104868
Probable space group: P -1
;
_chemical_formula_sum "Si O2"
_cell_formula_units_Z 15
_cell_length_a 9.307634
_cell_length_b 11.811580
_cell_length_c 17.157477
_cell_angle_alpha 37.567210
_cell_angle_beta 41.573964
_cell_angle_gamma 67.584465
_cell_volume 650.391970
_symmetry_space_group_name_H-M "P -1"
_symmetry_group_IT_number 2
_symmetry_cell_setting 'triclinic'
loop_
_space_group_symop_operation_xyz
x,y,z
-x,-y,-z
loop_
_atom_site_type_symbol
_atom_site_label
_atom_site_fract_x
_atom_site_fract_y
_atom_site_fract_z
Si Si1 0.000549 0.964719 0.276903
Si Si2 0.500000 0.000000 0.500000
Si Si3 0.593645 0.080213 0.691707
Si Si4 0.661997 0.704707 0.912728
Si Si5 0.713408 0.110825 0.222393
Si Si6 0.121991 0.426353 0.344996
Si Si7 0.948213 0.432521 0.148845
Si Si8 0.710194 0.095535 0.930909
O O1 0.784240 0.024976 0.321501
O O2 0.915456 0.749839 0.478245
O O3 0.076095 0.942252 0.171374
O O4 0.232283 0.165362 0.118300
O O5 0.526810 0.156079 0.323755
O O6 0.327159 0.776433 0.631514
O O7 0.411390 0.044773 0.713864
O O8 0.859486 0.304434 0.469930
O O9 0.657739 0.888224 0.762180
O O10 0.431658 0.027508 0.865714
O O11 0.374521 0.509291 0.146362
O O12 0.864295 0.636395 0.852265
O O13 0.965702 0.335443 0.973301
O O14 0.169740 0.648195 0.243776
O O15 0.000000 0.500000 0.000000
O O16 0.500000 0.000000 0.000000
#
# Coordination Sequence:
#
# PCOD9104868 Si02
#       8
#     2   1   2   2   2   2   2   2
#     4  11  21  36  64  94 118 163 209 244 306 368
#     4  10  22  40  64  86 122 160 208 242 308 362
#     4  10  24  40  59  93 131 158 203 252 306 363
#     4  10  20  39  62  93 118 163 206 252 302 358
#     4  11  25  41  60  93 129 161 201 256 306 363
#     4  10  21  37  66  89 124 158 207 251 298 365
#     4  10  21  38  63  89 123 160 205 254 301 363
#     4  11  20  39  65  92 120 160 208 254 302 362
#
# _framework density 23.063015
#
# number of rings (size 3 to 8) (size 9 to 14) (size 15 to 20)
#    0.000    1.600    6.667    0.400    3.733    3.200 
#    0.000    2.000    0.000    0.000    0.000    0.000 
#    0.000    0.000    0.000    0.000    0.000    0.000 
#
# Total GULP energy -83530.650398 kJ/mol
# GULP energy per Si atom -5568.710027 kJ/mol
# Density = 2.301052 g / cm^3
# Si number density = 23.063015 Si / 1000 Ang^3
#
#
#
# Elastic Constant Matrix: (Units=GPa)
#
#
# Indices 1 2 3 4 5 6 
#
# 1 73.7274 28.8490 34.8595 -6.6691 -22.5366 23.9781
# 2 28.8490 64.1130 27.7905 -5.2589 -11.2645 13.8727
# 3 34.8595 27.7905 160.9257 -25.1377 -38.4378 23.0314
# 4 -6.6691 -5.2589 -25.1377 33.4007 8.5522 -1.8470
# 5 -22.5366 -11.2645 -38.4378 8.5522 29.9996 -4.8598
# 6 23.9781 13.8727 23.0314 -1.8470 -4.8598 39.4508
#
#
#
# Elastic Compliance Matrix: (Units=1/GPa)
#
#
# Indices 1 2 3 4 5 6 
#
# 1 0.023607 -0.006070 0.001136 0.000141 0.015087 -0.011012
# 2 -0.006070 0.019587 -0.001627 0.000470 0.000220 -0.002200
# 3 0.001136 -0.001627 0.010351 0.004574 0.011467 -0.004535
# 4 0.000141 0.000470 0.004574 0.034397 -0.003954 -0.001798
# 5 0.015087 0.000220 0.011467 -0.003954 0.059137 -0.008842
# 6 -0.011012 -0.002200 -0.004535 -0.001798 -0.008842 0.034289
#
#
# Mechanical properties :
#
#
# Convention : Reuss Voigt Hill
#
# Bulk Modulus (GPa) = 24.73771 53.52935 39.13353
# Shear Modulus (GPa) = 24.04244 34.38801 29.21522
#
# Velocity S-wave (km/s) = 3.23223 3.86560 3.56301
# Velocity P-wave (km/s) = 4.96781 6.57147 5.82509
#
# Compressibility (1/GPa) = 0.04042411
#
# Stress axis : x y z
#
# Youngs Moduli (GPa) = 42.35969 51.05406 96.60520
#
# Poissons Ratio (x) = 0.30990 -0.10975
# Poissons Ratio (y) = 0.25712 0.15718
# Poissons Ratio (z) = -0.04812 0.08306
#
# Static dielectric constant tensor:
#      x y z
#    x 1.905290 -0.037370 0.019540 
#    y -0.037370 1.965650 0.064080 
#    z 0.019540 0.064080 1.978960 
# 
# From -- ./inp_files/558940.got.cif
#   From: 2010.05.17/outbox.cif.g08.bks.cpg/sg2_280_cif.got.tgz:558940.got - 2010.06.03 11:33:40.
