data_PCOD9104429
_publ_section_title
;
Structure prediction by ZEFSAII (Michael W. Deem and Ramdas Pophale) SiO2 
 PCOD9104429
Probable space group: P -1
;
_chemical_formula_sum "Si O2"
_cell_formula_units_Z 14
_cell_length_a 22.323972
_cell_length_b 11.632807
_cell_length_c 5.553644
_cell_angle_alpha 99.759780
_cell_angle_beta 80.411825
_cell_angle_gamma 31.337826
_cell_volume 587.206558
_symmetry_space_group_name_H-M "P -1"
_symmetry_group_IT_number 2
_symmetry_cell_setting 'triclinic'
loop_
_space_group_symop_operation_xyz
x,y,z
-x,-y,-z
loop_
_atom_site_type_symbol
_atom_site_label
_atom_site_fract_x
_atom_site_fract_y
_atom_site_fract_z
Si Si1 0.086293 0.376206 0.146956
Si Si2 0.222531 0.627369 0.181696
Si Si3 0.809815 0.564530 0.102149
Si Si4 0.638216 0.224549 0.469970
Si Si5 0.685457 0.386428 0.498655
Si Si6 0.523024 0.192945 0.601620
Si Si7 0.033502 0.068917 0.118035
O O1 0.128096 0.439814 0.107572
O O2 0.000000 0.500000 0.500000
O O3 0.000000 0.500000 0.000000
O O4 0.233730 0.045168 0.886361
O O5 0.202631 0.532015 0.074870
O O6 0.254448 0.599329 0.423776
O O7 0.084179 0.946617 0.309252
O O8 0.375193 0.408963 0.896822
O O9 0.908755 0.367932 0.201329
O O10 0.650160 0.878859 0.406474
O O11 0.500000 0.500000 0.500000
O O12 0.677563 0.276003 0.600240
O O13 0.590746 0.196436 0.650637
O O14 0.532476 0.683586 0.588236
O O15 0.816393 0.133887 0.138694
O O16 0.000000 0.000000 0.000000
#
# Coordination Sequence:
#
# PCOD9104429 Si02
#       7
#     2   2   2   2   2   2   2
#     4  11  25  51  71 105 144 186 239 294 361 424
#     4  10  21  39  65  96 131 177 226 289 342 422
#     4  10  21  43  64  97 133 179 228 285 351 415
#     4   9  20  44  67  96 134 181 236 290 347 420
#     4  10  20  39  60  94 129 167 235 276 352 406
#     4   9  20  40  61  90 133 170 230 283 348 412
#     4   9  20  39  58  88 128 173 216 274 334 412
#
# _framework density 23.841698000000001
#
# number of rings (size 3 to 8) (size 9 to 14) (size 15 to 20)
#    0.000    2.286    0.000    1.286    0.000    3.429 
#   46.286    0.000    0.000    0.000    0.000    0.000 
#    0.000    0.000    0.000    0.000    0.000    0.000 
#
# Total GULP energy -78023.145605 kJ/mol
# GULP energy per Si atom -5573.081829 kJ/mol
# Density = 2.378743 g / cm^3
# Si number density = 23.841698 Si / 1000 Ang^3
#
#
#
# Elastic Constant Matrix: (Units=GPa)
#
#
# Indices 1 2 3 4 5 6 
#
# 1 62.9212 11.0602 39.9597 9.8721 -16.3841 10.9090
# 2 11.0602 133.3251 54.6862 50.2359 -8.0023 -2.5867
# 3 39.9597 54.6862 118.9327 26.5679 -29.4441 9.2039
# 4 9.8721 50.2359 26.5679 39.5423 -0.0368 0.7097
# 5 -16.3841 -8.0023 -29.4441 -0.0368 26.8265 1.2956
# 6 10.9090 -2.5867 9.2039 0.7097 1.2956 33.5490
#
#
#
# Elastic Compliance Matrix: (Units=1/GPa)
#
#
# Indices 1 2 3 4 5 6 
#
# 1 0.023021 0.002740 -0.004706 -0.005945 0.010005 -0.006244
# 2 0.002740 0.015896 -0.003675 -0.018438 0.002277 0.001645
# 3 -0.004706 -0.003675 0.016796 -0.005360 0.014641 -0.003813
# 4 -0.005945 -0.018438 -0.005360 0.053759 -0.015008 0.001424
# 5 0.010005 0.002277 0.014641 -0.015008 0.060556 -0.009115
# 6 -0.006244 0.001645 -0.003813 0.001424 -0.009115 0.033332
#
#
# Mechanical properties :
#
#
# Convention : Reuss Voigt Hill
#
# Bulk Modulus (GPa) = 22.50697 58.51012 40.50855
# Shear Modulus (GPa) = 21.79112 33.94842 27.86977
#
# Velocity S-wave (km/s) = 3.02651 3.77757 3.42270
# Velocity P-wave (km/s) = 4.65550 6.60462 5.71379
#
# Compressibility (1/GPa) = 0.04443068
#
# Stress axis : x y z
#
# Youngs Moduli (GPa) = 43.43949 62.90867 59.53780
#
# Poissons Ratio (x) = -0.17237 0.28021
# Poissons Ratio (y) = -0.11903 0.21877
# Poissons Ratio (z) = 0.20445 0.23116
#
# Static dielectric constant tensor:
#      x y z
#    x 2.232100 0.183070 -0.075970 
#    y 0.183070 2.049520 -0.124290 
#    z -0.075970 -0.124290 2.049790 
# 
# From -- ./inp_files/123700.got.cif
#   From: 2010.05.17/outbox.cif.g08.bks.cpg/sg2_62_cif.got.tgz:123700.got - 2010.06.03 11:33:40.
