data_PCOD9104616
_publ_section_title
;
Structure prediction by ZEFSAII (Michael W. Deem and Ramdas Pophale) SiO2 
 PCOD9104616
Probable space group: P -1
;
_chemical_formula_sum "Si O2"
_cell_formula_units_Z 16
_cell_length_a 8.958742
_cell_length_b 9.051685
_cell_length_c 10.839689
_cell_angle_alpha 90.053758
_cell_angle_beta 101.029972
_cell_angle_gamma 58.320229
_cell_volume 728.983335
_symmetry_space_group_name_H-M "P -1"
_symmetry_group_IT_number 2
_symmetry_cell_setting 'triclinic'
loop_
_space_group_symop_operation_xyz
x,y,z
-x,-y,-z
loop_
_atom_site_type_symbol
_atom_site_label
_atom_site_fract_x
_atom_site_fract_y
_atom_site_fract_z
Si Si1 0.998596 0.451791 0.357017
Si Si2 0.552466 0.110427 0.921793
Si Si3 0.328798 0.578527 0.634192
Si Si4 0.711807 0.246194 0.625594
Si Si5 0.212195 0.186038 0.735049
Si Si6 0.288219 0.087818 0.463315
Si Si7 0.908969 0.002321 0.858133
Si Si8 0.718527 0.179678 0.164112
O O1 0.822560 0.441246 0.326462
O O2 0.959623 0.618834 0.272024
O O3 0.000000 0.500000 0.500000
O O4 0.179561 0.264543 0.365967
O O5 0.384202 0.195373 0.802945
O O6 0.733861 0.999005 0.869351
O O7 0.595985 0.225834 0.021207
O O8 0.500000 0.000000 0.000000
O O9 0.509065 0.393967 0.631841
O O10 0.251223 0.676819 0.490503
O O11 0.371014 0.693394 0.733084
O O12 0.832974 0.180141 0.767184
O O13 0.741092 0.062024 0.588011
O O14 0.222019 0.141687 0.592452
O O15 0.228905 0.018450 0.801147
O O16 0.500000 0.000000 0.500000
O O17 0.085608 0.845849 0.820177
O O18 0.000000 0.000000 0.000000
#
# Coordination Sequence:
#
# PCOD9104616 Si02
#       8
#     2   2   2   2   2   2   2   2
#     4  10  22  36  58  87 126 160 211 251 319 378
#     4   9  19  38  66  93 128 165 209 261 321 386
#     4  11  23  40  61  96 126 172 213 260 319 373
#     4  11  23  38  62  90 132 164 215 266 308 377
#     4  10  20  39  61  91 127 165 211 257 323 376
#     4  11  21  36  59  89 123 166 208 258 316 375
#     4  10  21  38  61  91 122 166 211 260 317 376
#     4  10  21  39  65  95 126 169 214 258 320 383
#
# _framework density 21.948374000000001
#
# number of rings (size 3 to 8) (size 9 to 14) (size 15 to 20)
#    0.000    1.750    1.250    3.750    3.500    1.000 
#    0.000    6.875    0.000    0.000    0.000   26.250 
#    0.000    0.000    0.000    0.000    0.000    0.000 
#
# Total GULP energy -89181.296036 kJ/mol
# GULP energy per Si atom -5573.831002 kJ/mol
# Density = 2.189842 g / cm^3
# Si number density = 21.948374 Si / 1000 Ang^3
#
#
#
# Elastic Constant Matrix: (Units=GPa)
#
#
# Indices 1 2 3 4 5 6 
#
# 1 80.5716 35.2673 18.2378 3.9273 10.7798 -5.5471
# 2 35.2673 141.8781 49.7451 -4.6608 11.5808 -10.2701
# 3 18.2378 49.7451 100.8015 2.1199 12.7348 2.4355
# 4 3.9273 -4.6608 2.1199 13.5323 -6.2131 -1.3889
# 5 10.7798 11.5808 12.7348 -6.2131 32.5325 -2.6080
# 6 -5.5471 -10.2701 2.4355 -1.3889 -2.6080 25.7770
#
#
#
# Elastic Compliance Matrix: (Units=1/GPa)
#
#
# Indices 1 2 3 4 5 6 
#
# 1 0.015097 -0.003433 -0.000256 -0.007758 -0.005084 0.000973
# 2 -0.003433 0.009940 -0.004618 0.005960 0.000871 0.004067
# 3 -0.000256 -0.004618 0.013092 -0.006225 -0.004903 -0.003963
# 4 -0.007758 0.005960 -0.006225 0.089493 0.020635 0.008203
# 5 -0.005084 0.000871 -0.004903 0.020635 0.038351 0.004708
# 6 0.000973 0.004067 -0.003963 0.008203 0.004708 0.041917
#
#
# Mechanical properties :
#
#
# Convention : Reuss Voigt Hill
#
# Bulk Modulus (GPa) = 46.47590 58.86127 52.66859
# Shear Modulus (GPa) = 21.58213 29.03508 25.30861
#
# Velocity S-wave (km/s) = 3.13919 3.64109 3.39941
# Velocity P-wave (km/s) = 5.86177 6.67480 6.28146
#
# Compressibility (1/GPa) = 0.02151653
#
# Stress axis : x y z
#
# Youngs Moduli (GPa) = 66.23827 100.60591 76.38433
#
# Poissons Ratio (x) = 0.34534 0.01952
# Poissons Ratio (y) = 0.22737 0.35273
# Poissons Ratio (z) = 0.01693 0.46458
#
# Static dielectric constant tensor:
#      x y z
#    x 1.856770 0.002120 0.017680 
#    y 0.002120 1.837030 0.000150 
#    z 0.017680 0.000150 1.913190 
# 
# From -- ./inp_files/379222.got.cif
#   From: 2010.05.17/outbox.cif.g08.bks.cpg/sg2_190_cif.got.tgz:379222.got - 2010.06.03 11:33:40.
