data_PCOD9104772
_publ_section_title
;
Structure prediction by ZEFSAII (Michael W. Deem and Ramdas Pophale) SiO2 
 PCOD9104772
Probable space group: P -1
;
_chemical_formula_sum "Si O2"
_cell_formula_units_Z 16
_cell_length_a 13.635104
_cell_length_b 12.013041
_cell_length_c 7.581049
_cell_angle_alpha 78.113959
_cell_angle_beta 83.551149
_cell_angle_gamma 31.546021
_cell_volume 630.878645
_symmetry_space_group_name_H-M "P -1"
_symmetry_group_IT_number 2
_symmetry_cell_setting 'triclinic'
loop_
_space_group_symop_operation_xyz
x,y,z
-x,-y,-z
loop_
_atom_site_type_symbol
_atom_site_label
_atom_site_fract_x
_atom_site_fract_y
_atom_site_fract_z
Si Si1 0.977209 0.675809 0.974092
Si Si2 0.469576 0.328098 0.170463
Si Si3 0.729811 0.068174 0.700425
Si Si4 0.755491 0.423575 0.181067
Si Si5 0.297395 0.210044 0.873325
Si Si6 0.656199 0.648113 0.454250
Si Si7 0.822143 0.192332 0.845678
Si Si8 0.163282 0.921847 0.673724
O O1 0.080734 0.696030 0.949943
O O2 0.149917 0.425350 0.959592
O O3 0.824764 0.854609 0.795182
O O4 0.838973 0.767014 0.125662
O O5 0.370009 0.340659 0.331980
O O6 0.352739 0.559466 0.145300
O O7 0.686531 0.145619 0.229981
O O8 0.423251 0.348982 0.967488
O O9 0.527218 0.239183 0.611143
O O10 0.737558 0.154731 0.822093
O O11 0.827303 0.043086 0.535846
O O12 0.795075 0.447937 0.350826
O O13 0.762072 0.282226 0.255739
O O14 0.332815 0.236286 0.669436
O O15 0.500000 0.000000 0.000000
O O16 0.942386 0.140869 0.692252
O O17 0.000000 0.000000 0.000000
#
# Coordination Sequence:
#
# PCOD9104772 Si02
#       8
#     2   2   2   2   2   2   2   2
#     4  10  21  36  61  91 116 153 198 253 302 355
#     4  11  24  41  56  90 129 156 209 240 286 358
#     4  11  21  37  58  91 121 154 211 236 291 367
#     4  11  21  40  60  86 128 164 195 246 294 347
#     4  10  20  39  62  89 117 148 201 255 307 356
#     4  10  23  38  67  87 113 167 198 249 306 351
#     4  12  23  35  57  86 124 166 198 239 291 348
#     4  11  23  36  57  85 123 166 194 241 285 344
#
# _framework density 25.361453999999998
#
# number of rings (size 3 to 8) (size 9 to 14) (size 15 to 20)
#    0.000    1.250    3.750    2.250    5.250    2.000 
#    0.000    0.625    0.000    3.000    0.000    0.000 
#    0.000    0.000    0.000    0.000    0.000    0.000 
#
# Total GULP energy -89113.460897 kJ/mol
# GULP energy per Si atom -5569.591306 kJ/mol
# Density = 2.530373 g / cm^3
# Si number density = 25.361454 Si / 1000 Ang^3
#
#
#
# Elastic Constant Matrix: (Units=GPa)
#
#
# Indices 1 2 3 4 5 6 
#
# 1 62.3504 21.5256 10.8280 14.1017 -33.5247 -18.5919
# 2 21.5256 68.2544 -6.9730 -1.5402 -10.1469 -7.8528
# 3 10.8280 -6.9730 128.4528 18.3287 -33.1632 3.0014
# 4 14.1017 -1.5402 18.3287 33.8669 -12.6800 -15.2261
# 5 -33.5247 -10.1469 -33.1632 -12.6800 41.2467 7.9956
# 6 -18.5919 -7.8528 3.0014 -15.2261 7.9956 40.5902
#
#
#
# Elastic Compliance Matrix: (Units=1/GPa)
#
#
# Indices 1 2 3 4 5 6 
#
# 1 0.035782 -0.005724 0.004311 -0.003115 0.028602 0.008161
# 2 -0.005724 0.017058 0.001161 0.003815 0.001308 0.001766
# 3 0.004311 0.001161 0.011299 -0.004591 0.011990 -0.002720
# 4 -0.003115 0.003815 -0.004591 0.041721 0.004757 0.014364
# 5 0.028602 0.001308 0.011990 0.004757 0.058382 0.002751
# 6 0.008161 0.001766 -0.002720 0.014364 0.002751 0.033764
#
#
# Mechanical properties :
#
#
# Convention : Reuss Voigt Hill
#
# Bulk Modulus (GPa) = 15.71452 34.42432 25.06942
# Shear Modulus (GPa) = 22.75595 38.71923 30.73759
#
# Velocity S-wave (km/s) = 2.99869 3.91153 3.48513
# Velocity P-wave (km/s) = 4.26605 5.83122 5.10893
#
# Compressibility (1/GPa) = 0.06363541
#
# Stress axis : x y z
#
# Youngs Moduli (GPa) = 27.94668 58.62216 88.50607
#
# Poissons Ratio (x) = 0.33553 -0.38155
# Poissons Ratio (y) = 0.15996 -0.10272
# Poissons Ratio (z) = -0.12048 -0.06803
#
# Static dielectric constant tensor:
#      x y z
#    x 2.134370 -0.018050 -0.065420 
#    y -0.018050 2.205270 0.129950 
#    z -0.065420 0.129950 2.276620 
# 
# From -- ./inp_files/314782.got.cif
#   From: 2010.05.17/outbox.cif.g08.bks.cpg/sg2_158_cif.got.tgz:314782.got - 2010.06.03 11:33:40.
