data_PCOD9104257
_publ_section_title
;
Structure prediction by ZEFSAII (Michael W. Deem and Ramdas Pophale) SiO2 
 PCOD9104257
Probable space group: P -1
;
_chemical_formula_sum "Si O2"
_cell_formula_units_Z 16
_cell_length_a 14.118785
_cell_length_b 13.196912
_cell_length_c 10.535441
_cell_angle_alpha 144.664563
_cell_angle_beta 58.047182
_cell_angle_gamma 136.781172
_cell_volume 766.827688
_symmetry_space_group_name_H-M "P -1"
_symmetry_group_IT_number 2
_symmetry_cell_setting 'triclinic'
loop_
_space_group_symop_operation_xyz
x,y,z
-x,-y,-z
loop_
_atom_site_type_symbol
_atom_site_label
_atom_site_fract_x
_atom_site_fract_y
_atom_site_fract_z
Si Si1 0.302648 0.494209 0.734550
Si Si2 0.641190 0.151840 0.136346
Si Si3 0.793828 0.943499 0.756334
Si Si4 0.710675 0.477666 0.615736
Si Si5 0.994337 0.701154 0.229119
Si Si6 0.498042 0.426855 0.133560
Si Si7 0.017075 0.144865 0.329778
Si Si8 0.705887 0.728694 0.087123
O O1 0.287381 0.626547 0.772765
O O2 0.307096 0.305898 0.477735
O O3 0.434845 0.639282 0.880751
O O4 0.155532 0.369327 0.785227
O O5 0.647240 0.238385 0.361742
O O6 0.500000 0.000000 0.000000
O O7 0.718901 0.041341 0.964719
O O8 0.901016 0.953843 0.787939
O O9 0.883101 0.093199 0.726171
O O10 0.604876 0.526518 0.683905
O O11 0.871312 0.654334 0.636369
O O12 0.705788 0.533696 0.823307
O O13 0.003903 0.765432 0.434558
O O14 0.000000 0.500000 0.000000
O O15 0.399205 0.263751 0.923573
O O16 0.630181 0.644094 0.190092
O O17 0.861876 0.951038 0.195174
#
# Coordination Sequence:
#
# PCOD9104257 Si02
#       8
#     2   2   2   2   2   2   2   2
#     4  11  21  40  62  92 122 161 204 252 311 376
#     4  12  25  37  59  97 129 158 200 263 320 365
#     4  11  22  37  62  91 126 163 201 248 324 367
#     4  10  20  39  59  90 126 155 211 259 299 372
#     4  11  20  37  59  92 127 156 200 253 313 366
#     4   9  20  36  63  84 121 161 209 247 305 367
#     4  11  20  36  64  89 123 163 212 248 309 368
#     4   9  20  38  61  92 114 170 214 246 302 368
#
# _framework density 20.865182000000001
#
# number of rings (size 3 to 8) (size 9 to 14) (size 15 to 20)
#    0.750    0.750    3.750    4.125    1.750    1.000 
#    0.000    0.625    0.000    6.000    0.000    0.000 
#    0.000    0.000    0.000    0.000    0.000    0.000 
#
# Total GULP energy -89174.311056 kJ/mol
# GULP energy per Si atom -5573.394441 kJ/mol
# Density = 2.081769 g / cm^3
# Si number density = 20.865182 Si / 1000 Ang^3
#
#
#
# Elastic Constant Matrix: (Units=GPa)
#
#
# Indices 1 2 3 4 5 6 
#
# 1 68.3234 -5.2769 30.2816 4.6972 6.0121 13.7642
# 2 -5.2769 78.2253 25.1047 -3.5768 12.8483 15.2152
# 3 30.2816 25.1047 102.9045 1.5793 -13.6991 17.4629
# 4 4.6972 -3.5768 1.5793 29.0817 8.6364 -1.4413
# 5 6.0121 12.8483 -13.6991 8.6364 26.0731 11.2609
# 6 13.7642 15.2152 17.4629 -1.4413 11.2609 27.6482
#
#
#
# Elastic Compliance Matrix: (Units=1/GPa)
#
#
# Indices 1 2 3 4 5 6 
#
# 1 0.020702 0.006848 -0.008622 0.001142 -0.011352 -0.003946
# 2 0.006848 0.019659 -0.009262 0.007217 -0.018284 -0.000555
# 3 -0.008622 -0.009262 0.020989 -0.009854 0.027589 -0.015618
# 4 0.001142 0.007217 -0.009854 0.045804 -0.031462 0.016885
# 5 -0.011352 -0.018284 0.027589 -0.031462 0.092642 -0.041085
# 6 -0.003946 -0.000555 -0.015618 0.016885 -0.041085 0.065917
#
#
# Mechanical properties :
#
#
# Convention : Reuss Voigt Hill
#
# Bulk Modulus (GPa) = 25.45961 38.85243 32.15602
# Shear Modulus (GPa) = 16.61815 29.85019 23.23417
#
# Velocity S-wave (km/s) = 2.82521 3.78646 3.34059
# Velocity P-wave (km/s) = 4.78235 6.14634 5.50674
#
# Compressibility (1/GPa) = 0.03927790
#
# Stress axis : x y z
#
# Youngs Moduli (GPa) = 48.30554 50.86792 47.64476
#
# Poissons Ratio (x) = -0.34832 0.41077
# Poissons Ratio (y) = -0.33078 0.44127
# Poissons Ratio (z) = 0.41647 0.47112
#
# Static dielectric constant tensor:
#      x y z
#    x 1.761330 -0.012770 0.033780 
#    y -0.012770 1.826370 0.009300 
#    z 0.033780 0.009300 1.772310 
# 
# From -- ./inp_files/455995.got.cif
#   From: 2010.05.17/outbox.cif.g08.bks.cpg/sg2_228_cif.got.tgz:455995.got - 2010.06.03 11:33:40.
