data_PCOD9104181
_publ_section_title
;
Structure prediction by ZEFSAII (Michael W. Deem and Ramdas Pophale) SiO2 
 PCOD9104181
Probable space group: P -1
;
_chemical_formula_sum "Si O2"
_cell_formula_units_Z 16
_cell_length_a 19.343944
_cell_length_b 5.821152
_cell_length_c 11.049277
_cell_angle_alpha 70.469894
_cell_angle_beta 53.485489
_cell_angle_gamma 43.305347
_cell_volume 674.778725
_symmetry_space_group_name_H-M "P -1"
_symmetry_group_IT_number 2
_symmetry_cell_setting 'triclinic'
loop_
_space_group_symop_operation_xyz
x,y,z
-x,-y,-z
loop_
_atom_site_type_symbol
_atom_site_label
_atom_site_fract_x
_atom_site_fract_y
_atom_site_fract_z
Si Si1 0.926916 0.905670 0.452300
Si Si2 0.821720 0.653550 0.604757
Si Si3 0.714724 0.522177 0.925989
Si Si4 0.176591 0.654851 0.923831
Si Si5 0.997112 0.641042 0.157134
Si Si6 0.591335 0.244059 0.054827
Si Si7 0.397131 0.062365 0.667652
Si Si8 0.809903 0.630016 0.356451
O O1 0.832687 0.899783 0.608521
O O2 0.986857 0.678590 0.306375
O O3 0.039769 0.707914 0.458895
O O4 0.853552 0.278432 0.414764
O O5 0.748525 0.585328 0.755034
O O6 0.775701 0.804072 0.492380
O O7 0.824131 0.259359 0.951634
O O8 0.656896 0.373514 0.990641
O O9 0.651477 0.878722 0.998211
O O10 0.308214 0.419088 0.771302
O O11 0.090275 0.980251 0.872758
O O12 0.128629 0.469677 0.010210
O O13 0.930687 0.527932 0.205123
O O14 0.553378 0.221508 0.232129
O O15 0.500000 0.500000 0.000000
O O16 0.300561 0.139977 0.660171
O O17 0.500000 0.000000 0.500000
#
# Coordination Sequence:
#
# PCOD9104181 Si02
#       8
#     2   2   2   2   2   2   2   2
#     4  10  20  39  59 100 142 179 229 288 368 436
#     4  10  23  37  64 100 143 184 230 289 366 437
#     4  11  24  44  74 101 141 185 241 299 365 431
#     4  10  21  43  67 101 139 180 231 302 360 441
#     4  10  20  39  66  99 138 175 235 292 370 431
#     4  11  27  50  74 102 136 189 256 306 359 422
#     4  11  26  46  71 103 141 190 249 300 365 429
#     4  11  23  40  67  99 140 189 236 298 366 434
#
# _framework density 23.711479000000001
#
# number of rings (size 3 to 8) (size 9 to 14) (size 15 to 20)
#    0.000    1.500    2.500    1.500    3.500    2.500 
#    0.000    3.125    0.000    0.000    0.000    0.000 
#    0.000    0.000    0.000    0.000    0.000    0.000 
#
# Total GULP energy -89150.520190 kJ/mol
# GULP energy per Si atom -5571.907512 kJ/mol
# Density = 2.365751 g / cm^3
# Si number density = 23.711479 Si / 1000 Ang^3
#
#
#
# Elastic Constant Matrix: (Units=GPa)
#
#
# Indices 1 2 3 4 5 6 
#
# 1 138.3611 32.7251 50.0324 -21.3681 -2.4158 -15.3139
# 2 32.7251 87.0526 42.2287 -28.3196 -12.6708 -3.0142
# 3 50.0324 42.2287 135.9302 -32.7157 -29.1200 -1.7508
# 4 -21.3681 -28.3196 -32.7157 39.6958 1.0239 3.2122
# 5 -2.4158 -12.6708 -29.1200 1.0239 42.8170 -21.7837
# 6 -15.3139 -3.0142 -1.7508 3.2122 -21.7837 45.0510
#
#
#
# Elastic Compliance Matrix: (Units=1/GPa)
#
#
# Indices 1 2 3 4 5 6 
#
# 1 0.009029 -0.001700 -0.002531 0.001368 -0.000456 0.002539
# 2 -0.001700 0.016625 -0.001109 0.009727 0.004953 0.002193
# 3 -0.002531 -0.001109 0.012654 0.007714 0.009874 0.003782
# 4 0.001368 0.009727 0.007714 0.038767 0.008739 0.002877
# 5 -0.000456 0.004953 0.009874 0.008739 0.041472 0.019990
# 6 0.002539 0.002193 0.003782 0.002877 0.019990 0.032815
#
#
# Mechanical properties :
#
#
# Convention : Reuss Voigt Hill
#
# Bulk Modulus (GPa) = 36.19477 67.92403 52.05940
# Shear Modulus (GPa) = 29.19699 41.26995 35.23347
#
# Velocity S-wave (km/s) = 3.51286 4.17646 3.85895
# Velocity P-wave (km/s) = 5.63483 7.20870 6.46980
#
# Compressibility (1/GPa) = 0.02762830
#
# Stress axis : x y z
#
# Youngs Moduli (GPa) = 110.75327 60.14929 79.02918
#
# Poissons Ratio (x) = 0.10225 0.20002
# Poissons Ratio (y) = 0.18827 0.08764
# Poissons Ratio (z) = 0.28032 0.06670
#
# Static dielectric constant tensor:
#      x y z
#    x 2.007420 0.062630 0.019480 
#    y 0.062630 1.970410 0.015930 
#    z 0.019480 0.015930 1.965270 
# 
# From -- ./inp_files/109829.got.cif
#   From: 2010.05.17/outbox.cif.g08.bks.cpg/sg2_55_cif.got.tgz:109829.got - 2010.06.03 11:33:40.
