data_PCOD9104145
_publ_section_title
;
Structure prediction by ZEFSAII (Michael W. Deem and Ramdas Pophale) SiO2 
 PCOD9104145
Probable space group: P -1
;
_chemical_formula_sum "Si O2"
_cell_formula_units_Z 14
_cell_length_a 15.549547
_cell_length_b 16.026731
_cell_length_c 14.830876
_cell_angle_alpha 48.487064
_cell_angle_beta 161.309789
_cell_angle_gamma 142.363782
_cell_volume 647.174802
_symmetry_space_group_name_H-M "P -1"
_symmetry_group_IT_number 2
_symmetry_cell_setting 'triclinic'
loop_
_space_group_symop_operation_xyz
x,y,z
-x,-y,-z
loop_
_atom_site_type_symbol
_atom_site_label
_atom_site_fract_x
_atom_site_fract_y
_atom_site_fract_z
Si Si1 0.990053 0.682571 0.402125
Si Si2 0.800206 0.672117 0.641201
Si Si3 0.192001 0.503926 0.803118
Si Si4 0.285004 0.578426 0.042351
Si Si5 0.270996 0.091804 0.789965
Si Si6 0.367258 0.721551 0.279383
Si Si7 0.651729 0.029578 0.337296
O O1 0.023944 0.653382 0.353004
O O2 0.008792 0.571645 0.555083
O O3 0.274389 0.850959 0.604489
O O4 0.589100 0.620002 0.066428
O O5 0.500000 0.500000 0.500000
O O6 0.659158 0.657961 0.412025
O O7 0.709830 0.748114 0.565267
O O8 0.174192 0.714668 0.001898
O O9 0.250011 0.504956 0.965689
O O10 0.364266 0.730162 0.991213
O O11 0.928715 0.437176 0.847149
O O12 0.025822 0.089679 0.620557
O O13 0.416939 0.017745 0.030520
O O14 0.000000 0.000000 0.500000
O O15 0.479351 0.870894 0.327021
#
# Coordination Sequence:
#
# PCOD9104145 Si02
#       7
#     2   2   2   2   2   2   2
#     4  10  20  39  58  86 116 152 189 248 306 344
#     4  10  22  38  56  83 120 158 193 234 287 351
#     4  10  21  36  62  86 112 148 204 245 290 349
#     4  11  21  39  60  88 112 156 203 243 280 348
#     4  12  25  37  59  88 120 153 202 243 285 349
#     4  11  24  38  59  85 122 160 192 235 297 360
#     4  12  22  41  57  86 122 159 184 243 312 344
#
# _framework density 21.632486
#
# number of rings (size 3 to 8) (size 9 to 14) (size 15 to 20)
#    0.000    1.143    2.857    4.714    0.000    6.857 
#    0.000    0.714    0.000    0.000    0.000   13.000 
#    0.000    0.000    0.000    0.000    0.000    0.000 
#
# Total GULP energy -78133.311498 kJ/mol
# GULP energy per Si atom -5580.950821 kJ/mol
# Density = 2.158325 g / cm^3
# Si number density = 21.632486 Si / 1000 Ang^3
#
#
#
# Elastic Constant Matrix: (Units=GPa)
#
#
# Indices 1 2 3 4 5 6 
#
# 1 98.5759 38.6232 2.1438 16.1855 -6.7657 -16.2091
# 2 38.6232 149.0921 18.5418 14.3925 8.0528 -8.8858
# 3 2.1438 18.5418 52.8427 -3.3418 19.7517 5.6842
# 4 16.1855 14.3925 -3.3418 31.7100 -7.8839 -4.2603
# 5 -6.7657 8.0528 19.7517 -7.8839 29.0526 8.2906
# 6 -16.2091 -8.8858 5.6842 -4.2603 8.2906 35.2585
#
#
#
# Elastic Compliance Matrix: (Units=1/GPa)
#
#
# Indices 1 2 3 4 5 6 
#
# 1 0.012761 -0.002594 -0.001105 -0.004364 0.002004 0.004392
# 2 -0.002594 0.008171 -0.002109 -0.003079 -0.002689 0.001467
# 3 -0.001105 -0.002109 0.026270 -0.000159 -0.017220 -0.001245
# 4 -0.004364 -0.003079 -0.000159 0.037629 0.010339 -0.000641
# 5 0.002004 -0.002689 -0.017220 0.010339 0.052446 -0.008063
# 6 0.004392 0.001467 -0.001245 -0.000641 -0.008063 0.032770
#
#
# Mechanical properties :
#
#
# Convention : Reuss Voigt Hill
#
# Bulk Modulus (GPa) = 28.10143 46.56981 37.33562
# Shear Modulus (GPa) = 25.83640 35.28433 30.56037
#
# Velocity S-wave (km/s) = 3.45966 4.04305 3.76268
# Velocity P-wave (km/s) = 5.38308 6.58555 6.01444
#
# Compressibility (1/GPa) = 0.03558538
#
# Stress axis : x y z
#
# Youngs Moduli (GPa) = 78.36298 122.37851 38.06691
#
# Poissons Ratio (x) = 0.31739 0.04208
# Poissons Ratio (y) = 0.20324 0.08030
# Poissons Ratio (z) = 0.08662 0.25815
#
# Static dielectric constant tensor:
#      x y z
#    x 1.805940 -0.023380 -0.060880 
#    y -0.023380 1.865310 0.005870 
#    z -0.060880 0.005870 1.842630 
# 
# From -- ./inp_files/454900.got.cif
#   From: 2010.05.17/outbox.cif.g08.bks.cpg/sg2_228_cif.got.tgz:454900.got - 2010.06.03 11:33:40.
