data_PCOD9104180
_publ_section_title
;
Structure prediction by ZEFSAII (Michael W. Deem and Ramdas Pophale) SiO2 
 PCOD9104180
Probable space group: P -1
;
_chemical_formula_sum "Si O2"
_cell_formula_units_Z 16
_cell_length_a 9.204719
_cell_length_b 18.428809
_cell_length_c 10.063014
_cell_angle_alpha 144.586918
_cell_angle_beta 130.737092
_cell_angle_gamma 59.520154
_cell_volume 748.316007
_symmetry_space_group_name_H-M "P -1"
_symmetry_group_IT_number 2
_symmetry_cell_setting 'triclinic'
loop_
_space_group_symop_operation_xyz
x,y,z
-x,-y,-z
loop_
_atom_site_type_symbol
_atom_site_label
_atom_site_fract_x
_atom_site_fract_y
_atom_site_fract_z
Si Si1 0.158865 0.565924 0.095253
Si Si2 0.250117 0.030989 0.582824
Si Si3 0.973453 0.582294 0.736267
Si Si4 0.600525 0.179209 0.030492
Si Si5 0.094635 0.807665 0.981423
Si Si6 0.862306 0.137039 0.507013
Si Si7 0.519499 0.594576 0.529366
Si Si8 0.161907 0.019374 0.012203
O O1 0.154649 0.716957 0.309229
O O2 0.372319 0.546412 0.252411
O O3 0.082190 0.526266 0.843615
O O4 0.000000 0.500000 0.000000
O O5 0.280046 0.938343 0.588415
O O6 0.193126 0.936946 0.289052
O O7 0.074790 0.111598 0.647729
O O8 0.402047 0.137840 0.780500
O O9 0.077935 0.714153 0.953747
O O10 0.000000 0.500000 0.500000
O O11 0.746686 0.600919 0.645391
O O12 0.769962 0.235409 0.121236
O O13 0.553048 0.273270 0.260854
O O14 0.658271 0.040673 0.903154
O O15 0.881889 0.841514 0.855480
O O16 0.855151 0.067751 0.257816
O O17 0.500000 0.500000 0.500000
O O18 0.000000 0.000000 0.000000
#
# Coordination Sequence:
#
# PCOD9104180 Si02
#       8
#     2   2   2   2   2   2   2   2
#     4  12  25  45  74 102 143 187 240 295 354 419
#     4  10  21  35  66  94 137 176 227 278 358 412
#     4  12  27  49  74 101 144 187 236 305 358 417
#     4  11  22  39  67  99 135 180 235 285 345 435
#     4  10  22  42  63  96 143 178 224 291 361 407
#     4  10  20  39  58  98 133 174 221 285 342 415
#     4  12  26  45  71 105 135 190 246 285 355 428
#     4   9  20  36  60  91 136 174 214 271 345 406
#
# _framework density 21.381342
#
# number of rings (size 3 to 8) (size 9 to 14) (size 15 to 20)
#    0.000    1.250    3.750    1.875    3.500    2.000 
#    0.000    0.000    0.000    0.000    0.000    0.000 
#    0.000    0.000    0.000    0.000    0.000    0.000 
#
# Total GULP energy -89090.782369 kJ/mol
# GULP energy per Si atom -5568.173898 kJ/mol
# Density = 2.133268 g / cm^3
# Si number density = 21.381342 Si / 1000 Ang^3
#
#
#
# Elastic Constant Matrix: (Units=GPa)
#
#
# Indices 1 2 3 4 5 6 
#
# 1 112.0679 36.9758 39.8075 -9.1727 -6.7983 -3.4596
# 2 36.9758 85.1886 17.4540 -8.9147 5.6855 14.4168
# 3 39.8075 17.4540 60.5300 -20.9045 1.0311 -4.2316
# 4 -9.1727 -8.9147 -20.9045 25.7269 5.6510 -3.7667
# 5 -6.7983 5.6855 1.0311 5.6510 38.1912 -1.2020
# 6 -3.4596 14.4168 -4.2316 -3.7667 -1.2020 39.2718
#
#
#
# Elastic Compliance Matrix: (Units=1/GPa)
#
#
# Indices 1 2 3 4 5 6 
#
# 1 0.013859 -0.005230 -0.009331 -0.005141 0.004314 0.001774
# 2 -0.005230 0.015706 -0.000303 0.003309 -0.003941 -0.006062
# 3 -0.009331 -0.000303 0.031539 0.024197 -0.005896 0.004828
# 4 -0.005141 0.003309 0.024197 0.061190 -0.010911 0.006475
# 5 0.004314 -0.003941 -0.005896 -0.010911 0.029345 0.001043
# 6 0.001774 -0.006062 0.004828 0.006475 0.001043 0.029019
#
#
# Mechanical properties :
#
#
# Convention : Reuss Voigt Hill
#
# Bulk Modulus (GPa) = 31.87130 49.58458 40.72794
# Shear Modulus (GPa) = 22.64030 31.54124 27.09077
#
# Velocity S-wave (km/s) = 3.25758 3.84497 3.56340
# Velocity P-wave (km/s) = 5.39329 6.55383 6.00167
#
# Compressibility (1/GPa) = 0.03137619
#
# Stress axis : x y z
#
# Youngs Moduli (GPa) = 72.15616 63.66963 31.70632
#
# Poissons Ratio (x) = 0.33297 0.29585
# Poissons Ratio (y) = 0.37736 0.00962
# Poissons Ratio (z) = 0.67329 0.01931
#
# Static dielectric constant tensor:
#      x y z
#    x 1.785660 -0.028590 -0.022730 
#    y -0.028590 1.897370 -0.012440 
#    z -0.022730 -0.012440 1.851530 
# 
# From -- ./inp_files/405757.got.cif
#   From: 2010.05.17/outbox.cif.g08.bks.cpg/sg2_203_cif.got.tgz:405757.got - 2010.06.03 11:33:40.
