data_PCOD9104493
_publ_section_title
;
Structure prediction by ZEFSAII (Michael W. Deem and Ramdas Pophale) SiO2 
 PCOD9104493
Probable space group: P -1
;
_chemical_formula_sum "Si O2"
_cell_formula_units_Z 16
_cell_length_a 11.320063
_cell_length_b 18.662436
_cell_length_c 8.717492
_cell_angle_alpha 102.176808
_cell_angle_beta 95.518379
_cell_angle_gamma 152.099152
_cell_volume 662.431970
_symmetry_space_group_name_H-M "P -1"
_symmetry_group_IT_number 2
_symmetry_cell_setting 'triclinic'
loop_
_space_group_symop_operation_xyz
x,y,z
-x,-y,-z
loop_
_atom_site_type_symbol
_atom_site_label
_atom_site_fract_x
_atom_site_fract_y
_atom_site_fract_z
Si Si1 0.412144 0.056737 0.215642
Si Si2 0.880912 0.751919 0.805708
Si Si3 0.337183 0.643552 0.500229
Si Si4 0.836650 0.704233 0.213478
Si Si5 0.352130 0.233968 0.110824
Si Si6 0.807651 0.212013 0.553478
Si Si7 0.901884 0.474390 0.142000
Si Si8 0.620937 0.667132 0.422376
O O1 0.115363 0.860374 0.194973
O O2 0.497832 0.186196 0.348936
O O3 0.709343 0.176094 0.351865
O O4 0.258830 0.964943 0.988039
O O5 0.734841 0.730587 0.891985
O O6 0.818888 0.751540 0.631586
O O7 0.691625 0.566744 0.719204
O O8 0.382375 0.623579 0.655091
O O9 0.522064 0.694644 0.434796
O O10 0.013160 0.481768 0.296327
O O11 0.816674 0.766449 0.336655
O O12 0.915039 0.687094 0.341656
O O13 0.500000 0.500000 0.000000
O O14 0.534464 0.292617 0.028492
O O15 0.000000 0.000000 0.000000
O O16 0.892858 0.334661 0.710877
O O17 0.500000 0.000000 0.500000
O O18 0.000000 0.500000 0.000000
#
# Coordination Sequence:
#
# PCOD9104493 Si02
#       8
#     2   2   2   2   2   2   2   2
#     4  10  20  39  61  85 124 171 215 261 335 394
#     4  10  20  39  63  90 124 168 217 268 321 392
#     4  10  23  42  60  93 133 171 210 272 335 393
#     4  11  21  36  65  88 122 176 215 267 326 391
#     4  11  22  43  71  93 131 177 220 266 334 397
#     4   9  22  42  59  92 132 170 214 264 338 392
#     4  11  25  42  69  98 132 170 226 276 326 391
#     4  10  22  36  61  94 126 160 226 270 317 387
#
# _framework density 24.153423
#
# number of rings (size 3 to 8) (size 9 to 14) (size 15 to 20)
#    0.000    1.750    2.500    1.125    1.750    0.500 
#   13.500    0.625    0.000    0.000    0.000    0.000 
#    0.000    0.000    0.000    0.000    0.000    0.000 
#
# Total GULP energy -89325.920501 kJ/mol
# GULP energy per Si atom -5582.870031 kJ/mol
# Density = 2.409845 g / cm^3
# Si number density = 24.153423 Si / 1000 Ang^3
#
#
#
# Elastic Constant Matrix: (Units=GPa)
#
#
# Indices 1 2 3 4 5 6 
#
# 1 93.3042 1.7629 57.3686 -4.2581 20.5168 1.2482
# 2 1.7629 63.8616 28.0251 15.1754 1.4978 9.4721
# 3 57.3686 28.0251 131.0056 18.0164 19.4766 12.9287
# 4 -4.2581 15.1754 18.0164 30.3459 7.4886 -7.4313
# 5 20.5168 1.4978 19.4766 7.4886 43.5727 -3.0254
# 6 1.2482 9.4721 12.9287 -7.4313 -3.0254 37.3009
#
#
#
# Elastic Compliance Matrix: (Units=1/GPa)
#
#
# Indices 1 2 3 4 5 6 
#
# 1 0.017779 0.000614 -0.008752 0.009757 -0.005897 0.003748
# 2 0.000614 0.020167 -0.002820 -0.010209 0.001611 -0.006068
# 3 -0.008752 -0.002820 0.014058 -0.009373 -0.000858 -0.005801
# 4 0.009757 -0.010209 -0.009373 0.050557 -0.007704 0.014962
# 5 -0.005897 0.001611 -0.000858 -0.007704 0.027433 0.000776
# 6 0.003748 -0.006068 -0.005801 0.014962 0.000776 0.033279
#
#
# Mechanical properties :
#
#
# Convention : Reuss Voigt Hill
#
# Bulk Modulus (GPa) = 33.23546 51.38718 42.31132
# Shear Modulus (GPa) = 25.61227 35.64488 30.62857
#
# Velocity S-wave (km/s) = 3.25991 3.84574 3.56488
# Velocity P-wave (km/s) = 5.28766 6.40634 5.87369
#
# Compressibility (1/GPa) = 0.03008834
#
# Stress axis : x y z
#
# Youngs Moduli (GPa) = 56.24588 49.58500 71.13379
#
# Poissons Ratio (x) = -0.03043 0.62256
# Poissons Ratio (y) = -0.03452 0.20059
# Poissons Ratio (z) = 0.49226 0.13982
#
# Static dielectric constant tensor:
#      x y z
#    x 2.017520 -0.025840 0.015470 
#    y -0.025840 2.004950 -0.018010 
#    z 0.015470 -0.018010 1.982140 
# 
# From -- ./inp_files/282110.got.cif
#   From: 2010.05.17/outbox.cif.g08.bks.cpg/sg2_142_cif.got.tgz:282110.got - 2010.06.03 11:33:40.
