data_PCOD9104951
_publ_section_title
;
Structure prediction by ZEFSAII (Michael W. Deem and Ramdas Pophale) SiO2 
 PCOD9104951
Probable space group: P -1
;
_chemical_formula_sum "Si O2"
_cell_formula_units_Z 16
_cell_length_a 15.164971
_cell_length_b 9.979955
_cell_length_c 13.396601
_cell_angle_alpha 148.630888
_cell_angle_beta 138.510501
_cell_angle_gamma 43.540826
_cell_volume 677.474045
_symmetry_space_group_name_H-M "P -1"
_symmetry_group_IT_number 2
_symmetry_cell_setting 'triclinic'
loop_
_space_group_symop_operation_xyz
x,y,z
-x,-y,-z
loop_
_atom_site_type_symbol
_atom_site_label
_atom_site_fract_x
_atom_site_fract_y
_atom_site_fract_z
Si Si1 0.971678 0.117473 0.662496
Si Si2 0.537090 0.694607 0.451983
Si Si3 0.352580 0.423032 0.018821
Si Si4 0.012106 0.187693 0.317707
Si Si5 0.717398 0.288802 0.065481
Si Si6 0.460511 0.064254 0.200093
Si Si7 0.291634 0.176987 0.476978
Si Si8 0.215415 0.397801 0.085847
O O1 0.837934 0.358670 0.727209
O O2 0.098428 0.239687 0.877570
O O3 0.000000 0.000000 0.500000
O O4 0.970670 0.898624 0.607295
O O5 0.494249 0.454264 0.209342
O O6 0.530434 0.700837 0.567753
O O7 0.677284 0.739463 0.554807
O O8 0.416479 0.945559 0.474665
O O9 0.241374 0.486319 0.052160
O O10 0.316755 0.615911 0.016169
O O11 0.392211 0.117037 0.822561
O O12 0.153531 0.082605 0.312254
O O13 0.000000 0.500000 0.500000
O O14 0.875385 0.130215 0.117912
O O15 0.705491 0.563707 0.290480
O O16 0.612585 0.129754 0.920102
O O17 0.355987 0.196663 0.110604
#
# Coordination Sequence:
#
# PCOD9104951 Si02
#       8
#     2   2   2   2   2   2   2   2
#     4  11  26  51  74  99 148 184 230 295 351 420
#     4  11  23  39  67  99 139 181 234 284 350 412
#     4  12  25  44  69 102 144 185 233 294 344 417
#     4  10  23  41  74 108 130 181 236 288 353 416
#     4  11  21  42  69 100 144 179 230 297 349 406
#     4  12  24  45  69 101 141 188 233 292 348 412
#     4  10  20  39  63 104 138 175 230 286 354 412
#     4  11  28  47  70 106 137 193 239 275 357 428
#
# _framework density 23.617139000000002
#
# number of rings (size 3 to 8) (size 9 to 14) (size 15 to 20)
#    0.000    1.000    3.750    3.000    3.500    4.500 
#    2.250    1.875    0.000    0.000    0.000    0.000 
#    0.000    0.000    0.000    0.000    0.000    0.000 
#
# Total GULP energy -89483.828040 kJ/mol
# GULP energy per Si atom -5592.739252 kJ/mol
# Density = 2.356339 g / cm^3
# Si number density = 23.617139 Si / 1000 Ang^3
#
#
#
# Elastic Constant Matrix: (Units=GPa)
#
#
# Indices 1 2 3 4 5 6 
#
# 1 124.8350 25.6012 22.6252 9.5402 -18.6729 0.0662
# 2 25.6012 85.5243 11.9433 8.2010 -9.6423 9.1646
# 3 22.6252 11.9433 72.5700 1.1826 -29.9107 3.9195
# 4 9.5402 8.2010 1.1826 23.3942 0.3781 7.9481
# 5 -18.6729 -9.6423 -29.9107 0.3781 35.2715 -3.2597
# 6 0.0662 9.1646 3.9195 7.9481 -3.2597 30.8402
#
#
#
# Elastic Compliance Matrix: (Units=1/GPa)
#
#
# Indices 1 2 3 4 5 6 
#
# 1 0.009503 -0.002126 -0.001127 -0.003862 0.003734 0.002145
# 2 -0.002126 0.013187 -0.000587 -0.002753 0.001739 -0.002946
# 3 -0.001127 -0.000587 0.021423 -0.000501 0.017362 -0.000582
# 4 -0.003862 -0.002753 -0.000501 0.049608 -0.004901 -0.012413
# 5 0.003734 0.001739 0.017362 -0.004901 0.045892 0.003382
# 6 0.002145 -0.002946 -0.000582 -0.012413 0.003382 0.036927
#
#
# Mechanical properties :
#
#
# Convention : Reuss Voigt Hill
#
# Bulk Modulus (GPa) = 27.44662 44.80762 36.12712
# Shear Modulus (GPa) = 25.46312 32.75182 29.10747
#
# Velocity S-wave (km/s) = 3.28710 3.72799 3.51447
# Velocity P-wave (km/s) = 5.10426 6.12734 5.63905
#
# Compressibility (1/GPa) = 0.03643436
#
# Stress axis : x y z
#
# Youngs Moduli (GPa) = 105.22618 75.83415 46.67862
#
# Poissons Ratio (x) = 0.16121 0.05260
# Poissons Ratio (y) = 0.22370 0.02738
# Poissons Ratio (z) = 0.11858 0.04448
#
# Static dielectric constant tensor:
#      x y z
#    x 1.946290 -0.030170 -0.011180 
#    y -0.030170 1.889670 0.013400 
#    z -0.011180 0.013400 1.930950 
# 
# From -- ./inp_files/448402.got.cif
#   From: 2010.05.17/outbox.cif.g08.bks.cpg/sg2_225_cif.got.tgz:448402.got - 2010.06.03 11:33:40.
