data_PCOD9104213
_publ_section_title
;
Structure prediction by ZEFSAII (Michael W. Deem and Ramdas Pophale) SiO2 
 PCOD9104213
Probable space group: P -1
;
_chemical_formula_sum "Si O2"
_cell_formula_units_Z 14
_cell_length_a 15.400169
_cell_length_b 6.922551
_cell_length_c 16.974891
_cell_angle_alpha 50.134995
_cell_angle_beta 24.910000
_cell_angle_gamma 50.273665
_cell_volume 575.631253
_symmetry_space_group_name_H-M "P -1"
_symmetry_group_IT_number 2
_symmetry_cell_setting 'triclinic'
loop_
_space_group_symop_operation_xyz
x,y,z
-x,-y,-z
loop_
_atom_site_type_symbol
_atom_site_label
_atom_site_fract_x
_atom_site_fract_y
_atom_site_fract_z
Si Si1 0.694473 0.474075 0.127245
Si Si2 0.642251 0.713233 0.454961
Si Si3 0.734958 0.016830 0.000948
Si Si4 0.967380 0.593919 0.365174
Si Si5 0.618184 0.378020 0.778258
Si Si6 0.098156 0.280999 0.912800
Si Si7 0.638159 0.844812 0.822358
O O1 0.521375 0.467885 0.338806
O O2 0.581363 0.453610 0.143680
O O3 0.888424 0.255318 0.044660
O O4 0.763404 0.749466 0.999157
O O5 0.743143 0.658369 0.300462
O O6 0.825385 0.659366 0.385482
O O7 0.500000 0.000000 0.500000
O O8 0.904530 0.178207 0.788555
O O9 0.490685 0.140063 0.157167
O O10 0.791259 0.939271 0.064152
O O11 0.150525 0.345963 0.281455
O O12 0.807989 0.529661 0.579618
O O13 0.674242 0.127826 0.740626
O O14 0.538558 0.254435 0.952791
O O15 0.000000 0.500000 0.000000
#
# Coordination Sequence:
#
# PCOD9104213 Si02
#       7
#     2   2   2   2   2   2   2
#     4   9  20  41  62  90 126 165 209 262 319 376
#     4  11  24  41  67  97 125 163 217 267 313 373
#     4  10  22  37  58  89 128 165 204 257 317 378
#     4  11  22  38  60  90 122 163 210 260 315 374
#     4   9  20  37  62  87 116 160 212 263 312 370
#     4  10  22  42  66  93 128 169 208 257 319 379
#     4  10  20  39  59  85 122 162 208 259 313 374
#
# _framework density 24.321126
#
# number of rings (size 3 to 8) (size 9 to 14) (size 15 to 20)
#    0.000    2.000    0.000    2.571    0.000    8.571 
#    0.000    5.714    0.000    0.000    0.000    0.000 
#    0.000    0.000    0.000    0.000    0.000    0.000 
#
# Total GULP energy -78237.146280 kJ/mol
# GULP energy per Si atom -5588.367591 kJ/mol
# Density = 2.426577 g / cm^3
# Si number density = 24.321126 Si / 1000 Ang^3
#
#
#
# Elastic Constant Matrix: (Units=GPa)
#
#
# Indices 1 2 3 4 5 6 
#
# 1 95.6039 57.1137 48.6836 24.4213 -11.1270 -22.9172
# 2 57.1137 155.0285 75.1771 15.1704 -16.3963 -16.3511
# 3 48.6836 75.1771 124.1154 -1.5964 1.5372 -13.7067
# 4 24.4213 15.1704 -1.5964 27.9584 -8.0392 -8.9347
# 5 -11.1270 -16.3963 1.5372 -8.0392 44.1804 9.9589
# 6 -22.9172 -16.3511 -13.7067 -8.9347 9.9589 40.9144
#
#
#
# Elastic Compliance Matrix: (Units=1/GPa)
#
#
# Indices 1 2 3 4 5 6 
#
# 1 0.019976 -0.002418 -0.006034 -0.014773 0.000565 0.004838
# 2 -0.002418 0.010675 -0.005646 -0.003264 0.003054 -0.000435
# 3 -0.006034 -0.005646 0.014187 0.008875 -0.002890 0.001759
# 4 -0.014773 -0.003264 0.008875 0.053294 0.003515 0.004177
# 5 0.000565 0.003054 -0.002890 0.003515 0.025763 -0.004935
# 6 0.004838 -0.000435 0.001759 0.004177 -0.004935 0.029679
#
#
# Mechanical properties :
#
#
# Convention : Reuss Voigt Hill
#
# Bulk Modulus (GPa) = 60.08045 81.85520 70.96782
# Shear Modulus (GPa) = 26.69278 35.52888 31.11083
#
# Velocity S-wave (km/s) = 3.31647 3.82622 3.58043
# Velocity P-wave (km/s) = 6.27869 7.29719 6.80702
#
# Compressibility (1/GPa) = 0.01664435
#
# Stress axis : x y z
#
# Youngs Moduli (GPa) = 50.06110 93.67458 70.48524
#
# Poissons Ratio (x) = 0.22648 0.42528
# Poissons Ratio (y) = 0.12103 0.39793
# Poissons Ratio (z) = 0.30205 0.52885
#
# Static dielectric constant tensor:
#      x y z
#    x 1.993710 0.028050 -0.011780 
#    y 0.028050 2.018380 0.027450 
#    z -0.011780 0.027450 1.894310 
# 
# From -- ./inp_files/599679.got.cif
#   From: 2010.05.17/outbox.cif.g08.bks.cpg/sg2_300_cif.got.tgz:599679.got - 2010.06.03 11:33:40.
