data_PCOD9104963
_publ_section_title
;
Structure prediction by ZEFSAII (Michael W. Deem and Ramdas Pophale) SiO2 
 PCOD9104963
Probable space group: P -1
;
_chemical_formula_sum "Si O2"
_cell_formula_units_Z 16
_cell_length_a 5.411284
_cell_length_b 5.526477
_cell_length_c 19.962964
_cell_angle_alpha 72.779866
_cell_angle_beta 84.950060
_cell_angle_gamma 89.586243
_cell_volume 567.913504
_symmetry_space_group_name_H-M "P -1"
_symmetry_group_IT_number 2
_symmetry_cell_setting 'triclinic'
loop_
_space_group_symop_operation_xyz
x,y,z
-x,-y,-z
loop_
_atom_site_type_symbol
_atom_site_label
_atom_site_fract_x
_atom_site_fract_y
_atom_site_fract_z
Si Si1 0.756615 0.732600 0.398960
Si Si2 0.092186 0.160157 0.102882
Si Si3 0.160431 0.392438 0.844209
Si Si4 0.854149 0.175657 0.277303
Si Si5 0.257676 0.147593 0.472327
Si Si6 0.609017 0.721879 0.026171
Si Si7 0.724424 0.451873 0.655699
Si Si8 0.624437 0.016076 0.776896
O O1 0.754475 0.652265 0.482656
O O2 0.498274 0.659323 0.376144
O O3 0.999311 0.617633 0.368429
O O4 0.796188 0.035003 0.359523
O O5 0.990260 0.400607 0.125671
O O6 0.347325 0.088337 0.140693
O O7 0.122775 0.231073 0.019048
O O8 0.946018 0.892059 0.134331
O O9 0.174740 0.526638 0.760496
O O10 0.395064 0.364602 0.889832
O O11 0.636611 0.064111 0.242710
O O12 0.134019 0.101090 0.256417
O O13 0.285567 0.255009 0.388057
O O14 0.500000 0.000000 0.500000
O O15 0.000000 0.000000 0.500000
O O16 0.500000 0.500000 0.000000
O O17 0.500000 0.000000 0.000000
O O18 0.670545 0.316775 0.738764
#
# Coordination Sequence:
#
# PCOD9104963 Si02
#       8
#     2   2   2   2   2   2   2   2
#     4  10  20  39  63  85 117 164 212 259 319 391
#     4  11  23  42  65  94 132 177 222 274 333 398
#     4  11  23  42  65  94 132 177 222 274 333 398
#     4   9  20  39  64  93 124 163 216 271 328 392
#     4  12  24  36  54  88 126 160 208 266 324 386
#     4  12  24  40  64  96 132 176 225 278 333 396
#     4  10  20  39  63  85 117 164 212 259 319 391
#     4   9  20  39  64  93 124 163 216 271 328 392
#
# _framework density 28.173302
#
# number of rings (size 3 to 8) (size 9 to 14) (size 15 to 20)
#    0.000    1.500    0.000    5.250    0.000    3.000 
#    0.000    6.250    0.000    0.000    0.000    0.000 
#    0.000    0.000    0.000    0.000    0.000    0.000 
#
# Total GULP energy -89499.304858 kJ/mol
# GULP energy per Si atom -5593.706554 kJ/mol
# Density = 2.810918 g / cm^3
# Si number density = 28.173302 Si / 1000 Ang^3
#
#
#
# Elastic Constant Matrix: (Units=GPa)
#
#
# Indices 1 2 3 4 5 6 
#
# 1 146.2711 74.5975 45.4142 -1.2919 -1.1557 1.8742
# 2 74.5975 125.7544 31.8087 -18.1998 6.3442 6.3384
# 3 45.4142 31.8087 138.0732 -31.3325 19.0998 -9.1118
# 4 -1.2919 -18.1998 -31.3325 55.5428 1.6227 -0.2038
# 5 -1.1557 6.3442 19.0998 1.6227 45.4073 2.4315
# 6 1.8742 6.3384 -9.1118 -0.2038 2.4315 72.7515
#
#
#
# Elastic Compliance Matrix: (Units=1/GPa)
#
#
# Indices 1 2 3 4 5 6 
#
# 1 0.011205 -0.006458 -0.003491 -0.003908 0.002810 -0.000268
# 2 -0.006458 0.012427 0.000482 0.004256 -0.002214 -0.000770
# 3 -0.003491 0.000482 0.010439 0.006113 -0.004848 0.001534
# 4 -0.003908 0.004256 0.006113 0.022879 -0.004120 0.000697
# 5 0.002810 -0.002214 -0.004848 -0.004120 0.024661 -0.001322
# 6 -0.000268 -0.000770 0.001534 0.000697 -0.001322 0.014058
#
#
# Mechanical properties :
#
#
# Convention : Reuss Voigt Hill
#
# Bulk Modulus (GPa) = 66.05761 79.30439 72.68100
# Shear Modulus (GPa) = 41.78975 51.95886 46.87431
#
# Velocity S-wave (km/s) = 3.85555 4.29914 4.08338
# Velocity P-wave (km/s) = 6.58166 7.27003 6.93439
#
# Compressibility (1/GPa) = 0.01513830
#
# Stress axis : x y z
#
# Youngs Moduli (GPa) = 89.24661 80.46967 95.79818
#
# Poissons Ratio (x) = 0.51963 0.33442
# Poissons Ratio (y) = 0.57631 -0.04621
# Poissons Ratio (z) = 0.31155 -0.03881
#
# Static dielectric constant tensor:
#      x y z
#    x 2.185980 -0.036500 -0.006090 
#    y -0.036500 2.261170 -0.009010 
#    z -0.006090 -0.009010 2.211630 
# 
# From -- ./inp_files/603111.got.cif
#   From: 2010.05.17/outbox.cif.g08.bks.cpg/sg2_302_cif.got.tgz:603111.got - 2010.06.03 11:33:40.
