data_PCOD9104866
_publ_section_title
;
Structure prediction by ZEFSAII (Michael W. Deem and Ramdas Pophale) SiO2 
 PCOD9104866
Probable space group: P -1
;
_chemical_formula_sum "Si O2"
_cell_formula_units_Z 16
_cell_length_a 15.598033
_cell_length_b 15.270512
_cell_length_c 9.282001
_cell_angle_alpha 128.390128
_cell_angle_beta 51.363298
_cell_angle_gamma 153.218999
_cell_volume 765.325272
_symmetry_space_group_name_H-M "P -1"
_symmetry_group_IT_number 2
_symmetry_cell_setting 'triclinic'
loop_
_space_group_symop_operation_xyz
x,y,z
-x,-y,-z
loop_
_atom_site_type_symbol
_atom_site_label
_atom_site_fract_x
_atom_site_fract_y
_atom_site_fract_z
Si Si1 0.974561 0.858257 0.956616
Si Si2 0.800745 0.081769 0.988379
Si Si3 0.387200 0.615061 0.532194
Si Si4 0.166601 0.485143 0.381103
Si Si5 0.053537 0.196486 0.577095
Si Si6 0.422876 0.819661 0.959036
Si Si7 0.244200 0.225976 0.651788
Si Si8 0.933897 0.485728 0.773808
O O1 0.918058 0.709312 0.759408
O O2 0.153428 0.964427 0.975845
O O3 0.804918 0.731659 0.124284
O O4 0.000000 0.000000 0.000000
O O5 0.898477 0.283342 0.128814
O O6 0.911891 0.129556 0.778081
O O7 0.577447 0.906932 0.003765
O O8 0.365990 0.643888 0.422968
O O9 0.176153 0.387774 0.556574
O O10 0.423306 0.736570 0.739689
O O11 0.552852 0.662111 0.421646
O O12 0.179979 0.555733 0.284198
O O13 0.026109 0.447895 0.583330
O O14 0.212696 0.260313 0.567375
O O15 0.925397 0.009955 0.419810
O O16 0.212017 0.651412 0.080582
O O17 0.500000 0.000000 0.000000
#
# Coordination Sequence:
#
# PCOD9104866 Si02
#       8
#     2   2   2   2   2   2   2   2
#     4  10  22  42  64  93 131 179 219 263 323 396
#     4  10  21  42  67  95 130 173 215 269 335 386
#     4  12  23  39  65 100 126 165 218 266 327 387
#     4  10  24  43  67  92 130 184 219 266 332 384
#     4  10  20  39  62  92 134 164 201 266 324 385
#     4  12  26  39  68 104 128 167 223 277 335 391
#     4  10  22  38  62  94 130 166 213 259 321 386
#     4  10  23  48  66  90 136 175 220 275 327 390
#
# _framework density 20.906143
#
# number of rings (size 3 to 8) (size 9 to 14) (size 15 to 20)
#    0.000    1.500    2.500    1.875    1.750    3.500 
#    2.250    8.750    0.000    0.000    0.000    0.000 
#    0.000    0.000    0.000    0.000    0.000    0.000 
#
# Total GULP energy -89411.080604 kJ/mol
# GULP energy per Si atom -5588.192538 kJ/mol
# Density = 2.085856 g / cm^3
# Si number density = 20.906143 Si / 1000 Ang^3
#
#
#
# Elastic Constant Matrix: (Units=GPa)
#
#
# Indices 1 2 3 4 5 6 
#
# 1 75.8429 49.7986 40.8920 6.7180 -2.8492 -5.6549
# 2 49.7986 17.5457 4.3371 24.2104 -1.0898 1.1504
# 3 40.8920 4.3371 101.6526 30.5411 -10.1504 9.9294
# 4 6.7180 24.2104 30.5411 18.3391 0.2466 -6.2257
# 5 -2.8492 -1.0898 -10.1504 0.2466 30.3433 8.1082
# 6 -5.6549 1.1504 9.9294 -6.2257 8.1082 25.7814
#
#
#
# Elastic Compliance Matrix: (Units=1/GPa)
#
#
# Indices 1 2 3 4 5 6 
#
# 1 0.007828 0.007174 0.004103 -0.021521 0.004343 -0.006746
# 2 0.007174 -0.001852 -0.014127 0.029215 -0.008884 0.016946
# 3 0.004103 -0.014127 0.009350 0.000447 0.003850 -0.003173
# 4 -0.021521 0.029215 0.000447 0.022990 -0.000913 -0.000357
# 5 0.004343 -0.008884 0.003850 -0.000913 0.037594 -0.012178
# 6 -0.006746 0.016946 -0.003173 -0.000357 -0.012178 0.041518
#
#
# Mechanical properties :
#
#
# Convention : Reuss Voigt Hill
#
# Bulk Modulus (GPa) = 103.86374 42.78852 73.32613
# Shear Modulus (GPa) = 39.57694 21.56032 30.56863
#
# Velocity S-wave (km/s) = 4.35567 3.21486 3.82800
# Velocity P-wave (km/s) = 8.66514 5.85592 7.39515
#
# Compressibility (1/GPa) = 0.00962800
#
# Stress axis : x y z
#
# Youngs Moduli (GPa) = 127.73845 -540.08914 106.95709
#
# Poissons Ratio (x) = 3.87485 -0.43887
# Poissons Ratio (y) = -0.91645 1.51097
# Poissons Ratio (z) = -0.52414 -7.62980
#
# Static dielectric constant tensor:
#      x y z
#    x 1.806500 -0.019650 0.012650 
#    y -0.019650 1.737300 0.007340 
#    z 0.012650 0.007340 1.729480 
# 
# From -- ./inp_files/271701.got.cif
#   From: 2010.05.17/outbox.cif.g08.bks.cpg/sg2_136_cif.got.tgz:271701.got - 2010.06.03 11:33:40.
