data_PCOD9104899
_publ_section_title
;
Structure prediction by ZEFSAII (Michael W. Deem and Ramdas Pophale) SiO2 
 PCOD9104899
Probable space group: P -1
;
_chemical_formula_sum "Si O2"
_cell_formula_units_Z 15
_cell_length_a 6.495352
_cell_length_b 22.426924
_cell_length_c 5.956628
_cell_angle_alpha 134.725145
_cell_angle_beta 106.813318
_cell_angle_gamma 66.365138
_cell_volume 564.751086
_symmetry_space_group_name_H-M "P -1"
_symmetry_group_IT_number 2
_symmetry_cell_setting 'triclinic'
loop_
_space_group_symop_operation_xyz
x,y,z
-x,-y,-z
loop_
_atom_site_type_symbol
_atom_site_label
_atom_site_fract_x
_atom_site_fract_y
_atom_site_fract_z
Si Si1 0.965225 0.113584 0.689261
Si Si2 0.321699 0.989017 0.229562
Si Si3 0.884012 0.743806 0.150098
Si Si4 0.321655 0.129992 0.217352
Si Si5 0.242643 0.632501 0.247743
Si Si6 0.574029 0.577415 0.841787
Si Si7 0.000000 0.500000 0.000000
Si Si8 0.430611 0.745162 0.916467
O O1 0.076895 0.019870 0.352810
O O2 0.002327 0.184973 0.714397
O O3 0.132794 0.121011 0.960972
O O4 0.706290 0.155605 0.789073
O O5 0.326588 0.058807 0.223591
O O6 0.500000 0.000000 0.500000
O O7 0.436631 0.896003 0.900929
O O8 0.753733 0.778724 0.434634
O O9 0.083534 0.660427 0.054801
O O10 0.684955 0.739067 0.907676
O O11 0.273743 0.716250 0.611103
O O12 0.485794 0.589459 0.102373
O O13 0.146836 0.571750 0.214862
O O14 0.500000 0.500000 0.500000
O O15 0.478328 0.667570 0.911965
O O16 0.840492 0.548870 0.871146
#
# Coordination Sequence:
#
# PCOD9104899 Si02
#       8
#     2   2   2   2   2   2   1   2
#     4  10  20  39  62  94 131 172 217 265 321 379
#     4   8  16  32  63  96 130 175 212 261 319 370
#     4  11  23  40  64  94 131 171 215 266 321 384
#     4   9  17  35  63  94 131 174 214 261 320 372
#     4  12  26  45  66  97 128 169 217 269 329 391
#     4  12  27  46  67  95 127 166 216 269 330 397
#     4  12  26  46  70  94 126 170 214 268 332 392
#     4  12  25  41  65  96 128 169 217 268 325 388
#
# _framework density 26.560378
#
# number of rings (size 3 to 8) (size 9 to 14) (size 15 to 20)
#    0.000    1.333    5.333    0.400    0.000    3.733 
#    0.000    0.667    0.000   27.200    0.000    0.000 
#    0.000    0.000    0.000    0.000    0.000    0.000 
#
# Total GULP energy -83685.049012 kJ/mol
# GULP energy per Si atom -5579.003267 kJ/mol
# Density = 2.649993 g / cm^3
# Si number density = 26.560378 Si / 1000 Ang^3
#
#
#
# Elastic Constant Matrix: (Units=GPa)
#
#
# Indices 1 2 3 4 5 6 
#
# 1 62.4080 -0.5894 16.2247 -0.9851 21.9519 -2.1331
# 2 -0.5894 107.6392 6.4635 -14.4512 3.7701 -22.9258
# 3 16.2247 6.4635 72.2524 2.5596 1.1875 -2.2563
# 4 -0.9851 -14.4512 2.5596 32.6557 1.4355 3.8407
# 5 21.9519 3.7701 1.1875 1.4355 33.7338 -4.4081
# 6 -2.1331 -22.9258 -2.2563 3.8407 -4.4081 41.1430
#
#
#
# Elastic Compliance Matrix: (Units=1/GPa)
#
#
# Indices 1 2 3 4 5 6 
#
# 1 0.022562 0.001199 -0.005019 0.002281 -0.014767 -0.000233
# 2 0.001199 0.011235 -0.001233 0.004500 -0.001442 0.005681
# 3 -0.005019 -0.001233 0.015114 -0.002061 0.003011 0.000397
# 4 0.002281 0.004500 -0.002061 0.033107 -0.003447 -0.000947
# 5 -0.014767 -0.001442 0.003011 -0.003447 0.039872 0.003190
# 6 -0.000233 0.005681 0.000397 -0.000947 0.003190 0.027911
#
#
# Mechanical properties :
#
#
# Convention : Reuss Voigt Hill
#
# Bulk Modulus (GPa) = 25.76965 31.83303 28.80134
# Shear Modulus (GPa) = 28.92824 36.18656 32.55740
#
# Velocity S-wave (km/s) = 3.30381 3.69511 3.50492
# Velocity P-wave (km/s) = 4.92716 5.49694 5.21983
#
# Compressibility (1/GPa) = 0.03880534
#
# Stress axis : x y z
#
# Youngs Moduli (GPa) = 44.32237 89.00408 66.16558
#
# Poissons Ratio (x) = -0.10670 0.33209
# Poissons Ratio (y) = -0.05314 0.08156
# Poissons Ratio (z) = 0.22246 0.10971
#
# Static dielectric constant tensor:
#      x y z
#    x 2.145980 -0.077680 -0.081820 
#    y -0.077680 2.147220 0.021760 
#    z -0.081820 0.021760 2.103520 
# 
# From -- ./inp_files/10800.got.cif
#   From: 2010.05.17/outbox.cif.g08.bks.cpg/sg2_6_cif.got.tgz:10800.got - 2010.06.03 11:33:40.
