data_PCOD9104978
_publ_section_title
;
Structure prediction by ZEFSAII (Michael W. Deem and Ramdas Pophale) SiO2 
 PCOD9104978
Probable space group: P -1
;
_chemical_formula_sum "Si O2"
_cell_formula_units_Z 16
_cell_length_a 21.718486
_cell_length_b 8.868082
_cell_length_c 12.284574
_cell_angle_alpha 47.170129
_cell_angle_beta 150.882743
_cell_angle_gamma 141.081228
_cell_volume 723.270065
_symmetry_space_group_name_H-M "P -1"
_symmetry_group_IT_number 2
_symmetry_cell_setting 'triclinic'
loop_
_space_group_symop_operation_xyz
x,y,z
-x,-y,-z
loop_
_atom_site_type_symbol
_atom_site_label
_atom_site_fract_x
_atom_site_fract_y
_atom_site_fract_z
Si Si1 0.217798 0.900175 0.011149
Si Si2 0.397406 0.694734 0.273657
Si Si3 0.665103 0.153307 0.553371
Si Si4 0.938557 0.542777 0.647244
Si Si5 0.896769 0.742631 0.016762
Si Si6 0.472468 0.397987 0.129927
Si Si7 0.559949 0.268445 0.930629
Si Si8 0.898313 0.609944 0.319205
O O1 0.302698 0.820866 0.094781
O O2 0.250928 0.838785 0.211590
O O3 0.302680 0.186209 0.988423
O O4 0.044075 0.745422 0.796737
O O5 0.449168 0.715343 0.219889
O O6 0.550972 0.870576 0.487951
O O7 0.267829 0.411412 0.215669
O O8 0.782828 0.329534 0.558363
O O9 0.565920 0.272335 0.360732
O O10 0.934376 0.681457 0.465437
O O11 0.025003 0.407821 0.814576
O O12 0.900355 0.766614 0.142516
O O13 0.000000 0.000000 0.000000
O O14 0.511449 0.608158 0.171987
O O15 0.500000 0.500000 0.000000
O O16 0.730017 0.399890 0.161680
O O17 0.500000 0.000000 0.000000
O O18 0.000000 0.500000 0.500000
#
# Coordination Sequence:
#
# PCOD9104978 Si02
#       8
#     2   2   2   2   2   2   2   2
#     4  10  22  43  62  86 126 168 210 265 317 371
#     4   9  19  37  61  84 118 161 200 249 309 368
#     4  11  22  42  64  90 126 167 214 262 317 379
#     4  10  20  39  63  86 121 171 210 255 316 377
#     4   9  19  36  59  93 130 160 201 258 317 376
#     4  11  23  40  63  92 125 163 209 262 316 385
#     4  11  21  38  63  93 125 160 200 258 320 376
#     4   9  19  37  60  88 122 160 200 249 311 374
#
# _framework density 22.121749999999999
#
# number of rings (size 3 to 8) (size 9 to 14) (size 15 to 20)
#    0.000    2.000    0.000    5.625    0.000    2.000 
#    0.000   21.875    0.000    0.000    0.000    0.000 
#    0.000    0.000    0.000    0.000    0.000    0.000 
#
# Total GULP energy -89259.566105 kJ/mol
# GULP energy per Si atom -5578.722882 kJ/mol
# Density = 2.207140 g / cm^3
# Si number density = 22.121750 Si / 1000 Ang^3
#
#
#
# Elastic Constant Matrix: (Units=GPa)
#
#
# Indices 1 2 3 4 5 6 
#
# 1 96.5191 43.5876 27.0054 15.5913 -15.8347 -3.2415
# 2 43.5876 144.4619 43.7878 20.2893 -27.3538 21.6971
# 3 27.0054 43.7878 103.5619 29.6001 -17.7518 -5.0148
# 4 15.5913 20.2893 29.6001 24.1401 -3.2869 7.2500
# 5 -15.8347 -27.3538 -17.7518 -3.2869 30.1293 5.7909
# 6 -3.2415 21.6971 -5.0148 7.2500 5.7909 34.8562
#
#
#
# Elastic Compliance Matrix: (Units=1/GPa)
#
#
# Indices 1 2 3 4 5 6 
#
# 1 0.013567 -0.003429 0.000918 -0.008054 0.002768 0.004744
# 2 -0.003429 0.012141 -0.003166 0.000127 0.009271 -0.009898
# 3 0.000918 -0.003166 0.018309 -0.022391 0.004294 0.008634
# 4 -0.008054 0.000127 -0.022391 0.079233 -0.004876 -0.019720
# 5 0.002768 0.009271 0.004294 -0.004876 0.047317 -0.011743
# 6 0.004744 -0.009898 0.008634 -0.019720 -0.011743 0.042587
#
#
# Mechanical properties :
#
#
# Convention : Reuss Voigt Hill
#
# Bulk Modulus (GPa) = 30.61525 63.70049 47.15787
# Shear Modulus (GPa) = 21.24096 33.16924 27.20510
#
# Velocity S-wave (km/s) = 3.10205 3.87640 3.51064
# Velocity P-wave (km/s) = 5.16718 6.99237 6.14789
#
# Compressibility (1/GPa) = 0.03266346
#
# Stress axis : x y z
#
# Youngs Moduli (GPa) = 73.71054 82.36766 54.61802
#
# Poissons Ratio (x) = 0.28243 -0.05015
# Poissons Ratio (y) = 0.25275 0.17290
# Poissons Ratio (z) = -0.06768 0.26075
#
# Static dielectric constant tensor:
#      x y z
#    x 1.914310 -0.040220 0.001980 
#    y -0.040220 1.826760 0.001890 
#    z 0.001980 0.001890 1.860480 
# 
# From -- ./inp_files/469876.got.cif
#   From: 2010.05.17/outbox.cif.g08.bks.cpg/sg2_235_cif.got.tgz:469876.got - 2010.06.03 11:33:40.
