data_PCOD9104935
_publ_section_title
;
Structure prediction by ZEFSAII (Michael W. Deem and Ramdas Pophale) SiO2 
 PCOD9104935
Probable space group: P -1
;
_chemical_formula_sum "Si O2"
_cell_formula_units_Z 15
_cell_length_a 11.208170
_cell_length_b 7.111784
_cell_length_c 9.819755
_cell_angle_alpha 131.121381
_cell_angle_beta 99.571111
_cell_angle_gamma 81.793301
_cell_volume 580.851497
_symmetry_space_group_name_H-M "P -1"
_symmetry_group_IT_number 2
_symmetry_cell_setting 'triclinic'
loop_
_space_group_symop_operation_xyz
x,y,z
-x,-y,-z
loop_
_atom_site_type_symbol
_atom_site_label
_atom_site_fract_x
_atom_site_fract_y
_atom_site_fract_z
Si Si1 0.233485 0.187609 0.493163
Si Si2 0.913174 0.282671 0.689268
Si Si3 0.418098 0.495295 0.790385
Si Si4 0.362958 0.805025 0.657302
Si Si5 0.617245 0.016697 0.831003
Si Si6 0.673221 0.534360 0.778726
Si Si7 0.000000 0.500000 0.500000
Si Si8 0.092265 0.937227 0.696266
O O1 0.333581 0.264566 0.657136
O O2 0.302401 0.063339 0.319583
O O3 0.144494 0.412328 0.535183
O O4 0.154798 0.976970 0.443867
O O5 0.813960 0.483503 0.819530
O O6 0.936836 0.299221 0.537165
O O7 0.030235 0.198260 0.758786
O O8 0.402080 0.606151 0.686921
O O9 0.562631 0.462026 0.820175
O O10 0.365572 0.710473 0.979615
O O11 0.476486 0.978847 0.753031
O O12 0.343861 0.644639 0.441246
O O13 0.234655 0.937950 0.735857
O O14 0.649518 0.817521 0.861943
O O15 0.015813 0.790399 0.720274
#
# Coordination Sequence:
#
# PCOD9104935 Si02
#       8
#     2   2   2   2   2   2   1   2
#     4  11  20  38  58  87 114 154 189 233 285 337
#     4   9  20  32  58  85 118 152 188 227 290 350
#     4  11  20  34  59  88 114 148 197 238 282 328
#     4  10  16  33  59  85 114 145 191 244 280 326
#     4  11  21  35  61  87 114 149 195 241 277 334
#     4  10  17  34  56  84 115 150 191 233 290 333
#     4  10  18  34  66  82 110 144 196 240 270 336
#     4   9  17  33  56  91 107 149 196 230 283 341
#
# _framework density 25.824158000000001
#
# number of rings (size 3 to 8) (size 9 to 14) (size 15 to 20)
#    0.000    1.867    4.000    3.200    0.000    0.533 
#    0.000    1.333    5.867    3.200    0.000    0.000 
#    0.000    0.000    0.000    0.000    0.000    0.000 
#
# Total GULP energy -83765.034164 kJ/mol
# GULP energy per Si atom -5584.335611 kJ/mol
# Density = 2.576538 g / cm^3
# Si number density = 25.824158 Si / 1000 Ang^3
#
#
#
# Elastic Constant Matrix: (Units=GPa)
#
#
# Indices 1 2 3 4 5 6 
#
# 1 163.4716 32.7035 19.9621 7.1739 -16.8139 -25.5979
# 2 32.7035 114.3024 7.0913 -3.6554 -6.4542 -28.6590
# 3 19.9621 7.0913 84.7316 4.3679 -7.3531 2.3310
# 4 7.1739 -3.6554 4.3679 -8.2398 -12.5284 2.4430
# 5 -16.8139 -6.4542 -7.3531 -12.5284 6.7105 16.2549
# 6 -25.5979 -28.6590 2.3310 2.4430 16.2549 57.3754
#
#
#
# Elastic Compliance Matrix: (Units=1/GPa)
#
#
# Indices 1 2 3 4 5 6 
#
# 1 0.007588 -0.001664 -0.000824 -0.004032 0.007328 0.000683
# 2 -0.001664 0.010576 -0.001212 0.002482 -0.004946 0.005885
# 3 -0.000824 -0.001212 0.013208 -0.006297 0.007947 -0.003493
# 4 -0.004032 0.002482 -0.006297 -0.005268 -0.077325 0.021828
# 5 0.007328 -0.004946 0.007947 -0.077325 0.056860 -0.012340
# 6 0.000683 0.005885 -0.003493 0.021828 -0.012340 0.023382
#
#
# Mechanical properties :
#
#
# Convention : Reuss Voigt Hill
#
# Bulk Modulus (GPa) = 41.71407 53.55773 47.63590
# Shear Modulus (GPa) = 41.07275 31.35248 36.21261
#
# Velocity S-wave (km/s) = 3.99241 3.48814 3.74876
# Velocity P-wave (km/s) = 6.11887 6.08336 6.10114
#
# Compressibility (1/GPa) = 0.02397273
#
# Stress axis : x y z
#
# Youngs Moduli (GPa) = 131.78015 94.55701 75.71269
#
# Poissons Ratio (x) = 0.15733 0.06235
# Poissons Ratio (y) = 0.21926 0.09178
# Poissons Ratio (z) = 0.10852 0.11462
#
# Static dielectric constant tensor:
#      x y z
#    x 2.125620 0.102860 0.026580 
#    y 0.102860 2.377430 -0.034470 
#    z 0.026580 -0.034470 2.058420 
# 
# From -- ./inp_files/251340.got.cif
#   From: 2010.05.17/outbox.cif.g08.bks.cpg/sg2_126_cif.got.tgz:251340.got - 2010.06.03 11:33:40.
