data_PCOD9104781
_publ_section_title
;
Structure prediction by ZEFSAII (Michael W. Deem and Ramdas Pophale) SiO2 
 PCOD9104781
Probable space group: P -1
;
_chemical_formula_sum "Si O2"
_cell_formula_units_Z 16
_cell_length_a 11.531709
_cell_length_b 10.857674
_cell_length_c 8.966714
_cell_angle_alpha 99.072655
_cell_angle_beta 76.957721
_cell_angle_gamma 139.050272
_cell_volume 716.689540
_symmetry_space_group_name_H-M "P -1"
_symmetry_group_IT_number 2
_symmetry_cell_setting 'triclinic'
loop_
_space_group_symop_operation_xyz
x,y,z
-x,-y,-z
loop_
_atom_site_type_symbol
_atom_site_label
_atom_site_fract_x
_atom_site_fract_y
_atom_site_fract_z
Si Si1 0.382553 0.517116 0.967350
Si Si2 0.482010 0.850502 0.902576
Si Si3 0.129628 0.877642 0.118953
Si Si4 0.826226 0.584889 0.548372
Si Si5 0.996982 0.722069 0.831750
Si Si6 0.094880 0.131094 0.638241
Si Si7 0.881407 0.461896 0.244615
Si Si8 0.541379 0.587992 0.344510
O O1 0.449558 0.710578 0.999088
O O2 0.410839 0.494827 0.785223
O O3 0.500000 0.500000 0.000000
O O4 0.180707 0.360751 0.054268
O O5 0.312572 0.707824 0.812540
O O6 0.685675 0.985757 0.816233
O O7 0.500000 0.000000 0.000000
O O8 0.036693 0.933826 0.204147
O O9 0.002679 0.661254 0.162492
O O10 0.149722 0.886931 0.935331
O O11 0.969650 0.725494 0.664145
O O12 0.846052 0.693860 0.424721
O O13 0.849095 0.474059 0.430064
O O14 0.630303 0.461759 0.653237
O O15 0.011433 0.583432 0.806729
O O16 0.268167 0.193706 0.657410
O O17 0.000000 0.000000 0.500000
O O18 0.500000 0.500000 0.500000
#
# Coordination Sequence:
#
# PCOD9104781 Si02
#       8
#     2   2   2   2   2   2   2   2
#     4  12  24  42  67 101 136 173 218 282 344 396
#     4  12  24  42  72 102 128 178 234 277 329 405
#     4  11  23  40  68  96 126 175 230 278 322 401
#     4  10  23  39  64  93 128 177 219 273 345 397
#     4  12  21  42  66  95 134 174 218 278 340 397
#     4  10  22  38  59  90 127 169 220 274 327 405
#     4  11  23  45  69  94 133 180 234 271 329 407
#     4  10  20  39  62  89 124 175 224 261 335 401
#
# _framework density 22.324869
#
# number of rings (size 3 to 8) (size 9 to 14) (size 15 to 20)
#    0.000    1.000    5.000    3.000    5.250    0.000 
#    2.250    1.250    0.000    3.000    0.000    0.000 
#    0.000    0.000    0.000    0.000    0.000    0.000 
#
# Total GULP energy -89125.544813 kJ/mol
# GULP energy per Si atom -5570.346551 kJ/mol
# Density = 2.227406 g / cm^3
# Si number density = 22.324869 Si / 1000 Ang^3
#
#
#
# Elastic Constant Matrix: (Units=GPa)
#
#
# Indices 1 2 3 4 5 6 
#
# 1 96.6328 12.2027 20.6762 1.0625 -3.9121 14.6051
# 2 12.2027 61.4065 3.3157 15.5325 6.0781 18.2516
# 3 20.6762 3.3157 96.8686 9.8957 -1.7256 0.5385
# 4 1.0625 15.5325 9.8957 18.5966 2.3846 -0.4820
# 5 -3.9121 6.0781 -1.7256 2.3846 40.0894 0.3829
# 6 14.6051 18.2516 0.5385 -0.4820 0.3829 31.6331
#
#
#
# Elastic Compliance Matrix: (Units=1/GPa)
#
#
# Indices 1 2 3 4 5 6 
#
# 1 0.011801 -0.001342 -0.002584 0.001549 0.001196 -0.004621
# 2 -0.001342 0.027347 0.001821 -0.023797 -0.002635 -0.015520
# 3 -0.002584 0.001821 0.011598 -0.007604 0.000425 -0.000176
# 4 0.001549 -0.023797 -0.007604 0.078153 -0.001354 0.014352
# 5 0.001196 -0.002635 0.000425 -0.001354 0.025553 0.000631
# 6 -0.004621 -0.015520 -0.000176 0.014352 0.000631 0.042915
#
#
# Mechanical properties :
#
#
# Convention : Reuss Voigt Hill
#
# Bulk Modulus (GPa) = 21.48953 36.36634 28.92794
# Shear Modulus (GPa) = 23.03211 32.64471 27.83841
#
# Velocity S-wave (km/s) = 3.21546 3.82810 3.53508
# Velocity P-wave (km/s) = 4.84069 5.98866 5.44502
#
# Compressibility (1/GPa) = 0.04653428
#
# Stress axis : x y z
#
# Youngs Moduli (GPa) = 84.74124 36.56754 86.22324
#
# Poissons Ratio (x) = 0.04908 0.22281
# Poissons Ratio (y) = 0.11374 -0.15700
# Poissons Ratio (z) = 0.21898 -0.06658
#
# Static dielectric constant tensor:
#      x y z
#    x 1.862920 -0.051260 -0.045590 
#    y -0.051260 2.098820 0.209050 
#    z -0.045590 0.209050 2.186320 
# 
# From -- ./inp_files/259004.got.cif
#   From: 2010.05.17/outbox.cif.g08.bks.cpg/sg2_130_cif.got.tgz:259004.got - 2010.06.03 11:33:40.
