data_PCOD9104630
_publ_section_title
;
Structure prediction by ZEFSAII (Michael W. Deem and Ramdas Pophale) SiO2 
 PCOD9104630
Probable space group: P -1
;
_chemical_formula_sum "Si O2"
_cell_formula_units_Z 16
_cell_length_a 8.461929
_cell_length_b 13.683852
_cell_length_c 12.512384
_cell_angle_alpha 31.414631
_cell_angle_beta 119.669034
_cell_angle_gamma 117.613761
_cell_volume 653.462885
_symmetry_space_group_name_H-M "P -1"
_symmetry_group_IT_number 2
_symmetry_cell_setting 'triclinic'
loop_
_space_group_symop_operation_xyz
x,y,z
-x,-y,-z
loop_
_atom_site_type_symbol
_atom_site_label
_atom_site_fract_x
_atom_site_fract_y
_atom_site_fract_z
Si Si1 0.866911 0.083313 0.599908
Si Si2 0.452725 0.228446 0.521644
Si Si3 0.764934 0.386396 0.126199
Si Si4 0.924071 0.793367 0.259057
Si Si5 0.599038 0.746006 0.761727
Si Si6 0.300629 0.485323 0.394739
Si Si7 0.864267 0.091493 0.283374
Si Si8 0.794996 0.189324 0.826505
O O1 0.868175 0.277554 0.353803
O O2 0.894075 0.123613 0.694667
O O3 0.690656 0.951316 0.628682
O O4 0.036177 0.965491 0.736452
O O5 0.491482 0.269604 0.371621
O O6 0.324936 0.379448 0.390089
O O7 0.628259 0.228514 0.655526
O O8 0.330660 0.029628 0.666808
O O9 0.550162 0.319136 0.138585
O O10 0.834928 0.299282 0.121691
O O11 0.761991 0.607758 0.935431
O O12 0.825591 0.639101 0.447415
O O13 0.007860 0.736399 0.228119
O O14 0.799588 0.965503 0.045807
O O15 0.500000 0.500000 0.500000
O O16 0.237075 0.694168 0.185326
O O17 0.000000 0.000000 0.500000
#
# Coordination Sequence:
#
# PCOD9104630 Si02
#       8
#     2   2   2   2   2   2   2   2
#     4  11  22  40  64  92 129 167 200 264 314 374
#     4  11  21  42  65  92 131 163 209 260 318 372
#     4  10  23  39  60  91 134 164 207 252 307 388
#     4  11  23  44  68  94 127 168 218 263 320 375
#     4  11  23  40  62  99 125 166 209 251 323 382
#     4  10  23  43  64  91 127 167 214 265 315 372
#     4  10  20  39  61  92 127 165 202 251 312 377
#     4  10  25  43  66  96 122 171 217 268 315 373
#
# _framework density 24.484940999999999
#
# number of rings (size 3 to 8) (size 9 to 14) (size 15 to 20)
#    0.000    1.500    3.750    1.500    1.750    4.500 
#    4.500    2.500    0.000    0.000    0.000    0.000 
#    0.000    0.000    0.000    0.000    0.000    0.000 
#
# Total GULP energy -89417.488626 kJ/mol
# GULP energy per Si atom -5588.593039 kJ/mol
# Density = 2.442921 g / cm^3
# Si number density = 24.484941 Si / 1000 Ang^3
#
#
#
# Elastic Constant Matrix: (Units=GPa)
#
#
# Indices 1 2 3 4 5 6 
#
# 1 95.8384 14.5489 5.0582 -13.0774 27.7643 -12.0465
# 2 14.5489 63.6313 20.5346 -7.2775 12.3987 -10.4719
# 3 5.0582 20.5346 98.9859 -2.5128 40.9303 3.6039
# 4 -13.0774 -7.2775 -2.5128 24.2755 -5.5411 7.6704
# 5 27.7643 12.3987 40.9303 -5.5411 39.3039 -16.3649
# 6 -12.0465 -10.4719 3.6039 7.6704 -16.3649 36.2518
#
#
#
# Elastic Compliance Matrix: (Units=1/GPa)
#
#
# Indices 1 2 3 4 5 6 
#
# 1 0.017478 -0.003263 0.010776 0.006624 -0.025379 -0.009064
# 2 -0.003263 0.018851 -0.006911 0.002350 0.007119 0.007765
# 3 0.010776 -0.006911 0.031843 0.003655 -0.048098 -0.024067
# 4 0.006624 0.002350 0.003655 0.047638 -0.006970 -0.010709
# 5 -0.025379 0.007119 -0.048098 -0.006970 0.111053 0.050011
# 6 -0.009064 0.007765 -0.024067 -0.010709 0.050011 0.054050
#
#
# Mechanical properties :
#
#
# Convention : Reuss Voigt Hill
#
# Bulk Modulus (GPa) = 14.41406 37.63765 26.02585
# Shear Modulus (GPa) = 16.51078 34.52049 25.51563
#
# Velocity S-wave (km/s) = 2.59959 3.75889 3.23165
# Velocity P-wave (km/s) = 3.86137 5.85185 4.95754
#
# Compressibility (1/GPa) = 0.06937673
#
# Stress axis : x y z
#
# Youngs Moduli (GPa) = 57.21623 53.04717 31.40452
#
# Poissons Ratio (x) = 0.17308 -0.33841
# Poissons Ratio (y) = 0.18668 0.21702
# Poissons Ratio (z) = -0.61656 0.36659
#
# Static dielectric constant tensor:
#      x y z
#    x 1.973780 -0.009170 0.035020 
#    y -0.009170 1.937600 -0.019290 
#    z 0.035020 -0.019290 1.947820 
# 
# From -- ./inp_files/503733.got.cif
#   From: 2010.05.17/outbox.cif.g08.bks.cpg/sg2_252_cif.got.tgz:503733.got - 2010.06.03 11:33:40.
