data_PCOD9104078
_publ_section_title
;
Structure prediction by ZEFSAII (Michael W. Deem and Ramdas Pophale) SiO2 
 PCOD9104078
Probable space group: P -1
;
_chemical_formula_sum "Si O2"
_cell_formula_units_Z 14
_cell_length_a 10.982564
_cell_length_b 15.676161
_cell_length_c 12.971694
_cell_angle_alpha 132.046371
_cell_angle_beta 100.900276
_cell_angle_gamma 39.316734
_cell_volume 751.118721
_symmetry_space_group_name_H-M "P -1"
_symmetry_group_IT_number 2
_symmetry_cell_setting 'triclinic'
loop_
_space_group_symop_operation_xyz
x,y,z
-x,-y,-z
loop_
_atom_site_type_symbol
_atom_site_label
_atom_site_fract_x
_atom_site_fract_y
_atom_site_fract_z
Si Si1 0.709633 0.457832 0.525665
Si Si2 0.816503 0.833386 0.975758
Si Si3 0.476196 0.599819 0.924957
Si Si4 0.173447 0.387303 0.336566
Si Si5 0.213014 0.928025 0.972247
Si Si6 0.911148 0.241901 0.873441
Si Si7 0.349404 0.698984 0.480296
O O1 0.873441 0.439161 0.550689
O O2 0.431555 0.710852 0.746530
O O3 0.615038 0.513229 0.438618
O O4 0.808196 0.262386 0.439647
O O5 0.888379 0.648617 0.795891
O O6 0.987904 0.738838 0.022090
O O7 0.498134 0.103251 0.172183
O O8 0.867391 0.881414 0.928254
O O9 0.352812 0.806902 0.008092
O O10 0.716324 0.436781 0.907198
O O11 0.582421 0.423065 0.712100
O O12 0.257495 0.708783 0.043111
O O13 0.000000 0.500000 0.500000
O O14 0.000000 0.000000 0.000000
O O15 0.169306 0.958744 0.646247
#
# Coordination Sequence:
#
# PCOD9104078 Si02
#       7
#     2   2   2   2   2   2   2
#     4   9  19  31  53  83 103 133 189 218 267 314
#     4  10  21  35  55  77 111 138 179 227 260 312
#     4  10  22  30  53  83 111 144 169 208 281 327
#     4  10  21  35  52  79 105 143 184 223 261 310
#     4  10  16  33  54  81 108 138 172 223 270 314
#     4  11  20  35  49  84 114 137 175 216 268 330
#     4  10  18  34  54  76 111 138 168 230 268 313
#
# _framework density 18.638864999999999
#
# number of rings (size 3 to 8) (size 9 to 14) (size 15 to 20)
#    0.000    2.000    4.286    0.429    2.000    2.286 
#    0.000    0.000    0.000   13.714    0.000   12.000 
#    0.000    0.000    0.000    0.000    0.000    0.000 
#
# Total GULP energy -78081.568332 kJ/mol
# GULP energy per Si atom -5577.254881 kJ/mol
# Density = 1.859644 g / cm^3
# Si number density = 18.638865 Si / 1000 Ang^3
#
#
#
# Elastic Constant Matrix: (Units=GPa)
#
#
# Indices 1 2 3 4 5 6 
#
# 1 91.7496 26.2590 20.8874 -5.2212 8.9064 -8.7801
# 2 26.2590 105.0225 18.0358 -23.0498 12.5561 -6.0705
# 3 20.8874 18.0358 63.0818 -12.3226 -6.7585 -5.5276
# 4 -5.2212 -23.0498 -12.3226 18.5972 -5.5388 1.8103
# 5 8.9064 12.5561 -6.7585 -5.5388 35.2905 -6.7594
# 6 -8.7801 -6.0705 -5.5276 1.8103 -6.7594 21.1157
#
#
#
# Elastic Compliance Matrix: (Units=1/GPa)
#
#
# Indices 1 2 3 4 5 6 
#
# 1 0.013065 -0.002844 -0.004397 -0.004000 -0.003224 0.002775
# 2 -0.002844 0.013982 -0.000024 0.015953 -0.001574 0.000959
# 3 -0.004397 -0.000024 0.021670 0.015158 0.008665 0.005312
# 4 -0.004000 0.015953 0.015158 0.085809 0.012374 0.003495
# 5 -0.003224 -0.001574 0.008665 0.012374 0.035368 0.010736
# 6 0.002775 0.000959 0.005312 0.003495 0.010736 0.053315
#
#
# Mechanical properties :
#
#
# Convention : Reuss Voigt Hill
#
# Bulk Modulus (GPa) = 29.25046 43.35757 36.30401
# Shear Modulus (GPa) = 20.06954 27.97879 24.02417
#
# Velocity S-wave (km/s) = 3.28496 3.87861 3.59406
# Velocity P-wave (km/s) = 5.48774 6.58563 6.06159
#
# Compressibility (1/GPa) = 0.03418750
#
# Stress axis : x y z
#
# Youngs Moduli (GPa) = 76.54109 71.52157 46.14705
#
# Poissons Ratio (x) = 0.20338 0.20289
# Poissons Ratio (y) = 0.21766 0.00112
# Poissons Ratio (z) = 0.33652 0.00174
#
# Static dielectric constant tensor:
#      x y z
#    x 1.665130 0.005110 0.003300 
#    y 0.005110 1.655790 0.024900 
#    z 0.003300 0.024900 1.696860 
# 
# From -- ./inp_files/436898.got.cif
#   From: 2010.05.17/outbox.cif.g08.bks.cpg/sg2_219_cif.got.tgz:436898.got - 2010.06.03 11:33:40.
