data_PCOD9104118
_publ_section_title
;
Structure prediction by ZEFSAII (Michael W. Deem and Ramdas Pophale) SiO2 
 PCOD9104118
Probable space group: P -1
;
_chemical_formula_sum "Si O2"
_cell_formula_units_Z 16
_cell_length_a 12.644780
_cell_length_b 11.592431
_cell_length_c 9.115859
_cell_angle_alpha 36.689922
_cell_angle_beta 79.438980
_cell_angle_gamma 60.399678
_cell_volume 633.273065
_symmetry_space_group_name_H-M "P -1"
_symmetry_group_IT_number 2
_symmetry_cell_setting 'triclinic'
loop_
_space_group_symop_operation_xyz
x,y,z
-x,-y,-z
loop_
_atom_site_type_symbol
_atom_site_label
_atom_site_fract_x
_atom_site_fract_y
_atom_site_fract_z
Si Si1 0.830439 0.167350 0.029455
Si Si2 0.712202 0.862607 0.581380
Si Si3 0.334589 0.263447 0.822543
Si Si4 0.105048 0.780977 0.477466
Si Si5 0.253765 0.763565 0.710902
Si Si6 0.453916 0.272124 0.055687
Si Si7 0.784493 0.974000 0.970921
Si Si8 0.174156 0.416486 0.453938
O O1 0.741248 0.307817 0.048785
O O2 0.751732 0.137472 0.955103
O O3 0.889326 0.304930 0.812131
O O4 0.955630 0.917849 0.318736
O O5 0.649845 0.767041 0.799539
O O6 0.809214 0.674000 0.623822
O O7 0.767612 0.984162 0.535522
O O8 0.591553 0.084268 0.291544
O O9 0.202804 0.511911 0.666794
O O10 0.322273 0.045769 0.064707
O O11 0.319156 0.309695 0.604322
O O12 0.449477 0.229735 0.927311
O O13 0.135082 0.775149 0.647393
O O14 0.154270 0.935332 0.244770
O O15 0.389412 0.549813 0.816984
O O16 0.868827 0.710909 0.296253
#
# Coordination Sequence:
#
# PCOD9104118 Si02
#       8
#     2   2   2   2   2   2   2   2
#     4  12  22  38  58  86 118 157 190 232 281 338
#     4  11  21  40  62  86 108 160 187 237 292 339
#     4   9  21  38  56  89 113 151 183 241 284 331
#     4  11  23  36  60  85 119 153 193 232 280 338
#     4  11  22  41  59  85 120 147 191 241 286 335
#     4  10  22  38  64  84 116 144 197 237 288 345
#     4  10  20  39  58  81 118 153 193 228 282 338
#     4  10  22  37  59  82 120 152 187 237 282 333
#
# _framework density 25.265564999999999
#
# number of rings (size 3 to 8) (size 9 to 14) (size 15 to 20)
#    0.750    0.750    3.750    1.875    0.000    2.500 
#    0.000    0.625    0.000    3.000    0.000    0.000 
#    0.000    0.000    0.000    0.000    0.000    0.000 
#
# Total GULP energy -89288.531312 kJ/mol
# GULP energy per Si atom -5580.533207 kJ/mol
# Density = 2.520806 g / cm^3
# Si number density = 25.265565 Si / 1000 Ang^3
#
#
#
# Elastic Constant Matrix: (Units=GPa)
#
#
# Indices 1 2 3 4 5 6 
#
# 1 51.7593 42.4950 12.7027 -6.5567 -7.5811 19.4364
# 2 42.4950 103.2090 20.1316 -3.4192 11.8442 49.3292
# 3 12.7027 20.1316 68.2896 -3.7961 -8.0397 4.7118
# 4 -6.5567 -3.4192 -3.7961 47.3097 3.2028 3.8415
# 5 -7.5811 11.8442 -8.0397 3.2028 46.2902 -1.0915
# 6 19.4364 49.3292 4.7118 3.8415 -1.0915 38.3557
#
#
#
# Elastic Compliance Matrix: (Units=1/GPa)
#
#
# Indices 1 2 3 4 5 6 
#
# 1 0.033264 -0.017393 -0.000163 0.002219 0.009848 0.005591
# 2 -0.017393 0.041952 -0.007672 0.004775 -0.016310 -0.045140
# 3 -0.000163 -0.007672 0.016969 -0.000212 0.005087 0.008031
# 4 0.002219 0.004775 -0.000212 0.022734 -0.002694 -0.009594
# 5 0.009848 -0.016310 0.005087 -0.002694 0.028847 0.016452
# 6 0.005591 -0.045140 0.008031 -0.009594 0.016452 0.081736
#
#
# Mechanical properties :
#
#
# Convention : Reuss Voigt Hill
#
# Bulk Modulus (GPa) = 23.96469 41.54627 32.75548
# Shear Modulus (GPa) = 17.24923 36.25304 26.75113
#
# Velocity S-wave (km/s) = 2.61572 3.79209 3.25745
# Velocity P-wave (km/s) = 4.31606 5.97100 5.20966
#
# Compressibility (1/GPa) = 0.04172807
#
# Stress axis : x y z
#
# Youngs Moduli (GPa) = 30.06221 23.83683 58.93236
#
# Poissons Ratio (x) = 0.41460 0.00961
# Poissons Ratio (y) = 0.52288 0.45214
# Poissons Ratio (z) = 0.00490 0.18288
#
# Static dielectric constant tensor:
#      x y z
#    x 2.061280 -0.013150 0.021070 
#    y -0.013150 2.004790 -0.000150 
#    z 0.021070 -0.000150 1.992110 
# 
# From -- ./inp_files/306250.got.cif
#   From: 2010.05.17/outbox.cif.g08.bks.cpg/sg2_154_cif.got.tgz:306250.got - 2010.06.03 11:33:40.
