data_PCOD9104720
_publ_section_title
;
Structure prediction by ZEFSAII (Michael W. Deem and Ramdas Pophale) SiO2 
 PCOD9104720
Probable space group: P -1
;
_chemical_formula_sum "Si O2"
_cell_formula_units_Z 14
_cell_length_a 14.214692
_cell_length_b 7.146594
_cell_length_c 7.292051
_cell_angle_alpha 58.850583
_cell_angle_beta 96.504067
_cell_angle_gamma 73.170486
_cell_volume 574.683793
_symmetry_space_group_name_H-M "P -1"
_symmetry_group_IT_number 2
_symmetry_cell_setting 'triclinic'
loop_
_space_group_symop_operation_xyz
x,y,z
-x,-y,-z
loop_
_atom_site_type_symbol
_atom_site_label
_atom_site_fract_x
_atom_site_fract_y
_atom_site_fract_z
Si Si1 0.178303 0.332222 0.069725
Si Si2 0.004586 0.811837 0.846226
Si Si3 0.253957 0.250265 0.714740
Si Si4 0.573913 0.731650 0.048262
Si Si5 0.398304 0.997365 0.384990
Si Si6 0.636145 0.249331 0.172562
Si Si7 0.054067 0.666002 0.354220
O O1 0.096057 0.241663 0.188951
O O2 0.284146 0.212950 0.269306
O O3 0.209613 0.240896 0.914017
O O4 0.111282 0.616334 0.888915
O O5 0.979270 0.087629 0.666180
O O6 0.021593 0.751601 0.097549
O O7 0.361729 0.282385 0.747777
O O8 0.174337 0.489636 0.480544
O O9 0.274983 0.998230 0.750386
O O10 0.645494 0.500099 0.056656
O O11 0.574570 0.973394 0.833803
O O12 0.462630 0.727257 0.987474
O O13 0.500000 0.000000 0.500000
O O14 0.386721 0.783630 0.600583
O O15 0.000000 0.500000 0.500000
#
# Coordination Sequence:
#
# PCOD9104720 Si02
#       7
#     2   2   2   2   2   2   2
#     4  10  21  41  61  90 121 162 204 250 310 363
#     4  10  23  42  61  84 127 160 201 258 304 367
#     4  11  22  38  62  92 118 158 205 252 302 363
#     4   9  21  39  60  90 120 162 199 245 308 358
#     4   9  19  37  61  89 120 154 198 248 301 363
#     4  10  20  39  62  86 125 158 200 250 300 363
#     4  11  23  41  60  90 116 157 208 254 309 361
#
# _framework density 24.361222999999999
#
# number of rings (size 3 to 8) (size 9 to 14) (size 15 to 20)
#    0.000    2.000    1.429    1.286    2.000    2.857 
#    2.571    0.000    0.000    9.429    0.000    0.000 
#    0.000    0.000    0.000    0.000    0.000    0.000 
#
# Total GULP energy -78031.098804 kJ/mol
# GULP energy per Si atom -5573.649915 kJ/mol
# Density = 2.430578 g / cm^3
# Si number density = 24.361223 Si / 1000 Ang^3
#
#
#
# Elastic Constant Matrix: (Units=GPa)
#
#
# Indices 1 2 3 4 5 6 
#
# 1 81.9804 18.8960 51.2186 -24.0918 24.9757 -7.3364
# 2 18.8960 116.8200 17.2203 -42.8878 0.2415 9.2876
# 3 51.2186 17.2203 119.9151 -33.2619 18.4203 8.4340
# 4 -24.0918 -42.8878 -33.2619 40.8549 -6.8303 1.9521
# 5 24.9757 0.2415 18.4203 -6.8303 50.1011 -10.7129
# 6 -7.3364 9.2876 8.4340 1.9521 -10.7129 26.8310
#
#
#
# Elastic Compliance Matrix: (Units=1/GPa)
#
#
# Indices 1 2 3 4 5 6 
#
# 1 0.020159 -0.001350 -0.006915 0.003602 -0.005819 0.005568
# 2 -0.001350 0.016345 0.004585 0.020488 -0.000234 -0.009052
# 3 -0.006915 0.004585 0.015490 0.013397 -0.002664 -0.010386
# 4 0.003602 0.020488 0.013397 0.059416 -0.002023 -0.015449
# 5 -0.005819 -0.000234 -0.002664 -0.002023 0.025642 0.009713
# 6 0.005568 -0.009052 -0.010386 -0.015449 0.009713 0.050193
#
#
# Mechanical properties :
#
#
# Convention : Reuss Voigt Hill
#
# Bulk Modulus (GPa) = 22.40451 54.82058 38.61255
# Shear Modulus (GPa) = 23.86834 38.98276 31.42555
#
# Velocity S-wave (km/s) = 3.13352 4.00459 3.59553
# Velocity P-wave (km/s) = 4.72321 6.62830 5.75513
#
# Compressibility (1/GPa) = 0.04463386
#
# Stress axis : x y z
#
# Youngs Moduli (GPa) = 49.60557 61.18260 64.55628
#
# Poissons Ratio (x) = 0.08258 0.44642
# Poissons Ratio (y) = 0.06695 -0.29598
# Poissons Ratio (z) = 0.34303 -0.28052
#
# Static dielectric constant tensor:
#      x y z
#    x 2.030580 -0.082890 0.021490 
#    y -0.082890 2.023650 0.029000 
#    z 0.021490 0.029000 1.973990 
# 
# From -- ./inp_files/294095.got.cif
#   From: 2010.05.17/outbox.cif.g08.bks.cpg/sg2_148_cif.got.tgz:294095.got - 2010.06.03 11:33:40.
