data_PCOD9104737
_publ_section_title
;
Structure prediction by ZEFSAII (Michael W. Deem and Ramdas Pophale) SiO2 
 PCOD9104737
Probable space group: P -1
;
_chemical_formula_sum "Si O2"
_cell_formula_units_Z 16
_cell_length_a 11.414483
_cell_length_b 16.052284
_cell_length_c 9.561800
_cell_angle_alpha 66.727606
_cell_angle_beta 107.611383
_cell_angle_gamma 49.105812
_cell_volume 716.492168
_symmetry_space_group_name_H-M "P -1"
_symmetry_group_IT_number 2
_symmetry_cell_setting 'triclinic'
loop_
_space_group_symop_operation_xyz
x,y,z
-x,-y,-z
loop_
_atom_site_type_symbol
_atom_site_label
_atom_site_fract_x
_atom_site_fract_y
_atom_site_fract_z
Si Si1 0.935724 0.989420 0.839955
Si Si2 0.438802 0.650707 0.739595
Si Si3 0.855108 0.471070 0.841158
Si Si4 0.480489 0.880379 0.443234
Si Si5 0.475222 0.085356 0.268969
Si Si6 0.378190 0.176417 0.878009
Si Si7 0.239966 0.452237 0.545718
Si Si8 0.549344 0.371411 0.920313
O O1 0.756898 0.168041 0.554053
O O2 0.762952 0.011623 0.787967
O O3 0.196064 0.794701 0.977115
O O4 0.000000 0.000000 0.000000
O O5 0.731460 0.493214 0.905381
O O6 0.429711 0.549725 0.775361
O O7 0.389404 0.700957 0.851855
O O8 0.730751 0.651814 0.690099
O O9 0.739749 0.513639 0.620783
O O10 0.166709 0.274514 0.072729
O O11 0.394223 0.954304 0.524254
O O12 0.561279 0.925324 0.384370
O O13 0.498965 0.122725 0.108634
O O14 0.387519 0.258371 0.728819
O O15 0.068796 0.362656 0.667456
O O16 0.500000 0.000000 0.000000
O O17 0.346743 0.439782 0.720613
#
# Coordination Sequence:
#
# PCOD9104737 Si02
#       8
#     2   2   2   2   2   2   2   2
#     4  11  24  41  67  93 127 172 215 265 313 379
#     4  10  24  41  63  95 125 169 211 266 321 370
#     4  10  20  39  62  87 123 160 203 256 304 373
#     4  10  21  37  58  95 118 158 207 250 310 370
#     4  10  21  37  61  90 123 160 200 257 309 372
#     4  10  22  41  59  91 126 166 201 256 316 374
#     4  10  23  39  63  90 123 163 212 253 309 380
#     4  11  23  43  62  94 130 165 215 263 316 380
#
# _framework density 22.331019000000001
#
# number of rings (size 3 to 8) (size 9 to 14) (size 15 to 20)
#    0.000    1.750    0.000    3.750    3.500    5.000 
#   11.250    0.000    0.000    0.000    0.000    0.000 
#    0.000    0.000    0.000    0.000    0.000    0.000 
#
# Total GULP energy -89434.796865 kJ/mol
# GULP energy per Si atom -5589.674804 kJ/mol
# Density = 2.228019 g / cm^3
# Si number density = 22.331019 Si / 1000 Ang^3
#
#
#
# Elastic Constant Matrix: (Units=GPa)
#
#
# Indices 1 2 3 4 5 6 
#
# 1 36.8181 20.7923 8.0456 14.1278 -5.2847 4.3666
# 2 20.7923 109.6101 34.0221 23.9241 0.2496 9.2618
# 3 8.0456 34.0221 57.6611 18.3714 -2.4370 6.1015
# 4 14.1278 23.9241 18.3714 32.4873 9.3939 -5.4081
# 5 -5.2847 0.2496 -2.4370 9.3939 21.8045 7.8019
# 6 4.3666 9.2618 6.1015 -5.4081 7.8019 35.4595
#
#
#
# Elastic Compliance Matrix: (Units=1/GPa)
#
#
# Indices 1 2 3 4 5 6 
#
# 1 0.050697 -0.002133 0.011964 -0.042764 0.040354 -0.023146
# 2 -0.002133 0.012973 -0.004063 -0.008274 0.004087 -0.004588
# 3 0.011964 -0.004063 0.029768 -0.028500 0.023975 -0.015156
# 4 -0.042764 -0.008274 -0.028500 0.099580 -0.071861 0.043330
# 5 0.040354 0.004087 0.023975 -0.071861 0.105064 -0.044239
# 6 -0.023146 -0.004588 -0.015156 0.043330 -0.044239 0.051200
#
#
# Mechanical properties :
#
#
# Convention : Reuss Voigt Hill
#
# Bulk Modulus (GPa) = 9.52600 36.64547 23.08574
# Shear Modulus (GPa) = 13.41430 27.36554 20.38992
#
# Velocity S-wave (km/s) = 2.45358 3.50444 3.02499
# Velocity P-wave (km/s) = 3.50740 5.72892 4.74986
#
# Compressibility (1/GPa) = 0.10497581
#
# Stress axis : x y z
#
# Youngs Moduli (GPa) = 19.72499 77.08213 33.59321
#
# Poissons Ratio (x) = 0.16440 -0.40191
# Poissons Ratio (y) = 0.04207 0.13647
# Poissons Ratio (z) = -0.23599 0.31315
#
# Static dielectric constant tensor:
#      x y z
#    x 1.821210 -0.008640 -0.018040 
#    y -0.008640 1.854450 0.015780 
#    z -0.018040 0.015780 1.827400 
# 
# From -- ./inp_files/272610.got.cif
#   From: 2010.05.17/outbox.cif.g08.bks.cpg/sg2_137_cif.got.tgz:272610.got - 2010.06.03 11:33:40.
