data_PCOD9104646
_publ_section_title
;
Structure prediction by ZEFSAII (Michael W. Deem and Ramdas Pophale) SiO2 
 PCOD9104646
Probable space group: P -1
;
_chemical_formula_sum "Si O2"
_cell_formula_units_Z 16
_cell_length_a 12.961680
_cell_length_b 8.140503
_cell_length_c 27.366038
_cell_angle_alpha 40.679666
_cell_angle_beta 157.544981
_cell_angle_gamma 128.430483
_cell_volume 681.466319
_symmetry_space_group_name_H-M "P -1"
_symmetry_group_IT_number 2
_symmetry_cell_setting 'triclinic'
loop_
_space_group_symop_operation_xyz
x,y,z
-x,-y,-z
loop_
_atom_site_type_symbol
_atom_site_label
_atom_site_fract_x
_atom_site_fract_y
_atom_site_fract_z
Si Si1 0.956731 0.565497 0.667476
Si Si2 0.175992 0.151819 0.111722
Si Si3 0.440892 0.493734 0.033387
Si Si4 0.030437 0.997273 0.780641
Si Si5 0.125693 0.590771 0.226192
Si Si6 0.285264 0.655670 0.519457
Si Si7 0.228969 0.149534 0.572830
Si Si8 0.300209 0.328307 0.229856
O O1 0.244440 0.646853 0.776194
O O2 0.849905 0.555786 0.677861
O O3 0.740891 0.745257 0.493099
O O4 0.034225 0.264375 0.748862
O O5 0.280223 0.281715 0.174358
O O6 0.093175 0.898431 0.149784
O O7 0.463460 0.035300 0.232572
O O8 0.906807 0.369500 0.921638
O O9 0.500000 0.500000 0.000000
O O10 0.327913 0.773022 0.950161
O O11 0.157276 0.409936 0.926122
O O12 0.835258 0.866493 0.756310
O O13 0.897591 0.090197 0.647983
O O14 0.412649 0.453192 0.352744
O O15 0.146703 0.419755 0.507628
O O16 0.384562 0.710679 0.603712
O O17 0.000000 0.000000 0.500000
#
# Coordination Sequence:
#
# PCOD9104646 Si02
#       8
#     2   2   2   2   2   2   2   2
#     4  10  22  38  62  88 123 160 199 246 297 354
#     4  10  24  40  61  89 120 160 200 244 304 354
#     4  10  22  36  57  91 121 155 196 246 300 349
#     4  11  21  38  62  89 123 156 201 252 293 357
#     4  10  20  39  61  94 116 156 203 250 297 349
#     4  10  23  38  66  92 115 157 204 250 298 348
#     4  10  24  41  60  87 122 161 197 241 304 362
#     4  11  22  39  62  90 120 157 198 253 298 351
#
# _framework density 23.478784999999998
#
# number of rings (size 3 to 8) (size 9 to 14) (size 15 to 20)
#    0.000    1.750    2.500    0.750    3.500    5.500 
#    0.000    0.625    0.000    0.000    0.000    0.000 
#    0.000    0.000    0.000    0.000    0.000    0.000 
#
# Total GULP energy -89413.897785 kJ/mol
# GULP energy per Si atom -5588.368612 kJ/mol
# Density = 2.342535 g / cm^3
# Si number density = 23.478785 Si / 1000 Ang^3
#
#
#
# Elastic Constant Matrix: (Units=GPa)
#
#
# Indices 1 2 3 4 5 6 
#
# 1 40.3057 9.7033 -18.8898 0.2408 -6.9355 -1.5331
# 2 9.7033 69.0740 -0.9200 12.3446 2.3080 16.4248
# 3 -18.8898 -0.9200 72.7911 11.2497 -7.9932 8.8451
# 4 0.2408 12.3446 11.2497 32.0503 -5.9583 -1.9059
# 5 -6.9355 2.3080 -7.9932 -5.9583 30.2313 3.8843
# 6 -1.5331 16.4248 8.8451 -1.9059 3.8843 30.4695
#
#
#
# Elastic Compliance Matrix: (Units=1/GPa)
#
#
# Indices 1 2 3 4 5 6 
#
# 1 0.032110 -0.004827 0.009327 0.000258 0.010223 0.000223
# 2 -0.004827 0.019656 0.001547 -0.009235 -0.002536 -0.011542
# 3 0.009327 0.001547 0.018757 -0.006439 0.006619 -0.007056
# 4 0.000258 -0.009235 -0.006439 0.038559 0.005561 0.008563
# 5 0.010223 -0.002536 0.006619 0.005561 0.039064 -0.004672
# 6 0.000223 -0.011542 -0.007056 0.008563 -0.004672 0.042232
#
#
# Mechanical properties :
#
#
# Convention : Reuss Voigt Hill
#
# Bulk Modulus (GPa) = 12.10395 17.99530 15.04963
# Shear Modulus (GPa) = 24.29275 31.36872 27.83074
#
# Velocity S-wave (km/s) = 3.22012 3.65916 3.44664
# Velocity P-wave (km/s) = 4.35798 5.05309 4.71835
#
# Compressibility (1/GPa) = 0.08261766
#
# Stress axis : x y z
#
# Youngs Moduli (GPa) = 31.14296 50.87590 53.31229
#
# Poissons Ratio (x) = 0.24559 -0.49727
# Poissons Ratio (y) = 0.15033 -0.08248
# Poissons Ratio (z) = -0.29048 -0.07871
#
# Static dielectric constant tensor:
#      x y z
#    x 1.904020 -0.024030 -0.005980 
#    y -0.024030 1.924570 -0.000070 
#    z -0.005980 -0.000070 1.868360 
# 
# From -- ./inp_files/354595.got.cif
#   From: 2010.05.17/outbox.cif.g08.bks.cpg/sg2_178_cif.got.tgz:354595.got - 2010.06.03 11:33:40.
