data_PCOD9104414
_publ_section_title
;
Structure prediction by ZEFSAII (Michael W. Deem and Ramdas Pophale) SiO2 
 PCOD9104414
Probable space group: P -1
;
_chemical_formula_sum "Si O2"
_cell_formula_units_Z 16
_cell_length_a 6.796897
_cell_length_b 9.627219
_cell_length_c 18.441194
_cell_angle_alpha 147.399210
_cell_angle_beta 99.244281
_cell_angle_gamma 69.540106
_cell_volume 587.338558
_symmetry_space_group_name_H-M "P -1"
_symmetry_group_IT_number 2
_symmetry_cell_setting 'triclinic'
loop_
_space_group_symop_operation_xyz
x,y,z
-x,-y,-z
loop_
_atom_site_type_symbol
_atom_site_label
_atom_site_fract_x
_atom_site_fract_y
_atom_site_fract_z
Si Si1 0.142493 0.225590 0.674731
Si Si2 0.410764 0.240379 0.833714
Si Si3 0.012596 0.236035 0.429718
Si Si4 0.589455 0.644132 0.631141
Si Si5 0.843819 0.952303 0.170789
Si Si6 0.139912 0.175575 0.038760
Si Si7 0.700493 0.115897 0.603477
Si Si8 0.533259 0.350048 0.094370
O O1 0.287397 0.158417 0.725027
O O2 0.033436 0.563056 0.813727
O O3 0.927324 0.161803 0.639729
O O4 0.291222 0.042266 0.539084
O O5 0.232913 0.286932 0.907484
O O6 0.461493 0.493205 0.912860
O O7 0.599246 0.942460 0.739608
O O8 0.823323 0.395644 0.549954
O O9 0.000000 0.500000 0.500000
O O10 0.965005 0.034386 0.280078
O O11 0.245226 0.095545 0.419184
O O12 0.500000 0.500000 0.500000
O O13 0.388492 0.770448 0.730822
O O14 0.952442 0.887302 0.070305
O O15 0.330291 0.263127 0.055982
O O16 0.258445 0.923329 0.990227
O O17 0.511604 0.407722 0.741217
#
# Coordination Sequence:
#
# PCOD9104414 Si02
#       8
#     2   2   2   2   2   2   2   2
#     4  10  21  39  65  86 124 162 209 254 312 368
#     4  10  20  39  60  93 119 165 205 261 306 374
#     4  11  20  35  60  94 126 159 206 258 315 368
#     4   8  17  34  56  84 122 159 193 249 311 367
#     4   9  21  39  61  88 123 167 202 257 310 373
#     4  10  23  43  62  90 124 172 206 256 312 376
#     4  10  21  39  61  90 124 163 204 259 311 365
#     4  10  23  40  62  90 127 162 215 252 311 378
#
# _framework density 27.241529
#
# number of rings (size 3 to 8) (size 9 to 14) (size 15 to 20)
#    0.750    1.500    1.250    0.750    0.000    9.000 
#    0.000    1.250    0.000    0.000    0.000    0.000 
#    0.000    0.000    0.000    0.000    0.000    0.000 
#
# Total GULP energy -89417.786667 kJ/mol
# GULP energy per Si atom -5588.611667 kJ/mol
# Density = 2.717953 g / cm^3
# Si number density = 27.241529 Si / 1000 Ang^3
#
#
#
# Elastic Constant Matrix: (Units=GPa)
#
#
# Indices 1 2 3 4 5 6 
#
# 1 91.9085 24.9035 21.1198 9.3319 -6.6625 14.2997
# 2 24.9035 131.2477 55.4827 21.7510 -12.3244 9.4156
# 3 21.1198 55.4827 99.1953 16.3887 -25.7848 -7.7500
# 4 9.3319 21.7510 16.3887 47.8370 -4.6973 -2.1940
# 5 -6.6625 -12.3244 -25.7848 -4.6973 63.7561 13.3043
# 6 14.2997 9.4156 -7.7500 -2.1940 13.3043 51.7126
#
#
#
# Elastic Compliance Matrix: (Units=1/GPa)
#
#
# Indices 1 2 3 4 5 6 
#
# 1 0.012395 -0.000932 -0.001915 -0.001413 0.001045 -0.003874
# 2 -0.000932 0.010840 -0.005563 -0.002956 0.000094 -0.002699
# 3 -0.001915 -0.005563 0.015187 -0.001767 0.004180 0.002668
# 4 -0.001413 -0.002956 -0.001767 0.023199 -0.000072 0.001667
# 5 0.001045 0.000094 0.004180 -0.000072 0.018420 -0.004422
# 6 -0.003874 -0.002699 0.002668 0.001667 -0.004422 0.022508
#
#
# Mechanical properties :
#
#
# Convention : Reuss Voigt Hill
#
# Bulk Modulus (GPa) = 46.29245 58.37370 52.33307
# Shear Modulus (GPa) = 39.50387 47.38416 43.44402
#
# Velocity S-wave (km/s) = 3.81219 4.17515 3.99779
# Velocity P-wave (km/s) = 6.03385 6.68709 6.36885
#
# Compressibility (1/GPa) = 0.02160179
#
# Stress axis : x y z
#
# Youngs Moduli (GPa) = 80.67810 92.25194 65.84470
#
# Poissons Ratio (x) = 0.08598 0.12611
# Poissons Ratio (y) = 0.07519 0.36628
# Poissons Ratio (z) = 0.15453 0.51318
#
# Static dielectric constant tensor:
#      x y z
#    x 2.371020 0.030300 0.002670 
#    y 0.030300 2.147450 0.033480 
#    z 0.002670 0.033480 2.102630 
# 
# From -- ./inp_files/589233.got.cif
#   From: 2010.05.17/outbox.cif.g08.bks.cpg/sg2_295_cif.got.tgz:589233.got - 2010.06.03 11:33:40.
