data_PCOD9104125
_publ_section_title
;
Structure prediction by ZEFSAII (Michael W. Deem and Ramdas Pophale) SiO2 
 PCOD9104125
Probable space group: P -1
;
_chemical_formula_sum "Si O2"
_cell_formula_units_Z 16
_cell_length_a 15.057312
_cell_length_b 6.733666
_cell_length_c 12.174889
_cell_angle_alpha 127.709194
_cell_angle_beta 136.144779
_cell_angle_gamma 81.202379
_cell_volume 575.601150
_symmetry_space_group_name_H-M "P -1"
_symmetry_group_IT_number 2
_symmetry_cell_setting 'triclinic'
loop_
_space_group_symop_operation_xyz
x,y,z
-x,-y,-z
loop_
_atom_site_type_symbol
_atom_site_label
_atom_site_fract_x
_atom_site_fract_y
_atom_site_fract_z
Si Si1 0.429674 0.156854 0.366330
Si Si2 0.617225 0.689567 0.945684
Si Si3 0.253591 0.547902 0.204120
Si Si4 0.824067 0.779034 0.747562
Si Si5 0.032012 0.774038 0.296055
Si Si6 0.316389 0.784099 0.928992
Si Si7 0.916360 0.191154 0.411458
Si Si8 0.303972 0.290610 0.616770
O O1 0.500000 0.500000 0.500000
O O2 0.696895 0.629452 0.895079
O O3 0.579854 0.167047 0.541153
O O4 0.292402 0.107982 0.303230
O O5 0.472920 0.408284 0.768371
O O6 0.568716 0.911454 0.929642
O O7 0.758250 0.903110 0.219116
O O8 0.215636 0.433422 0.255819
O O9 0.345916 0.891708 0.115150
O O10 0.098117 0.467143 0.980110
O O11 0.783991 0.663454 0.547967
O O12 0.000000 0.000000 0.000000
O O13 0.018579 0.637871 0.358795
O O14 0.193666 0.953759 0.441285
O O15 0.001748 0.040851 0.385337
O O16 0.332789 0.520676 0.816422
O O17 0.152131 0.702096 0.708506
#
# Coordination Sequence:
#
# PCOD9104125 Si02
#       8
#     2   2   2   2   2   2   2   2
#     4  10  16  33  55  73 109 145 178 210 269 331
#     4   9  17  34  52  78 107 143 172 218 271 324
#     4  10  17  33  53  77 104 146 185 209 260 329
#     4  11  19  31  48  83 112 136 172 226 271 315
#     4  10  19  35  54  79 104 147 185 220 254 328
#     4  10  20  35  55  85 110 137 176 228 279 315
#     4   8  19  37  51  69 114 151 178 203 275 335
#     4  12  22  30  56  91 112 124 184 240 271 300
#
# _framework density 27.797022999999999
#
# number of rings (size 3 to 8) (size 9 to 14) (size 15 to 20)
#    0.750    1.250    5.000    1.125    0.000    1.000 
#    0.000    0.000    0.000    0.750    0.000   15.750 
#    0.000    1.000    0.000    0.000    0.000    0.000 
#
# Total GULP energy -89363.324250 kJ/mol
# GULP energy per Si atom -5585.207766 kJ/mol
# Density = 2.773376 g / cm^3
# Si number density = 27.797023 Si / 1000 Ang^3
#
#
#
# Elastic Constant Matrix: (Units=GPa)
#
#
# Indices 1 2 3 4 5 6 
#
# 1 80.2253 39.6172 46.7372 13.9163 5.7408 0.4950
# 2 39.6172 89.2196 26.3358 2.5702 0.4625 11.3094
# 3 46.7372 26.3358 183.3878 -12.3508 -1.3950 11.6772
# 4 13.9163 2.5702 -12.3508 53.0464 21.1460 0.8163
# 5 5.7408 0.4625 -1.3950 21.1460 59.1546 3.3558
# 6 0.4950 11.3094 11.6772 0.8163 3.3558 42.2976
#
#
#
# Elastic Compliance Matrix: (Units=1/GPa)
#
#
# Indices 1 2 3 4 5 6 
#
# 1 0.019987 -0.007757 -0.004587 -0.005971 -0.000036 0.003225
# 2 -0.007757 0.015082 0.000155 0.001232 0.000427 -0.004042
# 3 -0.004587 0.000155 0.006920 0.002975 -0.000347 -0.001928
# 4 -0.005971 0.001232 0.002975 0.024244 -0.007974 -0.000916
# 5 -0.000036 0.000427 -0.000347 -0.007974 0.019829 -0.001437
# 6 0.003225 -0.004042 -0.001928 -0.000916 -0.001437 0.025349
#
#
# Mechanical properties :
#
#
# Convention : Reuss Voigt Hill
#
# Bulk Modulus (GPa) = 56.78978 64.24592 60.51785
# Shear Modulus (GPa) = 35.29572 46.90921 41.10246
#
# Velocity S-wave (km/s) = 3.56724 4.11245 3.84951
# Velocity P-wave (km/s) = 6.11894 6.76109 6.44802
#
# Compressibility (1/GPa) = 0.01760880
#
# Stress axis : x y z
#
# Youngs Moduli (GPa) = 50.03361 66.30476 144.50180
#
# Poissons Ratio (x) = 0.51435 0.66289
# Poissons Ratio (y) = 0.38813 -0.02236
# Poissons Ratio (z) = 0.22952 -0.01026
#
# Static dielectric constant tensor:
#      x y z
#    x 2.198070 -0.008050 0.008550 
#    y -0.008050 2.305250 -0.004990 
#    z 0.008550 -0.004990 2.170400 
# 
# From -- ./inp_files/244677.got.cif
#   From: 2010.05.17/outbox.cif.g08.bks.cpg/sg2_123_cif.got.tgz:244677.got - 2010.06.03 11:33:40.
