data_PCOD9104064
_publ_section_title
;
Structure prediction by ZEFSAII (Michael W. Deem and Ramdas Pophale) SiO2 
 PCOD9104064
Probable space group: P -1
;
_chemical_formula_sum "Si O2"
_cell_formula_units_Z 16
_cell_length_a 14.893552
_cell_length_b 26.535942
_cell_length_c 13.833269
_cell_angle_alpha 156.584569
_cell_angle_beta 147.376643
_cell_angle_gamma 21.660448
_cell_volume 799.814985
_symmetry_space_group_name_H-M "P -1"
_symmetry_group_IT_number 2
_symmetry_cell_setting 'triclinic'
loop_
_space_group_symop_operation_xyz
x,y,z
-x,-y,-z
loop_
_atom_site_type_symbol
_atom_site_label
_atom_site_fract_x
_atom_site_fract_y
_atom_site_fract_z
Si Si1 0.225936 0.412879 0.617359
Si Si2 0.564578 0.296994 0.564580
Si Si3 0.654968 0.597023 0.654965
Si Si4 0.905229 0.765797 0.483744
Si Si5 0.617358 0.021457 0.225937
Si Si6 0.483740 0.187285 0.905230
Si Si7 0.687663 0.451638 0.687661
Si Si8 0.099622 0.653501 0.099624
O O1 0.378647 0.425617 0.710687
O O2 0.000000 0.500000 0.500000
O O3 0.402356 0.194692 0.402357
O O4 0.161522 0.505597 0.823929
O O5 0.410602 0.342978 0.410604
O O6 0.733305 0.320097 0.733307
O O7 0.710685 0.093579 0.378648
O O8 0.484022 0.571505 0.484022
O O9 0.933254 0.400315 0.583095
O O10 0.583101 0.750469 0.933252
O O11 0.724992 0.775008 0.275009
O O12 0.114529 0.692621 0.468968
O O13 0.736262 0.971501 0.736265
O O14 0.823929 0.843192 0.161525
O O15 0.500000 0.000000 0.000000
O O16 0.468964 0.338185 0.114529
O O17 0.838767 0.405812 0.838763
#
# Coordination Sequence:
#
# PCOD9104064 Si02
#       8
#     2   2   2   2   2   2   2   2
#     4  10  21  36  57  81 110 148 186 232 275 330
#     4   9  22  38  57  82 114 149 187 234 281 330
#     4  10  20  39  56  84 112 148 183 229 283 324
#     4  10  21  37  58  84 112 147 185 228 278 333
#     4  10  21  36  57  81 110 148 186 232 275 330
#     4  10  21  37  58  84 112 147 185 228 278 333
#     4  10  22  35  60  82 114 146 183 233 277 328
#     4  11  20  40  57  82 114 149 189 232 281 332
#
# _framework density 20.004628
#
# number of rings (size 3 to 8) (size 9 to 14) (size 15 to 20)
#    0.750    1.250    1.250    3.750    0.000    7.000 
#    2.250    5.000    0.000    0.000    0.000    0.000 
#    0.000    0.000    0.000    0.000    0.000    0.000 
#
# Total GULP energy -89248.850709 kJ/mol
# GULP energy per Si atom -5578.053169 kJ/mol
# Density = 1.995910 g / cm^3
# Si number density = 20.004628 Si / 1000 Ang^3
#
#
#
# Elastic Constant Matrix: (Units=GPa)
#
#
# Indices 1 2 3 4 5 6 
#
# 1 42.7038 24.2068 14.6625 8.7268 -5.9287 5.2546
# 2 24.2068 114.8212 78.7466 1.6622 -43.6071 8.9690
# 3 14.6625 78.7466 103.4128 18.0296 -23.5453 -0.2208
# 4 8.7268 1.6622 18.0296 36.8486 -9.1332 -6.6261
# 5 -5.9287 -43.6071 -23.5453 -9.1332 31.2607 -11.5468
# 6 5.2546 8.9690 -0.2208 -6.6261 -11.5468 32.0460
#
#
#
# Elastic Compliance Matrix: (Units=1/GPa)
#
#
# Indices 1 2 3 4 5 6 
#
# 1 0.038646 -0.031357 0.013966 -0.027854 -0.040629 -0.017863
# 2 -0.031357 0.079402 -0.042840 0.054862 0.099605 0.029857
# 3 0.013966 -0.042840 0.035829 -0.032120 -0.044166 -0.012608
# 4 -0.027854 0.054862 -0.032120 0.072899 0.080579 0.033098
# 5 -0.040629 0.099605 -0.044166 0.080579 0.175001 0.058197
# 6 -0.017863 0.029857 -0.012608 0.033098 0.058197 0.053504
#
#
# Mechanical properties :
#
#
# Convention : Reuss Voigt Hill
#
# Bulk Modulus (GPa) = 29.92707 55.12995 42.52851
# Shear Modulus (GPa) = 8.51959 29.58584 19.05272
#
# Velocity S-wave (km/s) = 2.06593 3.84988 3.08947
# Velocity P-wave (km/s) = 4.54789 6.88335 5.83369
#
# Compressibility (1/GPa) = 0.03341457
#
# Stress axis : x y z
#
# Youngs Moduli (GPa) = 25.87570 12.59409 27.91063
#
# Poissons Ratio (x) = 0.39491 -0.38979
# Poissons Ratio (y) = 0.81139 1.19569
# Poissons Ratio (z) = -0.36137 0.53953
#
# Static dielectric constant tensor:
#      x y z
#    x 1.737290 -0.006110 0.026170 
#    y -0.006110 1.691280 -0.010940 
#    z 0.026170 -0.010940 1.698950 
# 
# From -- ./inp_files/539472.got.cif
#   From: 2010.05.17/outbox.cif.g08.bks.cpg/sg2_270_cif.got.tgz:539472.got - 2010.06.03 11:33:40.
