data_PCOD9104516
_publ_section_title
;
Structure prediction by ZEFSAII (Michael W. Deem and Ramdas Pophale) SiO2 
 PCOD9104516
Probable space group: P -1
;
_chemical_formula_sum "Si O2"
_cell_formula_units_Z 16
_cell_length_a 9.528960
_cell_length_b 11.659726
_cell_length_c 8.886867
_cell_angle_alpha 51.947065
_cell_angle_beta 79.619067
_cell_angle_gamma 71.281195
_cell_volume 736.169377
_symmetry_space_group_name_H-M "P -1"
_symmetry_group_IT_number 2
_symmetry_cell_setting 'triclinic'
loop_
_space_group_symop_operation_xyz
x,y,z
-x,-y,-z
loop_
_atom_site_type_symbol
_atom_site_label
_atom_site_fract_x
_atom_site_fract_y
_atom_site_fract_z
Si Si1 0.788268 0.371853 0.066655
Si Si2 0.611609 0.884550 0.957966
Si Si3 0.641648 0.252728 0.939768
Si Si4 0.011644 0.831207 0.578442
Si Si5 0.790812 0.596030 0.331865
Si Si6 0.287494 0.846696 0.322822
Si Si7 0.121215 0.393807 0.350880
Si Si8 0.572344 0.441461 0.333471
O O1 0.656886 0.416112 0.178123
O O2 0.932836 0.285802 0.201099
O O3 0.750411 0.252162 0.055596
O O4 0.807690 0.516757 0.856572
O O5 0.695053 0.989794 0.769963
O O6 0.502113 0.807665 0.950721
O O7 0.730194 0.756590 0.130045
O O8 0.500000 0.000000 0.000000
O O9 0.716853 0.169395 0.842867
O O10 0.576257 0.428942 0.767884
O O11 0.884646 0.771495 0.571587
O O12 0.145620 0.809917 0.450679
O O13 0.000000 0.000000 0.500000
O O14 0.806025 0.615201 0.491417
O O15 0.671733 0.508565 0.374889
O O16 0.951590 0.498969 0.320346
O O17 0.427511 0.719017 0.466063
#
# Coordination Sequence:
#
# PCOD9104516 Si02
#       8
#     2   2   2   2   2   2   2   2
#     4  11  23  38  62  92 127 160 204 250 316 369
#     4   9  21  38  61  91 124 157 203 259 312 360
#     4  10  21  38  63  90 120 162 209 256 301 366
#     4  11  26  42  58  89 131 164 203 252 313 372
#     4  10  21  39  66  91 122 158 218 256 299 366
#     4  10  20  39  61  87 120 164 207 247 306 365
#     4  11  23  41  64  92 123 164 214 255 302 371
#     4  10  20  39  61  93 125 156 204 257 309 365
#
# _framework density 21.73413
#
# number of rings (size 3 to 8) (size 9 to 14) (size 15 to 20)
#    0.000    1.750    2.500    1.875    3.500    5.000 
#    0.000    3.750    0.000    0.000    0.000    0.000 
#    0.000    0.000    0.000    0.000    0.000    0.000 
#
# Total GULP energy -89385.361658 kJ/mol
# GULP energy per Si atom -5586.585104 kJ/mol
# Density = 2.168466 g / cm^3
# Si number density = 21.734130 Si / 1000 Ang^3
#
#
#
# Elastic Constant Matrix: (Units=GPa)
#
#
# Indices 1 2 3 4 5 6 
#
# 1 54.2175 13.2616 19.2256 2.4559 1.5408 24.6497
# 2 13.2616 96.5627 33.4648 -4.1833 -2.8360 21.4476
# 3 19.2256 33.4648 100.8813 -11.3414 -15.8826 29.2891
# 4 2.4559 -4.1833 -11.3414 45.2397 2.7401 0.9461
# 5 1.5408 -2.8360 -15.8826 2.7401 26.1435 -4.9262
# 6 24.6497 21.4476 29.2891 0.9461 -4.9262 34.0590
#
#
#
# Elastic Compliance Matrix: (Units=1/GPa)
#
#
# Indices 1 2 3 4 5 6 
#
# 1 0.028371 0.000827 -0.000445 -0.000773 -0.005821 -0.021492
# 2 0.000827 0.012579 -0.002604 0.000697 -0.001569 -0.006526
# 3 -0.000445 -0.002604 0.015303 0.003428 0.006737 -0.010319
# 4 -0.000773 0.000697 0.003428 0.023200 -0.000907 -0.003602
# 5 -0.005821 -0.001569 0.006737 -0.000907 0.043695 0.005753
# 6 -0.021492 -0.006526 -0.010319 -0.003602 0.005753 0.058831
#
#
# Mechanical properties :
#
#
# Convention : Reuss Voigt Hill
#
# Bulk Modulus (GPa) = 19.30161 42.61838 30.96000
# Shear Modulus (GPa) = 24.54664 33.46907 29.00786
#
# Velocity S-wave (km/s) = 3.36431 3.92845 3.65727
# Velocity P-wave (km/s) = 4.89811 6.34260 5.66657
#
# Compressibility (1/GPa) = 0.05180916
#
# Stress axis : x y z
#
# Youngs Moduli (GPa) = 35.24671 79.50050 65.34583
#
# Poissons Ratio (x) = -0.06574 0.02907
# Poissons Ratio (y) = -0.02914 0.17017
# Poissons Ratio (z) = 0.01568 0.20703
#
# Static dielectric constant tensor:
#      x y z
#    x 1.827960 -0.024050 -0.028470 
#    y -0.024050 1.835280 -0.012080 
#    z -0.028470 -0.012080 1.806720 
# 
# From -- ./inp_files/184100.got.cif
#   From: 2010.05.17/outbox.cif.g08.bks.cpg/sg2_93_cif.got.tgz:184100.got - 2010.06.03 11:33:40.
