data_PCOD9104460
_publ_section_title
;
Structure prediction by ZEFSAII (Michael W. Deem and Ramdas Pophale) SiO2 
 PCOD9104460
Probable space group: P -1
;
_chemical_formula_sum "Si O2"
_cell_formula_units_Z 16
_cell_length_a 18.510119
_cell_length_b 7.984627
_cell_length_c 11.614529
_cell_angle_alpha 59.936013
_cell_angle_beta 40.008416
_cell_angle_gamma 35.156702
_cell_volume 597.982718
_symmetry_space_group_name_H-M "P -1"
_symmetry_group_IT_number 2
_symmetry_cell_setting 'triclinic'
loop_
_space_group_symop_operation_xyz
x,y,z
-x,-y,-z
loop_
_atom_site_type_symbol
_atom_site_label
_atom_site_fract_x
_atom_site_fract_y
_atom_site_fract_z
Si Si1 0.402629 0.728269 0.148722
Si Si2 0.804554 0.678518 0.143581
Si Si3 0.757384 0.664994 0.445719
Si Si4 0.830229 0.193078 0.223351
Si Si5 0.007204 0.643900 0.542811
Si Si6 0.586004 0.931425 0.115706
Si Si7 0.020496 0.972159 0.278668
Si Si8 0.653817 0.396155 0.153114
O O1 0.484916 0.553465 0.230784
O O2 0.188814 0.007463 0.310440
O O3 0.500000 0.500000 0.000000
O O4 0.442424 0.900409 0.018843
O O5 0.703690 0.841988 0.331789
O O6 0.783058 0.475849 0.220116
O O7 0.731381 0.842603 0.053004
O O8 0.000000 0.500000 0.000000
O O9 0.884487 0.309435 0.382968
O O10 0.892651 0.590266 0.392510
O O11 0.584970 0.849521 0.667734
O O12 0.903281 0.008453 0.315804
O O13 0.690993 0.276071 0.279738
O O14 0.000000 0.000000 0.000000
O O15 0.000000 0.500000 0.500000
O O16 0.105449 0.705705 0.354636
O O17 0.639425 0.646186 0.107688
O O18 0.176736 0.862781 0.049943
#
# Coordination Sequence:
#
# PCOD9104460 Si02
#       8
#     2   2   2   2   2   2   2   2
#     4  12  24  38  57  87 118 150 193 246 291 332
#     4  10  21  37  60  89 117 146 189 244 290 333
#     4  11  22  39  60  85 116 155 193 233 286 352
#     4   8  18  35  59  83 109 150 192 224 278 351
#     4  12  24  38  57  87 118 150 193 246 291 332
#     4  11  22  39  60  85 116 155 193 233 286 352
#     4  10  20  39  61  82 112 155 196 233 283 352
#     4  10  20  39  61  82 112 155 196 233 283 352
#
# _framework density 26.756627000000002
#
# number of rings (size 3 to 8) (size 9 to 14) (size 15 to 20)
#    0.000    1.500    0.000    5.625    0.000    4.000 
#    0.000    0.625    0.000    0.000    0.000    0.000 
#    0.000    0.000    0.000    0.000    0.000    0.000 
#
# Total GULP energy -89456.827294 kJ/mol
# GULP energy per Si atom -5591.051706 kJ/mol
# Density = 2.669573 g / cm^3
# Si number density = 26.756627 Si / 1000 Ang^3
#
#
#
# Elastic Constant Matrix: (Units=GPa)
#
#
# Indices 1 2 3 4 5 6 
#
# 1 168.1808 25.3492 7.7317 12.5947 13.2720 -28.5540
# 2 25.3492 52.9151 -14.5010 5.9964 6.4599 0.5862
# 3 7.7317 -14.5010 91.9327 14.6865 -7.6305 -8.3000
# 4 12.5947 5.9964 14.6865 29.9355 -7.6172 6.8183
# 5 13.2720 6.4599 -7.6305 -7.6172 32.3507 5.2689
# 6 -28.5540 0.5862 -8.3000 6.8183 5.2689 67.6953
#
#
#
# Elastic Compliance Matrix: (Units=1/GPa)
#
#
# Indices 1 2 3 4 5 6 
#
# 1 0.007771 -0.002804 -0.000366 -0.004589 -0.004457 0.004067
# 2 -0.002804 0.022721 0.004571 -0.006640 -0.003897 0.000153
# 3 -0.000366 0.004571 0.013055 -0.007615 0.000172 0.002161
# 4 -0.004589 -0.006640 -0.007615 0.045788 0.013575 -0.008480
# 5 -0.004457 -0.003897 0.000172 0.013575 0.037753 -0.006131
# 6 0.004067 0.000153 0.002161 -0.008480 -0.006131 0.018082
#
#
# Mechanical properties :
#
#
# Convention : Reuss Voigt Hill
#
# Bulk Modulus (GPa) = 21.57513 38.90985 30.24249
# Shear Modulus (GPa) = 31.68221 45.62620 38.65420
#
# Velocity S-wave (km/s) = 3.44479 4.13392 3.80499
# Velocity P-wave (km/s) = 4.88908 6.11224 5.53455
#
# Compressibility (1/GPa) = 0.04634967
#
# Stress axis : x y z
#
# Youngs Moduli (GPa) = 128.67965 44.01296 76.59852
#
# Poissons Ratio (x) = 0.12341 0.02800
# Poissons Ratio (y) = 0.36080 -0.35012
# Poissons Ratio (z) = 0.04704 -0.20118
#
# Static dielectric constant tensor:
#      x y z
#    x 2.199720 -0.033960 -0.085440 
#    y -0.033960 2.208710 -0.028980 
#    z -0.085440 -0.028980 2.132850 
# 
# From -- ./inp_files/331806.got.cif
#   From: 2010.05.17/outbox.cif.g08.bks.cpg/sg2_166_cif.got.tgz:331806.got - 2010.06.03 11:33:40.
