data_PCOD9104990
_publ_section_title
;
Structure prediction by ZEFSAII (Michael W. Deem and Ramdas Pophale) SiO2 
 PCOD9104990
Probable space group: P -1
;
_chemical_formula_sum "Si O2"
_cell_formula_units_Z 16
_cell_length_a 21.570247
_cell_length_b 23.458547
_cell_length_c 8.788572
_cell_angle_alpha 35.770315
_cell_angle_beta 143.193347
_cell_angle_gamma 162.741342
_cell_volume 762.629579
_symmetry_space_group_name_H-M "P -1"
_symmetry_group_IT_number 2
_symmetry_cell_setting 'triclinic'
loop_
_space_group_symop_operation_xyz
x,y,z
-x,-y,-z
loop_
_atom_site_type_symbol
_atom_site_label
_atom_site_fract_x
_atom_site_fract_y
_atom_site_fract_z
Si Si1 0.365404 0.060928 0.503674
Si Si2 0.756296 0.942732 0.025376
Si Si3 0.229504 0.361139 0.156342
Si Si4 0.485280 0.571656 0.484708
Si Si5 0.570922 0.168524 0.246552
Si Si6 0.410275 0.684616 0.322295
Si Si7 0.205209 0.570148 0.609092
Si Si8 0.982647 0.379143 0.295857
O O1 0.267541 0.059117 0.197453
O O2 0.217129 0.845175 0.667544
O O3 0.404768 0.137052 0.582215
O O4 0.599054 0.225050 0.545947
O O5 0.623315 0.923709 0.875503
O O6 0.995918 0.142077 0.119242
O O7 0.643725 0.756038 0.278081
O O8 0.276490 0.384412 0.377974
O O9 0.399091 0.434645 0.240087
O O10 0.255242 0.497157 0.886279
O O11 0.450373 0.619071 0.448388
O O12 0.770841 0.360858 0.329603
O O13 0.500000 0.000000 0.500000
O O14 0.609128 0.241036 0.995576
O O15 0.192810 0.496249 0.396623
O O16 0.000650 0.404249 0.459636
O O17 0.000000 0.500000 0.000000
#
# Coordination Sequence:
#
# PCOD9104990 Si02
#       8
#     2   2   2   2   2   2   2   2
#     4  10  21  39  60  79 125 154 194 246 290 350
#     4  10  20  39  63  87 118 158 202 239 296 366
#     4  11  19  38  69  88 115 160 203 247 300 357
#     4  10  22  40  62  92 120 154 200 256 305 341
#     4  10  22  39  61  88 125 155 190 257 306 341
#     4  10  23  40  57  88 124 152 197 250 303 346
#     4  10  21  41  63  86 119 158 201 243 299 356
#     4  11  25  39  62  87 117 167 205 235 297 366
#
# _framework density 20.980039999999999
#
# number of rings (size 3 to 8) (size 9 to 14) (size 15 to 20)
#    0.000    1.750    5.000    0.375    5.250    3.000 
#    0.000    4.375    0.000    0.000    0.000    0.000 
#    0.000    0.000    0.000    0.000    0.000    0.000 
#
# Total GULP energy -89348.236019 kJ/mol
# GULP energy per Si atom -5584.264751 kJ/mol
# Density = 2.093229 g / cm^3
# Si number density = 20.980040 Si / 1000 Ang^3
#
#
#
# Elastic Constant Matrix: (Units=GPa)
#
#
# Indices 1 2 3 4 5 6 
#
# 1 89.4389 37.0994 29.0723 8.1548 -4.5485 -29.5934
# 2 37.0994 113.8983 7.8475 19.5030 -7.3906 -25.4913
# 3 29.0723 7.8475 55.2203 1.9146 7.6988 -15.2888
# 4 8.1548 19.5030 1.9146 38.0707 -9.0113 -5.1859
# 5 -4.5485 -7.3906 7.6988 -9.0113 32.9687 2.9682
# 6 -29.5934 -25.4913 -15.2888 -5.1859 2.9682 32.0334
#
#
#
# Elastic Compliance Matrix: (Units=1/GPa)
#
#
# Indices 1 2 3 4 5 6 
#
# 1 0.018334 -0.002815 -0.006421 -0.000051 0.002357 0.011406
# 2 -0.002815 0.011940 0.001913 -0.004664 -0.000069 0.007065
# 3 -0.006421 0.001913 0.024405 -0.001505 -0.007258 0.007666
# 4 -0.000051 -0.004664 -0.001505 0.030523 0.007664 -0.000245
# 5 0.002357 -0.000069 -0.007258 0.007664 0.034730 -0.003319
# 6 0.011406 0.007065 0.007666 -0.000245 -0.003319 0.051304
#
#
# Mechanical properties :
#
#
# Convention : Reuss Voigt Hill
#
# Bulk Modulus (GPa) = 24.97998 45.17730 35.07864
# Shear Modulus (GPa) = 25.09679 32.91712 29.00696
#
# Velocity S-wave (km/s) = 3.46240 3.96532 3.72236
# Velocity P-wave (km/s) = 5.28362 6.52267 5.93557
#
# Compressibility (1/GPa) = 0.04003205
#
# Stress axis : x y z
#
# Youngs Moduli (GPa) = 54.54229 83.74962 40.97533
#
# Poissons Ratio (x) = 0.23576 0.26312
# Poissons Ratio (y) = 0.15354 -0.07838
# Poissons Ratio (z) = 0.35024 -0.16019
#
# Static dielectric constant tensor:
#      x y z
#    x 1.794310 0.001000 -0.016310 
#    y 0.001000 1.782340 0.024760 
#    z -0.016310 0.024760 1.776690 
# 
# From -- ./inp_files/349697.got.cif
#   From: 2010.05.17/outbox.cif.g08.bks.cpg/sg2_175_cif.got.tgz:349697.got - 2010.06.03 11:33:40.
