data_PCOD9104510
_publ_section_title
;
Structure prediction by ZEFSAII (Michael W. Deem and Ramdas Pophale) SiO2 
 PCOD9104510
Probable space group: P -1
;
_chemical_formula_sum "Si O2"
_cell_formula_units_Z 14
_cell_length_a 16.305499
_cell_length_b 10.960729
_cell_length_c 11.548451
_cell_angle_alpha 133.136886
_cell_angle_beta 23.442406
_cell_angle_gamma 141.777654
_cell_volume 502.240396
_symmetry_space_group_name_H-M "P -1"
_symmetry_group_IT_number 2
_symmetry_cell_setting 'triclinic'
loop_
_space_group_symop_operation_xyz
x,y,z
-x,-y,-z
loop_
_atom_site_type_symbol
_atom_site_label
_atom_site_fract_x
_atom_site_fract_y
_atom_site_fract_z
Si Si1 0.860007 0.355070 0.693544
Si Si2 0.445984 0.043502 0.273750
Si Si3 0.416434 0.580696 0.337045
Si Si4 0.236608 0.228480 0.208570
Si Si5 0.871475 0.468462 0.993904
Si Si6 0.303131 0.017385 0.689992
Si Si7 0.898226 0.826532 0.282032
O O1 0.820221 0.465705 0.921501
O O2 0.000000 0.500000 0.500000
O O3 0.044325 0.288301 0.456029
O O4 0.610756 0.148448 0.847839
O O5 0.305952 0.948900 0.514028
O O6 0.319511 0.141728 0.436018
O O7 0.715701 0.233962 0.074219
O O8 0.352412 0.357372 0.258962
O O9 0.609581 0.750926 0.282359
O O10 0.161545 0.561536 0.678389
O O11 0.545610 0.683881 0.112241
O O12 0.080933 0.989460 0.246723
O O13 0.815053 0.597485 0.235657
O O14 0.500000 0.000000 0.500000
O O15 0.057781 0.905388 0.007988
#
# Coordination Sequence:
#
# PCOD9104510 Si02
#       7
#     2   2   2   2   2   2   2
#     4  10  21  38  63  87 113 155 206 244 289 349
#     4  11  24  38  59  91 123 153 194 248 303 347
#     4   9  18  35  57  84 118 151 195 234 301 336
#     4   8  18  34  59  87 111 152 199 250 279 341
#     4  11  21  37  62  88 123 154 192 245 302 357
#     4  11  21  37  62  85 114 157 206 243 280 353
#     4  10  20  39  61  87 116 157 202 243 293 348
#
# _framework density 27.875095999999999
#
# number of rings (size 3 to 8) (size 9 to 14) (size 15 to 20)
#    0.000    2.000    1.429    2.143    2.000    2.857 
#    0.000    0.000    0.000    1.714    0.000    0.000 
#    0.000    0.000    0.000    0.000    0.000    0.000 
#
# Total GULP energy -78413.700884 kJ/mol
# GULP energy per Si atom -5600.978635 kJ/mol
# Density = 2.781165 g / cm^3
# Si number density = 27.875096 Si / 1000 Ang^3
#
#
#
# Elastic Constant Matrix: (Units=GPa)
#
#
# Indices 1 2 3 4 5 6 
#
# 1 78.5453 64.4181 3.2172 18.4672 11.1850 17.5616
# 2 64.4181 216.3415 34.2059 6.6616 -13.4187 26.2502
# 3 3.2172 34.2059 76.2689 0.7625 -3.8472 -11.2753
# 4 18.4672 6.6616 0.7625 58.3247 0.3736 1.7098
# 5 11.1850 -13.4187 -3.8472 0.3736 35.3098 5.8755
# 6 17.5616 26.2502 -11.2753 1.7098 5.8755 47.6664
#
#
#
# Elastic Compliance Matrix: (Units=1/GPa)
#
#
# Indices 1 2 3 4 5 6 
#
# 1 0.021253 -0.006562 0.001281 -0.005864 -0.008584 -0.002645
# 2 -0.006562 0.007825 -0.003486 0.001296 0.005226 -0.003407
# 3 0.001281 -0.003486 0.015347 -0.000355 -0.000920 0.005204
# 4 -0.005864 0.001296 -0.000355 0.018833 0.002040 0.000436
# 5 -0.008584 0.005226 -0.000920 0.002040 0.033594 -0.004147
# 6 -0.002645 -0.003407 0.005204 0.000436 -0.004147 0.025556
#
#
# Mechanical properties :
#
#
# Convention : Reuss Voigt Hill
#
# Bulk Modulus (GPa) = 37.18520 63.87091 50.52806
# Shear Modulus (GPa) = 33.57830 46.21448 39.89639
#
# Velocity S-wave (km/s) = 3.47450 4.07616 3.78730
# Velocity P-wave (km/s) = 5.42817 6.71688 6.10662
#
# Compressibility (1/GPa) = 0.02689242
#
# Stress axis : x y z
#
# Youngs Moduli (GPa) = 47.05160 127.79742 65.15849
#
# Poissons Ratio (x) = 0.83859 -0.08347
# Poissons Ratio (y) = 0.30875 0.22712
# Poissons Ratio (z) = -0.06027 0.44545
#
# Static dielectric constant tensor:
#      x y z
#    x 2.189960 -0.016270 -0.031460 
#    y -0.016270 2.241720 -0.001320 
#    z -0.031460 -0.001320 2.119820 
# 
# From -- ./inp_files/191075.got.cif
#   From: 2010.05.17/outbox.cif.g08.bks.cpg/sg2_96_cif.got.tgz:191075.got - 2010.06.03 11:33:40.
