data_PCOD9104553
_publ_section_title
;
Structure prediction by ZEFSAII (Michael W. Deem and Ramdas Pophale) SiO2 
 PCOD9104553
Probable space group: P -1
;
_chemical_formula_sum "Si O2"
_cell_formula_units_Z 15
_cell_length_a 19.680140
_cell_length_b 5.252408
_cell_length_c 8.885273
_cell_angle_alpha 94.190720
_cell_angle_beta 135.793366
_cell_angle_gamma 108.900434
_cell_volume 537.080425
_symmetry_space_group_name_H-M "P -1"
_symmetry_group_IT_number 2
_symmetry_cell_setting 'triclinic'
loop_
_space_group_symop_operation_xyz
x,y,z
-x,-y,-z
loop_
_atom_site_type_symbol
_atom_site_label
_atom_site_fract_x
_atom_site_fract_y
_atom_site_fract_z
Si Si1 0.573478 0.151486 0.307906
Si Si2 0.652541 0.504270 0.071993
Si Si3 0.113367 0.154308 0.032207
Si Si4 0.500000 0.500000 0.000000
Si Si5 0.187971 0.559719 0.452525
Si Si6 0.053341 0.801394 0.429377
Si Si7 0.165769 0.828410 0.896414
Si Si8 0.338000 0.689692 0.236044
O O1 0.566101 0.426283 0.242923
O O2 0.696468 0.217255 0.452022
O O3 0.567314 0.153646 0.478114
O O4 0.475163 0.802398 0.086519
O O5 0.642728 0.467303 0.879136
O O6 0.626758 0.731004 0.120101
O O7 0.757221 0.511005 0.319013
O O8 0.116754 0.286883 0.206057
O O9 0.225608 0.428877 0.136409
O O10 0.998994 0.048676 0.747780
O O11 0.139043 0.896265 0.024721
O O12 0.114113 0.686674 0.408423
O O13 0.138885 0.966278 0.713659
O O14 0.933148 0.524427 0.296271
O O15 0.292576 0.889129 0.100816
#
# Coordination Sequence:
#
# PCOD9104553 Si02
#       8
#     2   2   2   1   2   2   2   2
#     4  10  23  41  63  90 124 168 211 264 314 373
#     4  11  22  42  62  89 126 170 210 259 319 371
#     4  10  22  38  61  97 126 162 214 261 308 376
#     4  10  22  38  58  86 120 152 208 268 302 366
#     4  10  20  39  61  88 127 164 208 262 314 367
#     4  10  20  39  62  89 127 166 209 263 311 374
#     4  10  21  39  63  91 127 164 211 262 312 376
#     4  10  22  40  64  91 128 166 214 258 312 382
#
# _framework density 27.928778999999999
#
# number of rings (size 3 to 8) (size 9 to 14) (size 15 to 20)
#    0.000    1.867    1.333    2.800    0.000    5.333 
#    2.400    6.667    0.000    0.000    0.000    0.000 
#    0.000    0.000    0.000    0.000    0.000    0.000 
#
# Total GULP energy -83707.037122 kJ/mol
# GULP energy per Si atom -5580.469141 kJ/mol
# Density = 2.786521 g / cm^3
# Si number density = 27.928779 Si / 1000 Ang^3
#
#
#
# Elastic Constant Matrix: (Units=GPa)
#
#
# Indices 1 2 3 4 5 6 
#
# 1 147.0850 21.7560 42.4067 -12.6389 -37.2568 -20.9946
# 2 21.7560 49.3582 31.2126 6.9085 -5.1225 1.5890
# 3 42.4067 31.2126 150.0206 19.2689 -28.6323 -10.2781
# 4 -12.6389 6.9085 19.2689 36.1984 -0.4023 -0.2216
# 5 -37.2568 -5.1225 -28.6323 -0.4023 66.2941 -2.4032
# 6 -20.9946 1.5890 -10.2781 -0.2216 -2.4032 46.0168
#
#
#
# Elastic Compliance Matrix: (Units=1/GPa)
#
#
# Indices 1 2 3 4 5 6 
#
# 1 0.010184 -0.003932 -0.001444 0.005159 0.004999 0.004745
# 2 -0.003932 0.025153 -0.004312 -0.003926 -0.002289 -0.003764
# 3 -0.001444 -0.004312 0.009218 -0.004546 0.002869 0.001677
# 4 0.005159 -0.003926 -0.004546 0.032616 0.000892 0.001678
# 5 0.004999 -0.002289 0.002869 0.000892 0.019107 0.004003
# 6 0.004745 -0.003764 0.001677 0.001678 0.004003 0.024618
#
#
# Mechanical properties :
#
#
# Convention : Reuss Voigt Hill
#
# Bulk Modulus (GPa) = 39.71676 59.69050 49.70363
# Shear Modulus (GPa) = 33.63296 46.44109 40.03703
#
# Velocity S-wave (km/s) = 3.47398 4.08222 3.79032
# Velocity P-wave (km/s) = 5.50845 6.60592 6.08199
#
# Compressibility (1/GPa) = 0.02517829
#
# Stress axis : x y z
#
# Youngs Moduli (GPa) = 98.19727 39.75641 108.48866
#
# Poissons Ratio (x) = 0.15631 0.15667
# Poissons Ratio (y) = 0.38607 0.46783
# Poissons Ratio (z) = 0.14181 0.17144
#
# Static dielectric constant tensor:
#      x y z
#    x 1.175750 1.009610 -0.023980 
#    y 1.009610 1.541380 0.045870 
#    z -0.023980 0.045870 2.144050 
# 
# From -- ./inp_files/322559.got.cif
#   From: 2010.05.17/outbox.cif.g08.bks.cpg/sg2_162_cif.got.tgz:322559.got - 2010.06.03 11:33:40.
