data_PCOD9104287
_publ_section_title
;
Structure prediction by ZEFSAII (Michael W. Deem and Ramdas Pophale) SiO2 
 PCOD9104287
Probable space group: P -1
;
_chemical_formula_sum "Si O2"
_cell_formula_units_Z 16
_cell_length_a 11.157856
_cell_length_b 30.156546
_cell_length_c 14.358174
_cell_angle_alpha 18.057070
_cell_angle_beta 151.226919
_cell_angle_gamma 148.240880
_cell_volume 716.177154
_symmetry_space_group_name_H-M "P -1"
_symmetry_group_IT_number 2
_symmetry_cell_setting 'triclinic'
loop_
_space_group_symop_operation_xyz
x,y,z
-x,-y,-z
loop_
_atom_site_type_symbol
_atom_site_label
_atom_site_fract_x
_atom_site_fract_y
_atom_site_fract_z
Si Si1 0.269760 0.576226 0.345813
Si Si2 0.142080 0.446476 0.042860
Si Si3 0.475799 0.277942 0.480072
Si Si4 0.970570 0.719127 0.186160
Si Si5 0.527132 0.045286 0.134975
Si Si6 0.980759 0.784103 0.850364
Si Si7 0.859778 0.214112 0.636286
Si Si8 0.775176 0.759849 0.330556
O O1 0.538902 0.651534 0.352339
O O2 0.247626 0.408989 0.688579
O O3 0.147678 0.657470 0.185616
O O4 0.091221 0.589844 0.110565
O O5 0.374552 0.390606 0.257542
O O6 0.094828 0.345039 0.302521
O O7 0.173175 0.617376 0.735905
O O8 0.752056 0.339043 0.511869
O O9 0.513359 0.134814 0.850608
O O10 0.266801 0.235933 0.342195
O O11 0.012675 0.811003 0.126083
O O12 0.930630 0.774789 0.944542
O O13 0.347657 0.119297 0.936215
O O14 0.814234 0.076016 0.304126
O O15 0.400818 0.885446 0.351576
O O16 0.047545 0.179315 0.752275
#
# Coordination Sequence:
#
# PCOD9104287 Si02
#       8
#     2   2   2   2   2   2   2   2
#     4   9  19  34  56  83 107 139 185 226 266 319
#     4   9  20  36  57  83 108 139 182 230 269 313
#     4   9  19  38  59  79 109 146 180 218 271 325
#     4  10  21  33  54  85 114 140 177 226 271 320
#     4   9  20  39  58  79 108 145 184 221 268 325
#     4   9  18  35  58  80 107 144 183 219 264 327
#     4  11  22  36  55  83 115 142 179 228 270 316
#     4  10  20  39  60  76 107 150 182 221 273 319
#
# _framework density 22.340843
#
# number of rings (size 3 to 8) (size 9 to 14) (size 15 to 20)
#    0.000    2.500    0.000    1.875    0.000   10.500 
#    0.000    7.500    0.000    6.000    0.000    0.000 
#    0.000    0.000    0.000    0.000    0.000    0.000 
#
# Total GULP energy -89392.616185 kJ/mol
# GULP energy per Si atom -5587.038512 kJ/mol
# Density = 2.228999 g / cm^3
# Si number density = 22.340843 Si / 1000 Ang^3
#
#
#
# Elastic Constant Matrix: (Units=GPa)
#
#
# Indices 1 2 3 4 5 6 
#
# 1 643.0858 159.2220 -55.5177 -17.8836 -61.6398 -90.3875
# 2 159.2220 152.2339 9.1225 -15.3824 -18.5476 -23.2048
# 3 -55.5177 9.1225 30.0738 10.9497 8.8661 1.1666
# 4 -17.8836 -15.3824 10.9497 27.9109 2.3235 0.3221
# 5 -61.6398 -18.5476 8.8661 2.3235 14.1753 8.5493
# 6 -90.3875 -23.2048 1.1666 0.3221 8.5493 42.9706
#
#
#
# Elastic Compliance Matrix: (Units=1/GPa)
#
#
# Indices 1 2 3 4 5 6 
#
# 1 0.004788 -0.004180 0.009265 -0.003468 0.006303 0.006334
# 2 -0.004180 0.014598 -0.020533 0.012322 0.013655 -0.003160
# 3 0.009265 -0.020533 0.079993 -0.033616 -0.039784 0.014396
# 4 -0.003468 0.012322 -0.033616 0.052339 0.015410 -0.003187
# 5 0.006303 0.013655 -0.039784 0.015410 0.142218 -0.006698
# 6 0.006334 -0.003160 0.014396 -0.003187 -0.006698 0.035854
#
#
# Mechanical properties :
#
#
# Convention : Reuss Voigt Hill
#
# Bulk Modulus (GPa) = 14.60220 116.78301 65.69261
# Shear Modulus (GPa) = 13.03734 64.51581 38.77658
#
# Velocity S-wave (km/s) = 2.41833 5.37965 4.17067
# Velocity P-wave (km/s) = 3.78788 9.53805 7.25680
#
# Compressibility (1/GPa) = 0.06848281
#
# Stress axis : x y z
#
# Youngs Moduli (GPa) = 208.86969 68.50358 12.50104
#
# Poissons Ratio (x) = 0.28632 -0.11582
# Poissons Ratio (y) = 0.87300 0.25669
# Poissons Ratio (z) = -1.93516 1.40660
#
# Static dielectric constant tensor:
#      x y z
#    x 1.824130 -0.029400 0.023130 
#    y -0.029400 1.815240 -0.002370 
#    z 0.023130 -0.002370 1.867790 
# 
# From -- ./inp_files/451469.got.cif
#   From: 2010.05.17/outbox.cif.g08.bks.cpg/sg2_226_cif.got.tgz:451469.got - 2010.06.03 11:33:40.
