data_PCOD9104321
_publ_section_title
;
Structure prediction by ZEFSAII (Michael W. Deem and Ramdas Pophale) SiO2 
 PCOD9104321
Probable space group: P -1
;
_chemical_formula_sum "Si O2"
_cell_formula_units_Z 16
_cell_length_a 9.904447
_cell_length_b 8.592048
_cell_length_c 9.096586
_cell_angle_alpha 101.347724
_cell_angle_beta 95.437914
_cell_angle_gamma 64.995725
_cell_volume 687.788481
_symmetry_space_group_name_H-M "P -1"
_symmetry_group_IT_number 2
_symmetry_cell_setting 'triclinic'
loop_
_space_group_symop_operation_xyz
x,y,z
-x,-y,-z
loop_
_atom_site_type_symbol
_atom_site_label
_atom_site_fract_x
_atom_site_fract_y
_atom_site_fract_z
Si Si1 0.017034 0.399394 0.181784
Si Si2 0.379440 0.522867 0.204980
Si Si3 0.073969 0.736987 0.329737
Si Si4 0.528941 0.730358 0.584475
Si Si5 0.805647 0.062734 0.410242
Si Si6 0.236447 0.103384 0.320132
Si Si7 0.498049 0.224756 0.761786
Si Si8 0.750864 0.650517 0.051379
O O1 0.038223 0.565129 0.290422
O O2 0.080604 0.233300 0.261377
O O3 0.847267 0.480386 0.127272
O O4 0.122332 0.334769 0.035269
O O5 0.215042 0.679251 0.225834
O O6 0.417794 0.454629 0.363159
O O7 0.492640 0.594304 0.166487
O O8 0.360145 0.375519 0.081085
O O9 0.131921 0.798873 0.495140
O O10 0.930319 0.909934 0.301421
O O11 0.361486 0.839170 0.647481
O O12 0.658196 0.793231 0.644911
O O13 0.515120 0.759390 0.413101
O O14 0.790148 0.959177 0.535006
O O15 0.345857 0.932117 0.212578
O O16 0.357300 0.210270 0.819872
#
# Coordination Sequence:
#
# PCOD9104321 Si02
#       8
#     2   2   2   2   2   2   2   2
#     4  10  23  42  63  82 125 165 203 246 302 362
#     4  11  21  44  63  88 124 163 201 250 301 361
#     4  10  20  39  60  85 126 165 190 247 305 358
#     4  11  22  39  62  96 122 153 201 253 307 359
#     4  10  22  36  61  96 127 153 198 253 307 358
#     4  11  22  39  60  96 121 153 205 257 296 359
#     4  11  23  38  67  89 124 156 203 255 301 355
#     4  10  23  43  62  87 119 168 208 242 301 361
#
# _framework density 23.262965999999999
#
# number of rings (size 3 to 8) (size 9 to 14) (size 15 to 20)
#    0.000    1.500    5.000    2.250    3.500    2.000 
#    2.250    0.625    0.000    0.000    0.000    0.000 
#    0.000    0.000    0.000    0.000    0.000    0.000 
#
# Total GULP energy -89209.637029 kJ/mol
# GULP energy per Si atom -5575.602314 kJ/mol
# Density = 2.321002 g / cm^3
# Si number density = 23.262966 Si / 1000 Ang^3
#
#
#
# Elastic Constant Matrix: (Units=GPa)
#
#
# Indices 1 2 3 4 5 6 
#
# 1 63.3474 12.5882 14.8393 1.4896 -6.8954 -11.4946
# 2 12.5882 77.3262 29.1772 2.4193 -3.7500 -13.5936
# 3 14.8393 29.1772 51.3463 3.1837 -1.8834 -3.0007
# 4 1.4896 2.4193 3.1837 18.5672 -10.6977 2.1705
# 5 -6.8954 -3.7500 -1.8834 -10.6977 33.0716 3.9852
# 6 -11.4946 -13.5936 -3.0007 2.1705 3.9852 33.2394
#
#
#
# Elastic Compliance Matrix: (Units=1/GPa)
#
#
# Indices 1 2 3 4 5 6 
#
# 1 0.018238 -0.000052 -0.004841 0.000474 0.003017 0.005456
# 2 -0.000052 0.017747 -0.009607 -0.001253 0.000275 0.006421
# 3 -0.004841 -0.009607 0.026323 -0.003303 -0.001324 -0.002852
# 4 0.000474 -0.001253 -0.003303 0.068687 0.022937 -0.007882
# 5 0.003017 0.000275 -0.001324 0.022937 0.038859 -0.005120
# 6 0.005456 0.006421 -0.002852 -0.007882 -0.005120 0.035469
#
#
# Mechanical properties :
#
#
# Convention : Reuss Voigt Hill
#
# Bulk Modulus (GPa) = 30.02219 33.91437 31.96828
# Shear Modulus (GPa) = 20.37295 26.00331 23.18813
#
# Velocity S-wave (km/s) = 2.96255 3.34698 3.16061
# Velocity P-wave (km/s) = 4.96345 5.43569 5.20493
#
# Compressibility (1/GPa) = 0.03330869
#
# Stress axis : x y z
#
# Youngs Moduli (GPa) = 54.83188 56.34805 37.98934
#
# Poissons Ratio (x) = 0.00291 0.18392
# Poissons Ratio (y) = 0.00283 0.36495
# Poissons Ratio (z) = 0.26546 0.54131
#
# Static dielectric constant tensor:
#      x y z
#    x 1.898820 0.019630 0.037580 
#    y 0.019630 1.904450 0.063260 
#    z 0.037580 0.063260 1.937900 
# 
# From -- ./inp_files/239737.got.cif
#   From: 2010.05.17/outbox.cif.g08.bks.cpg/sg2_120_cif.got.tgz:239737.got - 2010.06.03 11:33:40.
