data_PCOD9104614
_publ_section_title
;
Structure prediction by ZEFSAII (Michael W. Deem and Ramdas Pophale) SiO2 
 PCOD9104614
Probable space group: P -1
;
_chemical_formula_sum "Si O2"
_cell_formula_units_Z 14
_cell_length_a 11.821413
_cell_length_b 11.678062
_cell_length_c 8.837263
_cell_angle_alpha 137.765035
_cell_angle_beta 127.180934
_cell_angle_gamma 77.954313
_cell_volume 584.834983
_symmetry_space_group_name_H-M "P -1"
_symmetry_group_IT_number 2
_symmetry_cell_setting 'triclinic'
loop_
_space_group_symop_operation_xyz
x,y,z
-x,-y,-z
loop_
_atom_site_type_symbol
_atom_site_label
_atom_site_fract_x
_atom_site_fract_y
_atom_site_fract_z
Si Si1 0.407969 0.542293 0.763015
Si Si2 0.740046 0.054832 0.710060
Si Si3 0.857917 0.158465 0.246109
Si Si4 0.418679 0.693391 0.212764
Si Si5 0.121063 0.136752 0.605048
Si Si6 0.320146 0.268208 0.180165
Si Si7 0.586170 0.212782 0.218016
O O1 0.523100 0.446553 0.794794
O O2 0.297706 0.414599 0.415875
O O3 0.478226 0.755882 0.964802
O O4 0.327739 0.558421 0.866272
O O5 0.585629 0.869905 0.467747
O O6 0.829236 0.981244 0.591052
O O7 0.684763 0.198768 0.719986
O O8 0.835076 0.152075 0.039014
O O9 0.763544 0.252875 0.356901
O O10 0.769436 0.936745 0.012272
O O11 0.033844 0.232818 0.527977
O O12 0.255607 0.266882 0.958909
O O13 0.000000 0.000000 0.500000
O O14 0.505301 0.310944 0.356322
O O15 0.500000 0.000000 0.000000
#
# Coordination Sequence:
#
# PCOD9104614 Si02
#       7
#     2   2   2   2   2   2   2
#     4  11  20  38  56  97 133 156 205 264 324 367
#     4  11  20  40  64  92 124 163 222 258 303 374
#     4  10  20  39  61  91 125 166 218 253 305 369
#     4  10  23  34  66  97 121 163 212 268 310 362
#     4  10  23  38  62  93 125 170 214 255 311 375
#     4  10  21  37  60  91 129 164 202 260 317 366
#     4  10  21  36  64  92 126 162 206 258 313 377
#
# _framework density 23.938376999999999
#
# number of rings (size 3 to 8) (size 9 to 14) (size 15 to 20)
#    0.000    1.714    2.857    1.714    2.000    2.286 
#    0.000    0.714    0.000   12.857    0.000    3.000 
#    0.000    0.000    0.000    0.000    0.000    0.000 
#
# Total GULP energy -77935.461353 kJ/mol
# GULP energy per Si atom -5566.818668 kJ/mol
# Density = 2.388389 g / cm^3
# Si number density = 23.938377 Si / 1000 Ang^3
#
#
#
# Elastic Constant Matrix: (Units=GPa)
#
#
# Indices 1 2 3 4 5 6 
#
# 1 103.3133 33.9348 38.5990 -5.5695 -29.3361 -32.2417
# 2 33.9348 153.6921 29.1113 13.9492 -7.1161 -27.2253
# 3 38.5990 29.1113 92.2567 -12.3916 -34.8975 -24.2720
# 4 -5.5695 13.9492 -12.3916 29.1280 4.8195 2.6991
# 5 -29.3361 -7.1161 -34.8975 4.8195 30.3336 11.0712
# 6 -32.2417 -27.2253 -24.2720 2.6991 11.0712 44.0016
#
#
#
# Elastic Compliance Matrix: (Units=1/GPa)
#
#
# Indices 1 2 3 4 5 6 
#
# 1 0.016247 -0.001941 0.001219 0.001585 0.013534 0.007874
# 2 -0.001941 0.008445 -0.003179 -0.005431 -0.003919 0.003369
# 3 0.001219 -0.003179 0.022374 0.006965 0.023244 0.004992
# 4 0.001585 -0.005431 0.006965 0.039925 0.002447 -0.001422
# 5 0.013534 -0.003919 0.023244 0.002447 0.070614 0.002397
# 6 0.007874 0.003369 0.004992 -0.001422 0.002397 0.032819
#
#
# Mechanical properties :
#
#
# Convention : Reuss Voigt Hill
#
# Bulk Modulus (GPa) = 25.46753 61.39468 43.43111
# Shear Modulus (GPa) = 23.66143 37.20046 30.43095
#
# Velocity S-wave (km/s) = 3.14734 3.94637 3.56929
# Velocity P-wave (km/s) = 4.88565 6.81673 5.93032
#
# Compressibility (1/GPa) = 0.03926568
#
# Stress axis : x y z
#
# Youngs Moduli (GPa) = 61.54926 118.40728 44.69485
#
# Poissons Ratio (x) = 0.22978 -0.05447
# Poissons Ratio (y) = 0.11944 0.14206
# Poissons Ratio (z) = -0.07501 0.37636
#
# Static dielectric constant tensor:
#      x y z
#    x 2.115640 0.103940 0.099630 
#    y 0.103940 2.042720 -0.009560 
#    z 0.099630 -0.009560 1.991960 
# 
# From -- ./inp_files/239392.got.cif
#   From: 2010.05.17/outbox.cif.g08.bks.cpg/sg2_120_cif.got.tgz:239392.got - 2010.06.03 11:33:40.
