data_PCOD9104483
_publ_section_title
;
Structure prediction by ZEFSAII (Michael W. Deem and Ramdas Pophale) SiO2 
 PCOD9104483
Probable space group: P -1
;
_chemical_formula_sum "Si O2"
_cell_formula_units_Z 16
_cell_length_a 14.694288
_cell_length_b 10.765042
_cell_length_c 20.785976
_cell_angle_alpha 30.022387
_cell_angle_beta 21.806449
_cell_angle_gamma 39.755212
_cell_volume 600.127051
_symmetry_space_group_name_H-M "P -1"
_symmetry_group_IT_number 2
_symmetry_cell_setting 'triclinic'
loop_
_space_group_symop_operation_xyz
x,y,z
-x,-y,-z
loop_
_atom_site_type_symbol
_atom_site_label
_atom_site_fract_x
_atom_site_fract_y
_atom_site_fract_z
Si Si1 0.219125 0.371854 0.676351
Si Si2 0.969376 0.447369 0.158337
Si Si3 0.872750 0.978663 0.662015
Si Si4 0.158466 0.714664 0.343406
Si Si5 0.961854 0.087117 0.214910
Si Si6 0.549066 0.889222 0.188988
Si Si7 0.350892 0.860354 0.853745
Si Si8 0.510956 0.656013 0.716167
O O1 0.373952 0.612434 0.431484
O O2 0.215130 0.437255 0.726078
O O3 0.321485 0.112913 0.720289
O O4 0.926879 0.300566 0.881441
O O5 0.881530 0.305438 0.213622
O O6 0.051481 0.246096 0.245730
O O7 0.227234 0.640638 0.887493
O O8 0.943968 0.233002 0.543123
O O9 0.580327 0.955652 0.848199
O O10 0.000000 0.000000 0.500000
O O11 0.412601 0.610488 0.230974
O O12 0.000000 0.500000 0.500000
O O13 0.126716 0.961365 0.214953
O O14 0.169871 0.139590 0.999549
O O15 0.720710 0.876331 0.450754
O O16 0.539247 0.038844 0.195360
O O17 0.505078 0.711708 0.771932
#
# Coordination Sequence:
#
# PCOD9104483 Si02
#       8
#     2   2   2   2   2   2   2   2
#     4  10  22  44  64  89 123 166 216 267 316 372
#     4  10  20  41  64  86 125 174 197 252 325 374
#     4  11  22  37  63 101 132 160 210 265 314 385
#     4   9  20  37  60  86 132 175 199 246 316 384
#     4  10  22  37  60  91 128 161 206 254 310 388
#     4  12  23  38  64  97 128 161 207 273 318 368
#     4  10  24  42  66  89 122 168 221 263 311 377
#     4  10  20  39  61  85 118 171 208 243 308 377
#
# _framework density 26.661023
#
# number of rings (size 3 to 8) (size 9 to 14) (size 15 to 20)
#    0.000    1.750    1.250    2.625    3.500    5.000 
#    0.000    6.875    0.000    6.750    0.000    0.000 
#    0.000    0.000    0.000    0.000    0.000    0.000 
#
# Total GULP energy -89611.576233 kJ/mol
# GULP energy per Si atom -5600.723515 kJ/mol
# Density = 2.660034 g / cm^3
# Si number density = 26.661023 Si / 1000 Ang^3
#
#
#
# Elastic Constant Matrix: (Units=GPa)
#
#
# Indices 1 2 3 4 5 6 
#
# 1 80.0028 19.0214 25.1921 -7.7390 1.2566 10.7193
# 2 19.0214 138.0936 23.3711 10.9917 0.1667 24.9005
# 3 25.1921 23.3711 161.9782 9.4416 -1.0161 5.5507
# 4 -7.7390 10.9917 9.4416 42.9196 -1.2645 -5.6296
# 5 1.2566 0.1667 -1.0161 -1.2645 41.7600 0.9500
# 6 10.7193 24.9005 5.5507 -5.6296 0.9500 44.5004
#
#
#
# Elastic Compliance Matrix: (Units=1/GPa)
#
#
# Indices 1 2 3 4 5 6 
#
# 1 0.014074 -0.001491 -0.002093 0.003122 -0.000331 -0.001893
# 2 -0.001491 0.008659 -0.000681 -0.002963 0.000013 -0.004776
# 3 -0.002093 -0.000681 0.006703 -0.001694 0.000181 -0.000169
# 4 0.003122 -0.002963 -0.001694 0.025580 0.000552 0.004341
# 5 -0.000331 0.000013 0.000181 0.000552 0.023986 -0.000392
# 6 -0.001893 -0.004776 -0.000169 0.004341 -0.000392 0.026179
#
#
# Mechanical properties :
#
#
# Convention : Reuss Voigt Hill
#
# Bulk Modulus (GPa) = 47.83326 57.24932 52.54129
# Shear Modulus (GPa) = 41.43192 46.66868 44.05030
#
# Velocity S-wave (km/s) = 3.94639 4.18837 4.06918
# Velocity P-wave (km/s) = 6.22459 6.70146 6.46742
#
# Compressibility (1/GPa) = 0.02090596
#
# Stress axis : x y z
#
# Youngs Moduli (GPa) = 71.05330 115.48455 149.18394
#
# Poissons Ratio (x) = 0.17221 0.31223
# Poissons Ratio (y) = 0.10595 0.10160
# Poissons Ratio (z) = 0.14871 0.07865
#
# Static dielectric constant tensor:
#      x y z
#    x 2.141900 -0.026180 0.037760 
#    y -0.026180 2.212320 0.048620 
#    z 0.037760 0.048620 2.120530 
# 
# From -- ./inp_files/579172.got.cif
#   From: 2010.05.17/outbox.cif.g08.bks.cpg/sg2_290_cif.got.tgz:579172.got - 2010.06.03 11:33:40.
