data_PCOD9104782
_publ_section_title
;
Structure prediction by ZEFSAII (Michael W. Deem and Ramdas Pophale) SiO2 
 PCOD9104782
Probable space group: P -1
;
_chemical_formula_sum "Si O2"
_cell_formula_units_Z 14
_cell_length_a 12.077238
_cell_length_b 9.065389
_cell_length_c 17.984903
_cell_angle_alpha 136.926824
_cell_angle_beta 40.686944
_cell_angle_gamma 106.442779
_cell_volume 695.781407
_symmetry_space_group_name_H-M "P -1"
_symmetry_group_IT_number 2
_symmetry_cell_setting 'triclinic'
loop_
_space_group_symop_operation_xyz
x,y,z
-x,-y,-z
loop_
_atom_site_type_symbol
_atom_site_label
_atom_site_fract_x
_atom_site_fract_y
_atom_site_fract_z
Si Si1 0.351644 0.107566 0.019716
Si Si2 0.721152 0.082621 0.745025
Si Si3 0.335867 0.613131 0.693563
Si Si4 0.493437 0.516488 0.741395
Si Si5 0.871987 0.422426 0.582998
Si Si6 0.391427 0.411779 0.912051
Si Si7 0.103467 0.258498 0.062131
O O1 0.306513 0.306162 0.181668
O O2 0.564295 0.021643 0.837465
O O3 0.150674 0.288656 0.133791
O O4 0.373858 0.840458 0.928714
O O5 0.621844 0.190864 0.753443
O O6 0.690185 0.319409 0.899130
O O7 0.963823 0.821501 0.535280
O O8 0.500000 0.500000 0.500000
O O9 0.445738 0.481431 0.668765
O O10 0.223983 0.935658 0.872602
O O11 0.145128 0.589189 0.769839
O O12 0.745061 0.362510 0.570829
O O13 0.416275 0.437883 0.821983
O O14 0.000000 0.500000 0.500000
O O15 0.227426 0.342315 0.982435
#
# Coordination Sequence:
#
# PCOD9104782 Si02
#       7
#     2   2   2   2   2   2   2
#     4  10  20  39  62  89 125 161 204 245 294 364
#     4  10  21  39  57  90 134 166 192 239 302 372
#     4  10  23  45  66  85 114 157 215 259 295 356
#     4  11  22  39  62  93 128 160 203 256 298 358
#     4  12  22  33  62  95 123 165 204 242 299 360
#     4  10  21  41  60  89 133 160 194 250 310 365
#     4   9  22  42  66  86 112 166 201 248 315 356
#
# _framework density 20.121261000000001
#
# number of rings (size 3 to 8) (size 9 to 14) (size 15 to 20)
#    0.000    1.714    2.857    1.286    2.000    1.143 
#    5.143    0.714    0.000    0.000    0.000    0.000 
#    0.000    0.000    0.000    0.000    0.000    0.000 
#
# Total GULP energy -78156.849538 kJ/mol
# GULP energy per Si atom -5582.632110 kJ/mol
# Density = 2.007546 g / cm^3
# Si number density = 20.121261 Si / 1000 Ang^3
#
#
#
# Elastic Constant Matrix: (Units=GPa)
#
#
# Indices 1 2 3 4 5 6 
#
# 1 152.1404 56.0965 44.2662 -27.3952 -29.3459 -21.7852
# 2 56.0965 124.6048 21.1511 -24.1149 -18.7100 -15.3716
# 3 44.2662 21.1511 61.9389 -6.1072 -21.1452 -18.1933
# 4 -27.3952 -24.1149 -6.1072 27.9221 1.7227 -2.9348
# 5 -29.3459 -18.7100 -21.1452 1.7227 31.0386 -5.7513
# 6 -21.7852 -15.3716 -18.1933 -2.9348 -5.7513 39.1078
#
#
#
# Elastic Compliance Matrix: (Units=1/GPa)
#
#
# Indices 1 2 3 4 5 6 
#
# 1 0.012962 -0.000170 -0.000823 0.012615 0.012666 0.009580
# 2 -0.000170 0.012429 0.003095 0.011509 0.010399 0.008624
# 3 -0.000823 0.003095 0.030961 0.009133 0.025298 0.019567
# 4 0.012615 0.011509 0.009133 0.061060 0.026188 0.024234
# 5 0.012666 0.010399 0.025298 0.026188 0.072837 0.035589
# 6 0.009580 0.008624 0.019567 0.024234 0.035589 0.050452
#
#
# Mechanical properties :
#
#
# Convention : Reuss Voigt Hill
#
# Bulk Modulus (GPa) = 16.51395 64.63462 40.57428
# Shear Modulus (GPa) = 19.47924 34.09171 26.78547
#
# Velocity S-wave (km/s) = 3.11479 4.12067 3.65252
# Velocity P-wave (km/s) = 4.60010 7.40487 6.16413
#
# Compressibility (1/GPa) = 0.06055488
#
# Stress axis : x y z
#
# Youngs Moduli (GPa) = 77.15011 80.45458 32.29871
#
# Poissons Ratio (x) = 0.01371 0.02660
# Poissons Ratio (y) = 0.01315 -0.09997
# Poissons Ratio (z) = 0.06353 -0.24903
#
# Static dielectric constant tensor:
#      x y z
#    x 1.733250 -0.020470 -0.018200 
#    y -0.020470 1.750240 0.006800 
#    z -0.018200 0.006800 1.714610 
# 
# From -- ./inp_files/65569.got.cif
#   From: 2010.05.17/outbox.cif.g08.bks.cpg/sg2_33_cif.got.tgz:65569.got - 2010.06.03 11:33:40.
