data_PCOD9104765
_publ_section_title
;
Structure prediction by ZEFSAII (Michael W. Deem and Ramdas Pophale) SiO2 
 PCOD9104765
Probable space group: P -1
;
_chemical_formula_sum "Si O2"
_cell_formula_units_Z 14
_cell_length_a 12.591998
_cell_length_b 17.557726
_cell_length_c 8.596110
_cell_angle_alpha 49.985008
_cell_angle_beta 147.196825
_cell_angle_gamma 141.616016
_cell_volume 638.594031
_symmetry_space_group_name_H-M "P -1"
_symmetry_group_IT_number 2
_symmetry_cell_setting 'triclinic'
loop_
_space_group_symop_operation_xyz
x,y,z
-x,-y,-z
loop_
_atom_site_type_symbol
_atom_site_label
_atom_site_fract_x
_atom_site_fract_y
_atom_site_fract_z
Si Si1 0.853167 0.384244 0.855222
Si Si2 0.943530 0.298534 0.790794
Si Si3 0.751320 0.532955 0.327037
Si Si4 0.489065 0.113711 0.308985
Si Si5 0.154007 0.764263 0.702268
Si Si6 0.011751 0.918944 0.842975
Si Si7 0.756989 0.022697 0.293589
O O1 0.000450 0.355988 0.956493
O O2 0.719767 0.419261 0.526800
O O3 0.738074 0.272955 0.979754
O O4 0.000000 0.500000 0.000000
O O5 0.652437 0.211731 0.515507
O O6 0.073165 0.409242 0.682596
O O7 0.022280 0.206113 0.983336
O O8 0.901225 0.646023 0.483385
O O9 0.500000 0.500000 0.000000
O O10 0.648247 0.179843 0.264056
O O11 0.500000 0.000000 0.500000
O O12 0.203934 0.039263 0.025781
O O13 0.103033 0.858131 0.580915
O O14 0.135975 0.947298 0.787818
O O15 0.781765 0.921111 0.532053
O O16 0.500000 0.000000 0.000000
#
# Coordination Sequence:
#
# PCOD9104765 Si02
#       7
#     2   2   2   2   2   2   2
#     4  10  21  39  63  86 116 168 218 268 317 363
#     4  10  20  40  64  87 129 165 208 269 322 375
#     4  10  23  41  60  90 123 165 222 267 322 373
#     4   9  19  37  60  91 128 166 202 252 319 390
#     4  10  20  39  62  88 127 169 209 265 315 370
#     4  10  21  37  61  97 129 164 207 245 323 393
#     4  11  21  36  62  94 133 164 204 258 308 385
#
# _framework density 21.923159999999999
#
# number of rings (size 3 to 8) (size 9 to 14) (size 15 to 20)
#    0.000    2.000    2.857    0.429    0.000    2.286 
#    0.000    9.286    0.000    0.000    0.000    0.000 
#    0.000    0.000    0.000    0.000    0.000    0.000 
#
# Total GULP energy -78010.495711 kJ/mol
# GULP energy per Si atom -5572.178265 kJ/mol
# Density = 2.187326 g / cm^3
# Si number density = 21.923160 Si / 1000 Ang^3
#
#
#
# Elastic Constant Matrix: (Units=GPa)
#
#
# Indices 1 2 3 4 5 6 
#
# 1 53.4042 40.4437 24.4096 -4.3448 -15.3328 -5.0037
# 2 40.4437 92.3724 63.9466 -13.8432 -4.4501 -14.0741
# 3 24.4096 63.9466 151.1382 -18.1257 3.2725 2.3490
# 4 -4.3448 -13.8432 -18.1257 46.7538 4.5827 -12.5241
# 5 -15.3328 -4.4501 3.2725 4.5827 24.3806 -6.3712
# 6 -5.0037 -14.0741 2.3490 -12.5241 -6.3712 34.1630
#
#
#
# Elastic Compliance Matrix: (Units=1/GPa)
#
#
# Indices 1 2 3 4 5 6 
#
# 1 0.035937 -0.014371 -0.000525 -0.002552 0.021152 0.002388
# 2 -0.014371 0.024756 -0.007548 0.006063 -0.001907 0.010480
# 3 -0.000525 -0.007548 0.010168 0.000918 -0.004387 -0.004367
# 4 -0.002552 0.006063 0.000918 0.026594 -0.002664 0.011313
# 5 0.021152 -0.001907 -0.004387 -0.002664 0.058331 0.012516
# 6 0.002388 0.010480 -0.004367 0.011313 0.012516 0.040720
#
#
# Mechanical properties :
#
#
# Convention : Reuss Voigt Hill
#
# Bulk Modulus (GPa) = 38.49993 61.61271 50.05632
# Shear Modulus (GPa) = 19.99580 32.26715 26.13148
#
# Velocity S-wave (km/s) = 3.02335 3.84061 3.45622
# Velocity P-wave (km/s) = 5.45774 6.91606 6.22972
#
# Compressibility (1/GPa) = 0.02597407
#
# Stress axis : x y z
#
# Youngs Moduli (GPa) = 27.82623 40.39350 98.34938
#
# Poissons Ratio (x) = 0.58048 0.05164
# Poissons Ratio (y) = 0.39988 0.74235
# Poissons Ratio (z) = 0.01461 0.30489
#
# Static dielectric constant tensor:
#      x y z
#    x 1.797350 -0.017370 -0.033200 
#    y -0.017370 1.862250 0.039870 
#    z -0.033200 0.039870 1.877970 
# 
# From -- ./inp_files/279174.got.cif
#   From: 2010.05.17/outbox.cif.g08.bks.cpg/sg2_140_cif.got.tgz:279174.got - 2010.06.03 11:33:40.
