data_PCOD9104808
_publ_section_title
;
Structure prediction by ZEFSAII (Michael W. Deem and Ramdas Pophale) SiO2 
 PCOD9104808
Probable space group: P -1
;
_chemical_formula_sum "Si O2"
_cell_formula_units_Z 16
_cell_length_a 9.699259
_cell_length_b 11.844478
_cell_length_c 12.901903
_cell_angle_alpha 85.394884
_cell_angle_beta 136.511705
_cell_angle_gamma 118.802800
_cell_volume 799.818684
_symmetry_space_group_name_H-M "P -1"
_symmetry_group_IT_number 2
_symmetry_cell_setting 'triclinic'
loop_
_space_group_symop_operation_xyz
x,y,z
-x,-y,-z
loop_
_atom_site_type_symbol
_atom_site_label
_atom_site_fract_x
_atom_site_fract_y
_atom_site_fract_z
Si Si1 0.516321 0.504724 0.885398
Si Si2 0.585690 0.096731 0.781011
Si Si3 0.731889 0.107304 0.537280
Si Si4 0.061652 0.172176 0.898633
Si Si5 0.828294 0.239998 0.194386
Si Si6 0.023149 0.643273 0.499323
Si Si7 0.719558 0.979121 0.041142
Si Si8 0.187111 0.613685 0.008151
O O1 0.249650 0.411534 0.687833
O O2 0.665116 0.442897 0.946512
O O3 0.500000 0.500000 0.000000
O O4 0.686456 0.674815 0.938153
O O5 0.639930 0.236472 0.847596
O O6 0.829911 0.135156 0.846324
O O7 0.335217 0.004969 0.581064
O O8 0.577380 0.006330 0.876835
O O9 0.979697 0.179732 0.737113
O O10 0.769551 0.235473 0.480455
O O11 0.500000 0.000000 0.500000
O O12 0.109341 0.054646 0.920197
O O13 0.921853 0.296090 0.357607
O O14 0.854778 0.118632 0.178826
O O15 0.523986 0.163322 0.027045
O O16 0.942576 0.362966 0.159684
O O17 0.000000 0.500000 0.500000
O O18 0.000000 0.500000 0.000000
#
# Coordination Sequence:
#
# PCOD9104808 Si02
#       8
#     2   2   2   2   2   2   2   2
#     4  12  24  40  66  98 127 175 224 263 329 393
#     4  10  21  40  66  91 125 169 210 267 336 375
#     4  10  23  40  62  96 129 169 213 272 332 378
#     4  11  21  38  63  94 126 163 221 269 316 394
#     4  10  23  39  62  92 126 172 210 265 333 382
#     4  12  24  42  65  96 138 172 220 278 326 395
#     4  10  20  39  62  90 124 163 214 265 323 387
#     4  11  23  44  67  91 134 173 214 271 326 405
#
# _framework density 20.004535000000001
#
# number of rings (size 3 to 8) (size 9 to 14) (size 15 to 20)
#    0.000    1.250    3.750    2.625    0.000    1.000 
#    0.000    1.875    0.000    0.000    0.000    0.000 
#    0.000    0.000    0.000    0.000    0.000    0.000 
#
# Total GULP energy -89156.118315 kJ/mol
# GULP energy per Si atom -5572.257395 kJ/mol
# Density = 1.995900 g / cm^3
# Si number density = 20.004535 Si / 1000 Ang^3
#
#
#
# Elastic Constant Matrix: (Units=GPa)
#
#
# Indices 1 2 3 4 5 6 
#
# 1 117.1420 45.1803 35.8935 6.3224 -19.3136 -21.1662
# 2 45.1803 113.5727 38.3545 3.9940 -17.7278 2.1459
# 3 35.8935 38.3545 105.3254 8.7132 -32.8024 0.3923
# 4 6.3224 3.9940 8.7132 25.0570 1.4685 -6.8954
# 5 -19.3136 -17.7278 -32.8024 1.4685 31.9144 2.9700
# 6 -21.1662 2.1459 0.3923 -6.8954 2.9700 44.4224
#
#
#
# Elastic Compliance Matrix: (Units=1/GPa)
#
#
# Indices 1 2 3 4 5 6 
#
# 1 0.012100 -0.003852 -0.001848 -0.000384 0.002768 0.005723
# 2 -0.003852 0.011470 -0.002092 -0.000992 0.002185 -0.002671
# 3 -0.001848 -0.002092 0.016026 -0.006438 0.014758 -0.002907
# 4 -0.000384 -0.000992 -0.006438 0.045091 -0.010182 0.007602
# 5 0.002768 0.002185 0.014758 -0.010182 0.050218 -0.003855
# 6 0.005723 -0.002671 -0.002907 0.007602 -0.003855 0.026830
#
#
# Mechanical properties :
#
#
# Convention : Reuss Voigt Hill
#
# Bulk Modulus (GPa) = 41.64660 63.87744 52.76202
# Shear Modulus (GPa) = 26.97996 34.71954 30.84975
#
# Velocity S-wave (km/s) = 3.67644 4.17055 3.93127
# Velocity P-wave (km/s) = 6.23581 7.42914 6.85848
#
# Compressibility (1/GPa) = 0.02401156
#
# Stress axis : x y z
#
# Youngs Moduli (GPa) = 82.64634 87.18418 62.40042
#
# Poissons Ratio (x) = 0.33581 0.11533
# Poissons Ratio (y) = 0.31833 0.13053
# Poissons Ratio (z) = 0.15275 0.18237
#
# Static dielectric constant tensor:
#      x y z
#    x 1.754460 0.087330 0.000380 
#    y 0.087330 1.798640 0.006410 
#    z 0.000380 0.006410 1.734570 
# 
# From -- ./inp_files/358975.got.cif
#   From: 2010.05.17/outbox.cif.g08.bks.cpg/sg2_180_cif.got.tgz:358975.got - 2010.06.03 11:33:40.
