data_PCOD9104260
_publ_section_title
;
Structure prediction by ZEFSAII (Michael W. Deem and Ramdas Pophale) SiO2 
 PCOD9104260
Probable space group: P -1
;
_chemical_formula_sum "Si O2"
_cell_formula_units_Z 16
_cell_length_a 10.601974
_cell_length_b 6.861497
_cell_length_c 11.148395
_cell_angle_alpha 85.718298
_cell_angle_beta 99.559048
_cell_angle_gamma 113.058062
_cell_volume 735.800567
_symmetry_space_group_name_H-M "P -1"
_symmetry_group_IT_number 2
_symmetry_cell_setting 'triclinic'
loop_
_space_group_symop_operation_xyz
x,y,z
-x,-y,-z
loop_
_atom_site_type_symbol
_atom_site_label
_atom_site_fract_x
_atom_site_fract_y
_atom_site_fract_z
Si Si1 0.657697 0.494241 0.906784
Si Si2 0.595241 0.810315 0.734233
Si Si3 0.913731 0.543602 0.775576
Si Si4 0.170041 0.157526 0.419194
Si Si5 0.114696 0.703974 0.444884
Si Si6 0.298449 0.533091 0.607412
Si Si7 0.537216 0.948692 0.142182
Si Si8 0.217689 0.631201 0.839724
O O1 0.639394 0.708825 0.862094
O O2 0.784944 0.492876 0.845505
O O3 0.514722 0.303108 0.855898
O O4 0.701588 0.454804 0.047855
O O5 0.714291 0.862725 0.652539
O O6 0.459226 0.633703 0.661044
O O7 0.551376 0.992165 0.772446
O O8 0.912607 0.732939 0.679144
O O9 0.890277 0.346314 0.693719
O O10 0.063550 0.599752 0.854942
O O11 0.246010 0.320780 0.530026
O O12 0.092260 0.916403 0.459141
O O13 0.258751 0.703916 0.517929
O O14 0.000000 0.500000 0.500000
O O15 0.217460 0.512729 0.720752
O O16 0.692712 0.118006 0.178105
O O17 0.500000 0.000000 0.000000
#
# Coordination Sequence:
#
# PCOD9104260 Si02
#       8
#     2   2   2   2   2   2   2   2
#     4  10  21  39  64  85 124 161 195 250 294 351
#     4  10  21  40  60  93 120 152 205 240 299 359
#     4  10  21  40  61  90 118 158 203 240 303 355
#     4  10  23  39  64  86 121 160 193 249 301 356
#     4  11  22  41  58  86 120 152 198 248 298 350
#     4  10  22  37  59  90 121 154 201 243 299 355
#     4   9  20  36  58  85 119 157 196 241 295 341
#     4  10  20  39  59  91 124 156 201 248 291 355
#
# _framework density 21.745024000000001
#
# number of rings (size 3 to 8) (size 9 to 14) (size 15 to 20)
#    0.000    2.000    1.250    1.500    0.000    9.000 
#    2.250    3.750    0.000    9.000    0.000    0.000 
#    0.000    0.000    0.000    0.000    0.000    0.000 
#
# Total GULP energy -89355.519598 kJ/mol
# GULP energy per Si atom -5584.719975 kJ/mol
# Density = 2.169553 g / cm^3
# Si number density = 21.745024 Si / 1000 Ang^3
#
#
#
# Elastic Constant Matrix: (Units=GPa)
#
#
# Indices 1 2 3 4 5 6 
#
# 1 65.7003 3.7804 7.2803 0.2504 6.9760 5.1727
# 2 3.7804 93.7141 26.7893 2.7078 1.6058 -5.5666
# 3 7.2803 26.7893 77.0673 10.1207 5.5312 -0.3853
# 4 0.2504 2.7078 10.1207 18.2131 -2.6910 -8.3486
# 5 6.9760 1.6058 5.5312 -2.6910 36.0235 0.8051
# 6 5.1727 -5.5666 -0.3853 -8.3486 0.8051 18.4615
#
#
#
# Elastic Compliance Matrix: (Units=1/GPa)
#
#
# Indices 1 2 3 4 5 6 
#
# 1 0.016141 -0.000658 -0.000727 -0.002880 -0.003068 -0.005905
# 2 -0.000658 0.012225 -0.004611 0.003200 0.000413 0.005204
# 3 -0.000727 -0.004611 0.016339 -0.011531 -0.002891 -0.005934
# 4 -0.002880 0.003200 -0.011531 0.078851 0.007252 0.036873
# 5 -0.003068 0.000413 -0.002891 0.007252 0.029256 0.002927
# 6 -0.005905 0.005204 -0.005934 0.036873 0.002927 0.073813
#
#
# Mechanical properties :
#
#
# Convention : Reuss Voigt Hill
#
# Bulk Modulus (GPa) = 30.56982 34.68686 32.62834
# Shear Modulus (GPa) = 20.03831 27.78173 23.91002
#
# Velocity S-wave (km/s) = 3.03894 3.57825 3.31956
# Velocity P-wave (km/s) = 5.13832 5.74962 5.45254
#
# Compressibility (1/GPa) = 0.03271201
#
# Stress axis : x y z
#
# Youngs Moduli (GPa) = 61.95530 81.79935 61.20150
#
# Poissons Ratio (x) = 0.05384 0.04450
# Poissons Ratio (y) = 0.04078 0.28222
# Poissons Ratio (z) = 0.04505 0.37720
#
# Static dielectric constant tensor:
#      x y z
#    x 1.829440 0.025620 -0.008490 
#    y 0.025620 1.809160 -0.021420 
#    z -0.008490 -0.021420 1.784350 
# 
# From -- ./inp_files/77401.got.cif
#   From: 2010.05.17/outbox.cif.g08.bks.cpg/sg2_39_cif.got.tgz:77401.got - 2010.06.03 11:33:40.
