data_PCOD9104719
_publ_section_title
;
Structure prediction by ZEFSAII (Michael W. Deem and Ramdas Pophale) SiO2 
 PCOD9104719
Probable space group: P -1
;
_chemical_formula_sum "Si O2"
_cell_formula_units_Z 13
_cell_length_a 14.808617
_cell_length_b 10.998917
_cell_length_c 7.426888
_cell_angle_alpha 123.602065
_cell_angle_beta 114.517420
_cell_angle_gamma 27.398273
_cell_volume 454.347344
_symmetry_space_group_name_H-M "P -1"
_symmetry_group_IT_number 2
_symmetry_cell_setting 'triclinic'
loop_
_space_group_symop_operation_xyz
x,y,z
-x,-y,-z
loop_
_atom_site_type_symbol
_atom_site_label
_atom_site_fract_x
_atom_site_fract_y
_atom_site_fract_z
Si Si1 0.923662 0.249273 0.889179
Si Si2 0.785765 0.389756 0.479437
Si Si3 0.500000 0.000000 0.000000
Si Si4 0.605578 0.968183 0.424562
Si Si5 0.602647 0.451797 0.879670
Si Si6 0.224627 0.093306 0.942925
Si Si7 0.116757 0.164218 0.504863
O O1 0.810118 0.391817 0.716137
O O2 0.761910 0.379180 0.994071
O O3 0.103820 0.900600 0.716465
O O4 0.049172 0.235226 0.026656
O O5 0.554598 0.702937 0.501938
O O6 0.902531 0.370680 0.460028
O O7 0.632579 0.843290 0.163005
O O8 0.675874 0.874790 0.932017
O O9 0.792601 0.821945 0.525868
O O10 0.500000 0.000000 0.500000
O O11 0.423764 0.741414 0.848305
O O12 0.741058 0.158514 0.654683
O O13 0.500000 0.500000 0.000000
O O14 0.136629 0.192144 0.749681
#
# Coordination Sequence:
#
# PCOD9104719 Si02
#       7
#     2   2   1   2   2   2   2
#     4   9  18  37  65  94 122 165 208 262 323 382
#     4   9  18  37  66  93 119 158 217 259 316 383
#     4  10  24  42  62  94 126 168 224 256 302 394
#     4  11  23  40  66  88 128 173 212 259 319 374
#     4  11  22  34  62  95 131 156 204 269 321 378
#     4  10  20  39  62  86 124 166 212 258 314 373
#     4   9  20  39  62  89 118 164 209 260 318 376
#
# _framework density 28.612470999999999
#
# number of rings (size 3 to 8) (size 9 to 14) (size 15 to 20)
#    0.000    2.154    0.000    4.154    2.154    1.231 
#    0.000   12.308    6.769    0.000    0.000    0.000 
#    0.000    0.000    0.000    0.000    0.000    0.000 
#
# Total GULP energy -72614.624138 kJ/mol
# GULP energy per Si atom -5585.740318 kJ/mol
# Density = 2.854735 g / cm^3
# Si number density = 28.612471 Si / 1000 Ang^3
#
#
#
# Elastic Constant Matrix: (Units=GPa)
#
#
# Indices 1 2 3 4 5 6 
#
# 1 265.3363 49.0742 34.9696 -7.4933 4.5101 -55.5240
# 2 49.0742 116.3410 26.7259 3.9562 13.7101 -37.8390
# 3 34.9696 26.7259 55.1546 -1.5799 11.3824 -5.7884
# 4 -7.4933 3.9562 -1.5799 32.2221 -4.4445 3.5372
# 5 4.5101 13.7101 11.3824 -4.4445 37.0157 -8.6435
# 6 -55.5240 -37.8390 -5.7884 3.5372 -8.6435 62.0528
#
#
#
# Elastic Compliance Matrix: (Units=1/GPa)
#
#
# Indices 1 2 3 4 5 6 
#
# 1 0.005100 -0.000292 -0.002927 0.000814 0.001482 0.004273
# 2 -0.000292 0.012307 -0.004779 -0.002801 -0.001824 0.006703
# 3 -0.002927 -0.004779 0.023091 0.000692 -0.005880 -0.004237
# 4 0.000814 -0.002801 0.000692 0.032408 0.004105 -0.002191
# 5 0.001482 -0.001824 -0.005880 0.004105 0.030677 0.003704
# 6 0.004273 0.006703 -0.004237 -0.002191 0.003704 0.024272
#
#
# Mechanical properties :
#
#
# Convention : Reuss Voigt Hill
#
# Bulk Modulus (GPa) = 40.81007 73.15237 56.98122
# Shear Modulus (GPa) = 32.89126 47.99560 40.44343
#
# Velocity S-wave (km/s) = 3.39417 4.10010 3.76372
# Velocity P-wave (km/s) = 5.44560 6.93084 6.23262
#
# Compressibility (1/GPa) = 0.02450376
#
# Stress axis : x y z
#
# Youngs Moduli (GPa) = 196.06329 81.25735 43.30770
#
# Poissons Ratio (x) = 0.02370 0.12674
# Poissons Ratio (y) = 0.05719 0.20695
# Poissons Ratio (z) = 0.57379 0.38830
#
# Static dielectric constant tensor:
#      x y z
#    x 1.595150 -0.358140 -0.915720 
#    y -0.358140 1.944270 -0.414430 
#    z -0.915720 -0.414430 1.117520 
# 
# From -- ./inp_files/303865.got.cif
#   From: 2010.05.17/outbox.cif.g08.bks.cpg/sg2_152_cif.got.tgz:303865.got - 2010.06.03 11:33:40.
