data_PCOD9104945
_publ_section_title
;
Structure prediction by ZEFSAII (Michael W. Deem and Ramdas Pophale) SiO2 
 PCOD9104945
Probable space group: P -1
;
_chemical_formula_sum "Si O2"
_cell_formula_units_Z 16
_cell_length_a 10.595019
_cell_length_b 14.697991
_cell_length_c 13.916452
_cell_angle_alpha 39.990228
_cell_angle_beta 32.692693
_cell_angle_gamma 41.280258
_cell_volume 715.831236
_symmetry_space_group_name_H-M "P -1"
_symmetry_group_IT_number 2
_symmetry_cell_setting 'triclinic'
loop_
_space_group_symop_operation_xyz
x,y,z
-x,-y,-z
loop_
_atom_site_type_symbol
_atom_site_label
_atom_site_fract_x
_atom_site_fract_y
_atom_site_fract_z
Si Si1 0.951048 0.676295 0.365408
Si Si2 0.083920 0.716811 0.450760
Si Si3 0.056083 0.295692 0.120157
Si Si4 0.579689 0.535909 0.229006
Si Si5 0.259626 0.640055 0.008945
Si Si6 0.788651 0.611359 0.861215
Si Si7 0.572669 0.125309 0.414389
Si Si8 0.022632 0.997228 0.371829
O O1 0.034121 0.752407 0.342672
O O2 0.095356 0.691495 0.165760
O O3 0.000000 0.500000 0.500000
O O4 0.663303 0.760910 0.475605
O O5 0.319774 0.568278 0.418693
O O6 0.833761 0.694658 0.670309
O O7 0.156694 0.838787 0.367431
O O8 0.766449 0.372524 0.225733
O O9 0.141067 0.127537 0.169724
O O10 0.241740 0.384313 0.895976
O O11 0.072711 0.318509 0.206159
O O12 0.554551 0.611179 0.076952
O O13 0.117528 0.559297 0.094047
O O14 0.324832 0.772078 0.806269
O O15 0.500000 0.500000 0.000000
O O16 0.767497 0.046268 0.435815
O O17 0.500000 0.000000 0.500000
O O18 0.000000 0.000000 0.500000
#
# Coordination Sequence:
#
# PCOD9104945 Si02
#       8
#     2   2   2   2   2   2   2   2
#     4  12  25  45  73 113 139 192 254 300 371 450
#     4  12  23  42  69  99 143 185 239 298 359 438
#     4   9  21  41  63  93 139 177 238 293 357 424
#     4   9  21  40  64  95 133 180 239 299 346 422
#     4  12  24  42  79 107 144 194 245 310 370 434
#     4  10  20  39  63 100 136 177 238 291 358 413
#     4  12  28  51  75 108 156 194 244 318 373 439
#     4  12  25  47  70 103 150 199 237 298 381 432
#
# _framework density 22.351635999999999
#
# number of rings (size 3 to 8) (size 9 to 14) (size 15 to 20)
#    0.750    0.250    5.000    1.500    1.750    1.500 
#    2.250    0.000    0.000    0.000    0.000    0.000 
#    0.000    0.000    0.000    0.000    0.000    0.000 
#
# Total GULP energy -89085.545794 kJ/mol
# GULP energy per Si atom -5567.846612 kJ/mol
# Density = 2.230076 g / cm^3
# Si number density = 22.351636 Si / 1000 Ang^3
#
#
#
# Elastic Constant Matrix: (Units=GPa)
#
#
# Indices 1 2 3 4 5 6 
#
# 1 115.7828 26.3619 30.3325 11.2671 4.8181 22.4461
# 2 26.3619 77.2500 38.7028 -3.5341 12.6814 16.8414
# 3 30.3325 38.7028 91.9013 -4.0102 19.5006 12.1889
# 4 11.2671 -3.5341 -4.0102 46.0825 10.4114 -12.5362
# 5 4.8181 12.6814 19.5006 10.4114 28.7563 -1.4381
# 6 22.4461 16.8414 12.1889 -12.5362 -1.4381 41.8034
#
#
#
# Elastic Compliance Matrix: (Units=1/GPa)
#
#
# Indices 1 2 3 4 5 6 
#
# 1 0.011423 -0.001726 -0.003012 -0.005422 0.002548 -0.006098
# 2 -0.001726 0.018050 -0.005383 0.001142 -0.004663 -0.004594
# 3 -0.003012 -0.005383 0.016379 0.003885 -0.009643 -0.000157
# 4 -0.005422 0.001142 0.003885 0.028797 -0.012179 0.009535
# 5 0.002548 -0.004663 -0.009643 -0.012179 0.047418 0.001302
# 6 -0.006098 -0.004594 -0.000157 0.009535 0.001302 0.031996
#
#
# Mechanical properties :
#
#
# Convention : Reuss Voigt Hill
#
# Bulk Modulus (GPa) = 39.04749 52.85871 45.95310
# Shear Modulus (GPa) = 27.34610 35.96423 31.65516
#
# Velocity S-wave (km/s) = 3.50158 4.01561 3.76737
# Velocity P-wave (km/s) = 5.81856 6.72311 6.28712
#
# Compressibility (1/GPa) = 0.02560984
#
# Stress axis : x y z
#
# Youngs Moduli (GPa) = 87.54575 55.40075 61.05498
#
# Poissons Ratio (x) = 0.09562 0.18387
# Poissons Ratio (y) = 0.15110 0.32868
# Poissons Ratio (z) = 0.26365 0.29824
#
# Static dielectric constant tensor:
#      x y z
#    x 1.986630 -0.028430 -0.006680 
#    y -0.028430 1.839810 -0.027020 
#    z -0.006680 -0.027020 1.842870 
# 
# From -- ./inp_files/569733.got.cif
#   From: 2010.05.17/outbox.cif.g08.bks.cpg/sg2_285_cif.got.tgz:569733.got - 2010.06.03 11:33:40.
