data_PCOD9104575
_publ_section_title
;
Structure prediction by ZEFSAII (Michael W. Deem and Ramdas Pophale) SiO2 
 PCOD9104575
Probable space group: P -1
;
_chemical_formula_sum "Si O2"
_cell_formula_units_Z 16
_cell_length_a 17.247419
_cell_length_b 6.316344
_cell_length_c 8.403455
_cell_angle_alpha 116.487599
_cell_angle_beta 128.459254
_cell_angle_gamma 55.009285
_cell_volume 581.564542
_symmetry_space_group_name_H-M "P -1"
_symmetry_group_IT_number 2
_symmetry_cell_setting 'triclinic'
loop_
_space_group_symop_operation_xyz
x,y,z
-x,-y,-z
loop_
_atom_site_type_symbol
_atom_site_label
_atom_site_fract_x
_atom_site_fract_y
_atom_site_fract_z
Si Si1 0.446373 0.701190 0.358925
Si Si2 0.211815 0.865712 0.480097
Si Si3 0.440740 0.164632 0.723722
Si Si4 0.835500 0.768263 0.045427
Si Si5 0.027411 0.692689 0.755742
Si Si6 0.660756 0.844575 0.096275
Si Si7 0.881660 0.230365 0.394201
Si Si8 0.215057 0.862583 0.130603
O O1 0.500000 0.500000 0.500000
O O2 0.525561 0.660489 0.295089
O O3 0.334494 0.701020 0.150430
O O4 0.416408 0.978310 0.504098
O O5 0.294772 0.955586 0.703737
O O6 0.094715 0.109594 0.373748
O O7 0.181679 0.678209 0.492687
O O8 0.251235 0.769706 0.325102
O O9 0.356369 0.283265 0.802651
O O10 0.549528 0.982331 0.901140
O O11 0.949319 0.539308 0.168249
O O12 0.749101 0.710886 0.022752
O O13 0.828258 0.051964 0.183876
O O14 0.813900 0.836770 0.856474
O O15 0.093030 0.587917 0.636181
O O16 0.099888 0.840413 0.960622
O O17 0.000000 0.000000 0.500000
#
# Coordination Sequence:
#
# PCOD9104575 Si02
#       8
#     2   2   2   2   2   2   2   2
#     4  11  24  42  69  91 117 156 205 249 309 366
#     4  10  20  39  61  89 126 163 197 250 301 358
#     4  10  22  43  65  89 123 156 196 260 306 354
#     4  10  21  38  62  86 124 161 201 249 296 357
#     4  10  22  38  63  89 121 165 209 242 295 360
#     4  10  20  39  65  87 123 161 195 246 312 354
#     4   8  18  36  57  81 118 155 196 246 294 338
#     4  11  22  41  61  88 123 160 200 256 304 356
#
# _framework density 27.511991999999999
#
# number of rings (size 3 to 8) (size 9 to 14) (size 15 to 20)
#    0.000    2.000    2.500    0.375    1.750    5.000 
#    2.250    3.750    0.000    0.000    0.000    0.000 
#    0.000    0.000    0.000    0.000    0.000    0.000 
#
# Total GULP energy -89307.769473 kJ/mol
# GULP energy per Si atom -5581.735592 kJ/mol
# Density = 2.744937 g / cm^3
# Si number density = 27.511992 Si / 1000 Ang^3
#
#
#
# Elastic Constant Matrix: (Units=GPa)
#
#
# Indices 1 2 3 4 5 6 
#
# 1 118.0450 28.2646 13.9121 6.7224 -15.2898 18.1148
# 2 28.2646 86.0301 28.5799 -18.9001 -5.0054 11.0869
# 3 13.9121 28.5799 127.3516 -8.2297 13.0654 -1.6507
# 4 6.7224 -18.9001 -8.2297 57.0706 7.6130 -8.6153
# 5 -15.2898 -5.0054 13.0654 7.6130 53.2652 -13.0814
# 6 18.1148 11.0869 -1.6507 -8.6153 -13.0814 26.7671
#
#
#
# Elastic Compliance Matrix: (Units=1/GPa)
#
#
# Indices 1 2 3 4 5 6 
#
# 1 0.010757 -0.003076 -0.001010 -0.003646 0.002033 -0.006248
# 2 -0.003076 0.014892 -0.002737 0.004485 -0.000163 -0.002892
# 3 -0.001010 -0.002737 0.008923 0.001059 -0.002525 0.001474
# 4 -0.003646 0.004485 0.001059 0.020843 -0.002330 0.006245
# 5 0.002033 -0.000163 -0.002525 -0.002330 0.022445 0.008755
# 6 -0.006248 -0.002892 0.001474 0.006245 0.008755 0.049165
#
#
# Mechanical properties :
#
#
# Convention : Reuss Voigt Hill
#
# Bulk Modulus (GPa) = 47.78649 52.54886 50.16767
# Shear Modulus (GPa) = 33.86487 44.79859 39.33173
#
# Velocity S-wave (km/s) = 3.51224 4.03963 3.78514
# Velocity P-wave (km/s) = 5.81849 6.39531 6.11371
#
# Compressibility (1/GPa) = 0.02092642
#
# Stress axis : x y z
#
# Youngs Moduli (GPa) = 92.96651 67.14976 112.06487
#
# Poissons Ratio (x) = 0.20655 0.11317
# Poissons Ratio (y) = 0.28596 0.30671
# Poissons Ratio (z) = 0.09389 0.18378
#
# Static dielectric constant tensor:
#      x y z
#    x 2.286850 0.002410 -0.170500 
#    y 0.002410 2.181830 0.037280 
#    z -0.170500 0.037280 2.414360 
# 
# From -- ./inp_files/288846.got.cif
#   From: 2010.05.17/outbox.cif.g08.bks.cpg/sg2_145_cif.got.tgz:288846.got - 2010.06.03 11:33:40.
