data_PCOD9104569
_publ_section_title
;
Structure prediction by ZEFSAII (Michael W. Deem and Ramdas Pophale) SiO2 
 PCOD9104569
Probable space group: P -1
;
_chemical_formula_sum "Si O2"
_cell_formula_units_Z 16
_cell_length_a 17.146627
_cell_length_b 13.923505
_cell_length_c 8.374608
_cell_angle_alpha 38.815694
_cell_angle_beta 138.875963
_cell_angle_gamma 146.692206
_cell_volume 657.216935
_symmetry_space_group_name_H-M "P -1"
_symmetry_group_IT_number 2
_symmetry_cell_setting 'triclinic'
loop_
_space_group_symop_operation_xyz
x,y,z
-x,-y,-z
loop_
_atom_site_type_symbol
_atom_site_label
_atom_site_fract_x
_atom_site_fract_y
_atom_site_fract_z
Si Si1 0.915108 0.086403 0.583251
Si Si2 0.799387 0.861803 0.032231
Si Si3 0.415151 0.945077 0.275260
Si Si4 0.323901 0.290929 0.410154
Si Si5 0.167181 0.647954 0.780621
Si Si6 0.537435 0.665546 0.118910
Si Si7 0.126372 0.758717 0.229302
Si Si8 0.444939 0.786501 0.233840
O O1 0.877107 0.235695 0.335852
O O2 0.092137 0.199342 0.707116
O O3 0.835336 0.914467 0.556271
O O4 0.834369 0.948790 0.794405
O O5 0.632496 0.721066 0.030078
O O6 0.870907 0.057668 0.987489
O O7 0.500000 0.000000 0.500000
O O8 0.239536 0.806222 0.204521
O O9 0.441209 0.813816 0.382022
O O10 0.455123 0.155253 0.032294
O O11 0.369084 0.468946 0.133421
O O12 0.372414 0.362186 0.573835
O O13 0.432455 0.243087 0.572450
O O14 0.194447 0.741236 0.523375
O O15 0.032153 0.430962 0.812869
O O16 0.294199 0.661043 0.060411
O O17 0.500000 0.000000 0.000000
#
# Coordination Sequence:
#
# PCOD9104569 Si02
#       8
#     2   2   2   2   2   2   2   2
#     4  10  20  39  61  89 122 163 209 253 313 366
#     4   9  21  40  61  85 123 165 202 258 310 374
#     4  11  23  41  64  93 124 163 207 260 314 376
#     4  11  24  40  62  93 123 169 209 258 312 376
#     4  10  20  39  63  88 125 159 207 255 305 378
#     4  10  23  42  59  90 127 161 210 253 314 372
#     4   9  21  38  61  93 118 161 206 252 311 368
#     4  12  22  39  62  88 123 167 202 258 315 361
#
# _framework density 24.345081
#
# number of rings (size 3 to 8) (size 9 to 14) (size 15 to 20)
#    0.000    1.750    2.500    0.750    3.500    4.500 
#    6.750    1.250    0.000    0.000    0.000    0.000 
#    0.000    0.000    0.000    0.000    0.000    0.000 
#
# Total GULP energy -89164.026266 kJ/mol
# GULP energy per Si atom -5572.751642 kJ/mol
# Density = 2.428967 g / cm^3
# Si number density = 24.345081 Si / 1000 Ang^3
#
#
#
# Elastic Constant Matrix: (Units=GPa)
#
#
# Indices 1 2 3 4 5 6 
#
# 1 59.0788 -6.2624 19.5654 6.7765 5.2820 1.0601
# 2 -6.2624 68.6916 11.8685 6.2447 -4.8213 -1.5800
# 3 19.5654 11.8685 64.6384 7.9838 12.7898 6.5354
# 4 6.7765 6.2447 7.9838 38.9493 -2.9102 -4.2831
# 5 5.2820 -4.8213 12.7898 -2.9102 23.3512 5.4822
# 6 1.0601 -1.5800 6.5354 -4.2831 5.4822 13.6274
#
#
#
# Elastic Compliance Matrix: (Units=1/GPa)
#
#
# Indices 1 2 3 4 5 6 
#
# 1 0.019640 0.003033 -0.006101 -0.002584 -0.001123 0.001389
# 2 0.003033 0.016172 -0.004772 -0.001623 0.004707 0.001524
# 3 -0.006101 -0.004772 0.021478 -0.004169 -0.010098 -0.007627
# 4 -0.002584 -0.001623 -0.004169 0.028566 0.003879 0.009430
# 5 -0.001123 0.004707 -0.010098 0.003879 0.053550 -0.014848
# 6 0.001389 0.001524 -0.007627 0.009430 -0.014848 0.086045
#
#
# Mechanical properties :
#
#
# Convention : Reuss Voigt Hill
#
# Bulk Modulus (GPa) = 24.03328 26.97242 25.50285
# Shear Modulus (GPa) = 19.60771 26.33471 22.97121
#
# Velocity S-wave (km/s) = 2.84105 3.29253 3.07509
# Velocity P-wave (km/s) = 4.54483 5.05545 4.80692
#
# Compressibility (1/GPa) = 0.04160897
#
# Stress axis : x y z
#
# Youngs Moduli (GPa) = 50.91558 61.83595 46.55976
#
# Poissons Ratio (x) = -0.18753 0.28406
# Poissons Ratio (y) = -0.15441 0.22220
# Poissons Ratio (z) = 0.31063 0.29510
#
# Static dielectric constant tensor:
#      x y z
#    x 1.774960 0.038550 -0.025680 
#    y 0.038550 2.026030 -0.028990 
#    z -0.025680 -0.028990 2.061090 
# 
# From -- ./inp_files/335647.got.cif
#   From: 2010.05.17/outbox.cif.g08.bks.cpg/sg2_168_cif.got.tgz:335647.got - 2010.06.03 11:33:40.
