data_PCOD9104494
_publ_section_title
;
Structure prediction by ZEFSAII (Michael W. Deem and Ramdas Pophale) SiO2 
 PCOD9104494
Probable space group: P -1
;
_chemical_formula_sum "Si O2"
_cell_formula_units_Z 16
_cell_length_a 7.533822
_cell_length_b 12.438484
_cell_length_c 9.266713
_cell_angle_alpha 111.565387
_cell_angle_beta 131.864486
_cell_angle_gamma 79.802842
_cell_volume 598.504096
_symmetry_space_group_name_H-M "P -1"
_symmetry_group_IT_number 2
_symmetry_cell_setting 'triclinic'
loop_
_space_group_symop_operation_xyz
x,y,z
-x,-y,-z
loop_
_atom_site_type_symbol
_atom_site_label
_atom_site_fract_x
_atom_site_fract_y
_atom_site_fract_z
Si Si1 0.698063 0.423058 0.400460
Si Si2 0.148502 0.950164 0.276772
Si Si3 0.678971 0.013942 0.922366
Si Si4 0.926003 0.725309 0.170724
Si Si5 0.228400 0.093994 0.639801
Si Si6 0.951358 0.354700 0.232748
Si Si7 0.319546 0.516254 0.044542
Si Si8 0.632538 0.753305 0.731416
O O1 0.785803 0.341723 0.278344
O O2 0.492063 0.499104 0.264267
O O3 0.594685 0.341425 0.433718
O O4 0.910143 0.517666 0.605807
O O5 0.132822 0.825772 0.286660
O O6 0.206715 0.929373 0.132478
O O7 0.298247 0.052120 0.498096
O O8 0.888643 0.001677 0.142775
O O9 0.577667 0.884327 0.758403
O O10 0.449968 0.080281 0.860498
O O11 0.840293 0.778111 0.302309
O O12 0.894351 0.587570 0.104259
O O13 0.745547 0.738921 0.945042
O O14 0.000000 0.000000 0.500000
O O15 0.159354 0.272240 0.279702
O O16 0.797372 0.368071 0.009561
O O17 0.500000 0.500000 0.000000
#
# Coordination Sequence:
#
# PCOD9104494 Si02
#       8
#     2   2   2   2   2   2   2   2
#     4   9  20  38  58  88 122 156 208 251 298 367
#     4   9  20  40  60  87 124 157 201 253 298 367
#     4  10  21  41  60  90 127 158 204 249 311 366
#     4   9  20  38  58  90 118 156 207 241 308 360
#     4  10  21  39  62  87 122 159 203 257 297 362
#     4  10  20  39  61  85 125 159 201 255 302 362
#     4   9  19  39  59  86 121 155 198 251 299 357
#     4  10  21  39  61  92 123 161 205 248 309 365
#
# _framework density 26.733314
#
# number of rings (size 3 to 8) (size 9 to 14) (size 15 to 20)
#    0.000    2.500    0.000    0.750    0.000    8.500 
#   31.500    3.750    0.000    0.000    0.000    0.000 
#    0.000    0.000    0.000    0.000    0.000    0.000 
#
# Total GULP energy -89360.898476 kJ/mol
# GULP energy per Si atom -5585.056155 kJ/mol
# Density = 2.667247 g / cm^3
# Si number density = 26.733314 Si / 1000 Ang^3
#
#
#
# Elastic Constant Matrix: (Units=GPa)
#
#
# Indices 1 2 3 4 5 6 
#
# 1 90.4508 19.7814 12.0437 6.6228 -13.0162 -2.8388
# 2 19.7814 72.8824 11.1370 -7.6379 -9.9891 10.2466
# 3 12.0437 11.1370 75.9855 -5.4335 3.7788 0.0937
# 4 6.6228 -7.6379 -5.4335 36.2482 -10.0915 -0.8275
# 5 -13.0162 -9.9891 3.7788 -10.0915 34.4320 4.6137
# 6 -2.8388 10.2466 0.0937 -0.8275 4.6137 33.0684
#
#
#
# Elastic Compliance Matrix: (Units=1/GPa)
#
#
# Indices 1 2 3 4 5 6 
#
# 1 0.012681 -0.003190 -0.001870 -0.002350 0.003173 0.001581
# 2 -0.003190 0.017259 -0.001940 0.005595 0.006510 -0.006384
# 3 -0.001870 -0.001940 0.013961 0.001344 -0.002513 0.000785
# 4 -0.002350 0.005595 0.001344 0.032228 0.010379 -0.002581
# 5 0.003173 0.006510 -0.002513 0.010379 0.036326 -0.006546
# 6 0.001581 -0.006384 0.000785 -0.002581 -0.006546 0.033201
#
#
# Mechanical properties :
#
#
# Convention : Reuss Voigt Hill
#
# Bulk Modulus (GPa) = 33.44279 36.13810 34.79044
# Shear Modulus (GPa) = 29.47742 33.84015 31.65879
#
# Velocity S-wave (km/s) = 3.32422 3.56173 3.44502
# Velocity P-wave (km/s) = 5.22215 5.51923 5.37274
#
# Compressibility (1/GPa) = 0.02990181
#
# Stress axis : x y z
#
# Youngs Moduli (GPa) = 78.86090 57.94087 71.62675
#
# Poissons Ratio (x) = 0.18480 0.13395
# Poissons Ratio (y) = 0.25153 0.13894
# Poissons Ratio (z) = 0.14748 0.11239
#
# Static dielectric constant tensor:
#      x y z
#    x 2.257300 -0.016300 0.045290 
#    y -0.016300 2.028920 -0.005350 
#    z 0.045290 -0.005350 2.103150 
# 
# From -- ./inp_files/391194.got.cif
#   From: 2010.05.17/outbox.cif.g08.bks.cpg/sg2_196_cif.got.tgz:391194.got - 2010.06.03 11:33:40.
