data_PCOD9104286
_publ_section_title
;
Structure prediction by ZEFSAII (Michael W. Deem and Ramdas Pophale) SiO2 
 PCOD9104286
Probable space group: P -1
;
_chemical_formula_sum "Si O2"
_cell_formula_units_Z 14
_cell_length_a 10.058542
_cell_length_b 7.230379
_cell_length_c 14.414804
_cell_angle_alpha 110.250778
_cell_angle_beta 66.676881
_cell_angle_gamma 147.792783
_cell_volume 512.960533
_symmetry_space_group_name_H-M "P -1"
_symmetry_group_IT_number 2
_symmetry_cell_setting 'triclinic'
loop_
_space_group_symop_operation_xyz
x,y,z
-x,-y,-z
loop_
_atom_site_type_symbol
_atom_site_label
_atom_site_fract_x
_atom_site_fract_y
_atom_site_fract_z
Si Si1 0.917744 0.237439 0.106441
Si Si2 0.869503 0.783581 0.308547
Si Si3 0.300304 0.648715 0.898868
Si Si4 0.283123 0.531322 0.318748
Si Si5 0.910105 0.330466 0.686165
Si Si6 0.468219 0.486872 0.897434
Si Si7 0.760432 0.577283 0.485868
O O1 0.693539 0.130463 0.110328
O O2 0.013157 0.446034 0.209821
O O3 0.822546 0.914734 0.102403
O O4 0.115097 0.451766 0.004681
O O5 0.099115 0.894507 0.301191
O O6 0.784470 0.589494 0.203248
O O7 0.657093 0.525170 0.403710
O O8 0.985485 0.130079 0.331897
O O9 0.530104 0.779262 0.900813
O O10 0.301709 0.779050 0.326658
O O11 0.392824 0.511767 0.206591
O O12 0.377588 0.591573 0.407052
O O13 0.122245 0.508567 0.582232
O O14 0.500000 0.500000 0.000000
O O15 0.000000 0.000000 0.500000
#
# Coordination Sequence:
#
# PCOD9104286 Si02
#       7
#     2   2   2   2   2   2   2
#     4  10  21  38  59  80 102 148 189 211 264 324
#     4   8  18  34  58  78 103 141 191 214 251 320
#     4  10  20  39  60  75 107 147 182 221 260 319
#     4  11  19  33  55  84 113 142 167 227 281 298
#     4   9  18  34  60  78 107 137 190 221 247 326
#     4  12  25  35  52  85 118 136 175 224 278 322
#     4   8  17  34  56  84 103 136 188 221 257 315
#
# _framework density 27.292546999999999
#
# number of rings (size 3 to 8) (size 9 to 14) (size 15 to 20)
#    0.857    1.429    0.000    3.429    0.000    1.714 
#    0.000    1.429    0.000    0.000    0.000    0.000 
#    0.000    0.000    0.000    0.000    0.000    0.000 
#
# Total GULP energy -78078.447225 kJ/mol
# GULP energy per Si atom -5577.031945 kJ/mol
# Density = 2.723043 g / cm^3
# Si number density = 27.292547 Si / 1000 Ang^3
#
#
#
# Elastic Constant Matrix: (Units=GPa)
#
#
# Indices 1 2 3 4 5 6 
#
# 1 116.6060 5.4835 45.1191 -15.4732 17.7505 -35.7237
# 2 5.4835 81.6084 29.9703 12.1991 6.9892 -16.3475
# 3 45.1191 29.9703 235.5498 8.4300 13.5636 -3.5163
# 4 -15.4732 12.1991 8.4300 33.2468 -5.1536 1.5368
# 5 17.7505 6.9892 13.5636 -5.1536 41.3272 -5.4523
# 6 -35.7237 -16.3475 -3.5163 1.5368 -5.4523 24.6661
#
#
#
# Elastic Compliance Matrix: (Units=1/GPa)
#
#
# Indices 1 2 3 4 5 6 
#
# 1 0.021944 0.006294 -0.004533 0.006913 -0.003645 0.034069
# 2 0.006294 0.017777 -0.002864 -0.004208 -0.002634 0.020169
# 3 -0.004533 -0.002864 0.005480 -0.002194 -0.000655 -0.007690
# 4 0.006913 -0.004208 -0.002194 0.035706 0.003640 0.005490
# 5 -0.003645 -0.002634 -0.000655 0.003640 0.026686 -0.001446
# 6 0.034069 0.020169 -0.007690 0.005490 -0.001446 0.101493
#
#
# Mechanical properties :
#
#
# Convention : Reuss Voigt Hill
#
# Bulk Modulus (GPa) = 23.25923 66.10113 44.68018
# Shear Modulus (GPa) = 22.16080 43.39411 32.77746
#
# Velocity S-wave (km/s) = 2.85260 3.99176 3.46926
# Velocity P-wave (km/s) = 4.40346 6.74667 5.69684
#
# Compressibility (1/GPa) = 0.04299368
#
# Stress axis : x y z
#
# Youngs Moduli (GPa) = 45.57138 56.25138 182.49690
#
# Poissons Ratio (x) = -0.35403 0.82725
# Poissons Ratio (y) = -0.28681 0.52269
# Poissons Ratio (z) = 0.20657 0.16111
#
# Static dielectric constant tensor:
#      x y z
#    x 2.196840 0.089010 -0.027650 
#    y 0.089010 2.127060 -0.035240 
#    z -0.027650 -0.035240 2.225640 
# 
# From -- ./inp_files/528814.got.cif
#   From: 2010.05.17/outbox.cif.g08.bks.cpg/sg2_265_cif.got.tgz:528814.got - 2010.06.03 11:33:40.
