data_PCOD9104973
_publ_section_title
;
Structure prediction by ZEFSAII (Michael W. Deem and Ramdas Pophale) SiO2 
 PCOD9104973
Probable space group: P -1
;
_chemical_formula_sum "Si O2"
_cell_formula_units_Z 14
_cell_length_a 22.437307
_cell_length_b 9.219666
_cell_length_c 12.376343
_cell_angle_alpha 40.087712
_cell_angle_beta 150.989837
_cell_angle_gamma 147.387372
_cell_volume 665.213836
_symmetry_space_group_name_H-M "P -1"
_symmetry_group_IT_number 2
_symmetry_cell_setting 'triclinic'
loop_
_space_group_symop_operation_xyz
x,y,z
-x,-y,-z
loop_
_atom_site_type_symbol
_atom_site_label
_atom_site_fract_x
_atom_site_fract_y
_atom_site_fract_z
Si Si1 0.816648 0.145014 0.973786
Si Si2 0.915385 0.177841 0.679996
Si Si3 0.409250 0.933716 0.177234
Si Si4 0.812115 0.609177 0.773093
Si Si5 0.179512 0.765832 0.739234
Si Si6 0.104028 0.166079 0.447940
Si Si7 0.244514 0.733385 0.432233
O O1 0.671682 0.980164 0.913743
O O2 0.891306 0.448328 0.970926
O O3 0.773714 0.169600 0.770191
O O4 0.936933 0.072363 0.210195
O O5 0.839809 0.197597 0.438236
O O6 0.828646 0.186758 0.638645
O O7 0.080564 0.445439 0.787679
O O8 0.900133 0.893812 0.809045
O O9 0.340961 0.622813 0.284028
O O10 0.582401 0.119046 0.354427
O O11 0.341078 0.904321 0.967420
O O12 0.794200 0.682925 0.581722
O O13 0.111708 0.907231 0.619159
O O14 0.169318 0.409099 0.497417
#
# Coordination Sequence:
#
# PCOD9104973 Si02
#       7
#     2   2   2   2   2   2   2
#     4   9  20  38  60  93 113 148 196 249 281 341
#     4  10  22  40  61  83 116 161 198 237 288 344
#     4  10  22  37  61  87 123 151 190 244 293 348
#     4   8  19  37  60  85 114 152 191 243 286 335
#     4  10  23  42  58  87 120 154 198 239 291 349
#     4  10  20  39  63  86 119 152 196 242 287 347
#     4  11  21  36  63  90 118 152 196 239 295 348
#
# _framework density 21.045864000000002
#
# number of rings (size 3 to 8) (size 9 to 14) (size 15 to 20)
#    0.857    1.429    0.000    3.000    2.000    4.571 
#    5.143    0.000    0.000    0.000    0.000    0.000 
#    0.000    0.000    0.000    0.000    0.000    0.000 
#
# Total GULP energy -78078.861656 kJ/mol
# GULP energy per Si atom -5577.061547 kJ/mol
# Density = 2.099796 g / cm^3
# Si number density = 21.045864 Si / 1000 Ang^3
#
#
#
# Elastic Constant Matrix: (Units=GPa)
#
#
# Indices 1 2 3 4 5 6 
#
# 1 88.0803 17.3773 34.4447 13.8254 -17.1005 -17.8370
# 2 17.3773 79.6415 35.8869 -3.2959 2.9777 -23.4046
# 3 34.4447 35.8869 105.5078 30.7312 -7.9496 -6.7717
# 4 13.8254 -3.2959 30.7312 37.4623 -0.4498 3.6775
# 5 -17.1005 2.9777 -7.9496 -0.4498 28.2427 -4.2735
# 6 -17.8370 -23.4046 -6.7717 3.6775 -4.2735 30.5369
#
#
#
# Elastic Compliance Matrix: (Units=1/GPa)
#
#
# Indices 1 2 3 4 5 6 
#
# 1 0.018071 0.000257 -0.002669 -0.005541 0.011967 0.012503
# 2 0.000257 0.020520 -0.008609 0.007494 -0.002385 0.012733
# 3 -0.002669 -0.008609 0.017448 -0.013834 0.003663 -0.002110
# 4 -0.005541 0.007494 -0.013834 0.041304 -0.008396 -0.006709
# 5 0.011967 -0.002385 0.003663 -0.008396 0.045830 0.013399
# 6 0.012503 0.012733 -0.002110 -0.006709 0.013399 0.052024
#
#
# Mechanical properties :
#
#
# Convention : Reuss Voigt Hill
#
# Bulk Modulus (GPa) = 29.41400 49.84971 39.63186
# Shear Modulus (GPa) = 21.87498 31.61642 26.74570
#
# Velocity S-wave (km/s) = 3.22746 3.88011 3.56874
# Velocity P-wave (km/s) = 5.28159 6.61901 5.98776
#
# Compressibility (1/GPa) = 0.03399742
#
# Stress axis : x y z
#
# Youngs Moduli (GPa) = 55.33618 48.73182 57.31440
#
# Poissons Ratio (x) = -0.01254 0.15299
# Poissons Ratio (y) = -0.01424 0.49342
# Poissons Ratio (z) = 0.14771 0.41953
#
# Static dielectric constant tensor:
#      x y z
#    x 1.787360 0.010720 -0.058340 
#    y 0.010720 1.779250 -0.034600 
#    z -0.058340 -0.034600 1.773220 
# 
# From -- ./inp_files/469871.got.cif
#   From: 2010.05.17/outbox.cif.g08.bks.cpg/sg2_235_cif.got.tgz:469871.got - 2010.06.03 11:33:40.
