data_PCOD9104992
_publ_section_title
;
Structure prediction by ZEFSAII (Michael W. Deem and Ramdas Pophale) SiO2 
 PCOD9104992
Probable space group: P -1
;
_chemical_formula_sum "Si O2"
_cell_formula_units_Z 16
_cell_length_a 9.358553
_cell_length_b 12.879761
_cell_length_c 11.753084
_cell_angle_alpha 95.981784
_cell_angle_beta 36.735324
_cell_angle_gamma 85.966560
_cell_volume 814.048734
_symmetry_space_group_name_H-M "P -1"
_symmetry_group_IT_number 2
_symmetry_cell_setting 'triclinic'
loop_
_space_group_symop_operation_xyz
x,y,z
-x,-y,-z
loop_
_atom_site_type_symbol
_atom_site_label
_atom_site_fract_x
_atom_site_fract_y
_atom_site_fract_z
Si Si1 0.725197 0.009062 0.129203
Si Si2 0.305267 0.177319 0.562880
Si Si3 0.457701 0.382174 0.155117
Si Si4 0.558757 0.798061 0.266355
Si Si5 0.220036 0.855298 0.097876
Si Si6 0.894691 0.125179 0.572503
Si Si7 0.936314 0.683419 0.463376
Si Si8 0.469478 0.397361 0.889938
O O1 0.523932 0.093107 0.346051
O O2 0.680301 0.890118 0.150274
O O3 0.702571 0.058297 0.021686
O O4 0.000000 0.000000 0.000000
O O5 0.390462 0.208975 0.633702
O O6 0.177704 0.284921 0.584450
O O7 0.076403 0.123740 0.720729
O O8 0.219998 0.385921 0.382989
O O9 0.582693 0.480174 0.106335
O O10 0.644766 0.265325 0.043827
O O11 0.372228 0.392028 0.078922
O O12 0.269742 0.845342 0.429792
O O13 0.615583 0.684930 0.148825
O O14 0.263948 0.849890 0.205577
O O15 0.093364 0.195532 0.453182
O O16 0.000000 0.000000 0.500000
O O17 0.230104 0.636057 0.285506
#
# Coordination Sequence:
#
# PCOD9104992 Si02
#       8
#     2   2   2   2   2   2   2   2
#     4  12  25  38  65  89 120 168 201 238 304 374
#     4  11  22  40  61  87 128 160 192 251 303 362
#     4  11  20  41  69  86 119 160 211 240 303 356
#     4  11  22  40  58  91 127 154 200 251 304 347
#     4  11  22  41  63  89 118 166 204 238 305 365
#     4  10  22  37  57  90 126 154 193 258 304 343
#     4  10  20  39  63  87 118 164 199 238 304 363
#     4  10  23  41  63  92 121 157 199 262 294 348
#
# _framework density 19.654843
#
# number of rings (size 3 to 8) (size 9 to 14) (size 15 to 20)
#    0.000    1.250    6.250    2.250    1.750    1.500 
#    2.250    1.250    0.000    0.000    0.000    0.000 
#    0.000    0.000    0.000    0.000    0.000    0.000 
#
# Total GULP energy -89228.040664 kJ/mol
# GULP energy per Si atom -5576.752542 kJ/mol
# Density = 1.961011 g / cm^3
# Si number density = 19.654843 Si / 1000 Ang^3
#
#
#
# Elastic Constant Matrix: (Units=GPa)
#
#
# Indices 1 2 3 4 5 6 
#
# 1 107.7883 22.4616 29.6225 -11.3524 4.7224 9.3139
# 2 22.4616 110.8595 19.7046 -8.5273 13.6124 3.2974
# 3 29.6225 19.7046 72.0259 -12.5462 11.7907 -1.8436
# 4 -11.3524 -8.5273 -12.5462 32.1133 -9.8698 3.1264
# 5 4.7224 13.6124 11.7907 -9.8698 24.5558 3.8603
# 6 9.3139 3.2974 -1.8436 3.1264 3.8603 24.3871
#
#
#
# Elastic Compliance Matrix: (Units=1/GPa)
#
#
# Indices 1 2 3 4 5 6 
#
# 1 0.011476 -0.001491 -0.004337 0.003388 0.002913 -0.005405
# 2 -0.001491 0.010152 -0.001382 0.000255 -0.004540 -0.000222
# 3 -0.004337 -0.001382 0.017657 0.002650 -0.006419 0.003854
# 4 0.003388 0.000255 0.002650 0.038836 0.014874 -0.008461
# 5 0.002913 -0.004540 -0.006419 0.014874 0.053527 -0.011364
# 6 -0.005405 -0.000222 0.003854 -0.008461 -0.011364 0.046275
#
#
# Mechanical properties :
#
#
# Convention : Reuss Voigt Hill
#
# Bulk Modulus (GPa) = 40.21781 48.25012 44.23397
# Shear Modulus (GPa) = 24.92145 30.80357 27.86251
#
# Velocity S-wave (km/s) = 3.56470 3.96311 3.76917
# Velocity P-wave (km/s) = 6.11958 6.74861 6.44178
#
# Compressibility (1/GPa) = 0.02486460
#
# Stress axis : x y z
#
# Youngs Moduli (GPa) = 87.13629 98.50459 56.63538
#
# Poissons Ratio (x) = 0.14684 0.24564
# Poissons Ratio (y) = 0.12989 0.07829
# Poissons Ratio (z) = 0.37792 0.13616
#
# Static dielectric constant tensor:
#      x y z
#    x 1.704110 -0.013580 -0.001110 
#    y -0.013580 1.740110 0.033720 
#    z -0.001110 0.033720 1.737490 
# 
# From -- ./inp_files/390335.got.cif
#   From: 2010.05.17/outbox.cif.g08.bks.cpg/sg2_196_cif.got.tgz:390335.got - 2010.06.03 11:33:40.
