data_PCOD9104084
_publ_section_title
;
Structure prediction by ZEFSAII (Michael W. Deem and Ramdas Pophale) SiO2 
 PCOD9104084
Probable space group: P -1
;
_chemical_formula_sum "Si O2"
_cell_formula_units_Z 12
_cell_length_a 10.147485
_cell_length_b 9.749454
_cell_length_c 11.436555
_cell_angle_alpha 37.237669
_cell_angle_beta 140.506411
_cell_angle_gamma 132.343430
_cell_volume 430.257849
_symmetry_space_group_name_H-M "P -1"
_symmetry_group_IT_number 2
_symmetry_cell_setting 'triclinic'
loop_
_space_group_symop_operation_xyz
x,y,z
-x,-y,-z
loop_
_atom_site_type_symbol
_atom_site_label
_atom_site_fract_x
_atom_site_fract_y
_atom_site_fract_z
Si Si1 0.315271 0.945516 0.512032
Si Si2 0.863197 0.746289 0.998195
Si Si3 0.715737 0.881642 0.377582
Si Si4 0.759014 0.543827 0.292752
Si Si5 0.903538 0.344736 0.147120
Si Si6 0.657430 0.310663 0.600337
O O1 0.220164 0.979659 0.550707
O O2 0.342305 0.686610 0.686304
O O3 0.468633 0.882910 0.440589
O O4 0.172522 0.050052 0.249658
O O5 0.110288 0.739206 0.185945
O O6 0.785442 0.511027 0.032490
O O7 0.765958 0.738903 0.067279
O O8 0.759710 0.104799 0.173716
O O9 0.886242 0.712228 0.605107
O O10 0.488815 0.739912 0.350166
O O11 0.670124 0.535712 0.369963
O O12 0.000000 0.500000 0.500000
O O13 0.000000 0.500000 0.000000
#
# Coordination Sequence:
#
# PCOD9104084 Si02
#       6
#     2   2   2   2   2   2
#     4  10  20  39  57  84 117 153 189 234 291 332
#     4  11  21  37  63  86 117 154 191 236 287 343
#     4   9  21  37  58  82 117 150 187 241 282 335
#     4  10  21  38  61  87 118 152 192 239 284 343
#     4  11  19  37  63  84 112 156 193 231 294 339
#     4   9  21  39  57  88 118 150 192 239 283 342
#
# _framework density 27.890250000000002
#
# number of rings (size 3 to 8) (size 9 to 14) (size 15 to 20)
#    1.000    1.000    3.333    0.500    0.000    4.000 
#    0.000   12.500    0.000    0.000    0.000    0.000 
#    0.000    0.000    0.000    0.000    0.000    0.000 
#
# Total GULP energy -67021.464787 kJ/mol
# GULP energy per Si atom -5585.122066 kJ/mol
# Density = 2.782677 g / cm^3
# Si number density = 27.890250 Si / 1000 Ang^3
#
#
#
# Elastic Constant Matrix: (Units=GPa)
#
#
# Indices 1 2 3 4 5 6 
#
# 1 118.5766 -9.8650 31.3321 -4.9415 -24.0837 30.0208
# 2 -9.8650 69.1567 25.0030 0.1332 -2.1752 10.4402
# 3 31.3321 25.0030 113.0480 -2.6905 -15.3306 11.6005
# 4 -4.9415 0.1332 -2.6905 53.6035 6.0402 6.2390
# 5 -24.0837 -2.1752 -15.3306 6.0402 41.6253 -7.3123
# 6 30.0208 10.4402 11.6005 6.2390 -7.3123 46.0569
#
#
#
# Elastic Compliance Matrix: (Units=1/GPa)
#
#
# Indices 1 2 3 4 5 6 
#
# 1 0.012574 0.004179 -0.002917 0.001367 0.004846 -0.007824
# 2 0.004179 0.017491 -0.004349 0.000701 0.000647 -0.005586
# 3 -0.002917 -0.004349 0.010859 -0.000016 0.002175 0.000499
# 4 0.001367 0.000701 -0.000016 0.019569 -0.002744 -0.004132
# 5 0.004846 0.000647 0.002175 -0.002744 0.028237 0.001001
# 6 -0.007824 -0.005586 0.000499 -0.004132 0.001001 0.028671
#
#
# Mechanical properties :
#
#
# Convention : Reuss Voigt Hill
#
# Bulk Modulus (GPa) = 28.77623 43.74682 36.26152
# Shear Modulus (GPa) = 36.99369 45.21122 41.10246
#
# Velocity S-wave (km/s) = 3.64593 4.03058 3.84307
# Velocity P-wave (km/s) = 5.29753 6.11393 5.72032
#
# Compressibility (1/GPa) = 0.03475091
#
# Stress axis : x y z
#
# Youngs Moduli (GPa) = 79.52925 57.17333 92.08645
#
# Poissons Ratio (x) = -0.23894 0.26858
# Poissons Ratio (y) = -0.33236 0.40049
# Poissons Ratio (z) = 0.23196 0.24865
#
# Static dielectric constant tensor:
#      x y z
#    x 2.371010 0.050010 -0.058910 
#    y 0.050010 2.343680 -0.011290 
#    z -0.058910 -0.011290 2.111460 
# 
# From -- ./inp_files/518615.got.cif
#   From: 2010.05.17/outbox.cif.g08.bks.cpg/sg2_260_cif.got.tgz:518615.got - 2010.06.03 11:33:40.
