data_PCOD9104972
_publ_section_title
;
Structure prediction by ZEFSAII (Michael W. Deem and Ramdas Pophale) SiO2 
 PCOD9104972
Probable space group: P -1
;
_chemical_formula_sum "Si O2"
_cell_formula_units_Z 16
_cell_length_a 21.234351
_cell_length_b 11.640801
_cell_length_c 7.338286
_cell_angle_alpha 36.006760
_cell_angle_beta 139.616770
_cell_angle_gamma 139.766111
_cell_volume 637.201821
_symmetry_space_group_name_H-M "P -1"
_symmetry_group_IT_number 2
_symmetry_cell_setting 'triclinic'
loop_
_space_group_symop_operation_xyz
x,y,z
-x,-y,-z
loop_
_atom_site_type_symbol
_atom_site_label
_atom_site_fract_x
_atom_site_fract_y
_atom_site_fract_z
Si Si1 0.512781 0.891095 0.984780
Si Si2 0.612384 0.694179 0.229545
Si Si3 0.180673 0.908592 0.921547
Si Si4 0.587300 0.326566 0.427679
Si Si5 0.978869 0.150584 0.049178
Si Si6 0.034000 0.601809 0.745864
Si Si7 0.125884 0.193781 0.016501
Si Si8 0.284077 0.609438 0.698277
O O1 0.395308 0.763812 0.821635
O O2 0.577224 0.090135 0.741968
O O3 0.578017 0.743407 0.289481
O O4 0.500000 0.000000 0.000000
O O5 0.604539 0.457721 0.483250
O O6 0.520592 0.697582 0.882441
O O7 0.721946 0.872293 0.178828
O O8 0.215678 0.751523 0.329750
O O9 0.146108 0.781924 0.815785
O O10 0.083561 0.929631 0.795146
O O11 0.685864 0.451695 0.355698
O O12 0.020855 0.405750 0.838142
O O13 0.082079 0.134715 0.200011
O O14 0.890646 0.008611 0.888346
O O15 0.954229 0.707670 0.373445
O O16 0.000000 0.500000 0.000000
O O17 0.233102 0.396269 0.975878
#
# Coordination Sequence:
#
# PCOD9104972 Si02
#       8
#     2   2   2   2   2   2   2   2
#     4  11  23  40  60  91 122 151 189 245 298 352
#     4  10  20  39  63  86 117 151 199 238 287 348
#     4  11  20  38  61  90 115 158 198 242 288 344
#     4  10  20  39  64  86 113 155 196 242 285 350
#     4  10  23  39  59  84 123 158 195 238 296 344
#     4  10  21  36  56  84 114 150 198 242 284 333
#     4  11  22  41  59  86 121 160 192 244 291 346
#     4  11  20  39  64  84 116 159 200 234 295 350
#
# _framework density 25.109781999999999
#
# number of rings (size 3 to 8) (size 9 to 14) (size 15 to 20)
#    0.000    1.500    5.000    1.875    0.000    3.500 
#    2.250    1.250    0.000    0.000    0.000    0.000 
#    0.000    0.000    0.000    0.000    0.000    0.000 
#
# Total GULP energy -89318.247339 kJ/mol
# GULP energy per Si atom -5582.390459 kJ/mol
# Density = 2.505263 g / cm^3
# Si number density = 25.109782 Si / 1000 Ang^3
#
#
#
# Elastic Constant Matrix: (Units=GPa)
#
#
# Indices 1 2 3 4 5 6 
#
# 1 155.6161 69.8534 24.9496 -9.2068 2.5534 -12.3174
# 2 69.8534 170.9446 31.7953 -24.7552 18.8566 -9.7833
# 3 24.9496 31.7953 61.8383 -0.9878 6.4023 -3.8741
# 4 -9.2068 -24.7552 -0.9878 25.5327 1.0140 6.1729
# 5 2.5534 18.8566 6.4023 1.0140 38.0004 -7.8385
# 6 -12.3174 -9.7833 -3.8741 6.1729 -7.8385 60.2736
#
#
#
# Elastic Compliance Matrix: (Units=1/GPa)
#
#
# Indices 1 2 3 4 5 6 
#
# 1 0.008190 -0.003215 -0.001747 -0.000614 0.001627 0.001314
# 2 -0.003215 0.009320 -0.002968 0.008106 -0.004273 -0.000721
# 3 -0.001747 -0.002968 0.018527 -0.002850 -0.001359 0.000467
# 4 -0.000614 0.008106 -0.002850 0.048048 -0.005744 -0.004661
# 5 0.001627 -0.004273 -0.001359 -0.005744 0.029530 0.003980
# 6 0.001314 -0.000721 0.000467 -0.004661 0.003980 0.017767
#
#
# Mechanical properties :
#
#
# Convention : Reuss Voigt Hill
#
# Bulk Modulus (GPa) = 49.56385 71.28841 60.42613
# Shear Modulus (GPa) = 32.47431 42.21472 37.34452
#
# Velocity S-wave (km/s) = 3.60014 4.10470 3.86067
# Velocity P-wave (km/s) = 6.08794 7.13562 6.63250
#
# Compressibility (1/GPa) = 0.02017600
#
# Stress axis : x y z
#
# Youngs Moduli (GPa) = 122.09460 107.30119 53.97624
#
# Poissons Ratio (x) = 0.34497 0.09432
# Poissons Ratio (y) = 0.39253 0.16020
# Poissons Ratio (z) = 0.21335 0.31846
#
# Static dielectric constant tensor:
#      x y z
#    x 2.079600 -0.010710 -0.025200 
#    y -0.010710 1.984680 0.009090 
#    z -0.025200 0.009090 2.045630 
# 
# From -- ./inp_files/345004.got.cif
#   From: 2010.05.17/outbox.cif.g08.bks.cpg/sg2_173_cif.got.tgz:345004.got - 2010.06.03 11:33:40.
