data_PCOD9104104
_publ_section_title
;
Structure prediction by ZEFSAII (Michael W. Deem and Ramdas Pophale) SiO2 
 PCOD9104104
Probable space group: P -1
;
_chemical_formula_sum "Si O2"
_cell_formula_units_Z 16
_cell_length_a 13.645999
_cell_length_b 19.659178
_cell_length_c 22.748772
_cell_angle_alpha 19.721210
_cell_angle_beta 151.128133
_cell_angle_gamma 158.192585
_cell_volume 764.951496
_symmetry_space_group_name_H-M "P -1"
_symmetry_group_IT_number 2
_symmetry_cell_setting 'triclinic'
loop_
_space_group_symop_operation_xyz
x,y,z
-x,-y,-z
loop_
_atom_site_type_symbol
_atom_site_label
_atom_site_fract_x
_atom_site_fract_y
_atom_site_fract_z
Si Si1 0.531182 0.500456 0.749212
Si Si2 0.706984 0.392161 0.812276
Si Si3 0.186337 0.008640 0.778096
Si Si4 0.966602 0.285168 0.615835
Si Si5 0.561357 0.314004 0.158970
Si Si6 0.733684 0.310284 0.367408
Si Si7 0.363304 0.420042 0.130553
Si Si8 0.968979 0.053755 0.507765
O O1 0.648803 0.453264 0.795432
O O2 0.611073 0.476977 0.874545
O O3 0.219247 0.307518 0.738694
O O4 0.667819 0.809435 0.565627
O O5 0.933254 0.656608 0.681447
O O6 0.444727 0.255261 0.745797
O O7 0.778433 0.208298 0.014991
O O8 0.907744 0.880360 0.768190
O O9 0.140074 0.047482 0.654077
O O10 0.963577 0.370097 0.479069
O O11 0.000000 0.500000 0.500000
O O12 0.698103 0.990669 0.725892
O O13 0.778135 0.372632 0.271231
O O14 0.500000 0.500000 0.000000
O O15 0.644827 0.408842 0.059964
O O16 0.608706 0.429874 0.235497
O O17 0.500000 0.000000 0.500000
O O18 0.000000 0.000000 0.500000
#
# Coordination Sequence:
#
# PCOD9104104 Si02
#       8
#     2   2   2   2   2   2   2   2
#     4  10  22  37  62  87 121 160 195 247 303 361
#     4  10  22  41  63  89 120 157 203 257 308 358
#     4  10  22  39  65  90 120 156 205 255 301 368
#     4  11  21  38  60  88 123 157 204 248 297 360
#     4   9  21  38  60  83 122 161 201 246 298 358
#     4   9  19  37  59  82 120 162 194 242 297 355
#     4  10  20  39  57  89 119 158 197 244 302 359
#     4   9  20  40  63  86 121 155 199 247 311 360
#
# _framework density 20.916357999999999
#
# number of rings (size 3 to 8) (size 9 to 14) (size 15 to 20)
#    0.000    2.250    1.250    0.375    5.250    6.000 
#    2.250    6.250    0.000    0.000    0.000    0.000 
#    0.000    0.000    0.000    0.000    0.000    0.000 
#
# Total GULP energy -89167.593472 kJ/mol
# GULP energy per Si atom -5572.974592 kJ/mol
# Density = 2.086875 g / cm^3
# Si number density = 20.916358 Si / 1000 Ang^3
#
#
#
# Elastic Constant Matrix: (Units=GPa)
#
#
# Indices 1 2 3 4 5 6 
#
# 1 76.0596 36.9594 40.7802 6.8285 -29.9666 -18.4393
# 2 36.9594 83.7538 27.5664 5.7207 -16.1688 -24.7271
# 3 40.7802 27.5664 91.0924 0.8531 -26.7573 -23.0323
# 4 6.8285 5.7207 0.8531 33.0382 -11.5878 -7.1921
# 5 -29.9666 -16.1688 -26.7573 -11.5878 40.9913 13.2492
# 6 -18.4393 -24.7271 -23.0323 -7.1921 13.2492 30.0497
#
#
#
# Elastic Compliance Matrix: (Units=1/GPa)
#
#
# Indices 1 2 3 4 5 6 
#
# 1 0.023556 -0.006446 -0.005210 0.000406 0.011305 0.000270
# 2 -0.006446 0.017885 -0.000031 0.000262 -0.001277 0.011364
# 3 -0.005210 -0.000031 0.017144 0.004550 0.005946 0.008385
# 4 0.000406 0.000262 0.004550 0.035521 0.010946 0.007628
# 5 0.011305 -0.001277 0.005946 0.010946 0.040711 -0.004886
# 6 0.000270 0.011364 0.008385 0.007628 -0.004886 0.053202
#
#
# Mechanical properties :
#
#
# Convention : Reuss Voigt Hill
#
# Bulk Modulus (GPa) = 28.39956 51.27974 39.83965
# Shear Modulus (GPa) = 22.40856 30.52248 26.46552
#
# Velocity S-wave (km/s) = 3.27669 3.82418 3.56097
# Velocity P-wave (km/s) = 5.28420 6.63844 5.99965
#
# Compressibility (1/GPa) = 0.03521181
#
# Stress axis : x y z
#
# Youngs Moduli (GPa) = 42.45190 55.91294 58.33069
#
# Poissons Ratio (x) = 0.36040 0.30389
# Poissons Ratio (y) = 0.27363 0.00180
# Poissons Ratio (z) = 0.22117 0.00173
#
# Static dielectric constant tensor:
#      x y z
#    x 1.759040 -0.020290 -0.004540 
#    y -0.020290 1.742820 0.000350 
#    z -0.004540 0.000350 1.771810 
# 
# From -- ./inp_files/355564.got.cif
#   From: 2010.05.17/outbox.cif.g08.bks.cpg/sg2_178_cif.got.tgz:355564.got - 2010.06.03 11:33:40.
