data_PCOD9104017
_publ_section_title
;
Structure prediction by ZEFSAII (Michael W. Deem and Ramdas Pophale) SiO2 
 PCOD9104017
Probable space group: P -1
;
_chemical_formula_sum "Si O2"
_cell_formula_units_Z 15
_cell_length_a 18.259464
_cell_length_b 4.870172
_cell_length_c 8.141134
_cell_angle_alpha 80.401970
_cell_angle_beta 124.576401
_cell_angle_gamma 94.989270
_cell_volume 587.720389
_symmetry_space_group_name_H-M "P -1"
_symmetry_group_IT_number 2
_symmetry_cell_setting 'triclinic'
loop_
_space_group_symop_operation_xyz
x,y,z
-x,-y,-z
loop_
_atom_site_type_symbol
_atom_site_label
_atom_site_fract_x
_atom_site_fract_y
_atom_site_fract_z
Si Si1 0.320753 0.951970 0.080403
Si Si2 0.866386 0.521352 0.474693
Si Si3 0.981405 0.719625 0.097715
Si Si4 0.437206 0.407507 0.283704
Si Si5 0.433677 0.857297 0.797759
Si Si6 0.000000 0.000000 0.500000
Si Si7 0.314924 0.315169 0.702683
Si Si8 0.149704 0.654467 0.885002
O O1 0.364783 0.167069 0.241174
O O2 0.501570 0.260245 0.248057
O O3 0.305685 0.131147 0.876391
O O4 0.231617 0.813395 0.048802
O O5 0.945477 0.315891 0.658187
O O6 0.784249 0.584902 0.482017
O O7 0.825221 0.399683 0.268028
O O8 0.916959 0.795700 0.458798
O O9 0.885100 0.629869 0.050978
O O10 0.000000 0.500000 0.000000
O O11 0.000000 0.000000 0.000000
O O12 0.500000 0.500000 0.500000
O O13 0.385492 0.692659 0.146604
O O14 0.636150 0.889366 0.343079
O O15 0.375295 0.583442 0.788288
O O16 0.500000 0.000000 0.000000
O O17 0.938694 0.159431 0.264208
#
# Coordination Sequence:
#
# PCOD9104017 Si02
#       8
#     2   2   2   2   2   1   2   2
#     4  12  25  45  81 115 148 198 271 328 388 466
#     4  11  25  44  77 113 154 201 268 323 387 462
#     4  11  28  47  74 108 163 212 248 312 395 474
#     4  12  28  50  75 108 159 212 256 313 406 498
#     4  12  26  44  76 112 152 194 255 320 402 454
#     4  10  20  38  72 112 148 194 252 324 390 444
#     4  12  25  43  77 118 148 188 263 343 382 443
#     4  11  25  44  79 114 152 203 273 326 384 468
#
# _framework density 25.52234
#
# number of rings (size 3 to 8) (size 9 to 14) (size 15 to 20)
#    0.000    0.533    2.667    5.600    7.467    0.000 
#    2.400    0.000    8.800    0.000    0.000    0.000 
#    0.000    0.000    0.000    0.000    0.000    0.000 
#
# Total GULP energy -83793.946098 kJ/mol
# GULP energy per Si atom -5586.263073 kJ/mol
# Density = 2.546425 g / cm^3
# Si number density = 25.522340 Si / 1000 Ang^3
#
#
#
# Elastic Constant Matrix: (Units=GPa)
#
#
# Indices 1 2 3 4 5 6 
#
# 1 110.2140 67.7503 36.5101 6.2538 28.3057 -0.2492
# 2 67.7503 244.0295 57.6399 20.0627 17.4061 13.9655
# 3 36.5101 57.6399 60.1621 20.6930 2.2921 13.7596
# 4 6.2538 20.0627 20.6930 42.9680 -0.8021 3.8945
# 5 28.3057 17.4061 2.2921 -0.8021 38.9118 8.7705
# 6 -0.2492 13.9655 13.7596 3.8945 8.7705 57.7968
#
#
#
# Elastic Compliance Matrix: (Units=1/GPa)
#
#
# Indices 1 2 3 4 5 6 
#
# 1 0.016089 -0.001910 -0.009328 0.002444 -0.011216 0.004289
# 2 -0.001910 0.005700 -0.004066 -0.000418 -0.000872 -0.000257
# 3 -0.009328 -0.004066 0.031255 -0.011011 0.008112 -0.006987
# 4 0.002444 -0.000418 -0.011011 0.028322 -0.000564 0.000910
# 5 -0.011216 -0.000872 0.008112 -0.000564 0.035358 -0.007096
# 6 0.004289 -0.000257 -0.006987 0.000910 -0.007096 0.020062
#
#
# Mechanical properties :
#
#
# Convention : Reuss Voigt Hill
#
# Bulk Modulus (GPa) = 44.57316 82.02291 63.29803
# Shear Modulus (GPa) = 28.59228 44.76901 36.68064
#
# Velocity S-wave (km/s) = 3.35070 4.19275 3.79515
# Velocity P-wave (km/s) = 5.69841 7.45965 6.63770
#
# Compressibility (1/GPa) = 0.02243503
#
# Stress axis : x y z
#
# Youngs Moduli (GPa) = 62.15409 175.44701 31.99521
#
# Poissons Ratio (x) = 0.33507 0.29847
# Poissons Ratio (y) = 0.11870 0.13009
# Poissons Ratio (z) = 0.57980 0.71335
#
# Static dielectric constant tensor:
#      x y z
#    x 2.092930 0.001250 -0.023400 
#    y 0.001250 1.999190 -0.062000 
#    z -0.023400 -0.062000 2.051850 
# 
# From -- ./inp_files/140931.got.cif
#   From: 2010.05.17/outbox.cif.g08.bks.cpg/sg2_71_cif.got.tgz:140931.got - 2010.06.03 11:33:40.
