data_PCOD9104000
_publ_section_title
;
Structure prediction by ZEFSAII (Michael W. Deem and Ramdas Pophale) SiO2 
 PCOD9104000
Probable space group: P -1
;
_chemical_formula_sum "Si O2"
_cell_formula_units_Z 10
_cell_length_a 9.251355
_cell_length_b 7.566719
_cell_length_c 9.850150
_cell_angle_alpha 52.427358
_cell_angle_beta 114.494539
_cell_angle_gamma 79.631862
_cell_volume 397.842236
_symmetry_space_group_name_H-M "P -1"
_symmetry_group_IT_number 2
_symmetry_cell_setting 'triclinic'
loop_
_space_group_symop_operation_xyz
x,y,z
-x,-y,-z
loop_
_atom_site_type_symbol
_atom_site_label
_atom_site_fract_x
_atom_site_fract_y
_atom_site_fract_z
Si Si1 0.765493 0.160660 0.307512
Si Si2 0.753421 0.973496 0.670614
Si Si3 0.404039 0.801622 0.202439
Si Si4 0.232878 0.557366 0.068475
Si Si5 0.769822 0.746623 0.299018
O O1 0.686865 0.167161 0.422022
O O2 0.736787 0.970051 0.290509
O O3 0.699287 0.424345 0.065560
O O4 0.000000 0.000000 0.500000
O O5 0.719109 0.738777 0.745134
O O6 0.649623 0.139696 0.689270
O O7 0.992730 0.790286 0.867262
O O8 0.315901 0.658925 0.163337
O O9 0.635276 0.652341 0.333697
O O10 0.299384 0.098369 0.945006
O O11 0.000000 0.500000 0.500000
#
# Coordination Sequence:
#
# PCOD9104000 Si02
#       5
#     2   2   2   2   2
#     4   9  20  40  62  97 129 174 220 271 331 395
#     4  10  20  38  71  95 135 174 222 274 332 397
#     4  10  22  43  65  98 133 177 223 276 331 403
#     4   9  20  39  65  99 134 177 215 272 341 388
#     4  10  23  42  66  94 137 173 221 282 335 392
#
# _framework density 25.135591000000002
#
# number of rings (size 3 to 8) (size 9 to 14) (size 15 to 20)
#    0.000    2.400    0.000    0.600    8.400    0.800 
#    3.600    4.000    0.000    0.000    0.000    0.000 
#    0.000    0.000    0.000    0.000    0.000    0.000 
#
# Total GULP energy -56124.366392 kJ/mol
# GULP energy per Si atom -5612.436639 kJ/mol
# Density = 2.507838 g / cm^3
# Si number density = 25.135591 Si / 1000 Ang^3
#
#
#
# Elastic Constant Matrix: (Units=GPa)
#
#
# Indices 1 2 3 4 5 6 
#
# 1 190.3839 78.1963 83.0838 11.3164 -12.9445 3.1183
# 2 78.1963 129.8495 55.9849 21.0812 -21.7017 11.1072
# 3 83.0838 55.9849 148.5091 12.5856 -23.1809 -25.8555
# 4 11.3164 21.0812 12.5856 37.9171 -14.9427 1.2411
# 5 -12.9445 -21.7017 -23.1809 -14.9427 57.7361 11.1656
# 6 3.1183 11.1072 -25.8555 1.2411 11.1656 51.5351
#
#
#
# Elastic Compliance Matrix: (Units=1/GPa)
#
#
# Indices 1 2 3 4 5 6 
#
# 1 0.008225 -0.003387 -0.003712 0.000518 -0.000488 -0.001537
# 2 -0.003387 0.012367 -0.002794 -0.003757 0.002635 -0.004343
# 3 -0.003712 -0.002794 0.011199 -0.000781 0.001212 0.006201
# 4 0.000518 -0.003757 -0.000781 0.031330 0.006857 -0.001854
# 5 -0.000488 0.002635 0.001212 0.006857 0.021377 -0.004727
# 6 -0.001537 -0.004343 0.006201 -0.001854 -0.004727 0.024613
#
#
# Mechanical properties :
#
#
# Convention : Reuss Voigt Hill
#
# Bulk Modulus (GPa) = 83.29894 100.36363 91.83128
# Shear Modulus (GPa) = 37.62279 46.20282 41.91281
#
# Velocity S-wave (km/s) = 3.87304 4.29201 4.08789
# Velocity P-wave (km/s) = 7.29468 8.03600 7.67430
#
# Compressibility (1/GPa) = 0.01200495
#
# Stress axis : x y z
#
# Youngs Moduli (GPa) = 121.58288 80.85970 89.29524
#
# Poissons Ratio (x) = 0.27385 0.33150
# Poissons Ratio (y) = 0.41177 0.24947
# Poissons Ratio (z) = 0.45136 0.22590
#
# Static dielectric constant tensor:
#      x y z
#    x 2.013170 -0.010550 0.027120 
#    y -0.010550 1.909780 -0.048250 
#    z 0.027120 -0.048250 2.013510 
# 
# From -- ./inp_files/143960.got.cif
#   From: 2010.05.17/outbox.cif.g08.bks.cpg/sg2_72_cif.got.tgz:143960.got - 2010.06.03 11:33:40.
