data_PCOD9104714
_publ_section_title
;
Structure prediction by ZEFSAII (Michael W. Deem and Ramdas Pophale) SiO2 
 PCOD9104714
Probable space group: P -1
;
_chemical_formula_sum "Si O2"
_cell_formula_units_Z 16
_cell_length_a 14.538784
_cell_length_b 10.804718
_cell_length_c 8.501681
_cell_angle_alpha 125.782041
_cell_angle_beta 57.952297
_cell_angle_gamma 137.113274
_cell_volume 724.580995
_symmetry_space_group_name_H-M "P -1"
_symmetry_group_IT_number 2
_symmetry_cell_setting 'triclinic'
loop_
_space_group_symop_operation_xyz
x,y,z
-x,-y,-z
loop_
_atom_site_type_symbol
_atom_site_label
_atom_site_fract_x
_atom_site_fract_y
_atom_site_fract_z
Si Si1 0.396043 0.285424 0.599573
Si Si2 0.687094 0.642846 0.595672
Si Si3 0.783986 0.385607 0.354334
Si Si4 0.005608 0.347591 0.084750
Si Si5 0.496316 0.950382 0.783990
Si Si6 0.769366 0.303409 0.673304
Si Si7 0.130328 0.927046 0.692639
Si Si8 0.950584 0.005037 0.719418
O O1 0.531916 0.489435 0.687126
O O2 0.328424 0.319450 0.543070
O O3 0.452446 0.178603 0.388574
O O4 0.277939 0.139348 0.721534
O O5 0.758430 0.539533 0.457220
O O6 0.785891 0.843022 0.747509
O O7 0.918542 0.424172 0.189951
O O8 0.654453 0.177959 0.250549
O O9 0.791678 0.378373 0.531030
O O10 0.926064 0.190515 0.182426
O O11 0.154021 0.522919 0.144041
O O12 0.000430 0.218756 0.860231
O O13 0.608730 0.149300 0.740126
O O14 0.500000 0.000000 0.000000
O O15 0.839482 0.195529 0.534618
O O16 0.021246 0.949824 0.736303
O O17 0.000000 0.000000 0.500000
#
# Coordination Sequence:
#
# PCOD9104714 Si02
#       8
#     2   2   2   2   2   2   2   2
#     4   9  20  38  64  84 118 166 202 248 311 359
#     4  10  20  39  62  86 120 162 204 244 309 365
#     4  10  21  40  66  92 121 163 206 257 309 365
#     4  11  24  39  63  94 124 160 210 257 303 373
#     4  10  22  37  64  94 127 159 206 257 304 369
#     4  10  21  42  65  90 124 163 207 254 311 363
#     4  10  20  42  63  87 122 163 202 256 308 361
#     4  12  24  38  61  90 125 163 204 252 312 367
#
# _framework density 22.081727000000001
#
# number of rings (size 3 to 8) (size 9 to 14) (size 15 to 20)
#    0.000    1.750    1.250    3.750    1.750    3.000 
#    0.000    2.500    0.000    0.000    0.000    0.000 
#    0.000    0.000    0.000    0.000    0.000    0.000 
#
# Total GULP energy -89476.855173 kJ/mol
# GULP energy per Si atom -5592.303448 kJ/mol
# Density = 2.203147 g / cm^3
# Si number density = 22.081727 Si / 1000 Ang^3
#
#
#
# Elastic Constant Matrix: (Units=GPa)
#
#
# Indices 1 2 3 4 5 6 
#
# 1 86.7119 12.4402 -4.0799 14.9281 -6.5889 8.3045
# 2 12.4402 105.4756 5.0919 18.1728 11.5754 21.7108
# 3 -4.0799 5.0919 47.4436 16.2574 18.4539 12.5670
# 4 14.9281 18.1728 16.2574 30.4714 9.9059 10.5880
# 5 -6.5889 11.5754 18.4539 9.9059 3.3673 11.6624
# 6 8.3045 21.7108 12.5670 10.5880 11.6624 39.0132
#
#
#
# Elastic Compliance Matrix: (Units=1/GPa)
#
#
# Indices 1 2 3 4 5 6 
#
# 1 0.011490 0.000927 0.009329 -0.005878 -0.017007 0.000712
# 2 0.000927 0.011177 0.000160 -0.007394 0.007864 -0.006813
# 3 0.009329 0.000160 0.016448 -0.022659 0.043589 -0.014254
# 4 -0.005878 -0.007394 -0.022659 0.047457 0.021763 -0.006720
# 5 -0.017007 0.007864 0.043589 0.021763 -0.154526 0.025490
# 6 0.000712 -0.006813 -0.014254 -0.006720 0.025490 0.028068
#
#
# Mechanical properties :
#
#
# Convention : Reuss Voigt Hill
#
# Bulk Modulus (GPa) = 16.68139 29.61505 23.14822
# Shear Modulus (GPa) = -122.74122 29.64898 -46.54612
#
# Velocity S-wave (km/s) = -7.46362 3.66825 -4.59617
# Velocity P-wave (km/s) = 8.16722 5.60197 4.20246
#
# Compressibility (1/GPa) = 0.05994706
#
# Stress axis : x y z
#
# Youngs Moduli (GPa) = 87.03368 89.46807 60.79758
#
# Poissons Ratio (x) = -0.08294 -0.56719
# Poissons Ratio (y) = -0.08068 -0.00972
# Poissons Ratio (z) = -0.81195 -0.01431
#
# Static dielectric constant tensor:
#      x y z
#    x 1.797060 0.010360 -0.008060 
#    y 0.010360 1.859140 -0.008110 
#    z -0.008060 -0.008110 1.798910 
# 
# From -- ./inp_files/263293.got.cif
#   From: 2010.05.17/outbox.cif.g08.bks.cpg/sg2_132_cif.got.tgz:263293.got - 2010.06.03 11:33:40.
