data_PCOD9104928
_publ_section_title
;
Structure prediction by ZEFSAII (Michael W. Deem and Ramdas Pophale) SiO2 
 PCOD9104928
Probable space group: P -1
;
_chemical_formula_sum "Si O2"
_cell_formula_units_Z 12
_cell_length_a 17.044857
_cell_length_b 10.713079
_cell_length_c 12.868153
_cell_angle_alpha 156.688581
_cell_angle_beta 143.261330
_cell_angle_gamma 39.753320
_cell_volume 550.833187
_symmetry_space_group_name_H-M "P -1"
_symmetry_group_IT_number 2
_symmetry_cell_setting 'triclinic'
loop_
_space_group_symop_operation_xyz
x,y,z
-x,-y,-z
loop_
_atom_site_type_symbol
_atom_site_label
_atom_site_fract_x
_atom_site_fract_y
_atom_site_fract_z
Si Si1 0.982136 0.759044 0.085697
Si Si2 0.413699 0.968450 0.630689
Si Si3 0.090688 0.183421 0.661578
Si Si4 0.654688 0.871891 0.545713
Si Si5 0.705519 0.116345 0.001042
Si Si6 0.621162 0.744836 0.969001
O O1 0.079575 0.012267 0.409597
O O2 0.027652 0.549794 0.873956
O O3 0.833541 0.930408 0.050404
O O4 0.000000 0.500000 0.000000
O O5 0.395883 0.603902 0.356570
O O6 0.330050 0.052768 0.501635
O O7 0.569540 0.982948 0.784943
O O8 0.377008 0.218361 0.875633
O O9 0.238304 0.160774 0.843417
O O10 0.000000 0.000000 0.500000
O O11 0.684861 0.489033 0.293572
O O12 0.500000 0.000000 0.500000
O O13 0.724934 0.047310 0.845169
O O14 0.500000 0.000000 0.000000
#
# Coordination Sequence:
#
# PCOD9104928 Si02
#       6
#     2   2   2   2   2   2
#     4  10  22  37  63  89 127 165 214 257 310 377
#     4  11  23  39  64  93 135 161 211 272 324 371
#     4  10  23  41  61  83 129 170 214 252 309 387
#     4  10  20  39  62  97 130 168 216 266 318 371
#     4  11  21  37  69  97 128 169 218 262 316 376
#     4  12  26  39  64  94 132 169 207 265 337 373
#
# _framework density 21.78518
#
# number of rings (size 3 to 8) (size 9 to 14) (size 15 to 20)
#    0.000    1.333    0.000    7.500    9.333    0.000 
#    0.000    0.000    0.000   20.000    0.000    0.000 
#    0.000    0.000    0.000    0.000    0.000    0.000 
#
# Total GULP energy -66999.349794 kJ/mol
# GULP energy per Si atom -5583.279150 kJ/mol
# Density = 2.173560 g / cm^3
# Si number density = 21.785180 Si / 1000 Ang^3
#
#
#
# Elastic Constant Matrix: (Units=GPa)
#
#
# Indices 1 2 3 4 5 6 
#
# 1 41.2399 11.3054 3.5197 0.1972 -9.5340 -3.2037
# 2 11.3054 138.4779 29.9911 10.2515 6.1861 -16.1023
# 3 3.5197 29.9911 120.0465 21.8214 -22.4167 -21.9795
# 4 0.1972 10.2515 21.8214 27.5431 -13.9260 -3.5847
# 5 -9.5340 6.1861 -22.4167 -13.9260 42.6511 -7.4258
# 6 -3.2037 -16.1023 -21.9795 -3.5847 -7.4258 29.7648
#
#
#
# Elastic Compliance Matrix: (Units=1/GPa)
#
#
# Indices 1 2 3 4 5 6 
#
# 1 0.027745 -0.002849 0.002020 0.005387 0.010517 0.006209
# 2 -0.002849 0.008439 -0.001797 -0.003304 -0.003599 0.001636
# 3 0.002020 -0.001797 0.012806 -0.004209 0.007836 0.010150
# 4 0.005387 -0.003304 -0.004209 0.050136 0.016874 0.005932
# 5 0.010517 -0.003599 0.007836 0.016874 0.038854 0.016697
# 6 0.006209 0.001636 0.010150 0.005932 0.016697 0.047525
#
#
# Mechanical properties :
#
#
# Convention : Reuss Voigt Hill
#
# Bulk Modulus (GPa) = 22.86349 43.26628 33.06489
# Shear Modulus (GPa) = 24.35021 36.98834 30.66927
#
# Velocity S-wave (km/s) = 3.34689 4.12499 3.75614
# Velocity P-wave (km/s) = 5.04513 6.52617 5.83285
#
# Compressibility (1/GPa) = 0.04373786
#
# Stress axis : x y z
#
# Youngs Moduli (GPa) = 36.04265 118.50198 78.08558
#
# Poissons Ratio (x) = 0.33763 -0.15771
# Poissons Ratio (y) = 0.10269 0.14029
# Poissons Ratio (z) = -0.07280 0.21291
#
# Static dielectric constant tensor:
#      x y z
#    x 1.840090 0.012600 -0.051390 
#    y 0.012600 1.776240 -0.006530 
#    z -0.051390 -0.006530 1.847930 
# 
# From -- ./inp_files/43356.got.cif
#   From: 2010.05.17/outbox.cif.g08.bks.cpg/sg2_22_cif.got.tgz:43356.got - 2010.06.03 11:33:40.
