data_PCOD9104136
_publ_section_title
;
Structure prediction by ZEFSAII (Michael W. Deem and Ramdas Pophale) SiO2 
 PCOD9104136
Probable space group: P -1
;
_chemical_formula_sum "Si O2"
_cell_formula_units_Z 16
_cell_length_a 8.796918
_cell_length_b 14.664653
_cell_length_c 8.581756
_cell_angle_alpha 95.970767
_cell_angle_beta 60.664076
_cell_angle_gamma 120.097951
_cell_volume 820.121068
_symmetry_space_group_name_H-M "P -1"
_symmetry_group_IT_number 2
_symmetry_cell_setting 'triclinic'
loop_
_space_group_symop_operation_xyz
x,y,z
-x,-y,-z
loop_
_atom_site_type_symbol
_atom_site_label
_atom_site_fract_x
_atom_site_fract_y
_atom_site_fract_z
Si Si1 0.006644 0.372601 0.613169
Si Si2 0.345681 0.800334 0.652842
Si Si3 0.966785 0.180416 0.392650
Si Si4 0.280385 0.146263 0.056672
Si Si5 0.708946 0.214032 0.958060
Si Si6 0.297089 0.183013 0.700616
Si Si7 0.704558 0.389098 0.533073
Si Si8 0.872242 0.075626 0.731333
O O1 0.026624 0.285351 0.485664
O O2 0.209616 0.488659 0.531478
O O3 0.833057 0.385908 0.614732
O O4 0.915358 0.320387 0.817087
O O5 0.324459 0.809310 0.847118
O O6 0.574082 0.851750 0.479112
O O7 0.251869 0.674482 0.634822
O O8 0.221543 0.840542 0.623551
O O9 0.149086 0.194349 0.196823
O O10 0.904331 0.085851 0.531991
O O11 0.519120 0.218395 0.986274
O O12 0.207974 0.037803 0.169592
O O13 0.251118 0.128826 0.883296
O O14 0.721370 0.118268 0.853133
O O15 0.462225 0.310073 0.665806
O O16 0.091272 0.155386 0.714840
#
# Coordination Sequence:
#
# PCOD9104136 Si02
#       8
#     2   2   2   2   2   2   2   2
#     4   9  17  37  63  83 112 149 182 231 283 333
#     4   9  20  37  59  81 119 145 183 232 280 329
#     4  10  21  38  57  85 114 149 187 236 275 336
#     4  12  22  38  58  82 115 153 189 232 282 330
#     4  11  21  37  58  85 113 150 191 233 273 336
#     4  10  20  39  58  85 113 149 184 237 276 336
#     4   8  17  36  63  81 115 146 183 225 291 326
#     4  11  23  38  58  82 114 151 191 233 282 329
#
# _framework density 19.509315999999998
#
# number of rings (size 3 to 8) (size 9 to 14) (size 15 to 20)
#    0.750    1.250    1.250    3.375    0.000    0.500 
#    0.000    5.000    2.750    0.000    0.000    0.000 
#    0.000    0.000    0.000    0.000    0.000    0.000 
#
# Total GULP energy -89230.555563 kJ/mol
# GULP energy per Si atom -5576.909723 kJ/mol
# Density = 1.946491 g / cm^3
# Si number density = 19.509316 Si / 1000 Ang^3
#
#
#
# Elastic Constant Matrix: (Units=GPa)
#
#
# Indices 1 2 3 4 5 6 
#
# 1 45.2995 2.6316 12.5637 -2.4510 -4.3546 -4.8276
# 2 2.6316 45.3272 20.1441 -22.3330 -5.4884 -1.7743
# 3 12.5637 20.1441 104.9948 1.8894 -3.1552 -16.4968
# 4 -2.4510 -22.3330 1.8894 26.4188 1.8969 -0.4519
# 5 -4.3546 -5.4884 -3.1552 1.8969 29.6575 -1.4413
# 6 -4.8276 -1.7743 -16.4968 -0.4519 -1.4413 19.6468
#
#
#
# Elastic Compliance Matrix: (Units=1/GPa)
#
#
# Indices 1 2 3 4 5 6 
#
# 1 0.023686 0.002531 -0.002629 0.004339 0.003593 0.004204
# 2 0.002531 0.046724 -0.010211 0.040044 0.005253 -0.002426
# 3 -0.002629 -0.010211 0.013479 -0.009694 0.000242 0.009545
# 4 0.004339 0.040044 -0.009694 0.072606 0.002294 -0.001619
# 5 0.003593 0.005253 0.000242 0.002294 0.035301 0.004203
# 6 0.004204 -0.002426 0.009545 -0.001619 0.004203 0.059998
#
#
# Mechanical properties :
#
#
# Convention : Reuss Voigt Hill
#
# Bulk Modulus (GPa) = 15.80539 29.58893 22.69716
# Shear Modulus (GPa) = 17.03555 25.83011 21.43283
#
# Velocity S-wave (km/s) = 2.95820 3.64261 3.31810
# Velocity P-wave (km/s) = 4.44826 5.73507 5.13215
#
# Compressibility (1/GPa) = 0.06326956
#
# Stress axis : x y z
#
# Youngs Moduli (GPa) = 42.21950 21.40238 74.18724
#
# Poissons Ratio (x) = -0.05416 0.19506
# Poissons Ratio (y) = -0.10685 0.75754
# Poissons Ratio (z) = 0.11101 0.21854
#
# Static dielectric constant tensor:
#      x y z
#    x 1.671580 0.007550 0.000340 
#    y 0.007550 1.696140 -0.021090 
#    z 0.000340 -0.021090 1.669300 
# 
# From -- ./inp_files/197371.got.cif
#   From: 2010.05.17/outbox.cif.g08.bks.cpg/sg2_99_cif.got.tgz:197371.got - 2010.06.03 11:33:40.
