data_PCOD9104305
_publ_section_title
;
Structure prediction by ZEFSAII (Michael W. Deem and Ramdas Pophale) SiO2 
 PCOD9104305
Probable space group: P -1
;
_chemical_formula_sum "Si O2"
_cell_formula_units_Z 16
_cell_length_a 5.474630
_cell_length_b 23.979366
_cell_length_c 22.745790
_cell_angle_alpha 12.276223
_cell_angle_beta 104.252700
_cell_angle_gamma 104.691071
_cell_volume 614.127856
_symmetry_space_group_name_H-M "P -1"
_symmetry_group_IT_number 2
_symmetry_cell_setting 'triclinic'
loop_
_space_group_symop_operation_xyz
x,y,z
-x,-y,-z
loop_
_atom_site_type_symbol
_atom_site_label
_atom_site_fract_x
_atom_site_fract_y
_atom_site_fract_z
Si Si1 0.228202 0.347913 0.696904
Si Si2 0.636892 0.043269 0.583000
Si Si3 0.825850 0.345122 0.465583
Si Si4 0.518156 0.493591 0.818552
Si Si5 0.989642 0.536542 0.864610
Si Si6 0.445006 0.850714 0.229653
Si Si7 0.765504 0.786468 0.702062
Si Si8 0.948416 0.151078 0.001224
O O1 0.459427 0.570572 0.486938
O O2 0.000000 0.500000 0.500000
O O3 0.125360 0.246426 0.858748
O O4 0.303958 0.073927 0.955337
O O5 0.530282 0.242582 0.419606
O O6 0.466963 0.069510 0.487236
O O7 0.905502 0.176743 0.443867
O O8 0.633715 0.757070 0.904386
O O9 0.591409 0.455843 0.303790
O O10 0.728332 0.247769 0.623874
O O11 0.048050 0.576800 0.243293
O O12 0.925906 0.079864 0.717539
O O13 0.808259 0.430188 0.911643
O O14 0.818343 0.572963 0.874460
O O15 0.216993 0.373323 0.071374
O O16 0.692854 0.008913 0.106757
O O17 0.000000 0.000000 0.500000
#
# Coordination Sequence:
#
# PCOD9104305 Si02
#       8
#     2   2   2   2   2   2   2   2
#     4  10  21  36  58  92 126 154 193 242 286 338
#     4  11  24  39  61  86 115 150 188 234 296 351
#     4  10  22  39  58  81 114 150 196 249 284 338
#     4  11  24  40  57  86 115 144 194 244 289 342
#     4  10  23  39  58  86 116 149 187 235 289 352
#     4  10  21  38  60  85 116 161 197 234 290 341
#     4  10  20  39  60  84 116 150 187 231 284 357
#     4  10  21  39  60  85 116 156 202 237 286 346
#
# _framework density 26.053205999999999
#
# number of rings (size 3 to 8) (size 9 to 14) (size 15 to 20)
#    0.000    1.750    1.250    2.250    1.750    3.500 
#    0.000    0.000    0.000    0.000    0.000    0.000 
#    0.000    0.000    0.000    0.000    0.000    0.000 
#
# Total GULP energy -89458.433049 kJ/mol
# GULP energy per Si atom -5591.152066 kJ/mol
# Density = 2.599391 g / cm^3
# Si number density = 26.053206 Si / 1000 Ang^3
#
#
#
# Elastic Constant Matrix: (Units=GPa)
#
#
# Indices 1 2 3 4 5 6 
#
# 1 48.6856 12.6510 36.5722 -11.0139 -1.2663 21.6982
# 2 12.6510 82.1655 59.9568 -6.1195 1.4271 28.5872
# 3 36.5722 59.9568 202.7931 -5.7506 2.0201 21.8443
# 4 -11.0139 -6.1195 -5.7506 47.3674 16.7932 3.1767
# 5 -1.2663 1.4271 2.0201 16.7932 41.0550 -13.4645
# 6 21.6982 28.5872 21.8443 3.1767 -13.4645 38.6112
#
#
#
# Elastic Compliance Matrix: (Units=1/GPa)
#
#
# Indices 1 2 3 4 5 6 
#
# 1 0.044752 0.014573 -0.007135 0.021652 -0.021091 -0.041039
# 2 0.014573 0.026914 -0.006691 0.013801 -0.015982 -0.031039
# 3 -0.007135 -0.006691 0.007435 -0.003037 0.002858 0.006004
# 4 0.021652 0.013801 -0.003037 0.039206 -0.026575 -0.033160
# 5 -0.021091 -0.015982 0.002858 -0.026575 0.048493 0.041165
# 6 -0.041039 -0.031039 0.006004 -0.033160 0.041165 0.085629
#
#
# Mechanical properties :
#
#
# Convention : Reuss Voigt Hill
#
# Bulk Modulus (GPa) = 12.40773 61.33381 36.87077
# Shear Modulus (GPa) = 17.99855 40.37100 29.18478
#
# Velocity S-wave (km/s) = 2.63123 3.94072 3.35057
# Velocity P-wave (km/s) = 3.74219 6.65571 5.39919
#
# Compressibility (1/GPa) = 0.08059490
#
# Stress axis : x y z
#
# Youngs Moduli (GPa) = 22.34518 37.15516 134.50137
#
# Poissons Ratio (x) = -0.54145 0.95962
# Poissons Ratio (y) = -0.32563 0.90000
# Poissons Ratio (z) = 0.15942 0.24862
#
# Static dielectric constant tensor:
#      x y z
#    x 2.123900 -0.031410 0.093180 
#    y -0.031410 2.098250 -0.038070 
#    z 0.093180 -0.038070 2.031090 
# 
# From -- ./inp_files/12904.got.cif
#   From: 2010.05.17/outbox.cif.g08.bks.cpg/sg2_7_cif.got.tgz:12904.got - 2010.06.03 11:33:40.
