data_PCOD9104748
_publ_section_title
;
Structure prediction by ZEFSAII (Michael W. Deem and Ramdas Pophale) SiO2 
 PCOD9104748
Probable space group: P -1
;
_chemical_formula_sum "Si O2"
_cell_formula_units_Z 14
_cell_length_a 7.426086
_cell_length_b 12.304782
_cell_length_c 9.166055
_cell_angle_alpha 121.707539
_cell_angle_beta 53.346916
_cell_angle_gamma 106.299927
_cell_volume 570.979957
_symmetry_space_group_name_H-M "P -1"
_symmetry_group_IT_number 2
_symmetry_cell_setting 'triclinic'
loop_
_space_group_symop_operation_xyz
x,y,z
-x,-y,-z
loop_
_atom_site_type_symbol
_atom_site_label
_atom_site_fract_x
_atom_site_fract_y
_atom_site_fract_z
Si Si1 0.351545 0.530817 0.250782
Si Si2 0.764898 0.221767 0.132186
Si Si3 0.001214 0.141913 0.536765
Si Si4 0.357575 0.314976 0.603181
Si Si5 0.444713 0.748494 0.068549
Si Si6 0.729263 0.942904 0.929469
Si Si7 0.107602 0.516620 0.670960
O O1 0.522022 0.641634 0.278413
O O2 0.244218 0.504831 0.445545
O O3 0.126214 0.550147 0.278965
O O4 0.475952 0.397932 0.051089
O O5 0.551169 0.250734 0.361704
O O6 0.842664 0.074052 0.011020
O O7 0.929120 0.333713 0.170251
O O8 0.879056 0.864828 0.683188
O O9 0.746505 0.195171 0.692384
O O10 0.152758 0.222344 0.629947
O O11 0.000000 0.000000 0.500000
O O12 0.257268 0.445630 0.670548
O O13 0.644612 0.846202 0.023363
O O14 0.322634 0.755121 0.973220
O O15 0.500000 0.000000 0.000000
#
# Coordination Sequence:
#
# PCOD9104748 Si02
#       7
#     2   2   2   2   2   2   2
#     4  10  20  35  57  89 117 149 198 237 282 351
#     4  10  16  33  58  84 113 151 188 233 290 334
#     4  12  21  32  60  93 108 151 203 227 290 357
#     4  11  19  35  59  85 117 151 188 240 290 341
#     4  11  19  35  57  85 119 150 190 239 287 340
#     4  10  18  33  56  87 117 149 191 245 280 338
#     4  10  19  34  61  86 114 156 193 235 291 342
#
# _framework density 24.519248000000001
#
# number of rings (size 3 to 8) (size 9 to 14) (size 15 to 20)
#    0.000    1.429    8.571    0.857    0.000    0.571 
#    0.000    1.429    0.000    3.429    0.000    1.000 
#    0.000    0.000    0.000    0.000    0.000    0.000 
#
# Total GULP energy -78383.188156 kJ/mol
# GULP energy per Si atom -5598.799154 kJ/mol
# Density = 2.446344 g / cm^3
# Si number density = 24.519248 Si / 1000 Ang^3
#
#
#
# Elastic Constant Matrix: (Units=GPa)
#
#
# Indices 1 2 3 4 5 6 
#
# 1 98.8279 31.9219 39.4606 5.9747 -3.8050 17.2910
# 2 31.9219 117.1713 30.8062 10.6184 7.7150 34.5274
# 3 39.4606 30.8062 143.9475 3.1499 11.1634 9.2546
# 4 5.9747 10.6184 3.1499 38.6105 2.5354 -0.7556
# 5 -3.8050 7.7150 11.1634 2.5354 22.8861 8.0228
# 6 17.2910 34.5274 9.2546 -0.7556 8.0228 37.0866
#
#
#
# Elastic Compliance Matrix: (Units=1/GPa)
#
#
# Indices 1 2 3 4 5 6 
#
# 1 0.013262 -0.001326 -0.003457 -0.001940 0.006492 -0.005530
# 2 -0.001326 0.012896 -0.001644 -0.003461 0.000531 -0.011163
# 3 -0.003457 -0.001644 0.008482 0.000663 -0.004973 0.002115
# 4 -0.001940 -0.003461 0.000663 0.027497 -0.004448 0.005483
# 5 0.006492 0.000531 -0.004973 -0.004448 0.052311 -0.013687
# 6 -0.005530 -0.011163 0.002115 0.005483 -0.013687 0.042479
#
#
# Mechanical properties :
#
#
# Convention : Reuss Voigt Hill
#
# Bulk Modulus (GPa) = 45.90373 62.70270 54.30322
# Shear Modulus (GPa) = 28.24155 36.90052 32.57104
#
# Velocity S-wave (km/s) = 3.39752 3.88359 3.64866
# Velocity P-wave (km/s) = 5.84405 6.76299 6.32025
#
# Compressibility (1/GPa) = 0.02178472
#
# Stress axis : x y z
#
# Youngs Moduli (GPa) = 75.40288 77.54215 117.90100
#
# Poissons Ratio (x) = 0.10285 0.40761
# Poissons Ratio (y) = 0.10001 0.19384
# Poissons Ratio (z) = 0.26068 0.12748
#
# Static dielectric constant tensor:
#      x y z
#    x 1.922240 0.010480 0.030000 
#    y 0.010480 2.005650 -0.043400 
#    z 0.030000 -0.043400 1.943190 
# 
# From -- ./inp_files/498255.got.cif
#   From: 2010.05.17/outbox.cif.g08.bks.cpg/sg2_250_cif.got.tgz:498255.got - 2010.06.03 11:33:40.
