data_PCOD9104437
_publ_section_title
;
Structure prediction by ZEFSAII (Michael W. Deem and Ramdas Pophale) SiO2 
 PCOD9104437
Probable space group: P -1
;
_chemical_formula_sum "Si O2"
_cell_formula_units_Z 14
_cell_length_a 14.667631
_cell_length_b 9.980737
_cell_length_c 4.992666
_cell_angle_alpha 88.578460
_cell_angle_beta 96.992901
_cell_angle_gamma 66.897395
_cell_volume 665.167210
_symmetry_space_group_name_H-M "P -1"
_symmetry_group_IT_number 2
_symmetry_cell_setting 'triclinic'
loop_
_space_group_symop_operation_xyz
x,y,z
-x,-y,-z
loop_
_atom_site_type_symbol
_atom_site_label
_atom_site_fract_x
_atom_site_fract_y
_atom_site_fract_z
Si Si1 0.410172 0.925267 0.029395
Si Si2 0.430541 0.636418 0.796182
Si Si3 0.747314 0.453505 0.309086
Si Si4 0.067765 0.373969 0.735471
Si Si5 0.121543 0.588577 0.113263
Si Si6 0.533639 0.807378 0.590744
Si Si7 0.711806 0.769709 0.288836
O O1 0.448848 0.904166 0.346324
O O2 0.383341 0.786863 0.945814
O O3 0.506895 0.879110 0.868697
O O4 0.328876 0.079614 0.898204
O O5 0.506439 0.666141 0.616096
O O6 0.500000 0.500000 0.000000
O O7 0.661170 0.397882 0.338456
O O8 0.807459 0.450480 0.601521
O O9 0.703208 0.621941 0.176582
O O10 0.824885 0.363251 0.110291
O O11 0.170000 0.272288 0.632124
O O12 0.990920 0.310799 0.834031
O O13 0.104845 0.450854 0.983084
O O14 0.000000 0.500000 0.500000
O O15 0.640614 0.788472 0.520202
#
# Coordination Sequence:
#
# PCOD9104437 Si02
#       7
#     2   2   2   2   2   2   2
#     4  10  24  42  59  90 131 164 205 256 303 381
#     4  10  25  41  63  90 129 167 210 256 306 375
#     4  11  24  36  65  90 124 165 208 251 316 366
#     4  10  20  39  60  96 128 155 205 268 314 368
#     4  10  21  39  56  93 124 156 203 265 305 366
#     4  10  24  41  60  90 128 164 207 252 306 381
#     4  11  22  39  66  92 124 166 205 256 323 363
#
# _framework density 21.047339999999998
#
# number of rings (size 3 to 8) (size 9 to 14) (size 15 to 20)
#    0.857    0.857    2.857    1.714    4.000    4.571 
#    0.000    0.000    0.000    1.714    0.000    0.000 
#    0.000    0.000    0.000    0.000    0.000    0.000 
#
# Total GULP energy -78023.687860 kJ/mol
# GULP energy per Si atom -5573.120561 kJ/mol
# Density = 2.099944 g / cm^3
# Si number density = 21.047340 Si / 1000 Ang^3
#
#
#
# Elastic Constant Matrix: (Units=GPa)
#
#
# Indices 1 2 3 4 5 6 
#
# 1 154.3669 63.2019 61.1456 5.2586 -0.6281 -14.4859
# 2 63.2019 81.6271 29.0802 -15.0056 -3.7008 -6.2315
# 3 61.1456 29.0802 111.7453 -1.9976 -1.9992 -7.9224
# 4 5.2586 -15.0056 -1.9976 33.3194 -2.6392 -2.7846
# 5 -0.6281 -3.7008 -1.9992 -2.6392 40.0598 4.0425
# 6 -14.4859 -6.2315 -7.9224 -2.7846 4.0425 32.4248
#
#
#
# Elastic Compliance Matrix: (Units=1/GPa)
#
#
# Indices 1 2 3 4 5 6 
#
# 1 0.012324 -0.009011 -0.004369 -0.006187 -0.001503 0.002363
# 2 -0.009011 0.021634 -0.000401 0.011399 0.002518 0.000699
# 3 -0.004369 -0.000401 0.011535 0.001308 0.000471 0.000843
# 4 -0.006187 0.011399 0.001308 0.036662 0.003185 0.002498
# 5 -0.001503 0.002518 0.000471 0.003185 0.025708 -0.003004
# 6 0.002363 0.000699 0.000843 0.002498 -0.003004 0.032826
#
#
# Mechanical properties :
#
#
# Convention : Reuss Voigt Hill
#
# Bulk Modulus (GPa) = 55.76549 72.73274 64.24912
# Shear Modulus (GPa) = 28.69810 34.11490 31.40650
#
# Velocity S-wave (km/s) = 3.69657 4.03036 3.86707
# Velocity P-wave (km/s) = 6.69121 7.50268 7.10853
#
# Compressibility (1/GPa) = 0.01793224
#
# Stress axis : x y z
#
# Youngs Moduli (GPa) = 81.14043 46.22419 86.69060
#
# Poissons Ratio (x) = 0.41653 0.37872
# Poissons Ratio (y) = 0.73117 0.03474
# Poissons Ratio (z) = 0.35447 0.01852
#
# Static dielectric constant tensor:
#      x y z
#    x 1.809860 0.017490 -0.043830 
#    y 0.017490 1.905640 0.026670 
#    z -0.043830 0.026670 1.836650 
# 
# From -- ./inp_files/91419.got.cif
#   From: 2010.05.17/outbox.cif.g08.bks.cpg/sg2_46_cif.got.tgz:91419.got - 2010.06.03 11:33:40.
