data_PCOD9104986
_publ_section_title
;
Structure prediction by ZEFSAII (Michael W. Deem and Ramdas Pophale) SiO2 
 PCOD9104986
Probable space group: P -1
;
_chemical_formula_sum "Si O2"
_cell_formula_units_Z 16
_cell_length_a 10.033493
_cell_length_b 7.751110
_cell_length_c 10.946622
_cell_angle_alpha 61.327032
_cell_angle_beta 74.447811
_cell_angle_gamma 89.461602
_cell_volume 712.385815
_symmetry_space_group_name_H-M "P -1"
_symmetry_group_IT_number 2
_symmetry_cell_setting 'triclinic'
loop_
_space_group_symop_operation_xyz
x,y,z
-x,-y,-z
loop_
_atom_site_type_symbol
_atom_site_label
_atom_site_fract_x
_atom_site_fract_y
_atom_site_fract_z
Si Si1 0.934773 0.761840 0.581662
Si Si2 0.910873 0.089332 0.122470
Si Si3 0.197308 0.736793 0.668739
Si Si4 0.062080 0.768913 0.299270
Si Si5 0.714706 0.973707 0.664499
Si Si6 0.535202 0.822567 0.967385
Si Si7 0.201377 0.381414 0.956061
Si Si8 0.232186 0.654922 0.088166
O O1 0.047343 0.670169 0.665779
O O2 0.956230 0.698219 0.459340
O O3 0.781558 0.783809 0.660789
O O4 0.000000 0.000000 0.500000
O O5 0.052992 0.245589 0.022035
O O6 0.835156 0.126852 0.255842
O O7 0.968122 0.881445 0.193426
O O8 0.804786 0.134330 0.027932
O O9 0.287305 0.867380 0.498933
O O10 0.241165 0.540336 0.784279
O O11 0.180479 0.919825 0.291936
O O12 0.151232 0.632960 0.243969
O O13 0.603171 0.336217 0.942619
O O14 0.572414 0.900690 0.794579
O O15 0.671122 0.738911 0.011635
O O16 0.500000 0.000000 0.000000
O O17 0.183690 0.504974 0.042228
#
# Coordination Sequence:
#
# PCOD9104986 Si02
#       8
#     2   2   2   2   2   2   2   2
#     4   8  14  28  58  86 110 146 193 229 281 339
#     4  11  18  36  59  89 115 155 195 239 283 346
#     4   9  16  31  56  90 110 149 191 243 283 336
#     4  10  16  33  59  91 112 147 196 241 279 339
#     4  10  17  34  63  86 113 157 199 229 282 355
#     4  12  23  41  61  84 113 160 202 236 287 359
#     4  11  23  38  60  85 121 154 195 241 299 339
#     4  11  23  33  56  93 124 144 192 248 292 334
#
# _framework density 22.459738999999999
#
# number of rings (size 3 to 8) (size 9 to 14) (size 15 to 20)
#    0.000    2.000    6.250    2.250    0.000    0.000 
#    0.000    3.125    0.000   18.750    0.000    0.000 
#    0.000    0.000    0.000    0.000    0.000    0.000 
#
# Total GULP energy -89359.537830 kJ/mol
# GULP energy per Si atom -5584.971114 kJ/mol
# Density = 2.240862 g / cm^3
# Si number density = 22.459739 Si / 1000 Ang^3
#
#
#
# Elastic Constant Matrix: (Units=GPa)
#
#
# Indices 1 2 3 4 5 6 
#
# 1 63.0565 20.0089 34.9485 2.0384 -4.5441 -12.2173
# 2 20.0089 88.9174 49.6926 28.1685 -0.6559 -17.2214
# 3 34.9485 49.6926 165.8927 10.1776 -5.4672 -22.6798
# 4 2.0384 28.1685 10.1776 39.4561 -9.4051 0.3991
# 5 -4.5441 -0.6559 -5.4672 -9.4051 35.7909 0.5815
# 6 -12.2173 -17.2214 -22.6798 0.3991 0.5815 33.8119
#
#
#
# Elastic Compliance Matrix: (Units=1/GPa)
#
#
# Indices 1 2 3 4 5 6 
#
# 1 0.019058 -0.002748 -0.002760 0.002244 0.002479 0.003566
# 2 -0.002748 0.019642 -0.003657 -0.014043 -0.004348 0.006799
# 3 -0.002760 -0.003657 0.008024 0.000898 0.001004 0.002494
# 4 0.002244 -0.014043 0.000898 0.037500 0.010122 -0.006356
# 5 0.002479 -0.004348 0.001004 0.010122 0.031009 -0.001298
# 6 0.003566 0.006799 0.002494 -0.006356 -0.001298 0.036097
#
#
# Mechanical properties :
#
#
# Convention : Reuss Voigt Hill
#
# Bulk Modulus (GPa) = 35.21978 58.57407 46.89693
# Shear Modulus (GPa) = 27.91359 36.02621 31.96990
#
# Velocity S-wave (km/s) = 3.52920 4.00939 3.77693
# Velocity P-wave (km/s) = 5.68527 6.89708 6.32029
#
# Compressibility (1/GPa) = 0.02839314
#
# Stress axis : x y z
#
# Youngs Moduli (GPa) = 52.47247 50.91163 124.62694
#
# Poissons Ratio (x) = 0.13990 0.34399
# Poissons Ratio (y) = 0.14419 0.45577
# Poissons Ratio (z) = 0.14483 0.18619
#
# Static dielectric constant tensor:
#      x y z
#    x 1.806270 0.004500 -0.026040 
#    y 0.004500 1.927560 -0.070690 
#    z -0.026040 -0.070690 1.972540 
# 
# From -- ./inp_files/444027.got.cif
#   From: 2010.05.17/outbox.cif.g08.bks.cpg/sg2_223_cif.got.tgz:444027.got - 2010.06.03 11:33:40.
