data_PCOD9104056
_publ_section_title
;
Structure prediction by ZEFSAII (Michael W. Deem and Ramdas Pophale) SiO2 
 PCOD9104056
Probable space group: P -1
;
_chemical_formula_sum "Si O2"
_cell_formula_units_Z 16
_cell_length_a 9.535559
_cell_length_b 17.796648
_cell_length_c 8.353978
_cell_angle_alpha 51.828406
_cell_angle_beta 88.564444
_cell_angle_gamma 54.926488
_cell_volume 782.967887
_symmetry_space_group_name_H-M "P -1"
_symmetry_group_IT_number 2
_symmetry_cell_setting 'triclinic'
loop_
_space_group_symop_operation_xyz
x,y,z
-x,-y,-z
loop_
_atom_site_type_symbol
_atom_site_label
_atom_site_fract_x
_atom_site_fract_y
_atom_site_fract_z
Si Si1 0.454965 0.205991 0.522168
Si Si2 0.171841 0.879431 0.806260
Si Si3 0.191917 0.095347 0.186656
Si Si4 0.271976 0.139344 0.792502
Si Si5 0.473992 0.360484 0.106890
Si Si6 0.222432 0.844347 0.195960
Si Si7 0.300924 0.625656 0.675601
Si Si8 0.098779 0.140009 0.472152
O O1 0.287573 0.239546 0.593931
O O2 0.372263 0.317322 0.243480
O O3 0.624854 0.175015 0.667009
O O4 0.591806 0.059445 0.626836
O O5 0.320366 0.776375 0.797343
O O6 0.987608 0.896082 0.817354
O O7 0.100157 0.023884 0.603161
O O8 0.294844 0.816980 0.049368
O O9 0.184172 0.143104 0.302127
O O10 0.168540 0.168166 0.928167
O O11 0.200485 0.113614 0.674331
O O12 0.500000 0.000000 0.000000
O O13 0.521628 0.403356 0.203810
O O14 0.363750 0.486692 0.824511
O O15 0.224284 0.733092 0.397294
O O16 0.000000 0.000000 0.000000
O O17 0.121859 0.712563 0.693059
#
# Coordination Sequence:
#
# PCOD9104056 Si02
#       8
#     2   2   2   2   2   2   2   2
#     4  10  20  39  55  82 123 160 190 246 303 350
#     4  12  19  33  60  93 117 144 195 256 300 351
#     4  11  20  34  59  90 118 151 199 249 299 350
#     4  10  24  38  54  89 124 156 200 254 292 347
#     4  10  21  37  57  85 123 151 189 246 304 363
#     4  11  19  32  61  87 119 150 190 249 307 347
#     4  10  21  36  57  88 118 155 190 239 313 360
#     4  12  21  36  62  91 115 158 202 245 303 352
#
# _framework density 20.435065999999999
#
# number of rings (size 3 to 8) (size 9 to 14) (size 15 to 20)
#    0.000    1.250    5.000    3.375    0.000    2.500 
#    2.250    0.625    0.000    0.750    0.000    0.000 
#    0.000    0.000    0.000    0.000    0.000    0.000 
#
# Total GULP energy -89141.170689 kJ/mol
# GULP energy per Si atom -5571.323168 kJ/mol
# Density = 2.038855 g / cm^3
# Si number density = 20.435066 Si / 1000 Ang^3
#
#
#
# Elastic Constant Matrix: (Units=GPa)
#
#
# Indices 1 2 3 4 5 6 
#
# 1 69.1656 22.9602 37.1863 3.6536 -25.4913 -10.8825
# 2 22.9602 63.9458 41.8143 12.7478 -17.3127 -8.9354
# 3 37.1863 41.8143 111.2444 1.2489 -33.8834 -7.0074
# 4 3.6536 12.7478 1.2489 41.4093 -1.1057 -9.0176
# 5 -25.4913 -17.3127 -33.8834 -1.1057 39.4689 12.1339
# 6 -10.8825 -8.9354 -7.0074 -9.0176 12.1339 15.6121
#
#
#
# Elastic Compliance Matrix: (Units=1/GPa)
#
#
# Indices 1 2 3 4 5 6 
#
# 1 0.020805 -0.002507 -0.003300 0.000527 0.007705 0.005902
# 2 -0.002507 0.023314 -0.007340 -0.005768 0.000810 0.004341
# 3 -0.003300 -0.007340 0.015478 0.000851 0.010081 -0.006897
# 4 0.000527 -0.005768 0.000851 0.030044 -0.006790 0.020079
# 5 0.007705 0.000810 0.010081 -0.006790 0.048817 -0.031504
# 6 0.005902 0.004341 -0.006897 0.020079 -0.031504 0.103638
#
#
# Mechanical properties :
#
#
# Convention : Reuss Voigt Hill
#
# Bulk Modulus (GPa) = 30.02742 49.80859 39.91800
# Shear Modulus (GPa) = 17.88974 28.79105 23.34039
#
# Velocity S-wave (km/s) = 2.96200 3.75761 3.38327
# Velocity P-wave (km/s) = 5.14042 6.57671 5.90242
#
# Compressibility (1/GPa) = 0.03330290
#
# Stress axis : x y z
#
# Youngs Moduli (GPa) = 48.06600 42.89311 64.60907
#
# Poissons Ratio (x) = 0.10752 0.21318
# Poissons Ratio (y) = 0.12049 0.47425
# Poissons Ratio (z) = 0.15860 0.31485
#
# Static dielectric constant tensor:
#      x y z
#    x 1.820750 0.022890 -0.036390 
#    y 0.022890 1.745630 0.042400 
#    z -0.036390 0.042400 1.820410 
# 
# From -- ./inp_files/216719.got.cif
#   From: 2010.05.17/outbox.cif.g08.bks.cpg/sg2_109_cif.got.tgz:216719.got - 2010.06.03 11:33:40.
