data_PCOD9104192
_publ_section_title
;
Structure prediction by ZEFSAII (Michael W. Deem and Ramdas Pophale) SiO2 
 PCOD9104192
Probable space group: P -1
;
_chemical_formula_sum "Si O2"
_cell_formula_units_Z 14
_cell_length_a 11.453677
_cell_length_b 12.498436
_cell_length_c 10.353489
_cell_angle_alpha 39.477834
_cell_angle_beta 130.182149
_cell_angle_gamma 144.949171
_cell_volume 540.810629
_symmetry_space_group_name_H-M "P -1"
_symmetry_group_IT_number 2
_symmetry_cell_setting 'triclinic'
loop_
_space_group_symop_operation_xyz
x,y,z
-x,-y,-z
loop_
_atom_site_type_symbol
_atom_site_label
_atom_site_fract_x
_atom_site_fract_y
_atom_site_fract_z
Si Si1 0.882560 0.787929 0.902280
Si Si2 0.934626 0.409763 0.893259
Si Si3 0.402054 0.156137 0.321053
Si Si4 0.407545 0.680810 0.178020
Si Si5 0.667877 0.203123 0.256506
Si Si6 0.792868 0.720555 0.408700
Si Si7 0.985623 0.692752 0.338358
O O1 0.655004 0.695547 0.824619
O O2 0.999769 0.028086 0.694580
O O3 0.969558 0.698369 0.967491
O O4 0.936667 0.767585 0.104694
O O5 0.691272 0.245765 0.867620
O O6 0.087420 0.637957 0.708045
O O7 0.000000 0.500000 0.000000
O O8 0.590334 0.262215 0.262949
O O9 0.426178 0.049417 0.558959
O O10 0.209292 0.930855 0.315849
O O11 0.620670 0.740382 0.275820
O O12 0.252321 0.423275 0.362466
O O13 0.391368 0.747140 0.962847
O O14 0.807065 0.615726 0.385861
O O15 0.000000 0.500000 0.500000
#
# Coordination Sequence:
#
# PCOD9104192 Si02
#       7
#     2   2   2   2   2   2   2
#     4  11  21  38  62  86 116 153 198 248 292 342
#     4  10  22  39  58  81 118 158 192 238 292 349
#     4  10  21  37  61  91 117 151 199 242 289 350
#     4  10  20  39  59  82 122 159 193 240 291 347
#     4  10  20  39  59  82 122 159 193 240 291 347
#     4  10  21  37  61  91 117 151 199 242 289 350
#     4  11  21  37  62  91 121 151 190 244 301 347
#
# _framework density 25.887065
#
# number of rings (size 3 to 8) (size 9 to 14) (size 15 to 20)
#    0.000    1.714    0.000    6.857    0.000    1.143 
#    0.000   22.857    0.000    0.000    0.000    0.000 
#    0.000    0.000    0.000    0.000    0.000    0.000 
#
# Total GULP energy -78066.976499 kJ/mol
# GULP energy per Si atom -5576.212607 kJ/mol
# Density = 2.582815 g / cm^3
# Si number density = 25.887065 Si / 1000 Ang^3
#
#
#
# Elastic Constant Matrix: (Units=GPa)
#
#
# Indices 1 2 3 4 5 6 
#
# 1 213.2501 18.7741 48.1066 9.8379 16.2564 36.5916
# 2 18.7741 41.0170 7.4297 5.4746 -9.1812 16.3552
# 3 48.1066 7.4297 142.0249 19.9085 -6.0064 -4.6681
# 4 9.8379 5.4746 19.9085 37.0970 6.6789 4.9037
# 5 16.2564 -9.1812 -6.0064 6.6789 54.0818 -2.0344
# 6 36.5916 16.3552 -4.6681 4.9037 -2.0344 42.6295
#
#
#
# Elastic Compliance Matrix: (Units=1/GPa)
#
#
# Indices 1 2 3 4 5 6 
#
# 1 0.006514 -0.000974 -0.002612 0.001077 -0.002763 -0.005759
# 2 -0.000974 0.030830 -0.000919 -0.003400 0.005452 -0.010442
# 3 -0.002612 -0.000919 0.008908 -0.004944 0.002389 0.004253
# 4 0.001077 -0.003400 -0.004944 0.031344 -0.005472 -0.004028
# 5 -0.002763 0.005452 0.002389 -0.005472 0.021270 0.002186
# 6 -0.005759 -0.010442 0.004253 -0.004028 0.002186 0.033441
#
#
# Mechanical properties :
#
#
# Convention : Reuss Voigt Hill
#
# Bulk Modulus (GPa) = 26.85242 60.54585 43.69913
# Shear Modulus (GPa) = 32.52449 48.22710 40.37580
#
# Velocity S-wave (km/s) = 3.54842 4.32091 3.95358
# Velocity P-wave (km/s) = 5.21381 6.95219 6.14478
#
# Compressibility (1/GPa) = 0.03724059
#
# Stress axis : x y z
#
# Youngs Moduli (GPa) = 153.52559 32.43599 112.25971
#
# Poissons Ratio (x) = 0.03159 0.29327
# Poissons Ratio (y) = 0.14953 0.10317
# Poissons Ratio (z) = 0.40108 0.02981
#
# Static dielectric constant tensor:
#      x y z
#    x 2.132580 -0.048490 0.065580 
#    y -0.048490 2.183500 -0.062280 
#    z 0.065580 -0.062280 2.113570 
# 
# From -- ./inp_files/432372.got.cif
#   From: 2010.05.17/outbox.cif.g08.bks.cpg/sg2_217_cif.got.tgz:432372.got - 2010.06.03 11:33:40.
