data_PCOD9104318
_publ_section_title
;
Structure prediction by ZEFSAII (Michael W. Deem and Ramdas Pophale) SiO2 
 PCOD9104318
Probable space group: P -1
;
_chemical_formula_sum "Si O2"
_cell_formula_units_Z 14
_cell_length_a 9.072511
_cell_length_b 16.469715
_cell_length_c 8.260345
_cell_angle_alpha 120.337015
_cell_angle_beta 136.540780
_cell_angle_gamma 90.666690
_cell_volume 564.730057
_symmetry_space_group_name_H-M "P -1"
_symmetry_group_IT_number 2
_symmetry_cell_setting 'triclinic'
loop_
_space_group_symop_operation_xyz
x,y,z
-x,-y,-z
loop_
_atom_site_type_symbol
_atom_site_label
_atom_site_fract_x
_atom_site_fract_y
_atom_site_fract_z
Si Si1 0.830888 0.591257 0.392006
Si Si2 0.669472 0.922425 0.815853
Si Si3 0.880465 0.491097 0.658402
Si Si4 0.269414 0.241687 0.503527
Si Si5 0.398249 0.671915 0.455073
Si Si6 0.696439 0.033665 0.345109
Si Si7 0.195407 0.145705 0.655605
O O1 0.863138 0.554497 0.556712
O O2 0.939507 0.729518 0.612234
O O3 0.988255 0.569155 0.366832
O O4 0.500000 0.500000 0.000000
O O5 0.757957 0.872125 0.700754
O O6 0.526214 0.810748 0.716799
O O7 0.432902 0.931639 0.591258
O O8 0.931078 0.046682 0.227878
O O9 0.613884 0.388728 0.450138
O O10 0.089077 0.595990 0.060624
O O11 0.443525 0.327665 0.572601
O O12 0.383062 0.258738 0.795182
O O13 0.019066 0.140417 0.658630
O O14 0.681743 0.921449 0.273257
O O15 0.500000 0.000000 0.000000
#
# Coordination Sequence:
#
# PCOD9104318 Si02
#       7
#     2   2   2   2   2   2   2
#     4  11  22  43  61  92 119 161 205 248 299 359
#     4   9  20  39  56  89 117 149 195 242 292 364
#     4  10  22  43  65  83 129 156 196 259 301 350
#     4  10  22  37  60  91 119 150 205 242 298 359
#     4   9  21  42  60  94 117 155 203 243 306 357
#     4   9  20  39  57  80 121 158 197 238 296 351
#     4  10  20  39  60  85 120 157 192 249 292 352
#
# _framework density 24.790603999999998
#
# number of rings (size 3 to 8) (size 9 to 14) (size 15 to 20)
#    0.857    1.429    1.429    0.429    2.000    2.286 
#   12.857    0.000    0.000    0.000    0.000    0.000 
#    0.000    0.000    0.000    0.000    0.000    0.000 
#
# Total GULP energy -77944.671163 kJ/mol
# GULP energy per Si atom -5567.476512 kJ/mol
# Density = 2.473418 g / cm^3
# Si number density = 24.790604 Si / 1000 Ang^3
#
#
#
# Elastic Constant Matrix: (Units=GPa)
#
#
# Indices 1 2 3 4 5 6 
#
# 1 82.1832 85.2935 43.1005 -2.7093 -5.6394 3.2710
# 2 85.2935 110.3407 1.3605 -24.7934 -0.6894 -17.3777
# 3 43.1005 1.3605 38.8105 -9.7691 1.4058 -12.2847
# 4 -2.7093 -24.7934 -9.7691 28.7765 0.4484 -1.6322
# 5 -5.6394 -0.6894 1.4058 0.4484 22.3815 -8.2753
# 6 3.2710 -17.3777 -12.2847 -1.6322 -8.2753 54.1973
#
#
#
# Elastic Compliance Matrix: (Units=1/GPa)
#
#
# Indices 1 2 3 4 5 6 
#
# 1 -0.009923 0.012561 0.017581 0.016374 -0.000190 0.009075
# 2 0.012561 -0.003056 -0.017672 -0.007804 0.002254 -0.005634
# 3 0.017581 -0.017672 0.001314 -0.013524 0.001638 -0.006587
# 4 0.016374 -0.007804 -0.013524 0.024632 0.002217 -0.005476
# 5 -0.000190 0.002254 0.001638 0.002217 0.047679 0.008452
# 6 0.009075 -0.005634 -0.006587 -0.005476 0.008452 0.015729
#
#
# Mechanical properties :
#
#
# Convention : Reuss Voigt Hill
#
# Bulk Modulus (GPa) = 75.33426 54.53816 64.93621
# Shear Modulus (GPa) = 89.50854 27.84308 58.67581
#
# Velocity S-wave (km/s) = 6.01533 3.35495 4.87031
# Velocity P-wave (km/s) = 8.87129 6.08727 7.60772
#
# Compressibility (1/GPa) = 0.01327417
#
# Stress axis : x y z
#
# Youngs Moduli (GPa) = -100.77679 -327.24451 761.31239
#
# Poissons Ratio (x) = 4.11052 -13.38428
# Poissons Ratio (y) = 1.26586 13.45380
# Poissons Ratio (z) = 1.77171 -5.78302
#
# Static dielectric constant tensor:
#      x y z
#    x 2.117280 0.148960 0.068670 
#    y 0.148960 2.153650 0.138020 
#    z 0.068670 0.138020 2.047890 
# 
# From -- ./inp_files/218428.got.cif
#   From: 2010.05.17/outbox.cif.g08.bks.cpg/sg2_110_cif.got.tgz:218428.got - 2010.06.03 11:33:40.
