data_PCOD9104794
_publ_section_title
;
Structure prediction by ZEFSAII (Michael W. Deem and Ramdas Pophale) SiO2 
 PCOD9104794
Probable space group: P -1
;
_chemical_formula_sum "Si O2"
_cell_formula_units_Z 14
_cell_length_a 9.246335
_cell_length_b 15.869157
_cell_length_c 8.028818
_cell_angle_alpha 73.522742
_cell_angle_beta 64.684177
_cell_angle_gamma 32.353468
_cell_volume 562.515961
_symmetry_space_group_name_H-M "P -1"
_symmetry_group_IT_number 2
_symmetry_cell_setting 'triclinic'
loop_
_space_group_symop_operation_xyz
x,y,z
-x,-y,-z
loop_
_atom_site_type_symbol
_atom_site_label
_atom_site_fract_x
_atom_site_fract_y
_atom_site_fract_z
Si Si1 0.736139 0.707265 0.372313
Si Si2 0.299160 0.541206 0.331100
Si Si3 0.342904 0.789933 0.762318
Si Si4 0.245256 0.475727 0.710529
Si Si5 0.189865 0.051454 0.972063
Si Si6 0.289544 0.742279 0.154891
Si Si7 0.778759 0.775283 0.985861
O O1 0.497985 0.793524 0.579344
O O2 0.861448 0.555825 0.332942
O O3 0.998445 0.646348 0.341112
O O4 0.623043 0.806814 0.207439
O O5 0.534899 0.358261 0.284144
O O6 0.250345 0.558903 0.543827
O O7 0.382993 0.596432 0.185048
O O8 0.993333 0.941398 0.848093
O O9 0.044194 0.112851 0.825646
O O10 0.564083 0.301533 0.717799
O O11 0.036653 0.594632 0.899260
O O12 0.121893 0.173925 0.032829
O O13 0.419617 0.745343 0.945474
O O14 0.534300 0.889892 0.900045
#
# Coordination Sequence:
#
# PCOD9104794 Si02
#       7
#     2   2   2   2   2   2   2
#     4  11  22  38  63  91 124 154 197 251 305 349
#     4  11  20  38  63  91 120 157 201 251 295 352
#     4   9  19  34  59  86 118 152 195 242 298 350
#     4  11  23  34  64  97 118 149 204 254 298 344
#     4   9  22  39  65  84 122 163 202 235 304 356
#     4  10  20  39  62  90 116 158 202 248 290 351
#     4  11  21  41  63  88 121 162 202 242 293 365
#
# _framework density 24.888183999999999
#
# number of rings (size 3 to 8) (size 9 to 14) (size 15 to 20)
#    0.857    0.857    1.429    4.714    0.000    2.857 
#    0.000    1.429    6.286    0.000    0.000    0.000 
#    0.000    0.000    0.000    0.000    0.000    0.000 
#
# Total GULP energy -78160.774693 kJ/mol
# GULP energy per Si atom -5582.912478 kJ/mol
# Density = 2.483154 g / cm^3
# Si number density = 24.888184 Si / 1000 Ang^3
#
#
#
# Elastic Constant Matrix: (Units=GPa)
#
#
# Indices 1 2 3 4 5 6 
#
# 1 117.8435 28.3358 37.6558 -3.2830 -15.8310 -10.8109
# 2 28.3358 53.6473 28.3438 6.1818 -0.2443 -19.5724
# 3 37.6558 28.3438 84.9616 -0.2839 2.3614 6.3299
# 4 -3.2830 6.1818 -0.2839 25.5909 -8.6664 1.7562
# 5 -15.8310 -0.2443 2.3614 -8.6664 33.1137 -6.6197
# 6 -10.8109 -19.5724 6.3299 1.7562 -6.6197 51.7262
#
#
#
# Elastic Compliance Matrix: (Units=1/GPa)
#
#
# Indices 1 2 3 4 5 6 
#
# 1 0.012290 -0.003611 -0.004644 0.004924 0.007994 0.002627
# 2 -0.003611 0.031367 -0.009809 -0.009250 -0.000710 0.012538
# 3 -0.004644 -0.009809 0.017797 0.000847 -0.004841 -0.007508
# 4 0.004924 -0.009250 0.000847 0.046861 0.014016 -0.002372
# 5 0.007994 -0.000710 -0.004841 0.014016 0.039339 0.006553
# 6 0.002627 0.012538 -0.007508 -0.002372 0.006553 0.026464
#
#
# Mechanical properties :
#
#
# Convention : Reuss Voigt Hill
#
# Bulk Modulus (GPa) = 39.48401 49.45813 44.47107
# Shear Modulus (GPa) = 22.86368 32.89396 27.87882
#
# Velocity S-wave (km/s) = 3.03422 3.63942 3.35051
# Velocity P-wave (km/s) = 5.30795 6.12991 5.73368
#
# Compressibility (1/GPa) = 0.02532671
#
# Stress axis : x y z
#
# Youngs Moduli (GPa) = 81.36699 31.88098 56.18790
#
# Poissons Ratio (x) = 0.11511 0.26093
# Poissons Ratio (y) = 0.29378 0.55115
# Poissons Ratio (z) = 0.37786 0.31272
#
# Static dielectric constant tensor:
#      x y z
#    x 1.982810 0.011110 0.017910 
#    y 0.011110 2.005720 -0.012120 
#    z 0.017910 -0.012120 1.993170 
# 
# From -- ./inp_files/398900.got.cif
#   From: 2010.05.17/outbox.cif.g08.bks.cpg/sg2_200_cif.got.tgz:398900.got - 2010.06.03 11:33:40.
