data_PCOD9104300
_publ_section_title
;
Structure prediction by ZEFSAII (Michael W. Deem and Ramdas Pophale) SiO2 
 PCOD9104300
Probable space group: P -1
;
_chemical_formula_sum "Si O2"
_cell_formula_units_Z 16
_cell_length_a 9.947005
_cell_length_b 10.266094
_cell_length_c 11.901855
_cell_angle_alpha 72.482756
_cell_angle_beta 130.843498
_cell_angle_gamma 73.327898
_cell_volume 650.468721
_symmetry_space_group_name_H-M "P -1"
_symmetry_group_IT_number 2
_symmetry_cell_setting 'triclinic'
loop_
_space_group_symop_operation_xyz
x,y,z
-x,-y,-z
loop_
_atom_site_type_symbol
_atom_site_label
_atom_site_fract_x
_atom_site_fract_y
_atom_site_fract_z
Si Si1 0.350626 0.383281 0.974240
Si Si2 0.300671 0.329876 0.343789
Si Si3 0.657862 0.363260 0.516426
Si Si4 0.984105 0.769910 0.803375
Si Si5 0.446374 0.667345 0.140646
Si Si6 0.220662 0.975411 0.585114
Si Si7 0.919602 0.736580 0.104328
Si Si8 0.449794 0.126926 0.713943
O O1 0.163564 0.581117 0.877489
O O2 0.479889 0.375814 0.937822
O O3 0.211141 0.315970 0.883434
O O4 0.545550 0.236426 0.210517
O O5 0.546687 0.273031 0.457558
O O6 0.343524 0.260730 0.513915
O O7 0.205564 0.244439 0.251596
O O8 0.101849 0.552935 0.175340
O O9 0.500000 0.500000 0.500000
O O10 0.605346 0.483917 0.349738
O O11 0.925749 0.243517 0.737660
O O12 0.847210 0.935133 0.597498
O O13 0.168754 0.764190 0.978747
O O14 0.502499 0.789092 0.184811
O O15 0.277545 0.087092 0.655185
O O16 0.000000 0.000000 0.500000
O O17 0.710199 0.928783 0.880726
#
# Coordination Sequence:
#
# PCOD9104300 Si02
#       8
#     2   2   2   2   2   2   2   2
#     4  10  22  40  59  88 125 154 199 236 298 366
#     4   9  19  42  62  81 120 156 201 245 292 347
#     4  10  20  40  60  86 119 154 204 248 292 342
#     4  10  22  41  63  85 122 162 190 245 302 348
#     4  12  22  37  60  94 118 156 202 242 294 353
#     4  10  20  39  60  83 120 166 186 233 300 353
#     4   9  19  37  60  86 114 159 189 244 299 344
#     4  10  21  37  59  90 118 154 201 239 297 354
#
# _framework density 24.597649000000001
#
# number of rings (size 3 to 8) (size 9 to 14) (size 15 to 20)
#    0.000    2.000    3.750    0.375    0.000    3.500 
#    4.500    0.000    0.000    0.750    0.000    0.000 
#    0.000    0.000    0.000    0.000    0.000    0.000 
#
# Total GULP energy -89511.354067 kJ/mol
# GULP energy per Si atom -5594.459629 kJ/mol
# Density = 2.454166 g / cm^3
# Si number density = 24.597649 Si / 1000 Ang^3
#
#
#
# Elastic Constant Matrix: (Units=GPa)
#
#
# Indices 1 2 3 4 5 6 
#
# 1 64.0140 60.0657 40.8185 11.3845 14.1318 32.0676
# 2 60.0657 129.9897 50.8391 15.5915 12.5355 19.0471
# 3 40.8185 50.8391 158.1312 5.2799 8.8891 12.6700
# 4 11.3845 15.5915 5.2799 49.9268 15.0169 12.6743
# 5 14.1318 12.5355 8.8891 15.0169 42.4765 16.7728
# 6 32.0676 19.0471 12.6700 12.6743 16.7728 31.9231
#
#
#
# Elastic Compliance Matrix: (Units=1/GPa)
#
#
# Indices 1 2 3 4 5 6 
#
# 1 0.063293 -0.020063 -0.006035 0.004419 0.005918 -0.054077
# 2 -0.020063 0.015886 -0.000775 -0.003067 -0.001999 0.013251
# 3 -0.006035 -0.000775 0.007872 0.000095 -0.000974 0.003875
# 4 0.004419 -0.003067 0.000095 0.023954 -0.005366 -0.009338
# 5 0.005918 -0.001999 -0.000974 -0.005366 0.031730 -0.018906
# 6 -0.054077 0.013251 0.003875 -0.009338 -0.018906 0.089843
#
#
# Mechanical properties :
#
#
# Convention : Reuss Voigt Hill
#
# Bulk Modulus (GPa) = 30.02642 72.84238 51.43440
# Shear Modulus (GPa) = 16.81094 38.22606 27.51850
#
# Velocity S-wave (km/s) = 2.61710 3.94643 3.34839
# Velocity P-wave (km/s) = 4.62232 7.10236 5.99205
#
# Compressibility (1/GPa) = 0.03330400
#
# Stress axis : x y z
#
# Youngs Moduli (GPa) = 15.79966 62.94907 127.03131
#
# Poissons Ratio (x) = 1.26295 0.76662
# Poissons Ratio (y) = 0.31699 0.09850
# Poissons Ratio (z) = 0.09535 0.04881
#
# Static dielectric constant tensor:
#      x y z
#    x 1.950470 0.025590 0.039100 
#    y 0.025590 1.976980 0.042520 
#    z 0.039100 0.042520 1.921560 
# 
# From -- ./inp_files/519627.got.cif
#   From: 2010.05.17/outbox.cif.g08.bks.cpg/sg2_260_cif.got.tgz:519627.got - 2010.06.03 11:33:40.
