data_PCOD9104701
_publ_section_title
;
Structure prediction by ZEFSAII (Michael W. Deem and Ramdas Pophale) SiO2 
 PCOD9104701
Probable space group: P -1
;
_chemical_formula_sum "Si O2"
_cell_formula_units_Z 14
_cell_length_a 16.814871
_cell_length_b 6.450876
_cell_length_c 7.664923
_cell_angle_alpha 115.694131
_cell_angle_beta 121.865730
_cell_angle_gamma 72.076201
_cell_volume 632.907503
_symmetry_space_group_name_H-M "P -1"
_symmetry_group_IT_number 2
_symmetry_cell_setting 'triclinic'
loop_
_space_group_symop_operation_xyz
x,y,z
-x,-y,-z
loop_
_atom_site_type_symbol
_atom_site_label
_atom_site_fract_x
_atom_site_fract_y
_atom_site_fract_z
Si Si1 0.932045 0.018946 0.591231
Si Si2 0.442749 0.779128 0.844026
Si Si3 0.382112 0.586448 0.068326
Si Si4 0.298129 0.818369 0.381405
Si Si5 0.811669 0.629097 0.252178
Si Si6 0.130383 0.230962 0.297134
Si Si7 0.136968 0.533092 0.113409
O O1 0.916071 0.265893 0.755706
O O2 0.839737 0.894493 0.372429
O O3 0.956671 0.857706 0.731496
O O4 0.000000 0.000000 0.500000
O O5 0.394742 0.709852 0.943349
O O6 0.296257 0.422662 0.903597
O O7 0.520983 0.562513 0.821509
O O8 0.500000 0.000000 0.000000
O O9 0.354360 0.774564 0.252407
O O10 0.244387 0.592437 0.276242
O O11 0.367125 0.838003 0.627488
O O12 0.216742 0.027770 0.331910
O O13 0.842644 0.567740 0.465311
O O14 0.870186 0.498846 0.114394
O O15 0.117931 0.306120 0.113401
#
# Coordination Sequence:
#
# PCOD9104701 Si02
#       7
#     2   2   2   2   2   2   2
#     4   9  21  40  60  93 123 146 197 247 287 356
#     4  11  23  36  59  83 120 155 198 249 292 344
#     4  10  22  39  56  87 115 159 200 238 301 345
#     4  10  21  37  57  84 119 151 199 245 283 351
#     4   9  20  40  61  85 120 156 195 241 291 350
#     4   9  20  37  58  85 116 155 196 237 291 348
#     4  10  20  39  62  85 118 160 196 237 296 349
#
# _framework density 22.120135999999999
#
# number of rings (size 3 to 8) (size 9 to 14) (size 15 to 20)
#    0.857    1.429    0.000    2.143    0.000    6.286 
#    7.714    0.714    0.000    0.000    0.000    0.000 
#    0.000    0.000    0.000    0.000    0.000    0.000 
#
# Total GULP energy -77945.547369 kJ/mol
# GULP energy per Si atom -5567.539098 kJ/mol
# Density = 2.206979 g / cm^3
# Si number density = 22.120136 Si / 1000 Ang^3
#
#
#
# Elastic Constant Matrix: (Units=GPa)
#
#
# Indices 1 2 3 4 5 6 
#
# 1 124.6124 60.0432 56.3605 -12.0073 -31.5611 17.0919
# 2 60.0432 77.7580 38.5513 -2.8998 -5.4442 6.4427
# 3 56.3605 38.5513 91.1885 -5.1612 -27.1644 -1.1590
# 4 -12.0073 -2.8998 -5.1612 20.5363 1.3666 -1.8379
# 5 -31.5611 -5.4442 -27.1644 1.3666 53.0227 -1.7162
# 6 17.0919 6.4427 -1.1590 -1.8379 -1.7162 24.4364
#
#
#
# Elastic Compliance Matrix: (Units=1/GPa)
#
#
# Indices 1 2 3 4 5 6 
#
# 1 0.019478 -0.011011 -0.004878 0.007227 0.007458 -0.009885
# 2 -0.011011 0.023316 -0.005279 -0.003976 -0.006745 0.000531
# 3 -0.004878 -0.005279 0.018149 0.001115 0.006023 0.006172
# 4 0.007227 -0.003976 0.001115 0.052450 0.003120 0.000210
# 5 0.007458 -0.006745 0.006023 0.003120 0.025576 -0.001121
# 6 -0.009885 0.000531 0.006172 0.000210 -0.001121 0.047926
#
#
# Mechanical properties :
#
#
# Convention : Reuss Voigt Hill
#
# Bulk Modulus (GPa) = 53.74779 67.05212 60.39995
# Shear Modulus (GPa) = 21.23740 28.83932 25.03836
#
# Velocity S-wave (km/s) = 3.10190 3.61468 3.36806
# Velocity P-wave (km/s) = 6.09753 6.91373 6.51842
#
# Compressibility (1/GPa) = 0.01860541
#
# Stress axis : x y z
#
# Youngs Moduli (GPa) = 51.34001 42.88935 55.09893
#
# Poissons Ratio (x) = 0.47226 0.26880
# Poissons Ratio (y) = 0.56531 0.29087
# Poissons Ratio (z) = 0.25046 0.22642
#
# Static dielectric constant tensor:
#      x y z
#    x 1.833670 -0.003920 0.002630 
#    y -0.003920 1.862330 0.027040 
#    z 0.002630 0.027040 1.857280 
# 
# From -- ./inp_files/323020.got.cif
#   From: 2010.05.17/outbox.cif.g08.bks.cpg/sg2_162_cif.got.tgz:323020.got - 2010.06.03 11:33:40.
