data_PCOD9104201
_publ_section_title
;
Structure prediction by ZEFSAII (Michael W. Deem and Ramdas Pophale) SiO2 
 PCOD9104201
Probable space group: P -1
;
_chemical_formula_sum "Si O2"
_cell_formula_units_Z 14
_cell_length_a 14.114287
_cell_length_b 8.738499
_cell_length_c 6.212653
_cell_angle_alpha 54.180227
_cell_angle_beta 113.355871
_cell_angle_gamma 110.245130
_cell_volume 563.683758
_symmetry_space_group_name_H-M "P -1"
_symmetry_group_IT_number 2
_symmetry_cell_setting 'triclinic'
loop_
_space_group_symop_operation_xyz
x,y,z
-x,-y,-z
loop_
_atom_site_type_symbol
_atom_site_label
_atom_site_fract_x
_atom_site_fract_y
_atom_site_fract_z
Si Si1 0.209944 0.766767 0.141660
Si Si2 0.565758 0.119555 0.271119
Si Si3 0.893511 0.572561 0.408735
Si Si4 0.873824 0.944633 0.895031
Si Si5 0.389735 0.604951 0.539030
Si Si6 0.413969 0.231191 0.672033
Si Si7 0.949312 0.175771 0.389203
O O1 0.183703 0.606810 0.434417
O O2 0.194047 0.970726 0.054152
O O3 0.326716 0.737857 0.223627
O O4 0.120282 0.724848 0.918055
O O5 0.614734 0.311195 0.290201
O O6 0.500000 0.000000 0.500000
O O7 0.629398 0.964787 0.337040
O O8 0.485151 0.172855 0.977920
O O9 0.000000 0.500000 0.500000
O O10 0.943221 0.695646 0.551657
O O11 0.855504 0.715908 0.082911
O O12 0.867413 0.075449 0.574895
O O13 0.000000 0.000000 0.000000
O O14 0.351779 0.385278 0.608019
O O15 0.510452 0.650494 0.535631
O O16 0.000000 0.000000 0.500000
#
# Coordination Sequence:
#
# PCOD9104201 Si02
#       7
#     2   2   2   2   2   2   2
#     4  12  23  39  61  96 124 164 217 261 309 382
#     4   9  18  38  67  92 116 169 203 246 317 385
#     4  11  20  40  63  83 119 167 212 253 315 377
#     4  10  20  39  59  84 120 159 206 261 312 366
#     4  10  22  38  63  93 127 162 207 260 314 374
#     4   9  19  41  66  88 129 163 205 250 316 385
#     4  11  20  39  65  83 120 171 207 256 321 366
#
# _framework density 24.836622999999999
#
# number of rings (size 3 to 8) (size 9 to 14) (size 15 to 20)
#    0.000    1.714    5.714    0.857    0.000    1.143 
#    7.714    2.857    0.000    0.000    0.000    0.000 
#    0.000    0.000    0.000    0.000    0.000    0.000 
#
# Total GULP energy -77947.211848 kJ/mol
# GULP energy per Si atom -5567.657989 kJ/mol
# Density = 2.478009 g / cm^3
# Si number density = 24.836623 Si / 1000 Ang^3
#
#
#
# Elastic Constant Matrix: (Units=GPa)
#
#
# Indices 1 2 3 4 5 6 
#
# 1 39.0151 21.9252 20.5313 -4.2799 11.4487 -1.2354
# 2 21.9252 179.7297 24.8264 -8.0623 12.9426 -37.8462
# 3 20.5313 24.8264 84.8077 -14.8795 -9.3143 2.4399
# 4 -4.2799 -8.0623 -14.8795 42.2816 2.6498 4.8377
# 5 11.4487 12.9426 -9.3143 2.6498 35.4341 -13.9983
# 6 -1.2354 -37.8462 2.4399 4.8377 -13.9983 33.6750
#
#
#
# Elastic Compliance Matrix: (Units=1/GPa)
#
#
# Indices 1 2 3 4 5 6 
#
# 1 0.037726 -0.004115 -0.009174 0.002031 -0.017209 -0.010021
# 2 -0.004115 0.008257 -0.001621 -0.000697 0.001953 0.010158
# 3 -0.009174 -0.001621 0.016005 0.004060 0.007081 -0.000958
# 4 0.002031 -0.000697 0.004060 0.026114 -0.003787 -0.006329
# 5 -0.017209 0.001953 0.007081 -0.003787 0.042885 0.019421
# 6 -0.010021 0.010158 -0.000958 -0.006329 0.019421 0.049796
#
#
# Mechanical properties :
#
#
# Convention : Reuss Voigt Hill
#
# Bulk Modulus (GPa) = 31.08688 48.67983 39.88336
# Shear Modulus (GPa) = 22.59115 38.02946 30.31031
#
# Velocity S-wave (km/s) = 3.01921 3.91728 3.49719
# Velocity P-wave (km/s) = 4.96970 6.33267 5.69213
#
# Compressibility (1/GPa) = 0.03216791
#
# Stress axis : x y z
#
# Youngs Moduli (GPa) = 26.50659 121.11069 62.48218
#
# Poissons Ratio (x) = 0.49835 0.57322
# Poissons Ratio (y) = 0.10907 0.10129
# Poissons Ratio (z) = 0.24318 0.19633
#
# Static dielectric constant tensor:
#      x y z
#    x 2.132430 -0.112800 0.009550 
#    y -0.112800 1.138110 -0.687860 
#    z 0.009550 -0.687860 1.465630 
# 
# From -- ./inp_files/89707.got.cif
#   From: 2010.05.17/outbox.cif.g08.bks.cpg/sg2_45_cif.got.tgz:89707.got - 2010.06.03 11:33:40.
