data_PCOD9104433
_publ_section_title
;
Structure prediction by ZEFSAII (Michael W. Deem and Ramdas Pophale) SiO2 
 PCOD9104433
Probable space group: P -1
;
_chemical_formula_sum "Si O2"
_cell_formula_units_Z 11
_cell_length_a 6.446459
_cell_length_b 7.335584
_cell_length_c 9.761953
_cell_angle_alpha 87.430382
_cell_angle_beta 92.548806
_cell_angle_gamma 118.169928
_cell_volume 406.397677
_symmetry_space_group_name_H-M "P -1"
_symmetry_group_IT_number 2
_symmetry_cell_setting 'triclinic'
loop_
_space_group_symop_operation_xyz
x,y,z
-x,-y,-z
loop_
_atom_site_type_symbol
_atom_site_label
_atom_site_fract_x
_atom_site_fract_y
_atom_site_fract_z
Si Si1 0.267099 0.539871 0.820712
Si Si2 0.500000 0.000000 0.000000
Si Si3 0.970273 0.726283 0.715652
Si Si4 0.420872 0.262690 0.430060
Si Si5 0.502298 0.080835 0.687469
Si Si6 0.730316 0.797099 0.968757
O O1 0.030306 0.549959 0.781161
O O2 0.392211 0.578086 0.676935
O O3 0.448282 0.738145 0.917485
O O4 0.261240 0.350473 0.909673
O O5 0.441869 0.876750 0.154643
O O6 0.780373 0.020313 0.009395
O O7 0.225736 0.912224 0.683716
O O8 0.809147 0.707977 0.581819
O O9 0.825821 0.761953 0.832048
O O10 0.366114 0.038346 0.372039
O O11 0.525420 0.259669 0.580996
#
# Coordination Sequence:
#
# PCOD9104433 Si02
#       6
#     2   1   2   2   2   2
#     4   9  18  35  55  78 104 141 180 212 254 316
#     4  12  20  38  50  82 112 138 168 222 274 304
#     4  10  16  33  56  81 102 138 182 216 254 307
#     4   9  18  35  55  78 104 141 180 212 254 316
#     4  10  20  33  53  80 110 137 174 217 263 313
#     4  10  20  33  53  80 110 137 174 217 263 313
#
# _framework density 27.067086
#
# number of rings (size 3 to 8) (size 9 to 14) (size 15 to 20)
#    0.000    2.182    5.455    1.091    0.000    0.727 
#    0.000    0.909    0.000    1.091    0.000    0.000 
#    0.000    0.000    0.000    0.000    0.000    0.000 
#
# Total GULP energy -61358.136319 kJ/mol
# GULP energy per Si atom -5578.012393 kJ/mol
# Density = 2.700548 g / cm^3
# Si number density = 27.067086 Si / 1000 Ang^3
#
#
#
# Elastic Constant Matrix: (Units=GPa)
#
#
# Indices 1 2 3 4 5 6 
#
# 1 125.8967 23.4700 55.9817 -13.4595 39.8180 -22.0610
# 2 23.4700 72.9871 49.0283 -17.0068 9.8250 -5.2035
# 3 55.9817 49.0283 261.8406 -25.4232 24.4158 -4.1242
# 4 -13.4595 -17.0068 -25.4232 40.7556 -5.0520 -5.7101
# 5 39.8180 9.8250 24.4158 -5.0520 57.8902 -7.6578
# 6 -22.0610 -5.2035 -4.1242 -5.7101 -7.6578 23.7452
#
#
#
# Elastic Compliance Matrix: (Units=1/GPa)
#
#
# Indices 1 2 3 4 5 6 
#
# 1 0.013045 -0.000672 -0.001528 0.003741 -0.006497 0.010511
# 2 -0.000672 0.017276 -0.002407 0.006006 -0.000393 0.004061
# 3 -0.001528 -0.002407 0.004755 0.001245 -0.000570 -0.001006
# 4 0.003741 0.006006 0.001245 0.030834 0.000226 0.012496
# 5 -0.006497 -0.000393 -0.000570 0.000226 0.022201 0.000993
# 6 0.010511 0.004061 -0.001006 0.012496 0.000993 0.055920
#
#
# Mechanical properties :
#
#
# Convention : Reuss Voigt Hill
#
# Bulk Modulus (GPa) = 38.67069 79.74269 59.20669
# Shear Modulus (GPa) = 30.88978 46.62782 38.75880
#
# Velocity S-wave (km/s) = 3.38187 4.15502 3.78822
# Velocity P-wave (km/s) = 5.43759 7.24872 6.40747
#
# Compressibility (1/GPa) = 0.02585938
#
# Stress axis : x y z
#
# Youngs Moduli (GPa) = 76.66021 57.88319 210.31068
#
# Poissons Ratio (x) = 0.03891 0.32145
# Poissons Ratio (y) = 0.05153 0.50631
# Poissons Ratio (z) = 0.11717 0.13935
#
# Static dielectric constant tensor:
#      x y z
#    x 2.912710 -0.428140 -0.080200 
#    y -0.428140 2.809430 0.238190 
#    z -0.080200 0.238190 2.107210 
# 
# From -- ./inp_files/361148.got.cif
#   From: 2010.05.17/outbox.cif.g08.bks.cpg/sg2_181_cif.got.tgz:361148.got - 2010.06.03 11:33:40.
