data_PCOD9104855
_publ_section_title
;
Structure prediction by ZEFSAII (Michael W. Deem and Ramdas Pophale) SiO2 
 PCOD9104855
Probable space group: P -1
;
_chemical_formula_sum "Si O2"
_cell_formula_units_Z 14
_cell_length_a 12.041849
_cell_length_b 12.741846
_cell_length_c 14.381448
_cell_angle_alpha 142.312611
_cell_angle_beta 40.223770
_cell_angle_gamma 111.469990
_cell_volume 694.717602
_symmetry_space_group_name_H-M "P -1"
_symmetry_group_IT_number 2
_symmetry_cell_setting 'triclinic'
loop_
_space_group_symop_operation_xyz
x,y,z
-x,-y,-z
loop_
_atom_site_type_symbol
_atom_site_label
_atom_site_fract_x
_atom_site_fract_y
_atom_site_fract_z
Si Si1 0.242487 0.067772 0.107443
Si Si2 0.034531 0.528832 0.779751
Si Si3 0.322395 0.019693 0.237701
Si Si4 0.809245 0.440702 0.719499
Si Si5 0.279523 0.069353 0.642784
Si Si6 0.677988 0.196526 0.745775
Si Si7 0.939309 0.113962 0.019849
O O1 0.299007 0.986515 0.121222
O O2 0.005289 0.294839 0.421318
O O3 0.224064 0.913492 0.946780
O O4 0.428781 0.086461 0.972919
O O5 0.867892 0.569455 0.834836
O O6 0.194154 0.275258 0.513144
O O7 0.892300 0.670808 0.059071
O O8 0.143210 0.639732 0.752777
O O9 0.245231 0.920763 0.287436
O O10 0.805128 0.280282 0.680089
O O11 0.571006 0.595386 0.940096
O O12 0.500000 0.000000 0.500000
O O13 0.311946 0.962812 0.448132
O O14 0.157456 0.003533 0.740606
O O15 0.000000 0.000000 0.000000
#
# Coordination Sequence:
#
# PCOD9104855 Si02
#       7
#     2   2   2   2   2   2   2
#     4  10  22  43  59  89 127 157 206 246 295 366
#     4   9  21  39  61  88 122 154 201 249 298 361
#     4  10  24  41  61  87 126 166 193 252 302 359
#     4  10  20  39  63  89 119 154 212 252 282 366
#     4  10  20  39  62  92 122 151 200 259 292 359
#     4  11  21  38  64  91 119 161 200 250 307 345
#     4  10  22  41  66  89 118 162 199 256 296 354
#
# _framework density 20.152073000000001
#
# number of rings (size 3 to 8) (size 9 to 14) (size 15 to 20)
#    0.857    1.143    2.857    0.000    4.000    4.000 
#    5.143    0.000    3.143    0.000    0.000    0.000 
#    0.000    0.000    0.000    0.000    0.000    0.000 
#
# Total GULP energy -78065.341445 kJ/mol
# GULP energy per Si atom -5576.095818 kJ/mol
# Density = 2.010621 g / cm^3
# Si number density = 20.152073 Si / 1000 Ang^3
#
#
#
# Elastic Constant Matrix: (Units=GPa)
#
#
# Indices 1 2 3 4 5 6 
#
# 1 79.6781 24.3063 -1.9945 3.6748 10.0004 18.2009
# 2 24.3063 79.0706 14.6184 10.9146 -2.4434 -9.0954
# 3 -1.9945 14.6184 67.5882 0.5323 -6.5315 1.4424
# 4 3.6748 10.9146 0.5323 25.7460 12.9779 -2.5920
# 5 10.0004 -2.4434 -6.5315 12.9779 23.8806 -2.5829
# 6 18.2009 -9.0954 1.4424 -2.5920 -2.5829 28.0446
#
#
#
# Elastic Compliance Matrix: (Units=1/GPa)
#
#
# Indices 1 2 3 4 5 6 
#
# 1 0.021638 -0.010593 0.001746 0.007428 -0.015686 -0.018326
# 2 -0.010593 0.020320 -0.003558 -0.012654 0.013907 0.013759
# 3 0.001746 -0.003558 0.016038 -0.001191 0.003626 -0.002888
# 4 0.007428 -0.012654 -0.001191 0.062314 -0.039323 -0.006726
# 5 -0.015686 0.013907 0.003626 -0.039323 0.074143 0.017698
# 6 -0.018326 0.013759 -0.002888 -0.006726 0.017698 0.053170
#
#
# Mechanical properties :
#
#
# Convention : Reuss Voigt Hill
#
# Bulk Modulus (GPa) = 30.13124 33.35527 31.74326
# Shear Modulus (GPa) = 17.63702 28.16137 22.89920
#
# Velocity S-wave (km/s) = 2.96158 3.74229 3.37459
# Velocity P-wave (km/s) = 5.16517 5.93807 5.56506
#
# Compressibility (1/GPa) = 0.03318814
#
# Stress axis : x y z
#
# Youngs Moduli (GPa) = 46.21482 49.21286 62.35226
#
# Poissons Ratio (x) = 0.52129 -0.10888
# Poissons Ratio (y) = 0.48953 0.22182
# Poissons Ratio (z) = -0.08070 0.17508
#
# Static dielectric constant tensor:
#      x y z
#    x 1.693450 0.014050 0.006640 
#    y 0.014050 1.699450 0.003320 
#    z 0.006640 0.003320 1.754730 
# 
# From -- ./inp_files/519226.got.cif
#   From: 2010.05.17/outbox.cif.g08.bks.cpg/sg2_260_cif.got.tgz:519226.got - 2010.06.03 11:33:40.
