data_PCOD9104312
_publ_section_title
;
Structure prediction by ZEFSAII (Michael W. Deem and Ramdas Pophale) SiO2 
 PCOD9104312
Probable space group: P -1
;
_chemical_formula_sum "Si O2"
_cell_formula_units_Z 16
_cell_length_a 9.222882
_cell_length_b 24.385000
_cell_length_c 9.475911
_cell_angle_alpha 129.852534
_cell_angle_beta 119.427881
_cell_angle_gamma 27.082679
_cell_volume 725.473472
_symmetry_space_group_name_H-M "P -1"
_symmetry_group_IT_number 2
_symmetry_cell_setting 'triclinic'
loop_
_space_group_symop_operation_xyz
x,y,z
-x,-y,-z
loop_
_atom_site_type_symbol
_atom_site_label
_atom_site_fract_x
_atom_site_fract_y
_atom_site_fract_z
Si Si1 0.334222 0.364521 0.017260
Si Si2 0.002710 0.767910 0.096107
Si Si3 0.499433 0.419026 0.718185
Si Si4 0.451215 0.559548 0.721255
Si Si5 0.347071 0.989771 0.495797
Si Si6 0.680846 0.193680 0.386230
Si Si7 0.264139 0.280100 0.093163
Si Si8 0.621221 0.160096 0.600013
O O1 0.407770 0.414540 0.195875
O O2 0.314135 0.311340 0.035539
O O3 0.581929 0.242136 0.818279
O O4 0.000000 0.500000 0.000000
O O5 0.319633 0.646163 0.151084
O O6 0.830408 0.905071 0.283087
O O7 0.116916 0.706268 0.889788
O O8 0.755157 0.796638 0.071459
O O9 0.609306 0.446648 0.724809
O O10 0.586693 0.311099 0.513489
O O11 0.107343 0.566055 0.780807
O O12 0.500000 0.500000 0.500000
O O13 0.068458 0.055527 0.373257
O O14 0.500000 0.000000 0.500000
O O15 0.542564 0.850404 0.426810
O O16 0.542679 0.197370 0.201112
O O17 0.512396 0.225388 0.500852
O O18 0.000000 0.000000 0.500000
#
# Coordination Sequence:
#
# PCOD9104312 Si02
#       8
#     2   2   2   2   2   2   2   2
#     4  12  23  38  63  95 124 162 213 260 307 375
#     4  10  21  40  62  87 122 168 210 247 308 385
#     4  10  20  39  60  84 124 170 203 244 310 381
#     4  11  22  35  55  88 126 160 197 253 311 363
#     4  10  21  42  68  90 117 165 217 260 310 379
#     4  10  21  38  61  90 120 160 208 257 309 366
#     4  11  21  36  59  92 128 159 199 262 316 363
#     4  10  22  42  65  88 121 166 211 255 311 384
#
# _framework density 22.054561
#
# number of rings (size 3 to 8) (size 9 to 14) (size 15 to 20)
#    0.000    1.500    0.000    7.875    0.000    4.000 
#    0.000    8.750    0.000    1.500    0.000    0.000 
#    0.000    0.000    0.000    0.000    0.000    0.000 
#
# Total GULP energy -89246.920883 kJ/mol
# GULP energy per Si atom -5577.932555 kJ/mol
# Density = 2.200436 g / cm^3
# Si number density = 22.054561 Si / 1000 Ang^3
#
#
#
# Elastic Constant Matrix: (Units=GPa)
#
#
# Indices 1 2 3 4 5 6 
#
# 1 116.0420 14.7909 38.4930 -18.7913 16.8293 -3.7432
# 2 14.7909 35.0770 32.8131 -6.1739 10.0291 -4.9223
# 3 38.4930 32.8131 124.6163 -2.2322 16.5522 -1.5215
# 4 -18.7913 -6.1739 -2.2322 31.7115 4.2047 2.1787
# 5 16.8293 10.0291 16.5522 4.2047 39.1433 4.9099
# 6 -3.7432 -4.9223 -1.5215 2.1787 4.9099 25.8398
#
#
#
# Elastic Compliance Matrix: (Units=1/GPa)
#
#
# Indices 1 2 3 4 5 6 
#
# 1 0.011440 0.000917 -0.002966 0.007266 -0.004928 0.001981
# 2 0.000917 0.042987 -0.010120 0.008816 -0.009170 0.008725
# 3 -0.002966 -0.010120 0.011618 -0.002741 -0.000583 -0.001331
# 4 0.007266 0.008816 -0.002741 0.038422 -0.008469 0.000940
# 5 -0.004928 -0.009170 -0.000583 -0.008469 0.032162 -0.007892
# 6 0.001981 0.008725 -0.001331 0.000940 -0.007892 0.041991
#
#
# Mechanical properties :
#
#
# Convention : Reuss Voigt Hill
#
# Bulk Modulus (GPa) = 23.97737 49.76993 36.87365
# Shear Modulus (GPa) = 23.05652 31.98147 27.51899
#
# Velocity S-wave (km/s) = 3.23682 3.81216 3.53621
# Velocity P-wave (km/s) = 4.98646 6.48016 5.78175
#
# Compressibility (1/GPa) = 0.04170599
#
# Stress axis : x y z
#
# Youngs Moduli (GPa) = 87.41365 23.26304 86.07652
#
# Poissons Ratio (x) = -0.02133 0.25532
# Poissons Ratio (y) = -0.08014 0.87106
# Poissons Ratio (z) = 0.25928 0.23541
#
# Static dielectric constant tensor:
#      x y z
#    x 1.909650 -0.013440 -0.032440 
#    y -0.013440 1.791890 0.024110 
#    z -0.032440 0.024110 1.812310 
# 
# From -- ./inp_files/226539.got.cif
#   From: 2010.05.17/outbox.cif.g08.bks.cpg/sg2_114_cif.got.tgz:226539.got - 2010.06.03 11:33:40.
