data_PCOD9104232
_publ_section_title
;
Structure prediction by ZEFSAII (Michael W. Deem and Ramdas Pophale) SiO2 
 PCOD9104232
Probable space group: P -1
;
_chemical_formula_sum "Si O2"
_cell_formula_units_Z 12
_cell_length_a 11.854069
_cell_length_b 8.774833
_cell_length_c 9.215099
_cell_angle_alpha 124.863468
_cell_angle_beta 59.351323
_cell_angle_gamma 127.278199
_cell_volume 605.860738
_symmetry_space_group_name_H-M "P -1"
_symmetry_group_IT_number 2
_symmetry_cell_setting 'triclinic'
loop_
_space_group_symop_operation_xyz
x,y,z
-x,-y,-z
loop_
_atom_site_type_symbol
_atom_site_label
_atom_site_fract_x
_atom_site_fract_y
_atom_site_fract_z
Si Si1 0.266683 0.544354 0.974782
Si Si2 0.875404 0.309777 0.391637
Si Si3 0.923803 0.923271 0.166882
Si Si4 0.343980 0.595627 0.263385
Si Si5 0.416842 0.226962 0.021636
Si Si6 0.154558 0.784647 0.975367
O O1 0.215882 0.299962 0.864432
O O2 0.441596 0.681393 0.915853
O O3 0.175278 0.622091 0.976093
O O4 0.247171 0.580718 0.176565
O O5 0.720409 0.314757 0.523322
O O6 0.893986 0.308802 0.204874
O O7 0.000000 0.500000 0.500000
O O8 0.881054 0.103203 0.336456
O O9 0.042089 0.874066 0.148844
O O10 0.000000 0.000000 0.000000
O O11 0.333344 0.369191 0.176148
O O12 0.507496 0.725571 0.162515
O O13 0.309861 0.988199 0.975609
#
# Coordination Sequence:
#
# PCOD9104232 Si02
#       6
#     2   2   2   2   2   2
#     4  10  20  39  59  87 112 150 187 233 285 337
#     4  11  22  37  57  85 114 149 194 235 275 332
#     4  10  21  36  60  80 112 152 191 226 280 338
#     4   9  19  36  61  79 116 145 194 223 278 330
#     4   9  20  38  63  82 115 151 189 225 284 346
#     4  11  21  37  61  85 115 150 187 232 289 331
#
# _framework density 19.806531
#
# number of rings (size 3 to 8) (size 9 to 14) (size 15 to 20)
#    1.000    1.000    0.000    6.000    0.000    0.667 
#    0.000    5.833    0.000    0.000    0.000    0.000 
#    0.000    0.000    0.000    0.000    0.000    0.000 
#
# Total GULP energy -66825.072640 kJ/mol
# GULP energy per Si atom -5568.756053 kJ/mol
# Density = 1.976145 g / cm^3
# Si number density = 19.806531 Si / 1000 Ang^3
#
#
#
# Elastic Constant Matrix: (Units=GPa)
#
#
# Indices 1 2 3 4 5 6 
#
# 1 117.0623 34.6008 30.4248 6.1586 -1.0393 -17.3528
# 2 34.6008 87.2094 18.2789 28.7128 3.7542 -0.4595
# 3 30.4248 18.2789 56.7454 9.7155 -22.7248 -7.2395
# 4 6.1586 28.7128 9.7155 18.6838 2.5532 2.8920
# 5 -1.0393 3.7542 -22.7248 2.5532 37.2878 5.3371
# 6 -17.3528 -0.4595 -7.2395 2.8920 5.3371 45.0522
#
#
#
# Elastic Compliance Matrix: (Units=1/GPa)
#
#
# Indices 1 2 3 4 5 6 
#
# 1 0.012374 -0.006242 -0.007845 0.009744 -0.004962 0.003404
# 2 -0.006242 0.026763 0.002204 -0.040481 0.001148 0.000685
# 3 -0.007845 0.002204 0.033403 -0.021256 0.021197 0.001222
# 4 0.009744 -0.040481 -0.021256 0.126785 -0.016391 -0.006272
# 5 -0.004962 0.001148 0.021197 -0.016391 0.040933 -0.002290
# 6 0.003404 0.000685 0.001222 -0.006272 -0.002290 0.024385
#
#
# Mechanical properties :
#
#
# Convention : Reuss Voigt Hill
#
# Bulk Modulus (GPa) = 20.50278 47.51401 34.00839
# Shear Modulus (GPa) = 16.41127 32.05226 24.23177
#
# Velocity S-wave (km/s) = 2.88163 4.02713 3.50154
# Velocity P-wave (km/s) = 4.63095 6.75758 5.79269
#
# Compressibility (1/GPa) = 0.04877388
#
# Stress axis : x y z
#
# Youngs Moduli (GPa) = 80.81205 37.36453 29.93729
#
# Poissons Ratio (x) = 0.23323 0.23487
# Poissons Ratio (y) = 0.50442 -0.06598
# Poissons Ratio (z) = 0.63400 -0.08234
#
# Static dielectric constant tensor:
#      x y z
#    x 1.761030 0.043710 -0.001420 
#    y 0.043710 1.736100 -0.003300 
#    z -0.001420 -0.003300 1.695880 
# 
# From -- ./inp_files/200046.got.cif
#   From: 2010.05.17/outbox.cif.g08.bks.cpg/sg2_101_cif.got.tgz:200046.got - 2010.06.03 11:33:40.
