data_PCOD9104830
_publ_section_title
;
Structure prediction by ZEFSAII (Michael W. Deem and Ramdas Pophale) SiO2 
 PCOD9104830
Probable space group: P -1
;
_chemical_formula_sum "Si O2"
_cell_formula_units_Z 16
_cell_length_a 6.967048
_cell_length_b 20.088159
_cell_length_c 14.982205
_cell_angle_alpha 22.105043
_cell_angle_beta 64.743113
_cell_angle_gamma 66.971050
_cell_volume 713.569383
_symmetry_space_group_name_H-M "P -1"
_symmetry_group_IT_number 2
_symmetry_cell_setting 'triclinic'
loop_
_space_group_symop_operation_xyz
x,y,z
-x,-y,-z
loop_
_atom_site_type_symbol
_atom_site_label
_atom_site_fract_x
_atom_site_fract_y
_atom_site_fract_z
Si Si1 0.932381 0.690785 0.514240
Si Si2 0.403120 0.187546 0.190232
Si Si3 0.665073 0.536792 0.289437
Si Si4 0.604302 0.437487 0.967323
Si Si5 0.173747 0.911281 0.685816
Si Si6 0.929959 0.309341 0.710021
Si Si7 0.090874 0.032916 0.161754
Si Si8 0.466390 0.256609 0.782139
O O1 0.110511 0.542685 0.679752
O O2 0.942073 0.730369 0.357492
O O3 0.709141 0.604330 0.690751
O O4 0.004253 0.849924 0.366086
O O5 0.621429 0.079716 0.297123
O O6 0.215190 0.057647 0.419669
O O7 0.399257 0.299060 0.962393
O O8 0.418152 0.344788 0.063540
O O9 0.508173 0.366104 0.546435
O O10 0.309478 0.734929 0.221430
O O11 0.500000 0.500000 0.000000
O O12 0.781356 0.280977 0.127882
O O13 0.974734 0.939953 0.755097
O O14 0.680963 0.619289 0.282271
O O15 0.000000 0.500000 0.500000
O O16 0.975399 0.177721 0.944631
O O17 0.340007 0.071571 0.040758
#
# Coordination Sequence:
#
# PCOD9104830 Si02
#       8
#     2   2   2   2   2   2   2   2
#     4  11  25  38  61  96 135 170 213 271 328 394
#     4   9  20  38  68  88 124 169 220 272 320 388
#     4  10  20  41  60  94 122 170 213 266 325 385
#     4  10  20  39  62  91 125 166 215 270 322 381
#     4   9  20  39  67  93 121 171 218 271 319 389
#     4  11  23  42  68  97 127 175 223 266 332 393
#     4  12  23  42  65  95 141 169 215 273 327 391
#     4  10  23  39  66  96 130 171 224 261 326 394
#
# _framework density 22.422487
#
# number of rings (size 3 to 8) (size 9 to 14) (size 15 to 20)
#    0.750    1.000    0.000    5.625    3.500    2.000 
#    2.250    5.000    0.000    0.000    0.000    0.000 
#    0.000    0.000    0.000    0.000    0.000    0.000 
#
# Total GULP energy -89172.533195 kJ/mol
# GULP energy per Si atom -5573.283325 kJ/mol
# Density = 2.237145 g / cm^3
# Si number density = 22.422487 Si / 1000 Ang^3
#
#
#
# Elastic Constant Matrix: (Units=GPa)
#
#
# Indices 1 2 3 4 5 6 
#
# 1 74.4642 10.7743 30.4062 4.7941 -20.3024 2.0754
# 2 10.7743 111.3647 42.8061 22.1309 -20.2062 1.5246
# 3 30.4062 42.8061 120.8763 28.9186 -23.9643 -3.5870
# 4 4.7941 22.1309 28.9186 36.7881 2.3360 -6.5081
# 5 -20.3024 -20.2062 -23.9643 2.3360 42.5940 1.1071
# 6 2.0754 1.5246 -3.5870 -6.5081 1.1071 22.0497
#
#
#
# Elastic Compliance Matrix: (Units=1/GPa)
#
#
# Indices 1 2 3 4 5 6 
#
# 1 0.016519 0.001110 -0.002906 -0.001487 0.006922 -0.002891
# 2 0.001110 0.012040 -0.001876 -0.006903 0.005656 -0.003563
# 3 -0.002906 -0.001876 0.012917 -0.009076 0.005502 -0.000450
# 4 -0.001487 -0.006903 -0.009076 0.041525 -0.011678 0.011983
# 5 0.006922 0.005656 0.005502 -0.011678 0.033333 -0.005268
# 6 -0.002891 -0.003563 -0.000450 0.011983 -0.005268 0.049599
#
#
# Mechanical properties :
#
#
# Convention : Reuss Voigt Hill
#
# Bulk Modulus (GPa) = 29.29852 52.74205 41.02028
# Shear Modulus (GPa) = 27.07776 35.13428 31.10602
#
# Velocity S-wave (km/s) = 3.47885 3.96273 3.72865
# Velocity P-wave (km/s) = 5.40661 6.67163 6.07215
#
# Compressibility (1/GPa) = 0.03413141
#
# Stress axis : x y z
#
# Youngs Moduli (GPa) = 60.53691 83.05658 77.41813
#
# Poissons Ratio (x) = -0.09218 0.22499
# Poissons Ratio (y) = -0.06719 0.14523
# Poissons Ratio (z) = 0.17593 0.15580
#
# Static dielectric constant tensor:
#      x y z
#    x 1.978890 0.013410 0.023560 
#    y 0.013410 1.833590 0.019410 
#    z 0.023560 0.019410 1.920190 
# 
# From -- ./inp_files/507801.got.cif
#   From: 2010.05.17/outbox.cif.g08.bks.cpg/sg2_254_cif.got.tgz:507801.got - 2010.06.03 11:33:40.
