data_PCOD9104472
_publ_section_title
;
Structure prediction by ZEFSAII (Michael W. Deem and Ramdas Pophale) SiO2 
 PCOD9104472
Probable space group: P -1
;
_chemical_formula_sum "Si O2"
_cell_formula_units_Z 16
_cell_length_a 12.293981
_cell_length_b 6.544864
_cell_length_c 25.654911
_cell_angle_alpha 127.511993
_cell_angle_beta 27.346823
_cell_angle_gamma 132.322634
_cell_volume 700.757991
_symmetry_space_group_name_H-M "P -1"
_symmetry_group_IT_number 2
_symmetry_cell_setting 'triclinic'
loop_
_space_group_symop_operation_xyz
x,y,z
-x,-y,-z
loop_
_atom_site_type_symbol
_atom_site_label
_atom_site_fract_x
_atom_site_fract_y
_atom_site_fract_z
Si Si1 0.991243 0.472928 0.561243
Si Si2 0.433267 0.671496 0.478813
Si Si3 0.996320 0.153965 0.079289
Si Si4 0.458638 0.610786 0.919750
Si Si5 0.120365 0.465420 0.686125
Si Si6 0.306166 0.121785 0.238260
Si Si7 0.444246 0.925532 0.251516
Si Si8 0.752053 0.760880 0.916482
O O1 0.874574 0.702155 0.663131
O O2 0.796485 0.192867 0.626226
O O3 0.000000 0.500000 0.500000
O O4 0.266940 0.542075 0.479105
O O5 0.255623 0.550227 0.585949
O O6 0.679897 0.593039 0.369907
O O7 0.500000 0.000000 0.500000
O O8 0.143584 0.061610 0.048248
O O9 0.174393 0.473939 0.042497
O O10 0.696521 0.071329 0.200736
O O11 0.000000 0.000000 0.000000
O O12 0.487800 0.770944 0.878243
O O13 0.532625 0.341471 0.831267
O O14 0.655487 0.810689 0.908641
O O15 0.000509 0.684580 0.788896
O O16 0.875923 0.189341 0.741911
O O17 0.414990 0.128416 0.250837
O O18 0.500000 0.500000 0.000000
#
# Coordination Sequence:
#
# PCOD9104472 Si02
#       8
#     2   2   2   2   2   2   2   2
#     4  11  24  40  57  92 127 163 208 257 320 371
#     4  11  23  41  66  92 126 164 212 269 308 369
#     4   9  20  38  62  89 124 168 201 250 320 369
#     4   9  19  37  64  89 119 159 209 255 307 365
#     4  11  22  39  67  95 121 166 215 256 323 363
#     4  11  20  38  66  86 121 169 204 258 315 372
#     4  10  20  39  61  83 125 167 200 256 312 371
#     4  10  20  39  66  93 126 160 209 263 306 374
#
# _framework density 22.832419000000002
#
# number of rings (size 3 to 8) (size 9 to 14) (size 15 to 20)
#    0.000    1.750    3.750    0.750    0.000    3.000 
#    0.000    2.500    2.750    0.000    0.000    0.000 
#    0.000    0.000    0.000    0.000    0.000    0.000 
#
# Total GULP energy -89335.071962 kJ/mol
# GULP energy per Si atom -5583.441998 kJ/mol
# Density = 2.278045 g / cm^3
# Si number density = 22.832419 Si / 1000 Ang^3
#
#
#
# Elastic Constant Matrix: (Units=GPa)
#
#
# Indices 1 2 3 4 5 6 
#
# 1 201.6819 42.2982 51.6531 -12.6077 -25.2765 4.4844
# 2 42.2982 52.1824 16.0423 -15.2111 -9.0125 -7.8964
# 3 51.6531 16.0423 69.5355 -11.5173 -14.5528 -1.6482
# 4 -12.6077 -15.2111 -11.5173 35.5788 -1.0016 -1.7130
# 5 -25.2765 -9.0125 -14.5528 -1.0016 42.3056 -4.6795
# 6 4.4844 -7.8964 -1.6482 -1.7130 -4.6795 38.0775
#
#
#
# Elastic Compliance Matrix: (Units=1/GPa)
#
#
# Indices 1 2 3 4 5 6 
#
# 1 0.007214 -0.004847 -0.004087 -0.000883 0.001644 -0.001869
# 2 -0.004847 0.028071 -0.000057 0.010737 0.004135 0.007381
# 3 -0.004087 -0.000057 0.019251 0.004987 0.004517 0.002082
# 4 -0.000883 0.010737 0.004987 0.034359 0.004807 0.004683
# 5 0.001644 0.004135 0.004517 0.004807 0.027663 0.004475
# 6 -0.001869 0.007381 0.002082 0.004683 0.004475 0.028864
#
#
# Mechanical properties :
#
#
# Convention : Reuss Voigt Hill
#
# Bulk Modulus (GPa) = 27.35691 60.37633 43.86662
# Shear Modulus (GPa) = 28.47560 37.41946 32.94753
#
# Velocity S-wave (km/s) = 3.53534 4.05269 3.80283
# Velocity P-wave (km/s) = 5.35467 6.95699 6.20775
#
# Compressibility (1/GPa) = 0.03655384
#
# Stress axis : x y z
#
# Youngs Moduli (GPa) = 138.61773 35.62375 51.94621
#
# Poissons Ratio (x) = 0.17268 0.21230
# Poissons Ratio (y) = 0.67194 0.00294
# Poissons Ratio (z) = 0.56653 0.00202
#
# Static dielectric constant tensor:
#      x y z
#    x 1.955400 -0.044830 0.033900 
#    y -0.044830 1.954990 0.088430 
#    z 0.033900 0.088430 1.922390 
# 
# From -- ./inp_files/617928.got.cif
#   From: 2010.05.17/outbox.cif.g08.bks.cpg/sg2_309_cif.got.tgz:617928.got - 2010.06.03 11:33:40.
