data_PCOD9104537
_publ_section_title
;
Structure prediction by ZEFSAII (Michael W. Deem and Ramdas Pophale) SiO2 
 PCOD9104537
Probable space group: P -1
;
_chemical_formula_sum "Si O2"
_cell_formula_units_Z 14
_cell_length_a 8.471028
_cell_length_b 17.797966
_cell_length_c 9.618601
_cell_angle_alpha 127.683378
_cell_angle_beta 86.399443
_cell_angle_gamma 50.766337
_cell_volume 604.518812
_symmetry_space_group_name_H-M "P -1"
_symmetry_group_IT_number 2
_symmetry_cell_setting 'triclinic'
loop_
_space_group_symop_operation_xyz
x,y,z
-x,-y,-z
loop_
_atom_site_type_symbol
_atom_site_label
_atom_site_fract_x
_atom_site_fract_y
_atom_site_fract_z
Si Si1 0.604035 0.978560 0.623023
Si Si2 0.436317 0.342769 0.606621
Si Si3 0.233510 0.560660 0.103180
Si Si4 0.932987 0.007669 0.667657
Si Si5 0.239776 0.255663 0.165131
Si Si6 0.038972 0.543446 0.328724
Si Si7 0.696400 0.176186 0.136505
O O1 0.915922 0.766885 0.395946
O O2 0.710448 0.033103 0.687890
O O3 0.500000 0.000000 0.500000
O O4 0.346554 0.110968 0.906119
O O5 0.749534 0.180218 0.489170
O O6 0.510175 0.334386 0.434108
O O7 0.268402 0.327226 0.589008
O O8 0.217259 0.519571 0.907910
O O9 0.273747 0.462679 0.112286
O O10 0.500000 0.500000 0.000000
O O11 0.000000 0.000000 0.500000
O O12 0.779837 0.159822 0.955938
O O13 0.119861 0.401243 0.235529
O O14 0.522426 0.164944 0.118247
O O15 0.018345 0.357894 0.425074
O O16 0.000000 0.000000 0.000000
#
# Coordination Sequence:
#
# PCOD9104537 Si02
#       7
#     2   2   2   2   2   2   2
#     4  11  24  40  61  89 132 168 206 257 325 389
#     4  10  20  39  61  88 121 168 214 257 312 376
#     4  12  25  39  58  95 137 166 199 262 332 381
#     4  10  21  36  63  93 122 160 218 268 304 371
#     4   9  20  41  66  93 118 164 226 266 305 375
#     4  10  22  40  69  92 121 167 221 268 313 372
#     4   8  17  34  59  88 116 154 206 268 304 351
#
# _framework density 23.158915
#
# number of rings (size 3 to 8) (size 9 to 14) (size 15 to 20)
#    0.000    2.000    1.429    1.286    6.000    0.571 
#    0.000    1.429    0.000    9.429    0.000    0.000 
#    0.000    0.000    0.000    0.000    0.000    0.000 
#
# Total GULP energy -78001.460684 kJ/mol
# GULP energy per Si atom -5571.532906 kJ/mol
# Density = 2.310620 g / cm^3
# Si number density = 23.158915 Si / 1000 Ang^3
#
#
#
# Elastic Constant Matrix: (Units=GPa)
#
#
# Indices 1 2 3 4 5 6 
#
# 1 57.7258 29.3641 24.9259 -20.9895 -9.4775 -18.4274
# 2 29.3641 74.1672 31.8032 -19.6160 2.8334 -26.5582
# 3 24.9259 31.8032 215.4952 -44.5867 23.3460 9.5196
# 4 -20.9895 -19.6160 -44.5867 47.2482 -6.1038 -3.1240
# 5 -9.4775 2.8334 23.3460 -6.1038 31.8828 -3.5976
# 6 -18.4274 -26.5582 9.5196 -3.1240 -3.5976 28.3489
#
#
#
# Elastic Compliance Matrix: (Units=1/GPa)
#
#
# Indices 1 2 3 4 5 6 
#
# 1 0.040749 0.003897 -0.005315 0.020226 0.023724 0.037163
# 2 0.003897 0.028948 -0.004425 0.012837 0.008072 0.033577
# 3 -0.005315 -0.004425 0.007455 0.001122 -0.007667 -0.010953
# 4 0.020226 0.012837 0.001122 0.040584 0.015342 0.031215
# 5 0.023724 0.008072 -0.007667 0.015342 0.050042 0.033599
# 6 0.037163 0.033577 -0.010953 0.031215 0.033599 0.102269
#
#
# Mechanical properties :
#
#
# Convention : Reuss Voigt Hill
#
# Bulk Modulus (GPa) = 15.27550 57.73052 36.50301
# Shear Modulus (GPa) = 16.47148 38.91566 27.69357
#
# Velocity S-wave (km/s) = 2.66980 4.10368 3.46179
# Velocity P-wave (km/s) = 4.01423 6.88736 5.63692
#
# Compressibility (1/GPa) = 0.06546429
#
# Stress axis : x y z
#
# Youngs Moduli (GPa) = 24.54054 34.54508 134.14015
#
# Poissons Ratio (x) = -0.13461 0.71302
# Poissons Ratio (y) = -0.09562 0.59352
# Poissons Ratio (z) = 0.13044 0.15285
#
# Static dielectric constant tensor:
#      x y z
#    x 1.892520 0.004650 -0.074770 
#    y 0.004650 1.967500 0.036650 
#    z -0.074770 0.036650 2.124320 
# 
# From -- ./inp_files/222436.got.cif
#   From: 2010.05.17/outbox.cif.g08.bks.cpg/sg2_112_cif.got.tgz:222436.got - 2010.06.03 11:33:40.
