data_PCOD9104754
_publ_section_title
;
Structure prediction by ZEFSAII (Michael W. Deem and Ramdas Pophale) SiO2 
 PCOD9104754
Probable space group: P -1
;
_chemical_formula_sum "Si O2"
_cell_formula_units_Z 14
_cell_length_a 10.830047
_cell_length_b 11.036235
_cell_length_c 13.575862
_cell_angle_alpha 147.021987
_cell_angle_beta 43.643571
_cell_angle_gamma 120.725423
_cell_volume 589.280230
_symmetry_space_group_name_H-M "P -1"
_symmetry_group_IT_number 2
_symmetry_cell_setting 'triclinic'
loop_
_space_group_symop_operation_xyz
x,y,z
-x,-y,-z
loop_
_atom_site_type_symbol
_atom_site_label
_atom_site_fract_x
_atom_site_fract_y
_atom_site_fract_z
Si Si1 0.113688 0.315408 0.998318
Si Si2 0.761841 0.054728 0.774166
Si Si3 0.183896 0.759458 0.343329
Si Si4 0.548258 0.741280 0.611776
Si Si5 0.667212 0.211109 0.506227
Si Si6 0.174803 0.793115 0.779455
Si Si7 0.267916 0.441062 0.810976
O O1 0.108003 0.397374 0.944345
O O2 0.244842 0.058560 0.751367
O O3 0.192610 0.495411 0.136491
O O4 0.911598 0.335676 0.174802
O O5 0.742994 0.144099 0.732035
O O6 0.624896 0.887892 0.747779
O O7 0.730326 0.291455 0.014647
O O8 0.969879 0.905797 0.573427
O O9 0.283916 0.767483 0.394112
O O10 0.500000 0.500000 0.500000
O O11 0.349054 0.876209 0.775654
O O12 0.697154 0.685218 0.399191
O O13 0.762581 0.330424 0.445697
O O14 0.452427 0.311300 0.677455
O O15 0.000000 0.000000 0.000000
#
# Coordination Sequence:
#
# PCOD9104754 Si02
#       7
#     2   2   2   2   2   2   2
#     4  10  20  39  62  88 122 156 201 247 295 356
#     4  10  23  41  60  91 125 157 204 247 298 363
#     4  10  22  38  62  91 122 161 200 250 300 352
#     4  11  23  42  63  86 122 161 198 247 302 358
#     4  10  21  38  61  92 123 157 201 247 302 355
#     4   9  21  38  59  88 119 156 197 245 299 350
#     4  10  23  39  64  93 118 158 202 250 302 352
#
# _framework density 23.757798000000001
#
# number of rings (size 3 to 8) (size 9 to 14) (size 15 to 20)
#    0.000    2.000    0.000    2.143    0.000   12.571 
#    0.000   10.714    0.000    0.000    0.000    0.000 
#    0.000    0.000    0.000    0.000    0.000    0.000 
#
# Total GULP energy -78226.478947 kJ/mol
# GULP energy per Si atom -5587.605639 kJ/mol
# Density = 2.370372 g / cm^3
# Si number density = 23.757798 Si / 1000 Ang^3
#
#
#
# Elastic Constant Matrix: (Units=GPa)
#
#
# Indices 1 2 3 4 5 6 
#
# 1 71.1010 3.7280 9.8251 11.8358 0.1074 -19.9854
# 2 3.7280 86.6137 22.8218 -9.5038 11.5545 6.9371
# 3 9.8251 22.8218 98.1394 15.9087 14.7079 4.1802
# 4 11.8358 -9.5038 15.9087 49.2406 2.7059 11.2760
# 5 0.1074 11.5545 14.7079 2.7059 29.7341 4.4220
# 6 -19.9854 6.9371 4.1802 11.2760 4.4220 23.9033
#
#
#
# Elastic Compliance Matrix: (Units=1/GPa)
#
#
# Indices 1 2 3 4 5 6 
#
# 1 0.024419 -0.004492 -0.000311 -0.013013 -0.001189 0.028133
# 2 -0.004492 0.014686 -0.003261 0.007527 -0.003216 -0.010403
# 3 -0.000311 -0.003261 0.012365 -0.004656 -0.004660 0.001582
# 4 -0.013013 0.007527 -0.004656 0.032726 0.000581 -0.027796
# 5 -0.001189 -0.003216 -0.004660 0.000581 0.038115 -0.006571
# 6 0.028133 -0.010403 0.001582 -0.027796 -0.006571 0.082427
#
#
# Mechanical properties :
#
#
# Convention : Reuss Voigt Hill
#
# Bulk Modulus (GPa) = 28.29403 36.51156 32.40279
# Shear Modulus (GPa) = 21.49206 35.20755 28.34980
#
# Velocity S-wave (km/s) = 3.01097 3.85377 3.45814
# Velocity P-wave (km/s) = 4.90134 5.93327 5.44182
#
# Compressibility (1/GPa) = 0.03534315
#
# Stress axis : x y z
#
# Youngs Moduli (GPa) = 40.95240 68.09213 80.87647
#
# Poissons Ratio (x) = 0.30584 0.02514
# Poissons Ratio (y) = 0.18394 0.26370
# Poissons Ratio (z) = 0.01273 0.22202
#
# Static dielectric constant tensor:
#      x y z
#    x 1.907690 -0.061620 -0.024660 
#    y -0.061620 2.068050 -0.024430 
#    z -0.024660 -0.024430 1.892710 
# 
# From -- ./inp_files/519315.got.cif
#   From: 2010.05.17/outbox.cif.g08.bks.cpg/sg2_260_cif.got.tgz:519315.got - 2010.06.03 11:33:40.
