data_PCOD9104248
_publ_section_title
;
Structure prediction by ZEFSAII (Michael W. Deem and Ramdas Pophale) SiO2 
 PCOD9104248
Probable space group: P -1
;
_chemical_formula_sum "Si O2"
_cell_formula_units_Z 16
_cell_length_a 10.945984
_cell_length_b 17.232775
_cell_length_c 5.551966
_cell_angle_alpha 136.979413
_cell_angle_beta 64.719934
_cell_angle_gamma 125.171429
_cell_volume 584.029572
_symmetry_space_group_name_H-M "P -1"
_symmetry_group_IT_number 2
_symmetry_cell_setting 'triclinic'
loop_
_space_group_symop_operation_xyz
x,y,z
-x,-y,-z
loop_
_atom_site_type_symbol
_atom_site_label
_atom_site_fract_x
_atom_site_fract_y
_atom_site_fract_z
Si Si1 0.897294 0.576876 0.734475
Si Si2 0.627700 0.966223 0.717852
Si Si3 0.593237 0.709603 0.040774
Si Si4 0.304492 0.822548 0.170176
Si Si5 0.917319 0.885345 0.119577
Si Si6 0.436792 0.633269 0.502896
Si Si7 0.013879 0.641690 0.278422
Si Si8 0.787025 0.010812 0.126160
O O1 0.725908 0.483573 0.616706
O O2 0.971864 0.662076 0.632469
O O3 0.000000 0.500000 0.500000
O O4 0.910473 0.639128 0.129322
O O5 0.742371 0.106722 0.845538
O O6 0.559842 0.834976 0.334083
O O7 0.713743 0.930417 0.773693
O O8 0.500000 0.000000 0.000000
O O9 0.772166 0.761635 0.039504
O O10 0.511815 0.637973 0.190121
O O11 0.532255 0.639968 0.678818
O O12 0.339187 0.944442 0.585437
O O13 0.178461 0.720272 0.208730
O O14 0.400293 0.756123 0.830516
O O15 0.833732 0.938805 0.122165
O O16 0.000000 0.000000 0.500000
O O17 0.053567 0.880077 0.839910
O O18 0.000000 0.500000 0.000000
#
# Coordination Sequence:
#
# PCOD9104248 Si02
#       8
#     2   2   2   2   2   2   2   2
#     4  10  20  39  59  89 125 171 209 263 327 397
#     4  12  24  38  57  94 145 175 208 256 343 406
#     4  12  25  40  61  94 129 183 213 271 319 383
#     4  12  24  35  62  96 136 172 217 258 337 402
#     4  11  23  44  65  84 128 183 248 269 308 373
#     4  12  25  38  65  96 138 168 217 262 340 413
#     4  10  21  36  62  88 129 167 217 263 323 395
#     4  11  24  40  64  89 130 181 228 275 312 379
#
# _framework density 27.395871
#
# number of rings (size 3 to 8) (size 9 to 14) (size 15 to 20)
#    0.000    0.750    6.250    2.250    5.250    1.000 
#    0.000    0.000    0.000    0.000    0.000    5.250 
#    0.000    0.000    0.000    0.000    0.000    0.000 
#
# Total GULP energy -89263.829754 kJ/mol
# GULP energy per Si atom -5578.989360 kJ/mol
# Density = 2.733352 g / cm^3
# Si number density = 27.395871 Si / 1000 Ang^3
#
#
#
# Elastic Constant Matrix: (Units=GPa)
#
#
# Indices 1 2 3 4 5 6 
#
# 1 86.1232 35.2664 46.5563 -22.7259 12.6451 7.1420
# 2 35.2664 215.2252 29.2598 -36.3669 20.7477 3.6485
# 3 46.5563 29.2598 96.7296 -28.8557 39.6776 -0.8686
# 4 -22.7259 -36.3669 -28.8557 43.5028 -2.5002 -2.9873
# 5 12.6451 20.7477 39.6776 -2.5002 74.2850 -8.3546
# 6 7.1420 3.6485 -0.8686 -2.9873 -8.3546 56.4364
#
#
#
# Elastic Compliance Matrix: (Units=1/GPa)
#
#
# Indices 1 2 3 4 5 6 
#
# 1 0.016884 -0.001409 -0.007520 0.002611 0.001420 -0.001813
# 2 -0.001409 0.005686 0.001061 0.004606 -0.001782 -0.000193
# 3 -0.007520 0.001061 0.020609 0.010095 -0.009650 0.000306
# 4 0.002611 0.004606 0.010095 0.034592 -0.005904 0.000484
# 5 0.001420 -0.001782 -0.009650 -0.005904 0.018929 0.002277
# 6 -0.001813 -0.000193 0.000306 0.000484 0.002277 0.018328
#
#
# Mechanical properties :
#
#
# Convention : Reuss Voigt Hill
#
# Bulk Modulus (GPa) = 36.43796 68.91589 52.67692
# Shear Modulus (GPa) = 35.73654 53.97786 44.85720
#
# Velocity S-wave (km/s) = 3.61564 4.44361 4.05083
# Velocity P-wave (km/s) = 5.54615 7.17898 6.41473
#
# Compressibility (1/GPa) = 0.02744391
#
# Stress axis : x y z
#
# Youngs Moduli (GPa) = 59.22620 175.86509 48.52207
#
# Poissons Ratio (x) = 0.24783 0.36489
# Poissons Ratio (y) = 0.08346 -0.05150
# Poissons Ratio (z) = 0.44538 -0.18665
#
# Static dielectric constant tensor:
#      x y z
#    x 2.162080 -0.074770 -0.021480 
#    y -0.074770 2.338590 -0.056610 
#    z -0.021480 -0.056610 2.393780 
# 
# From -- ./inp_files/83525.got.cif
#   From: 2010.05.17/outbox.cif.g08.bks.cpg/sg2_42_cif.got.tgz:83525.got - 2010.06.03 11:33:40.
