data_PCOD9104367
_publ_section_title
;
Structure prediction by ZEFSAII (Michael W. Deem and Ramdas Pophale) SiO2 
 PCOD9104367
Probable space group: P -1
;
_chemical_formula_sum "Si O2"
_cell_formula_units_Z 16
_cell_length_a 12.801504
_cell_length_b 12.037430
_cell_length_c 12.933941
_cell_angle_alpha 46.501796
_cell_angle_beta 124.970483
_cell_angle_gamma 87.794935
_cell_volume 811.686327
_symmetry_space_group_name_H-M "P -1"
_symmetry_group_IT_number 2
_symmetry_cell_setting 'triclinic'
loop_
_space_group_symop_operation_xyz
x,y,z
-x,-y,-z
loop_
_atom_site_type_symbol
_atom_site_label
_atom_site_fract_x
_atom_site_fract_y
_atom_site_fract_z
Si Si1 0.613285 0.747950 0.725539
Si Si2 0.088499 0.006323 0.447218
Si Si3 0.276917 0.705448 0.266200
Si Si4 0.164071 0.574355 0.112779
Si Si5 0.887234 0.343758 0.415933
Si Si6 0.017593 0.489465 0.789150
Si Si7 0.508974 0.312023 0.113292
Si Si8 0.000200 0.227611 0.787581
O O1 0.654006 0.635269 0.712097
O O2 0.508082 0.728000 0.753956
O O3 0.500000 0.000000 0.500000
O O4 0.804161 0.624196 0.969170
O O5 0.109063 0.841775 0.487263
O O6 0.282769 0.906572 0.661792
O O7 0.000000 0.000000 0.500000
O O8 0.978008 0.236425 0.176575
O O9 0.500000 0.500000 0.500000
O O10 0.191360 0.692961 0.127426
O O11 0.183914 0.695827 0.317217
O O12 0.178555 0.957388 0.058554
O O13 0.112167 0.475849 0.219481
O O14 0.010303 0.333179 0.409907
O O15 0.952351 0.315653 0.587028
O O16 0.671054 0.582728 0.120628
O O17 0.044115 0.331744 0.820512
O O18 0.500000 0.500000 0.000000
#
# Coordination Sequence:
#
# PCOD9104367 Si02
#       8
#     2   2   2   2   2   2   2   2
#     4  11  23  37  59  88 119 160 199 249 306 361
#     4  11  21  36  60  89 121 157 203 252 300 356
#     4  10  23  39  65  94 121 160 208 260 301 362
#     4  11  22  40  60  90 121 159 206 250 305 362
#     4  10  20  39  60  89 120 162 199 244 311 356
#     4  10  22  38  62  87 123 162 196 248 306 365
#     4   9  20  36  56  86 119 154 198 242 298 358
#     4  10  21  41  64  90 124 162 207 252 306 363
#
# _framework density 19.712046999999998
#
# number of rings (size 3 to 8) (size 9 to 14) (size 15 to 20)
#    0.000    1.750    1.250    3.750    1.750    4.000 
#    0.000    0.000    0.000    2.250    0.000    0.000 
#    0.000    0.000    0.000    0.000    0.000    0.000 
#
# Total GULP energy -89086.194273 kJ/mol
# GULP energy per Si atom -5567.887142 kJ/mol
# Density = 1.966718 g / cm^3
# Si number density = 19.712047 Si / 1000 Ang^3
#
#
#
# Elastic Constant Matrix: (Units=GPa)
#
#
# Indices 1 2 3 4 5 6 
#
# 1 124.2997 25.4207 44.7928 -7.9944 -10.0102 -14.2482
# 2 25.4207 68.3463 13.8417 -9.9449 -11.1474 -10.9978
# 3 44.7928 13.8417 70.0687 -9.9993 -10.3192 -16.6732
# 4 -7.9944 -9.9449 -9.9993 28.3914 -1.7995 -5.1888
# 5 -10.0102 -11.1474 -10.3192 -1.7995 35.1265 -1.8420
# 6 -14.2482 -10.9978 -16.6732 -5.1888 -1.8420 34.6216
#
#
#
# Elastic Compliance Matrix: (Units=1/GPa)
#
#
# Indices 1 2 3 4 5 6 
#
# 1 0.010950 -0.002587 -0.006213 0.000158 0.000522 0.000744
# 2 -0.002587 0.018659 0.001845 0.008211 0.006531 0.007329
# 3 -0.006213 0.001845 0.022707 0.009263 0.006522 0.010700
# 4 0.000158 0.008211 0.009263 0.044543 0.008402 0.014257
# 5 0.000522 0.006531 0.006522 0.008402 0.033480 0.008471
# 6 0.000744 0.007329 0.010700 0.014257 0.008471 0.039259
#
#
# Mechanical properties :
#
#
# Convention : Reuss Voigt Hill
#
# Bulk Modulus (GPa) = 26.03578 47.86945 36.95261
# Shear Modulus (GPa) = 25.46984 31.53854 28.50419
#
# Velocity S-wave (km/s) = 3.59847 4.00429 3.80679
# Velocity P-wave (km/s) = 5.52287 6.76138 6.17326
#
# Compressibility (1/GPa) = 0.03840869
#
# Stress axis : x y z
#
# Youngs Moduli (GPa) = 91.32046 53.59288 44.03861
#
# Poissons Ratio (x) = 0.13863 0.27360
# Poissons Ratio (y) = 0.23623 -0.08127
# Poissons Ratio (z) = 0.56735 -0.09890
#
# Static dielectric constant tensor:
#      x y z
#    x 1.633820 -0.131560 0.029620 
#    y -0.131560 1.607730 0.008870 
#    z 0.029620 0.008870 1.736370 
# 
# From -- ./inp_files/417782.got.cif
#   From: 2010.05.17/outbox.cif.g08.bks.cpg/sg2_209_cif.got.tgz:417782.got - 2010.06.03 11:33:40.
