data_PCOD9104335
_publ_section_title
;
Structure prediction by ZEFSAII (Michael W. Deem and Ramdas Pophale) SiO2 
 PCOD9104335
Probable space group: P -1
;
_chemical_formula_sum "Si O2"
_cell_formula_units_Z 16
_cell_length_a 14.397161
_cell_length_b 9.149277
_cell_length_c 14.600582
_cell_angle_alpha 76.495453
_cell_angle_beta 140.098417
_cell_angle_gamma 73.763755
_cell_volume 812.779852
_symmetry_space_group_name_H-M "P -1"
_symmetry_group_IT_number 2
_symmetry_cell_setting 'triclinic'
loop_
_space_group_symop_operation_xyz
x,y,z
-x,-y,-z
loop_
_atom_site_type_symbol
_atom_site_label
_atom_site_fract_x
_atom_site_fract_y
_atom_site_fract_z
Si Si1 0.446945 0.654532 0.163943
Si Si2 0.015204 0.956686 0.909975
Si Si3 0.516891 0.726459 0.772989
Si Si4 0.881738 0.304782 0.626559
Si Si5 0.093761 0.138624 0.472642
Si Si6 0.180768 0.934941 0.759814
Si Si7 0.095822 0.444308 0.812478
Si Si8 0.070244 0.569603 0.971408
O O1 0.485909 0.451331 0.193910
O O2 0.655499 0.546451 0.391442
O O3 0.244506 0.815095 0.055809
O O4 0.380957 0.788090 0.001090
O O5 0.988793 0.798592 0.898130
O O6 0.861707 0.186721 0.703411
O O7 0.000000 0.000000 0.000000
O O8 0.278707 0.969631 0.562254
O O9 0.670000 0.631878 0.814169
O O10 0.656968 0.701371 0.961932
O O11 0.040584 0.313480 0.779073
O O12 0.985962 0.155520 0.636656
O O13 0.194313 0.007180 0.663276
O O14 0.007237 0.373254 0.369978
O O15 0.894139 0.179993 0.295858
O O16 0.994908 0.579101 0.812083
O O17 0.000000 0.500000 0.000000
#
# Coordination Sequence:
#
# PCOD9104335 Si02
#       8
#     2   2   2   2   2   2   2   2
#     4  10  20  39  60  87 118 157 201 240 295 358
#     4  10  21  38  64  88 120 155 199 248 291 353
#     4   9  20  36  63  81 119 152 197 241 294 348
#     4  11  22  39  61  87 125 157 192 249 300 346
#     4  11  20  38  61  90 114 159 204 245 296 353
#     4  10  22  36  62  89 118 154 207 247 291 353
#     4  10  22  38  59  87 123 153 193 249 298 348
#     4   9  19  40  62  86 120 155 191 242 299 350
#
# _framework density 19.685525999999999
#
# number of rings (size 3 to 8) (size 9 to 14) (size 15 to 20)
#    0.750    1.250    2.500    1.500    0.000    4.500 
#    0.000    1.875    0.000    0.000    0.000    0.000 
#    0.000    0.000    0.000    0.000    0.000    0.000 
#
# Total GULP energy -89139.494227 kJ/mol
# GULP energy per Si atom -5571.218389 kJ/mol
# Density = 1.964072 g / cm^3
# Si number density = 19.685526 Si / 1000 Ang^3
#
#
#
# Elastic Constant Matrix: (Units=GPa)
#
#
# Indices 1 2 3 4 5 6 
#
# 1 70.1477 27.1159 16.7738 -1.2684 -14.2975 8.5601
# 2 27.1159 66.1629 -5.4301 10.1008 -10.0566 7.8359
# 3 16.7738 -5.4301 62.9774 0.6785 -8.5140 1.4218
# 4 -1.2684 10.1008 0.6785 22.5744 4.6361 -3.1826
# 5 -14.2975 -10.0566 -8.5140 4.6361 12.8106 4.4616
# 6 8.5601 7.8359 1.4218 -3.1826 4.4616 25.7864
#
#
#
# Elastic Compliance Matrix: (Units=1/GPa)
#
#
# Indices 1 2 3 4 5 6 
#
# 1 0.023028 -0.003576 -0.002520 -0.004153 0.026748 -0.011559
# 2 -0.003576 0.029633 0.009765 -0.024832 0.041209 -0.018551
# 3 -0.002520 0.009765 0.021331 -0.011943 0.026622 -0.009387
# 4 -0.004153 -0.024832 -0.011943 0.074175 -0.069631 0.030785
# 5 0.026748 0.041209 0.026622 -0.069631 0.206560 -0.067202
# 6 -0.011559 -0.018551 -0.009387 0.030785 -0.067202 0.064199
#
#
# Mechanical properties :
#
#
# Convention : Reuss Voigt Hill
#
# Bulk Modulus (GPa) = 12.29558 30.68969 21.49264
# Shear Modulus (GPa) = 11.39740 22.95617 17.17678
#
# Velocity S-wave (km/s) = 2.40880 3.41859 2.95712
# Velocity P-wave (km/s) = 3.74112 5.58625 4.75406
#
# Compressibility (1/GPa) = 0.08133002
#
# Stress axis : x y z
#
# Youngs Moduli (GPa) = 43.42626 33.74664 46.87928
#
# Poissons Ratio (x) = 0.12067 0.11813
# Poissons Ratio (y) = 0.15528 -0.45776
# Poissons Ratio (z) = 0.10943 -0.32953
#
# Static dielectric constant tensor:
#      x y z
#    x 1.692070 0.003530 -0.000330 
#    y 0.003530 1.688520 0.003360 
#    z -0.000330 0.003360 1.718440 
# 
# From -- ./inp_files/108843.got.cif
#   From: 2010.05.17/outbox.cif.g08.bks.cpg/sg2_55_cif.got.tgz:108843.got - 2010.06.03 11:33:40.
