data_PCOD9104428
_publ_section_title
;
Structure prediction by ZEFSAII (Michael W. Deem and Ramdas Pophale) SiO2 
 PCOD9104428
Probable space group: P -1
;
_chemical_formula_sum "Si O2"
_cell_formula_units_Z 12
_cell_length_a 8.361011
_cell_length_b 9.314317
_cell_length_c 12.554610
_cell_angle_alpha 59.622466
_cell_angle_beta 37.497437
_cell_angle_gamma 79.818010
_cell_volume 464.201842
_symmetry_space_group_name_H-M "P -1"
_symmetry_group_IT_number 2
_symmetry_cell_setting 'triclinic'
loop_
_space_group_symop_operation_xyz
x,y,z
-x,-y,-z
loop_
_atom_site_type_symbol
_atom_site_label
_atom_site_fract_x
_atom_site_fract_y
_atom_site_fract_z
Si Si1 0.950300 0.389079 0.444621
Si Si2 0.047349 0.884312 0.616634
Si Si3 0.063438 0.840454 0.071061
Si Si4 0.445369 0.816385 0.026612
Si Si5 0.261946 0.216212 0.506346
Si Si6 0.391450 0.446144 0.699954
O O1 0.910943 0.285001 0.392243
O O2 0.078137 0.285077 0.496539
O O3 0.625726 0.371764 0.647369
O O4 0.188286 0.603094 0.240759
O O5 0.747219 0.802222 0.872207
O O6 0.000000 0.000000 0.500000
O O7 0.270317 0.035987 0.520608
O O8 0.906954 0.812572 0.280898
O O9 0.933597 0.689779 0.104386
O O10 0.386497 0.881408 0.916730
O O11 0.000000 0.000000 0.000000
O O12 0.500000 0.000000 0.000000
O O13 0.563059 0.385336 0.311766
O O14 0.500000 0.500000 0.500000
#
# Coordination Sequence:
#
# PCOD9104428 Si02
#       6
#     2   2   2   2   2   2
#     4  11  22  39  71  91 131 168 212 271 315 377
#     4  10  23  40  65  98 130 165 215 264 324 366
#     4  11  25  37  64  96 131 163 216 269 317 370
#     4  12  23  42  68  96 124 169 228 261 307 384
#     4  10  21  41  64  96 120 176 215 257 310 384
#     4  10  20  39  60  94 128 163 211 257 320 376
#
# _framework density 25.850822999999998
#
# number of rings (size 3 to 8) (size 9 to 14) (size 15 to 20)
#    0.000    1.333    5.000    1.000    7.000    0.000 
#    0.000    3.333    0.000    5.000    0.000    0.000 
#    0.000    0.000    0.000    0.000    0.000    0.000 
#
# Total GULP energy -66921.795884 kJ/mol
# GULP energy per Si atom -5576.816324 kJ/mol
# Density = 2.579199 g / cm^3
# Si number density = 25.850823 Si / 1000 Ang^3
#
#
#
# Elastic Constant Matrix: (Units=GPa)
#
#
# Indices 1 2 3 4 5 6 
#
# 1 142.4866 51.6062 20.4952 -31.0029 -24.8745 29.0532
# 2 51.6062 203.9198 56.1206 -30.6569 -26.4780 67.8957
# 3 20.4952 56.1206 62.8981 -17.1659 -14.4381 19.0202
# 4 -31.0029 -30.6569 -17.1659 38.1866 9.8032 -11.1796
# 5 -24.8745 -26.4780 -14.4381 9.8032 46.0176 -28.9924
# 6 29.0532 67.8957 19.0202 -11.1796 -28.9924 52.9201
#
#
#
# Elastic Compliance Matrix: (Units=1/GPa)
#
#
# Indices 1 2 3 4 5 6 
#
# 1 0.009297 -0.000567 0.000234 0.006049 0.002258 -0.001946
# 2 -0.000567 0.011134 -0.005857 0.003070 -0.005285 -0.014116
# 3 0.000234 -0.005857 0.022690 0.005358 0.004524 0.002841
# 4 0.006049 0.003070 0.005358 0.035779 -0.002947 -0.003242
# 5 0.002258 -0.005285 0.004524 -0.002947 0.036699 0.023398
# 6 -0.001946 -0.014116 0.002841 -0.003242 0.023398 0.049188
#
#
# Mechanical properties :
#
#
# Convention : Reuss Voigt Hill
#
# Bulk Modulus (GPa) = 32.52836 73.97206 53.25021
# Shear Modulus (GPa) = 26.67908 46.16371 36.42139
#
# Velocity S-wave (km/s) = 3.21602 4.23043 3.75761
# Velocity P-wave (km/s) = 5.13817 7.24839 6.28251
#
# Compressibility (1/GPa) = 0.03074240
#
# Stress axis : x y z
#
# Youngs Moduli (GPa) = 107.56249 89.81227 44.07290
#
# Poissons Ratio (x) = 0.05088 -0.01030
# Poissons Ratio (y) = 0.06094 0.25811
# Poissons Ratio (z) = -0.02515 0.52599
#
# Static dielectric constant tensor:
#      x y z
#    x 2.156140 0.006740 -0.028780 
#    y 0.006740 1.970740 -0.012220 
#    z -0.028780 -0.012220 2.280500 
# 
# From -- ./inp_files/235764.got.cif
#   From: 2010.05.17/outbox.cif.g08.bks.cpg/sg2_118_cif.got.tgz:235764.got - 2010.06.03 11:33:40.
