data_PCOD9104769
_publ_section_title
;
Structure prediction by ZEFSAII (Michael W. Deem and Ramdas Pophale) SiO2 
 PCOD9104769
Probable space group: P -1
;
_chemical_formula_sum "Si O2"
_cell_formula_units_Z 16
_cell_length_a 12.185004
_cell_length_b 9.103865
_cell_length_c 20.207732
_cell_angle_alpha 55.388669
_cell_angle_beta 151.454976
_cell_angle_gamma 128.444436
_cell_volume 837.527131
_symmetry_space_group_name_H-M "P -1"
_symmetry_group_IT_number 2
_symmetry_cell_setting 'triclinic'
loop_
_space_group_symop_operation_xyz
x,y,z
-x,-y,-z
loop_
_atom_site_type_symbol
_atom_site_label
_atom_site_fract_x
_atom_site_fract_y
_atom_site_fract_z
Si Si1 0.121054 0.098029 0.746991
Si Si2 0.233060 0.302248 0.188432
Si Si3 0.859729 0.907291 0.083906
Si Si4 0.649294 0.200730 0.496370
Si Si5 0.094306 0.577117 0.306279
Si Si6 0.577196 0.373951 0.128910
Si Si7 0.968548 0.672840 0.779958
Si Si8 0.584170 0.410478 0.898612
O O1 0.186246 0.093248 0.861178
O O2 0.363166 0.228787 0.808515
O O3 0.901890 0.185590 0.606939
O O4 0.022629 0.883435 0.727557
O O5 0.482896 0.254366 0.340728
O O6 0.163127 0.339525 0.216399
O O7 0.273801 0.476106 0.117170
O O8 0.027005 0.115605 0.102045
O O9 0.005383 0.755202 0.192068
O O10 0.609223 0.830924 0.931309
O O11 0.712231 0.345841 0.553634
O O12 0.500000 0.000000 0.500000
O O13 0.165722 0.482193 0.304509
O O14 0.860464 0.420983 0.254075
O O15 0.526859 0.454502 0.151692
O O16 0.500000 0.500000 0.000000
O O17 0.226663 0.645150 0.940092
#
# Coordination Sequence:
#
# PCOD9104769 Si02
#       8
#     2   2   2   2   2   2   2   2
#     4  10  20  36  62  83 107 158 199 238 275 334
#     4  11  25  36  56  90 123 159 179 234 308 341
#     4   9  16  35  56  81 111 146 193 233 278 338
#     4  11  19  41  62  82 115 154 208 231 264 361
#     4  10  18  34  65  84 106 146 208 244 267 327
#     4  10  16  33  58  86 109 145 198 243 274 333
#     4  11  21  37  58  89 115 151 191 240 297 341
#     4  12  21  36  59  90 124 144 191 246 296 347
#
# _framework density 19.103857999999999
#
# number of rings (size 3 to 8) (size 9 to 14) (size 15 to 20)
#    0.000    1.500   10.000    0.750    0.000    2.500 
#    0.000    0.000    0.000    0.750    0.000    0.000 
#    0.000    0.000    0.000    0.000    0.000    0.000 
#
# Total GULP energy -89295.555787 kJ/mol
# GULP energy per Si atom -5580.972237 kJ/mol
# Density = 1.906038 g / cm^3
# Si number density = 19.103858 Si / 1000 Ang^3
#
#
#
# Elastic Constant Matrix: (Units=GPa)
#
#
# Indices 1 2 3 4 5 6 
#
# 1 55.3672 42.8542 1.9566 12.6501 3.8510 0.0327
# 2 42.8542 95.8101 13.7564 24.8329 -5.9192 -1.1311
# 3 1.9566 13.7564 52.6456 15.4161 2.2824 4.2422
# 4 12.6501 24.8329 15.4161 27.3166 -4.7163 2.8460
# 5 3.8510 -5.9192 2.2824 -4.7163 14.0118 9.1966
# 6 0.0327 -1.1311 4.2422 2.8460 9.1966 27.5400
#
#
#
# Elastic Compliance Matrix: (Units=1/GPa)
#
#
# Indices 1 2 3 4 5 6 
#
# 1 0.033195 -0.014346 0.006178 -0.010975 -0.025091 0.007933
# 2 -0.014346 0.019952 -0.002745 -0.007814 0.011311 -0.001710
# 3 0.006178 -0.002745 0.024934 -0.017206 -0.014444 0.002640
# 4 -0.010975 -0.007814 -0.017206 0.066367 0.035630 -0.016414
# 5 -0.025091 0.011311 -0.014444 0.035630 0.125535 -0.042883
# 6 0.007933 -0.001710 0.002640 -0.016414 -0.042883 0.051841
#
#
# Mechanical properties :
#
#
# Convention : Reuss Voigt Hill
#
# Bulk Modulus (GPa) = 17.77624 35.66191 26.71907
# Shear Modulus (GPa) = 13.79679 23.45739 18.62709
#
# Velocity S-wave (km/s) = 2.69029 3.50792 3.12596
# Velocity P-wave (km/s) = 4.35609 5.92582 5.20052
#
# Compressibility (1/GPa) = 0.05625486
#
# Stress axis : x y z
#
# Youngs Moduli (GPa) = 30.12493 50.11952 40.10510
#
# Poissons Ratio (x) = 0.71903 -0.24775
# Poissons Ratio (y) = 0.43218 0.11007
# Poissons Ratio (z) = -0.18610 0.13756
#
# Static dielectric constant tensor:
#      x y z
#    x 1.678190 -0.017500 0.027620 
#    y -0.017500 1.693640 0.011830 
#    z 0.027620 0.011830 1.679940 
# 
# From -- ./inp_files/181583.got.cif
#   From: 2010.05.17/outbox.cif.g08.bks.cpg/sg2_91_cif.got.tgz:181583.got - 2010.06.03 11:33:40.
