data_PCOD9104059
_publ_section_title
;
Structure prediction by ZEFSAII (Michael W. Deem and Ramdas Pophale) SiO2 
 PCOD9104059
Probable space group: P -1
;
_chemical_formula_sum "Si O2"
_cell_formula_units_Z 14
_cell_length_a 5.745239
_cell_length_b 17.691822
_cell_length_c 5.297443
_cell_angle_alpha 92.052382
_cell_angle_beta 74.618401
_cell_angle_gamma 105.511396
_cell_volume 499.897962
_symmetry_space_group_name_H-M "P -1"
_symmetry_group_IT_number 2
_symmetry_cell_setting 'triclinic'
loop_
_space_group_symop_operation_xyz
x,y,z
-x,-y,-z
loop_
_atom_site_type_symbol
_atom_site_label
_atom_site_fract_x
_atom_site_fract_y
_atom_site_fract_z
Si Si1 0.279209 0.987582 0.849838
Si Si2 0.356099 0.331508 0.110226
Si Si3 0.638232 0.857836 0.445134
Si Si4 0.870734 0.597312 0.213667
Si Si5 0.925501 0.831193 0.859917
Si Si6 0.744551 0.424775 0.332545
Si Si7 0.245175 0.714144 0.328618
O O1 0.368650 0.054709 0.620914
O O2 0.192075 0.895805 0.791608
O O3 0.500000 0.000000 0.000000
O O4 0.000000 0.000000 0.000000
O O5 0.346197 0.397313 0.918186
O O6 0.554551 0.286248 0.950790
O O7 0.106010 0.260759 0.199677
O O8 0.461016 0.379223 0.334217
O O9 0.759970 0.855483 0.684703
O O10 0.384623 0.789058 0.457734
O O11 0.822214 0.838677 0.172341
O O12 0.790935 0.516132 0.381482
O O13 0.975527 0.689676 0.273592
O O14 0.087165 0.583421 0.958439
O O15 0.801466 0.369232 0.523945
#
# Coordination Sequence:
#
# PCOD9104059 Si02
#       7
#     2   2   2   2   2   2   2
#     4  10  23  44  72 104 142 182 230 282 344 410
#     4  10  21  37  59  85 121 163 215 262 328 391
#     4  10  21  42  67  94 134 175 220 276 339 402
#     4  10  22  35  58  86 120 159 215 267 332 388
#     4  10  21  42  66  95 134 172 223 276 337 404
#     4  10  20  39  55  85 120 162 207 276 322 395
#     4  10  21  37  59  83 124 162 212 266 326 391
#
# _framework density 28.005716
#
# number of rings (size 3 to 8) (size 9 to 14) (size 15 to 20)
#    0.000    2.000    1.429    1.286    2.000    1.714 
#    0.000   11.429    0.000    0.000    0.000    0.000 
#    0.000    0.000    0.000    0.000    0.000    0.000 
#
# Total GULP energy -78241.622043 kJ/mol
# GULP energy per Si atom -5588.687289 kJ/mol
# Density = 2.794197 g / cm^3
# Si number density = 28.005716 Si / 1000 Ang^3
#
#
#
# Elastic Constant Matrix: (Units=GPa)
#
#
# Indices 1 2 3 4 5 6 
#
# 1 84.4602 57.4235 24.7038 -0.3561 0.4037 15.4990
# 2 57.4235 243.8071 55.8314 -3.6805 7.8609 20.3956
# 3 24.7038 55.8314 97.5882 -14.7449 19.4255 1.4446
# 4 -0.3561 -3.6805 -14.7449 64.0671 -3.5404 -4.2075
# 5 0.4037 7.8609 19.4255 -3.5404 64.2399 -4.2823
# 6 15.4990 20.3956 1.4446 -4.2075 -4.2823 61.8499
#
#
#
# Elastic Compliance Matrix: (Units=1/GPa)
#
#
# Indices 1 2 3 4 5 6 
#
# 1 0.014931 -0.002766 -0.002422 -0.000774 0.000750 -0.002774
# 2 -0.002766 0.005390 -0.002418 -0.000331 0.000001 -0.001050
# 3 -0.002422 -0.002418 0.013348 0.002794 -0.003502 0.001040
# 4 -0.000774 -0.000331 0.002794 0.016328 0.000191 0.001362
# 5 0.000750 0.000001 -0.003502 0.000191 0.016702 0.001063
# 6 -0.002774 -0.001050 0.001040 0.001362 0.001063 0.017352
#
#
# Mechanical properties :
#
#
# Convention : Reuss Voigt Hill
#
# Bulk Modulus (GPa) = 54.18365 77.97478 66.07921
# Shear Modulus (GPa) = 47.43183 57.22450 52.32816
#
# Velocity S-wave (km/s) = 4.11986 4.52521 4.32728
# Velocity P-wave (km/s) = 6.48231 7.43009 6.97232
#
# Compressibility (1/GPa) = 0.01845575
#
# Stress axis : x y z
#
# Youngs Moduli (GPa) = 66.97470 185.54422 74.92009
#
# Poissons Ratio (x) = 0.51317 0.18149
# Poissons Ratio (y) = 0.18524 0.18115
# Poissons Ratio (z) = 0.16225 0.44863
#
# Static dielectric constant tensor:
#      x y z
#    x 2.316240 0.032410 -0.076660 
#    y 0.032410 2.110030 0.036140 
#    z -0.076660 0.036140 2.154750 
# 
# From -- ./inp_files/7515.got.cif
#   From: 2010.05.17/outbox.cif.g08.bks.cpg/sg2_4_cif.got.tgz:7515.got - 2010.06.03 11:33:40.
