data_PCOD9104083
_publ_section_title
;
Structure prediction by ZEFSAII (Michael W. Deem and Ramdas Pophale) SiO2 
 PCOD9104083
Probable space group: P -1
;
_chemical_formula_sum "Si O2"
_cell_formula_units_Z 16
_cell_length_a 13.834548
_cell_length_b 9.297121
_cell_length_c 16.082283
_cell_angle_alpha 59.041305
_cell_angle_beta 35.941428
_cell_angle_gamma 85.151528
_cell_volume 782.633164
_symmetry_space_group_name_H-M "P -1"
_symmetry_group_IT_number 2
_symmetry_cell_setting 'triclinic'
loop_
_space_group_symop_operation_xyz
x,y,z
-x,-y,-z
loop_
_atom_site_type_symbol
_atom_site_label
_atom_site_fract_x
_atom_site_fract_y
_atom_site_fract_z
Si Si1 0.371800 0.296066 0.586721
Si Si2 0.637022 0.037207 0.201325
Si Si3 0.972376 0.027612 0.301349
Si Si4 0.295162 0.158571 0.287029
Si Si5 0.020621 0.266613 0.738155
Si Si6 0.530564 0.857522 0.577693
Si Si7 0.795845 0.267183 0.510805
Si Si8 0.758823 0.598614 0.889006
O O1 0.500000 0.500000 0.500000
O O2 0.300727 0.080143 0.749574
O O3 0.172254 0.266933 0.697132
O O4 0.511736 0.326414 0.399968
O O5 0.393200 0.837008 0.395258
O O6 0.618602 0.191696 0.225167
O O7 0.800207 0.159137 0.974099
O O8 0.859889 0.922662 0.500649
O O9 0.019673 0.886931 0.263576
O O10 0.781467 0.998033 0.392420
O O11 0.194205 0.278562 0.092447
O O12 0.243307 0.258190 0.223211
O O13 0.273697 0.952928 0.330365
O O14 0.535976 0.354272 0.097025
O O15 0.152934 0.522847 0.543190
O O16 0.500000 0.000000 0.500000
O O17 0.028790 0.374028 0.277654
#
# Coordination Sequence:
#
# PCOD9104083 Si02
#       8
#     2   2   2   2   2   2   2   2
#     4  10  20  39  57  83 124 166 200 256 302 341
#     4  11  20  38  59  83 121 165 207 246 292 356
#     4  10  20  39  60  91 124 156 202 251 302 357
#     4  10  21  40  66  91 117 159 198 260 305 372
#     4  11  24  36  59  90 126 166 199 247 306 362
#     4   9  19  35  61  84 120 158 205 248 289 349
#     4  11  20  36  60  88 122 151 198 246 304 354
#     4  10  21  40  67  91 116 154 211 247 315 364
#
# _framework density 20.443805000000001
#
# number of rings (size 3 to 8) (size 9 to 14) (size 15 to 20)
#    0.000    1.750    3.750    2.625    0.000    1.000 
#    0.000    3.125    0.000    6.000    0.000    0.000 
#    0.000    0.000    0.000    0.000    0.000    0.000 
#
# Total GULP energy -89183.826510 kJ/mol
# GULP energy per Si atom -5573.989157 kJ/mol
# Density = 2.039727 g / cm^3
# Si number density = 20.443805 Si / 1000 Ang^3
#
#
#
# Elastic Constant Matrix: (Units=GPa)
#
#
# Indices 1 2 3 4 5 6 
#
# 1 76.2757 35.1147 21.6837 -1.0972 -6.1372 -4.7902
# 2 35.1147 152.4603 47.5055 -2.7512 -15.7210 10.6046
# 3 21.6837 47.5055 80.6588 -1.8084 -14.9545 0.2855
# 4 -1.0972 -2.7512 -1.8084 30.0478 0.9691 -1.5108
# 5 -6.1372 -15.7210 -14.9545 0.9691 27.8186 -11.2995
# 6 -4.7902 10.6046 0.2855 -1.5108 -11.2995 29.3624
#
#
#
# Elastic Compliance Matrix: (Units=1/GPa)
#
#
# Indices 1 2 3 4 5 6 
#
# 1 0.015560 -0.003037 -0.001929 0.000326 0.002559 0.004656
# 2 -0.003037 0.008904 -0.004286 0.000254 0.000668 -0.003399
# 3 -0.001929 -0.004286 0.016902 0.000507 0.007901 0.004135
# 4 0.000326 0.000254 0.000507 0.033430 0.000005 0.001679
# 5 0.002559 0.000668 0.007901 0.000005 0.048806 0.018882
# 6 0.004656 -0.003399 0.004135 0.001679 0.018882 0.043357
#
#
# Mechanical properties :
#
#
# Convention : Reuss Voigt Hill
#
# Bulk Modulus (GPa) = 43.74035 57.55584 50.64810
# Shear Modulus (GPa) = 25.89553 31.11849 28.50701
#
# Velocity S-wave (km/s) = 3.56289 3.90570 3.73823
# Velocity P-wave (km/s) = 6.19415 6.96805 6.59246
#
# Compressibility (1/GPa) = 0.02286219
#
# Stress axis : x y z
#
# Youngs Moduli (GPa) = 64.26854 112.30960 59.16292
#
# Poissons Ratio (x) = 0.34105 0.11413
# Poissons Ratio (y) = 0.19516 0.25358
# Poissons Ratio (z) = 0.12398 0.48138
#
# Static dielectric constant tensor:
#      x y z
#    x 1.737360 -0.013600 0.020260 
#    y -0.013600 1.782680 -0.031360 
#    z 0.020260 -0.031360 1.771190 
# 
# From -- ./inp_files/215436.got.cif
#   From: 2010.05.17/outbox.cif.g08.bks.cpg/sg2_108_cif.got.tgz:215436.got - 2010.06.03 11:33:40.
