data_PCOD9104340
_publ_section_title
;
Structure prediction by ZEFSAII (Michael W. Deem and Ramdas Pophale) SiO2 
 PCOD9104340
Probable space group: P -1
;
_chemical_formula_sum "Si O2"
_cell_formula_units_Z 16
_cell_length_a 7.138218
_cell_length_b 14.546492
_cell_length_c 10.806592
_cell_angle_alpha 124.152492
_cell_angle_beta 124.721172
_cell_angle_gamma 92.005405
_cell_volume 651.216479
_symmetry_space_group_name_H-M "P -1"
_symmetry_group_IT_number 2
_symmetry_cell_setting 'triclinic'
loop_
_space_group_symop_operation_xyz
x,y,z
-x,-y,-z
loop_
_atom_site_type_symbol
_atom_site_label
_atom_site_fract_x
_atom_site_fract_y
_atom_site_fract_z
Si Si1 0.697040 0.928718 0.787385
Si Si2 0.828013 0.011194 0.629766
Si Si3 0.066704 0.429739 0.366561
Si Si4 0.231706 0.587167 0.972994
Si Si5 0.915997 0.700612 0.034201
Si Si6 0.590876 0.665319 0.635725
Si Si7 0.266489 0.982641 0.681030
Si Si8 0.191254 0.318837 0.745011
O O1 0.561811 0.784017 0.677243
O O2 0.548600 0.001277 0.833223
O O3 0.687569 0.927308 0.633578
O O4 0.000000 0.000000 0.000000
O O5 0.850620 0.148586 0.761273
O O6 0.724521 0.967249 0.418182
O O7 0.129973 0.038801 0.758778
O O8 0.300480 0.539625 0.449921
O O9 0.211691 0.351028 0.396731
O O10 0.000000 0.500000 0.500000
O O11 0.808841 0.352813 0.124197
O O12 0.153799 0.440258 0.798515
O O13 0.532144 0.654845 0.187432
O O14 0.042655 0.610497 0.008589
O O15 0.761680 0.673584 0.083612
O O16 0.737498 0.686551 0.838892
O O17 0.055225 0.825200 0.483217
#
# Coordination Sequence:
#
# PCOD9104340 Si02
#       8
#     2   2   2   2   2   2   2   2
#     4  12  24  42  64  96 129 167 215 265 319 377
#     4  10  23  44  64  92 126 173 214 260 317 381
#     4  10  21  40  62  87 125 167 202 260 320 378
#     4  10  21  36  61  90 119 156 211 262 314 373
#     4  10  20  39  60  87 122 165 204 259 313 373
#     4  10  22  39  60  93 124 160 216 253 314 389
#     4  10  24  43  65  92 128 170 217 263 317 384
#     4  10  21  38  60  91 120 158 211 263 315 372
#
# _framework density 24.569400999999999
#
# number of rings (size 3 to 8) (size 9 to 14) (size 15 to 20)
#    0.000    1.750    1.250    2.250    0.000    7.500 
#    2.250    5.000    0.000    0.000    0.000    0.000 
#    0.000    0.000    0.000    0.000    0.000    0.000 
#
# Total GULP energy -89463.238365 kJ/mol
# GULP energy per Si atom -5591.452398 kJ/mol
# Density = 2.451348 g / cm^3
# Si number density = 24.569401 Si / 1000 Ang^3
#
#
#
# Elastic Constant Matrix: (Units=GPa)
#
#
# Indices 1 2 3 4 5 6 
#
# 1 98.1934 17.7935 15.8674 -11.3868 13.8458 -35.4703
# 2 17.7935 103.6546 3.2387 -4.0586 8.4133 -19.0618
# 3 15.8674 3.2387 52.6812 -6.5999 10.0383 -7.0607
# 4 -11.3868 -4.0586 -6.5999 23.1657 -12.3341 6.3322
# 5 13.8458 8.4133 10.0383 -12.3341 35.1410 -7.0044
# 6 -35.4703 -19.0618 -7.0607 6.3322 -7.0044 38.6864
#
#
#
# Elastic Compliance Matrix: (Units=1/GPa)
#
#
# Indices 1 2 3 4 5 6 
#
# 1 0.016001 0.000076 -0.002308 0.002394 -0.002131 0.013510
# 2 0.000076 0.010699 0.000302 -0.000352 -0.001778 0.005133
# 3 -0.002308 0.000302 0.020845 0.002481 -0.004110 0.000687
# 4 0.002394 -0.000352 0.002481 0.055010 0.017054 -0.003442
# 5 -0.002131 -0.001778 -0.004110 0.017054 0.036945 0.000318
# 6 0.013510 0.005133 0.000687 -0.003442 0.000318 0.041511
#
#
# Mechanical properties :
#
#
# Convention : Reuss Voigt Hill
#
# Bulk Modulus (GPa) = 22.89030 36.48093 29.68562
# Shear Modulus (GPa) = 25.07116 33.90727 29.48921
#
# Velocity S-wave (km/s) = 3.19787 3.71895 3.46821
# Velocity P-wave (km/s) = 4.79291 5.77244 5.30533
#
# Compressibility (1/GPa) = 0.04368662
#
# Stress axis : x y z
#
# Youngs Moduli (GPa) = 62.49518 93.46391 47.97403
#
# Poissons Ratio (x) = -0.00714 0.11071
# Poissons Ratio (y) = -0.00478 -0.01448
# Poissons Ratio (z) = 0.14422 -0.02822
#
# Static dielectric constant tensor:
#      x y z
#    x 2.111570 0.126620 0.086680 
#    y 0.126620 2.099140 0.091310 
#    z 0.086680 0.091310 2.040090 
# 
# From -- ./inp_files/368003.got.cif
#   From: 2010.05.17/outbox.cif.g08.bks.cpg/sg2_185_cif.got.tgz:368003.got - 2010.06.03 11:33:40.
