data_PCOD9104746
_publ_section_title
;
Structure prediction by ZEFSAII (Michael W. Deem and Ramdas Pophale) SiO2 
 PCOD9104746
Probable space group: P -1
;
_chemical_formula_sum "Si O2"
_cell_formula_units_Z 16
_cell_length_a 14.581931
_cell_length_b 14.246284
_cell_length_c 7.293836
_cell_angle_alpha 94.785703
_cell_angle_beta 110.031152
_cell_angle_gamma 29.119423
_cell_volume 610.711404
_symmetry_space_group_name_H-M "P -1"
_symmetry_group_IT_number 2
_symmetry_cell_setting 'triclinic'
loop_
_space_group_symop_operation_xyz
x,y,z
-x,-y,-z
loop_
_atom_site_type_symbol
_atom_site_label
_atom_site_fract_x
_atom_site_fract_y
_atom_site_fract_z
Si Si1 0.317874 0.565131 0.943671
Si Si2 0.201294 0.862492 0.741610
Si Si3 0.994478 0.616824 0.514549
Si Si4 0.922840 0.957182 0.967437
Si Si5 0.402811 0.365240 0.629731
Si Si6 0.694123 0.666526 0.795598
Si Si7 0.621610 0.995220 0.056880
Si Si8 0.204889 0.212323 0.220999
O O1 0.282083 0.706838 0.903178
O O2 0.320874 0.523351 0.730752
O O3 0.541468 0.339094 0.174663
O O4 0.098195 0.737597 0.946915
O O5 0.095992 0.035921 0.823962
O O6 0.000000 0.000000 0.500000
O O7 0.255231 0.419230 0.658587
O O8 0.000000 0.500000 0.500000
O O9 0.870338 0.765442 0.276456
O O10 0.834137 0.787894 0.599992
O O11 0.669013 0.157531 0.762414
O O12 0.000000 0.000000 0.000000
O O13 0.342457 0.382114 0.387756
O O14 0.684047 0.779761 0.710426
O O15 0.520871 0.815571 0.872618
O O16 0.946438 0.446292 0.013654
O O17 0.664185 0.967476 0.863663
O O18 0.500000 0.000000 0.000000
#
# Coordination Sequence:
#
# PCOD9104746 Si02
#       8
#     2   2   2   2   2   2   2   2
#     4   9  20  39  63  95 135 173 213 276 341 399
#     4   9  18  38  70  99 125 168 221 270 338 417
#     4  12  22  40  65  91 128 178 222 282 338 392
#     4   9  20  40  64  94 129 173 213 272 341 403
#     4  11  22  38  65  92 132 175 227 276 338 408
#     4  10  20  39  62  87 128 170 217 284 328 399
#     4  10  22  38  62  89 123 173 224 279 338 399
#     4  10  20  41  59  88 126 166 230 277 333 390
#
# _framework density 26.198955999999999
#
# number of rings (size 3 to 8) (size 9 to 14) (size 15 to 20)
#    0.000    2.000    2.500    2.250    1.750    2.500 
#    2.250    6.250    5.500    0.000    0.000    0.000 
#    0.000    0.000    0.000    0.000    0.000    0.000 
#
# Total GULP energy -89255.702626 kJ/mol
# GULP energy per Si atom -5578.481414 kJ/mol
# Density = 2.613933 g / cm^3
# Si number density = 26.198956 Si / 1000 Ang^3
#
#
#
# Elastic Constant Matrix: (Units=GPa)
#
#
# Indices 1 2 3 4 5 6 
#
# 1 94.7722 23.0118 16.6474 -7.2070 21.2659 -8.9126
# 2 23.0118 246.9615 65.6753 10.6975 6.6455 -41.7503
# 3 16.6474 65.6753 130.2840 9.2510 9.4769 -5.2213
# 4 -7.2070 10.6975 9.2510 51.6794 -6.3858 3.3148
# 5 21.2659 6.6455 9.4769 -6.3858 35.7977 8.5547
# 6 -8.9126 -41.7503 -5.2213 3.3148 8.5547 34.0025
#
#
#
# Elastic Compliance Matrix: (Units=1/GPa)
#
#
# Indices 1 2 3 4 5 6 
#
# 1 0.013262 0.000220 -0.000956 0.000495 -0.008965 0.005807
# 2 0.000220 0.006239 -0.002513 -0.001696 -0.002892 0.008225
# 3 -0.000956 -0.002513 0.009193 -0.001323 -0.001284 -0.001472
# 4 0.000495 -0.001696 -0.001323 0.021039 0.005458 -0.005580
# 5 -0.008965 -0.002892 -0.001284 0.005458 0.039043 -0.016452
# 6 0.005807 0.008225 -0.001472 -0.005580 -0.016452 0.045488
#
#
# Mechanical properties :
#
#
# Convention : Reuss Voigt Hill
#
# Bulk Modulus (GPa) = 45.05309 75.85409 60.45359
# Shear Modulus (GPa) = 33.74785 48.74145 41.24465
#
# Velocity S-wave (km/s) = 3.59296 4.31796 3.97203
# Velocity P-wave (km/s) = 5.86910 7.34000 6.64537
#
# Compressibility (1/GPa) = 0.02219604
#
# Stress axis : x y z
#
# Youngs Moduli (GPa) = 75.40616 160.29195 108.78394
#
# Poissons Ratio (x) = -0.03525 0.10396
# Poissons Ratio (y) = -0.01658 0.27333
# Poissons Ratio (z) = 0.07206 0.40275
#
# Static dielectric constant tensor:
#      x y z
#    x 2.212780 0.015710 -0.253390 
#    y 0.015710 2.336050 -0.181000 
#    z -0.253390 -0.181000 2.396500 
# 
# From -- ./inp_files/349524.got.cif
#   From: 2010.05.17/outbox.cif.g08.bks.cpg/sg2_175_cif.got.tgz:349524.got - 2010.06.03 11:33:40.
