data_PCOD9104222
_publ_section_title
;
Structure prediction by ZEFSAII (Michael W. Deem and Ramdas Pophale) SiO2 
 PCOD9104222
Probable space group: P -1
;
_chemical_formula_sum "Si O2"
_cell_formula_units_Z 16
_cell_length_a 9.100911
_cell_length_b 12.545298
_cell_length_c 15.207338
_cell_angle_alpha 52.479242
_cell_angle_beta 141.701827
_cell_angle_gamma 130.351147
_cell_volume 801.120945
_symmetry_space_group_name_H-M "P -1"
_symmetry_group_IT_number 2
_symmetry_cell_setting 'triclinic'
loop_
_space_group_symop_operation_xyz
x,y,z
-x,-y,-z
loop_
_atom_site_type_symbol
_atom_site_label
_atom_site_fract_x
_atom_site_fract_y
_atom_site_fract_z
Si Si1 0.411006 0.590032 0.123548
Si Si2 0.209231 0.217982 0.655315
Si Si3 0.230131 0.745452 0.802482
Si Si4 0.301259 0.050206 0.635041
Si Si5 0.697519 0.950300 0.563564
Si Si6 0.874087 0.495259 0.540190
Si Si7 0.713033 0.655012 0.689707
Si Si8 0.335495 0.541523 0.828343
O O1 0.615614 0.713588 0.213656
O O2 0.240137 0.475602 0.170415
O O3 0.532369 0.483730 0.185147
O O4 0.308227 0.669358 0.960834
O O5 0.106380 0.342148 0.515545
O O6 0.363469 0.178876 0.668293
O O7 0.969742 0.076274 0.633498
O O8 0.345627 0.916154 0.769560
O O9 0.323334 0.689201 0.786462
O O10 0.927111 0.701540 0.691898
O O11 0.404538 0.073870 0.573092
O O12 0.000000 0.000000 0.500000
O O13 0.735055 0.800208 0.680132
O O14 0.500000 0.000000 0.500000
O O15 0.577993 0.405777 0.447117
O O16 0.000000 0.500000 0.500000
O O17 0.042281 0.451818 0.713699
O O18 0.500000 0.500000 0.000000
#
# Coordination Sequence:
#
# PCOD9104222 Si02
#       8
#     2   2   2   2   2   2   2   2
#     4  10  23  40  63  90 125 168 210 251 319 369
#     4  10  20  39  61  89 121 160 213 250 305 382
#     4  11  22  40  63  91 127 165 206 263 310 379
#     4  10  20  39  59  86 120 159 207 245 321 364
#     4  11  23  37  62  90 122 162 203 262 310 372
#     4  11  20  37  65  89 121 162 208 260 302 368
#     4  11  22  38  61  95 121 157 214 261 307 361
#     4  10  21  38  60  87 122 165 203 248 311 372
#
# _framework density 19.972014999999999
#
# number of rings (size 3 to 8) (size 9 to 14) (size 15 to 20)
#    0.000    1.500    5.000    2.625    1.750    1.000 
#    2.250    0.000    0.000    0.750    0.000    0.000 
#    0.000    0.000    0.000    0.000    0.000    0.000 
#
# Total GULP energy -89077.631194 kJ/mol
# GULP energy per Si atom -5567.351950 kJ/mol
# Density = 1.992656 g / cm^3
# Si number density = 19.972015 Si / 1000 Ang^3
#
#
#
# Elastic Constant Matrix: (Units=GPa)
#
#
# Indices 1 2 3 4 5 6 
#
# 1 85.4788 30.4643 30.9222 3.1349 -1.9131 -33.0370
# 2 30.4643 118.2499 40.7352 -11.8278 -5.3912 -14.8500
# 3 30.9222 40.7352 99.1183 0.0937 -1.8634 -0.7997
# 4 3.1349 -11.8278 0.0937 33.7433 -4.2561 -0.4585
# 5 -1.9131 -5.3912 -1.8634 -4.2561 24.0957 -2.8141
# 6 -33.0370 -14.8500 -0.7997 -0.4585 -2.8141 34.4039
#
#
#
# Elastic Compliance Matrix: (Units=1/GPa)
#
#
# Indices 1 2 3 4 5 6 
#
# 1 0.022921 -0.000956 -0.006518 -0.001732 0.003330 0.021695
# 2 -0.000956 0.011308 -0.004255 0.004553 0.003420 0.004204
# 3 -0.006518 -0.004255 0.013779 -0.001227 -0.001545 -0.007918
# 4 -0.001732 0.004553 -0.001227 0.032249 0.006628 0.001246
# 5 0.003330 0.003420 -0.001545 0.006628 0.044560 0.008371
# 6 0.021695 0.004204 -0.007918 0.001246 0.008371 0.052231
#
#
# Mechanical properties :
#
#
# Convention : Reuss Voigt Hill
#
# Bulk Modulus (GPa) = 40.73550 56.34338 48.53944
# Shear Modulus (GPa) = 23.95897 31.83029 27.89463
#
# Velocity S-wave (km/s) = 3.46732 3.99650 3.74128
# Velocity P-wave (km/s) = 6.03907 7.04049 6.55892
#
# Compressibility (1/GPa) = 0.02454861
#
# Stress axis : x y z
#
# Youngs Moduli (GPa) = 43.62885 88.43150 72.57199
#
# Poissons Ratio (x) = 0.08458 0.47304
# Poissons Ratio (y) = 0.04173 0.30880
# Poissons Ratio (z) = 0.28438 0.37628
#
# Static dielectric constant tensor:
#      x y z
#    x 1.773980 -0.013930 -0.014780 
#    y -0.013930 1.705510 -0.016810 
#    z -0.014780 -0.016810 1.752980 
# 
# From -- ./inp_files/436565.got.cif
#   From: 2010.05.17/outbox.cif.g08.bks.cpg/sg2_219_cif.got.tgz:436565.got - 2010.06.03 11:33:40.
