data_PCOD9104834
_publ_section_title
;
Structure prediction by ZEFSAII (Michael W. Deem and Ramdas Pophale) SiO2 
 PCOD9104834
Probable space group: P -1
;
_chemical_formula_sum "Si O2"
_cell_formula_units_Z 16
_cell_length_a 12.517882
_cell_length_b 11.472139
_cell_length_c 7.557471
_cell_angle_alpha 85.000949
_cell_angle_beta 147.968157
_cell_angle_gamma 102.119457
_cell_volume 554.101825
_symmetry_space_group_name_H-M "P -1"
_symmetry_group_IT_number 2
_symmetry_cell_setting 'triclinic'
loop_
_space_group_symop_operation_xyz
x,y,z
-x,-y,-z
loop_
_atom_site_type_symbol
_atom_site_label
_atom_site_fract_x
_atom_site_fract_y
_atom_site_fract_z
Si Si1 0.665395 0.780733 0.481550
Si Si2 0.089130 0.885424 0.694764
Si Si3 0.450822 0.991068 0.722544
Si Si4 0.012734 0.699618 0.937271
Si Si5 0.675531 0.427314 0.776953
Si Si6 0.742555 0.502452 0.370915
Si Si7 0.514881 0.259292 0.164347
Si Si8 0.134983 0.334490 0.803154
O O1 0.689758 0.921617 0.537721
O O2 0.454850 0.684127 0.267208
O O3 0.870727 0.753062 0.870129
O O4 0.620405 0.774006 0.203429
O O5 0.026383 0.804189 0.793510
O O6 0.328628 0.946253 0.058690
O O7 0.000000 0.000000 0.500000
O O8 0.035851 0.790563 0.467820
O O9 0.398482 0.850265 0.627292
O O10 0.500000 0.000000 0.000000
O O11 0.823927 0.579879 0.645678
O O12 0.209595 0.645193 0.185182
O O13 0.500000 0.500000 0.500000
O O14 0.853147 0.548924 0.068696
O O15 0.714889 0.361511 0.366015
O O16 0.500000 0.500000 0.000000
O O17 0.873020 0.585205 0.395735
O O18 0.359388 0.298930 0.082646
#
# Coordination Sequence:
#
# PCOD9104834 Si02
#       8
#     2   2   2   2   2   2   2   2
#     4  11  19  39  57  84 124 155 194 253 299 360
#     4  11  18  34  58  97 125 144 191 240 318 389
#     4  10  20  29  54  91 129 158 176 234 313 381
#     4  11  22  38  61  86 122 162 197 253 311 354
#     4  12  27  41  58  86 119 172 221 245 285 348
#     4   9  15  30  56  87 118 147 181 237 315 367
#     4  10  16  33  58  92 124 154 184 234 321 370
#     4  10  19  34  58  87 125 151 193 252 305 360
#
# _framework density 28.875558000000002
#
# number of rings (size 3 to 8) (size 9 to 14) (size 15 to 20)
#    0.000    1.500    7.500    1.500    0.000    4.500 
#    0.000    0.000    0.000    3.000    0.000   11.375 
#    0.000    0.000    0.000    0.000    0.000    0.000 
#
# Total GULP energy -89169.777551 kJ/mol
# GULP energy per Si atom -5573.111097 kJ/mol
# Density = 2.880984 g / cm^3
# Si number density = 28.875558 Si / 1000 Ang^3
#
#
#
# Elastic Constant Matrix: (Units=GPa)
#
#
# Indices 1 2 3 4 5 6 
#
# 1 48.1314 14.1887 2.1077 0.0798 1.0913 -25.4939
# 2 14.1887 245.1232 12.0801 -28.8405 16.2424 -18.1524
# 3 2.1077 12.0801 68.3266 -31.3221 34.8544 -9.7923
# 4 0.0798 -28.8405 -31.3221 60.8483 -8.0417 9.7959
# 5 1.0913 16.2424 34.8544 -8.0417 40.7620 -0.9043
# 6 -25.4939 -18.1524 -9.7923 9.7959 -0.9043 48.0925
#
#
#
# Elastic Compliance Matrix: (Units=1/GPa)
#
#
# Indices 1 2 3 4 5 6 
#
# 1 0.029521 -0.000772 0.001178 -0.002608 -0.001647 0.016097
# 2 -0.000772 0.004635 0.002263 0.002751 -0.003193 0.001181
# 3 0.001178 0.002263 0.037041 0.015388 -0.029452 0.005333
# 4 -0.002608 0.002751 0.015388 0.024821 -0.009341 -0.002442
# 5 -0.001647 -0.003193 -0.029452 -0.009341 0.049073 -0.005250
# 6 0.016097 0.001181 0.005333 -0.002442 -0.005250 0.031257
#
#
# Mechanical properties :
#
#
# Convention : Reuss Voigt Hill
#
# Bulk Modulus (GPa) = 13.06606 46.48159 29.77383
# Shear Modulus (GPa) = 25.44231 52.15422 38.79826
#
# Velocity S-wave (km/s) = 2.97156 4.25452 3.66954
# Velocity P-wave (km/s) = 4.03835 6.34561 5.31860
#
# Compressibility (1/GPa) = 0.07653417
#
# Stress axis : x y z
#
# Youngs Moduli (GPa) = 33.87475 215.72980 26.99684
#
# Poissons Ratio (x) = 0.16664 -0.03179
# Poissons Ratio (y) = 0.02617 -0.06110
# Poissons Ratio (z) = -0.03989 -0.48826
#
# Static dielectric constant tensor:
#      x y z
#    x 2.797620 -0.154890 0.064280 
#    y -0.154890 2.574970 0.189600 
#    z 0.064280 0.189600 2.901290 
# 
# From -- ./inp_files/464570.got.cif
#   From: 2010.05.17/outbox.cif.g08.bks.cpg/sg2_233_cif.got.tgz:464570.got - 2010.06.03 11:33:40.
