data_PCOD9104186
_publ_section_title
;
Structure prediction by ZEFSAII (Michael W. Deem and Ramdas Pophale) SiO2 
 PCOD9104186
Probable space group: P -1
;
_chemical_formula_sum "Si O2"
_cell_formula_units_Z 14
_cell_length_a 14.851320
_cell_length_b 11.521363
_cell_length_c 11.268685
_cell_angle_alpha 114.804868
_cell_angle_beta 152.168761
_cell_angle_gamma 82.379121
_cell_volume 675.616663
_symmetry_space_group_name_H-M "P -1"
_symmetry_group_IT_number 2
_symmetry_cell_setting 'triclinic'
loop_
_space_group_symop_operation_xyz
x,y,z
-x,-y,-z
loop_
_atom_site_type_symbol
_atom_site_label
_atom_site_fract_x
_atom_site_fract_y
_atom_site_fract_z
Si Si1 0.042132 0.421094 0.644099
Si Si2 0.382989 0.383217 0.151823
Si Si3 0.875620 0.987209 0.724770
Si Si4 0.992023 0.227742 0.268704
Si Si5 0.641892 0.471637 0.253538
Si Si6 0.295632 0.263875 0.243542
Si Si7 0.566420 0.210845 0.731058
O O1 0.017070 0.323894 0.456768
O O2 0.803388 0.409583 0.383651
O O3 0.140865 0.369079 0.841603
O O4 0.254338 0.603465 0.955458
O O5 0.476520 0.376551 0.129235
O O6 0.343590 0.268203 0.161308
O O7 0.580579 0.557692 0.499168
O O8 0.605971 0.884230 0.401781
O O9 0.931026 0.885767 0.664157
O O10 0.000000 0.000000 0.000000
O O11 0.021627 0.156003 0.909931
O O12 0.160927 0.347122 0.414557
O O13 0.733967 0.152084 0.886053
O O14 0.500000 0.500000 0.000000
O O15 0.424048 0.204465 0.447608
#
# Coordination Sequence:
#
# PCOD9104186 Si02
#       7
#     2   2   2   2   2   2   2
#     4  10  21  34  56  91 111 139 193 231 283 326
#     4  10  20  39  59  80 118 145 184 237 277 330
#     4  10  21  36  55  83 113 152 190 224 279 331
#     4  11  21  32  58  89 113 142 186 241 279 321
#     4  11  20  32  60  88 108 142 183 236 280 323
#     4   9  20  38  58  80 113 156 184 224 281 337
#     4   9  19  35  57  83 115 141 190 235 272 328
#
# _framework density 20.721810999999999
#
# number of rings (size 3 to 8) (size 9 to 14) (size 15 to 20)
#    0.000    2.000    1.429    4.286    4.000    2.286 
#    0.000   17.857    0.000    1.714    0.000    0.000 
#    0.000    0.000    0.000    0.000    0.000    0.000 
#
# Total GULP energy -77996.096572 kJ/mol
# GULP energy per Si atom -5571.149755 kJ/mol
# Density = 2.067465 g / cm^3
# Si number density = 20.721811 Si / 1000 Ang^3
#
#
#
# Elastic Constant Matrix: (Units=GPa)
#
#
# Indices 1 2 3 4 5 6 
#
# 1 105.6535 45.6620 49.7920 -8.6661 17.2323 19.8609
# 2 45.6620 66.8687 38.0408 -7.3593 13.4902 15.5597
# 3 49.7920 38.0408 96.2022 -17.4447 29.2379 12.3372
# 4 -8.6661 -7.3593 -17.4447 22.9274 -6.5557 4.2893
# 5 17.2323 13.4902 29.2379 -6.5557 35.2377 3.9930
# 6 19.8609 15.5597 12.3372 4.2893 3.9930 35.5755
#
#
#
# Elastic Compliance Matrix: (Units=1/GPa)
#
#
# Indices 1 2 3 4 5 6 
#
# 1 0.015461 -0.006864 -0.004401 0.000881 -0.000649 -0.004137
# 2 -0.006864 0.023871 -0.004476 0.002341 -0.001041 -0.005222
# 3 -0.004401 -0.004476 0.019578 0.009260 -0.010393 -0.002325
# 4 0.000881 0.002341 0.009260 0.054618 0.002464 -0.011589
# 5 -0.000649 -0.001041 -0.010393 0.002464 0.038195 -0.000162
# 6 -0.004137 -0.005222 -0.002325 -0.011589 -0.000162 0.034924
#
#
# Mechanical properties :
#
#
# Convention : Reuss Voigt Hill
#
# Bulk Modulus (GPa) = 36.45758 59.52377 47.99068
# Shear Modulus (GPa) = 22.00012 27.76342 24.88177
#
# Velocity S-wave (km/s) = 3.26189 3.66432 3.46895
# Velocity P-wave (km/s) = 5.64080 6.83305 6.26535
#
# Compressibility (1/GPa) = 0.02742914
#
# Stress axis : x y z
#
# Youngs Moduli (GPa) = 64.67891 41.89229 51.07711
#
# Poissons Ratio (x) = 0.28754 0.22477
# Poissons Ratio (y) = 0.44394 0.22862
# Poissons Ratio (z) = 0.28463 0.18751
#
# Static dielectric constant tensor:
#      x y z
#    x 1.816290 -0.039430 -0.021750 
#    y -0.039430 1.774340 0.010030 
#    z -0.021750 0.010030 1.846440 
# 
# From -- ./inp_files/450473.got.cif
#   From: 2010.05.17/outbox.cif.g08.bks.cpg/sg2_226_cif.got.tgz:450473.got - 2010.06.03 11:33:40.
