data_PCOD9104941
_publ_section_title
;
Structure prediction by ZEFSAII (Michael W. Deem and Ramdas Pophale) SiO2 
 PCOD9104941
Probable space group: P -1
;
_chemical_formula_sum "Si O2"
_cell_formula_units_Z 16
_cell_length_a 11.483658
_cell_length_b 5.818536
_cell_length_c 14.814548
_cell_angle_alpha 77.232735
_cell_angle_beta 133.892413
_cell_angle_gamma 78.718660
_cell_volume 603.967268
_symmetry_space_group_name_H-M "P -1"
_symmetry_group_IT_number 2
_symmetry_cell_setting 'triclinic'
loop_
_space_group_symop_operation_xyz
x,y,z
-x,-y,-z
loop_
_atom_site_type_symbol
_atom_site_label
_atom_site_fract_x
_atom_site_fract_y
_atom_site_fract_z
Si Si1 0.223310 0.479082 0.616819
Si Si2 0.432377 0.883737 0.870360
Si Si3 0.064331 0.257249 0.419366
Si Si4 0.242515 0.009889 0.936913
Si Si5 0.146047 0.180498 0.273514
Si Si6 0.837456 0.347487 0.942372
Si Si7 0.552343 0.281535 0.294262
Si Si8 0.173100 0.668779 0.270288
O O1 0.314475 0.196033 0.744534
O O2 0.094937 0.487415 0.464702
O O3 0.386443 0.510062 0.654632
O O4 0.095121 0.713671 0.599475
O O5 0.337386 0.852590 0.910299
O O6 0.435794 0.699755 0.808265
O O7 0.638380 0.840227 0.996603
O O8 0.024063 0.240008 0.294571
O O9 0.275541 0.005017 0.561013
O O10 0.024441 0.217451 0.795551
O O11 0.247321 0.815480 0.035786
O O12 0.256467 0.343629 0.341049
O O13 0.251447 0.857626 0.336152
O O14 0.003869 0.316867 0.099531
O O15 0.657055 0.649391 0.808602
O O16 0.876917 0.251200 0.868843
#
# Coordination Sequence:
#
# PCOD9104941 Si02
#       8
#     2   2   2   2   2   2   2   2
#     4  10  21  41  62  92 138 176 229 270 349 421
#     4  10  21  36  62 101 133 177 217 285 351 407
#     4  10  24  41  66  95 131 187 221 282 342 417
#     4  10  20  39  62  99 143 170 227 283 346 414
#     4  11  24  44  73 102 134 177 238 287 339 404
#     4  11  24  44  69 101 134 182 228 289 344 407
#     4  11  23  39  66  95 135 175 223 282 346 417
#     4  11  25  44  71 102 138 187 230 287 344 408
#
# _framework density 26.491502000000001
#
# number of rings (size 3 to 8) (size 9 to 14) (size 15 to 20)
#    0.000    1.500    1.250    3.750    5.250    2.500 
#    0.000    1.250    0.000    0.000    0.000    0.000 
#    0.000    0.000    0.000    0.000    0.000    0.000 
#
# Total GULP energy -89259.859147 kJ/mol
# GULP energy per Si atom -5578.741197 kJ/mol
# Density = 2.643121 g / cm^3
# Si number density = 26.491502 Si / 1000 Ang^3
#
#
#
# Elastic Constant Matrix: (Units=GPa)
#
#
# Indices 1 2 3 4 5 6 
#
# 1 87.5579 26.4389 22.8183 6.5987 -20.2424 -8.3104
# 2 26.4389 125.4613 16.2937 8.4759 -9.8995 3.7920
# 3 22.8183 16.2937 59.7092 -2.2788 -7.7672 -11.3305
# 4 6.5987 8.4759 -2.2788 42.2315 -6.2206 -2.9947
# 5 -20.2424 -9.8995 -7.7672 -6.2206 39.2070 5.5095
# 6 -8.3104 3.7920 -11.3305 -2.9947 5.5095 34.3592
#
#
#
# Elastic Compliance Matrix: (Units=1/GPa)
#
#
# Indices 1 2 3 4 5 6 
#
# 1 0.014680 -0.002069 -0.004059 -0.001133 0.005877 0.001399
# 2 -0.002069 0.008926 -0.002059 -0.001625 0.000863 -0.002444
# 3 -0.004059 -0.002059 0.020229 0.002708 0.000979 0.005995
# 4 -0.001133 -0.001625 0.002708 0.024968 0.003156 0.002469
# 5 0.005877 0.000863 0.000979 0.003156 0.029855 -0.002863
# 6 0.001399 -0.002444 0.005995 0.002469 -0.002863 0.032364
#
#
# Mechanical properties :
#
#
# Convention : Reuss Voigt Hill
#
# Bulk Modulus (GPa) = 36.41294 44.87001 40.64147
# Shear Modulus (GPa) = 31.93898 36.97140 34.45519
#
# Velocity S-wave (km/s) = 3.47599 3.73982 3.61031
# Velocity P-wave (km/s) = 5.46671 5.96847 5.72309
#
# Compressibility (1/GPa) = 0.02746277
#
# Stress axis : x y z
#
# Youngs Moduli (GPa) = 68.11896 112.03623 49.43345
#
# Poissons Ratio (x) = 0.23175 0.20064
# Poissons Ratio (y) = 0.14091 0.10177
# Poissons Ratio (z) = 0.27649 0.23065
#
# Static dielectric constant tensor:
#      x y z
#    x 2.077410 0.039170 -0.014000 
#    y 0.039170 2.209900 -0.064010 
#    z -0.014000 -0.064010 2.120250 
# 
# From -- ./inp_files/511027.got.cif
#   From: 2010.05.17/outbox.cif.g08.bks.cpg/sg2_256_cif.got.tgz:511027.got - 2010.06.03 11:33:40.
