data_PCOD9104622
_publ_section_title
;
Structure prediction by ZEFSAII (Michael W. Deem and Ramdas Pophale) SiO2 
 PCOD9104622
Probable space group: P -1
;
_chemical_formula_sum "Si O2"
_cell_formula_units_Z 16
_cell_length_a 6.673546
_cell_length_b 5.186201
_cell_length_c 25.457964
_cell_angle_alpha 95.783572
_cell_angle_beta 54.791267
_cell_angle_gamma 68.300467
_cell_volume 609.021961
_symmetry_space_group_name_H-M "P -1"
_symmetry_group_IT_number 2
_symmetry_cell_setting 'triclinic'
loop_
_space_group_symop_operation_xyz
x,y,z
-x,-y,-z
loop_
_atom_site_type_symbol
_atom_site_label
_atom_site_fract_x
_atom_site_fract_y
_atom_site_fract_z
Si Si1 0.361132 0.812646 0.705557
Si Si2 0.965785 0.283630 0.859088
Si Si3 0.040246 0.721507 0.934851
Si Si4 0.881339 0.581919 0.311200
Si Si5 0.542630 0.761136 0.063317
Si Si6 0.925704 0.361509 0.558075
Si Si7 0.541531 0.265570 0.534653
Si Si8 0.422697 0.250776 0.165681
O O1 0.226194 0.601589 0.712203
O O2 0.703023 0.605505 0.638539
O O3 0.246693 0.076568 0.683739
O O4 0.229710 0.004205 0.782739
O O5 0.735615 0.215431 0.919647
O O6 0.762409 0.506515 0.847250
O O7 0.048762 0.476952 0.887379
O O8 0.210712 0.570660 0.961204
O O9 0.253008 0.822609 0.882148
O O10 0.710182 0.887949 0.008069
O O11 0.759383 0.604073 0.387580
O O12 0.224469 0.398800 0.249031
O O13 0.433114 0.952049 0.137700
O O14 0.726193 0.259239 0.557640
O O15 0.000000 0.500000 0.500000
O O16 0.232208 0.079924 0.525468
O O17 0.500000 0.500000 0.500000
#
# Coordination Sequence:
#
# PCOD9104622 Si02
#       8
#     2   2   2   2   2   2   2   2
#     4  10  20  39  70  93 133 188 236 286 367 433
#     4  10  21  38  63  92 131 180 238 282 357 435
#     4  10  22  37  62  96 130 172 234 291 345 431
#     4  10  20  40  69  94 134 190 227 295 368 432
#     4  10  20  39  61  91 135 177 218 295 362 419
#     4  10  20  40  69  96 139 186 233 304 364 433
#     4  10  22  40  70 102 138 184 246 297 368 443
#     4  10  21  38  64  89 134 178 229 290 363 418
#
# _framework density 26.271628
#
# number of rings (size 3 to 8) (size 9 to 14) (size 15 to 20)
#    0.000    2.000    2.500    0.750    0.000    2.000 
#    0.000    1.250   11.000    0.000    0.000    0.000 
#    0.000    0.000    0.000    0.000    0.000    0.000 
#
# Total GULP energy -89456.397119 kJ/mol
# GULP energy per Si atom -5591.024820 kJ/mol
# Density = 2.621183 g / cm^3
# Si number density = 26.271628 Si / 1000 Ang^3
#
#
#
# Elastic Constant Matrix: (Units=GPa)
#
#
# Indices 1 2 3 4 5 6 
#
# 1 127.1704 13.0492 51.5969 21.0277 -21.4266 0.2902
# 2 13.0492 68.3508 22.1342 2.5851 -9.0493 -9.8528
# 3 51.5969 22.1342 195.4670 17.2962 -7.9140 -13.4478
# 4 21.0277 2.5851 17.2962 51.4691 -2.8483 -0.9693
# 5 -21.4266 -9.0493 -7.9140 -2.8483 59.8902 12.0201
# 6 0.2902 -9.8528 -13.4478 -0.9693 12.0201 56.1711
#
#
#
# Elastic Compliance Matrix: (Units=1/GPa)
#
#
# Indices 1 2 3 4 5 6 
#
# 1 0.009920 -0.000838 -0.002218 -0.003112 0.003279 -0.001485
# 2 -0.000838 0.015729 -0.001366 0.000133 0.001477 0.002123
# 3 -0.002218 -0.001366 0.006018 -0.001052 -0.000516 0.001305
# 4 -0.003112 0.000133 -0.001052 0.021036 -0.000274 0.000209
# 5 0.003279 0.001477 -0.000516 -0.000274 0.018797 -0.003909
# 6 -0.001485 0.002123 0.001305 0.000209 -0.003909 0.019335
#
#
# Mechanical properties :
#
#
# Convention : Reuss Voigt Hill
#
# Bulk Modulus (GPa) = 43.81347 62.72763 53.27055
# Shear Modulus (GPa) = 46.60469 53.78660 50.19565
#
# Velocity S-wave (km/s) = 4.21640 4.52965 4.37583
# Velocity P-wave (km/s) = 6.35747 7.16138 6.77136
#
# Compressibility (1/GPa) = 0.02282403
#
# Stress axis : x y z
#
# Youngs Moduli (GPa) = 100.81039 63.57623 166.17013
#
# Poissons Ratio (x) = 0.05327 0.36850
# Poissons Ratio (y) = 0.08446 0.22697
# Poissons Ratio (z) = 0.22356 0.08684
#
# Static dielectric constant tensor:
#      x y z
#    x 1.852400 0.009640 0.018910 
#    y 0.009640 2.153370 -0.019340 
#    z 0.018910 -0.019340 2.043840 
# 
# From -- ./inp_files/56176.got.cif
#   From: 2010.05.17/outbox.cif.g08.bks.cpg/sg2_29_cif.got.tgz:56176.got - 2010.06.03 11:33:40.
