data_PCOD9104259
_publ_section_title
;
Structure prediction by ZEFSAII (Michael W. Deem and Ramdas Pophale) SiO2 
 PCOD9104259
Probable space group: P -1
;
_chemical_formula_sum "Si O2"
_cell_formula_units_Z 16
_cell_length_a 9.253407
_cell_length_b 8.865136
_cell_length_c 12.161290
_cell_angle_alpha 97.058812
_cell_angle_beta 94.980398
_cell_angle_gamma 130.856923
_cell_volume 730.013831
_symmetry_space_group_name_H-M "P -1"
_symmetry_group_IT_number 2
_symmetry_cell_setting 'triclinic'
loop_
_space_group_symop_operation_xyz
x,y,z
-x,-y,-z
loop_
_atom_site_type_symbol
_atom_site_label
_atom_site_fract_x
_atom_site_fract_y
_atom_site_fract_z
Si Si1 0.255145 0.789402 0.347597
Si Si2 0.777611 0.793168 0.258704
Si Si3 0.532798 0.353908 0.940595
Si Si4 0.429388 0.676814 0.820482
Si Si5 0.969828 0.639481 0.946638
Si Si6 0.850383 0.046361 0.821382
Si Si7 0.307538 0.024596 0.582816
Si Si8 0.883925 0.315889 0.279812
O O1 0.207896 0.838871 0.234509
O O2 0.266828 0.931420 0.451401
O O3 0.074844 0.551482 0.341459
O O4 0.464026 0.852235 0.367363
O O5 0.645673 0.800126 0.166430
O O6 0.692243 0.563325 0.222708
O O7 0.996586 0.937108 0.241286
O O8 0.742300 0.836716 0.380306
O O9 0.737163 0.493428 0.903494
O O10 0.500000 0.500000 0.000000
O O11 0.556403 0.270570 0.044396
O O12 0.309272 0.716697 0.749638
O O13 0.651100 0.816655 0.808476
O O14 0.071680 0.714342 0.842204
O O15 0.000000 0.500000 0.000000
O O16 0.046191 0.827029 0.048043
O O17 0.166923 0.836718 0.641855
#
# Coordination Sequence:
#
# PCOD9104259 Si02
#       8
#     2   2   2   2   2   2   2   2
#     4  11  23  48  68  94 134 164 223 277 318 384
#     4  11  24  45  61  97 137 170 214 272 317 384
#     4  10  20  39  59  90 135 170 199 261 319 375
#     4  11  23  41  66  93 134 177 212 258 328 389
#     4  12  21  38  67  99 130 174 209 262 326 389
#     4  12  24  41  68  96 132 178 212 260 334 390
#     4  11  27  42  72  98 122 175 222 273 324 370
#     4  12  23  43  69  98 130 170 220 266 324 390
#
# _framework density 21.917394000000002
#
# number of rings (size 3 to 8) (size 9 to 14) (size 15 to 20)
#    0.000    0.750    7.500    1.125    1.750    4.500 
#    0.000    0.625    0.000    0.000    0.000    0.000 
#    0.000    0.000    0.000    0.000    0.000    0.000 
#
# Total GULP energy -89510.920819 kJ/mol
# GULP energy per Si atom -5594.432551 kJ/mol
# Density = 2.186751 g / cm^3
# Si number density = 21.917394 Si / 1000 Ang^3
#
#
#
# Elastic Constant Matrix: (Units=GPa)
#
#
# Indices 1 2 3 4 5 6 
#
# 1 83.5631 12.0772 16.6343 6.6605 -17.9935 34.5529
# 2 12.0772 54.3486 1.0356 -8.3040 3.9950 35.6318
# 3 16.6343 1.0356 61.6904 13.8924 -17.9049 9.3861
# 4 6.6605 -8.3040 13.8924 22.4113 -0.0680 0.6027
# 5 -17.9935 3.9950 -17.9049 -0.0680 37.2834 -3.5513
# 6 34.5529 35.6318 9.3861 0.6027 -3.5513 41.1960
#
#
#
# Elastic Compliance Matrix: (Units=1/GPa)
#
#
# Indices 1 2 3 4 5 6 
#
# 1 0.026040 0.017382 0.000534 -0.000630 0.007499 -0.036341
# 2 0.017382 0.065234 -0.001627 0.021918 -0.006151 -0.071482
# 3 0.000534 -0.001627 0.023226 -0.015041 0.011260 -0.003142
# 4 -0.000630 0.021918 -0.015041 0.062672 -0.011371 -0.016899
# 5 0.007499 -0.006151 0.011260 -0.011371 0.036465 -0.000225
# 6 -0.036341 -0.071482 -0.003142 -0.016899 -0.000225 0.117526
#
#
# Mechanical properties :
#
#
# Convention : Reuss Voigt Hill
#
# Bulk Modulus (GPa) = 6.79911 28.78848 17.79379
# Shear Modulus (GPa) = 14.38384 31.50182 22.94283
#
# Velocity S-wave (km/s) = 2.56457 3.79528 3.23892
# Velocity P-wave (km/s) = 3.44648 5.68938 4.70358
#
# Compressibility (1/GPa) = 0.14707801
#
# Stress axis : x y z
#
# Youngs Moduli (GPa) = 38.40185 15.32945 43.05457
#
# Poissons Ratio (x) = -0.26645 -0.02300
# Poissons Ratio (y) = -0.66749 0.07006
# Poissons Ratio (z) = -0.02051 0.02494
#
# Static dielectric constant tensor:
#      x y z
#    x 1.806660 -0.029270 -0.007260 
#    y -0.029270 1.797030 0.005660 
#    z -0.007260 0.005660 1.830660 
# 
# From -- ./inp_files/187936.got.cif
#   From: 2010.05.17/outbox.cif.g08.bks.cpg/sg2_94_cif.got.tgz:187936.got - 2010.06.03 11:33:40.
