data_PCOD9104239
_publ_section_title
;
Structure prediction by ZEFSAII (Michael W. Deem and Ramdas Pophale) SiO2 
 PCOD9104239
Probable space group: P -1
;
_chemical_formula_sum "Si O2"
_cell_formula_units_Z 12
_cell_length_a 8.396911
_cell_length_b 16.678668
_cell_length_c 8.831703
_cell_angle_alpha 141.843550
_cell_angle_beta 139.505988
_cell_angle_gamma 45.962146
_cell_volume 481.448030
_symmetry_space_group_name_H-M "P -1"
_symmetry_group_IT_number 2
_symmetry_cell_setting 'triclinic'
loop_
_space_group_symop_operation_xyz
x,y,z
-x,-y,-z
loop_
_atom_site_type_symbol
_atom_site_label
_atom_site_fract_x
_atom_site_fract_y
_atom_site_fract_z
Si Si1 0.012407 0.378528 0.602995
Si Si2 0.577894 0.813560 0.216572
Si Si3 0.916421 0.239633 0.048033
Si Si4 0.433651 0.690226 0.659587
Si Si5 0.230351 0.985685 0.027005
Si Si6 0.324397 0.588896 0.129758
O O1 0.191746 0.237461 0.581372
O O2 0.144647 0.495053 0.911852
O O3 0.980995 0.357498 0.370575
O O4 0.747041 0.390070 0.508293
O O5 0.483436 0.955655 0.271507
O O6 0.331311 0.788790 0.088826
O O7 0.633127 0.711280 0.960323
O O8 0.841077 0.284198 0.890628
O O9 0.149794 0.111406 0.046248
O O10 0.273312 0.845710 0.760551
O O11 0.485395 0.629907 0.442471
O O12 0.000000 0.000000 0.000000
O O13 0.500000 0.500000 0.000000
#
# Coordination Sequence:
#
# PCOD9104239 Si02
#       6
#     2   2   2   2   2   2
#     4  11  20  39  62  88 115 159 196 239 285 356
#     4   8  18  37  59  89 108 154 195 237 288 340
#     4  10  20  39  59  88 122 151 194 241 299 344
#     4   9  22  40  61  90 113 154 202 242 283 350
#     4   8  16  39  62  87 115 149 194 251 288 336
#     4  12  24  40  58  86 127 161 185 241 301 344
#
# _framework density 24.924809
#
# number of rings (size 3 to 8) (size 9 to 14) (size 15 to 20)
#    1.000    1.333    3.333    1.000    0.000    2.000 
#    6.000    0.000    0.000    2.000    0.000    0.000 
#    0.000    0.000    0.000    0.000    0.000    0.000 
#
# Total GULP energy -67023.578402 kJ/mol
# GULP energy per Si atom -5585.298200 kJ/mol
# Density = 2.486808 g / cm^3
# Si number density = 24.924809 Si / 1000 Ang^3
#
#
#
# Elastic Constant Matrix: (Units=GPa)
#
#
# Indices 1 2 3 4 5 6 
#
# 1 51.7700 21.3535 19.0452 3.8893 -16.7309 -6.1270
# 2 21.3535 135.6940 1.1588 -5.9305 7.0198 14.5093
# 3 19.0452 1.1588 80.3891 0.0075 -21.5689 4.8117
# 4 3.8893 -5.9305 0.0075 38.4967 -1.0669 -6.5125
# 5 -16.7309 7.0198 -21.5689 -1.0669 27.9473 -4.3018
# 6 -6.1270 14.5093 4.8117 -6.5125 -4.3018 33.4728
#
#
#
# Elastic Compliance Matrix: (Units=1/GPa)
#
#
# Indices 1 2 3 4 5 6 
#
# 1 0.031308 -0.007263 -0.002555 -0.001772 0.020299 0.011510
# 2 -0.007263 0.009633 -0.000135 0.000934 -0.007807 -0.006307
# 3 -0.002555 -0.000135 0.015982 0.000314 0.010654 -0.001276
# 4 -0.001772 0.000934 0.000314 0.027094 0.000687 0.004585
# 5 0.020299 -0.007807 0.010654 0.000687 0.060213 0.013440
# 6 0.011510 -0.006307 -0.001276 0.004585 0.013440 0.037519
#
#
# Mechanical properties :
#
#
# Convention : Reuss Voigt Hill
#
# Bulk Modulus (GPa) = 27.01606 38.99647 33.00627
# Shear Modulus (GPa) = 23.36525 35.06972 29.21749
#
# Velocity S-wave (km/s) = 3.06507 3.75510 3.42749
# Velocity P-wave (km/s) = 4.83619 5.87202 5.37910
#
# Compressibility (1/GPa) = 0.03701502
#
# Stress axis : x y z
#
# Youngs Moduli (GPa) = 31.94107 103.81195 62.57164
#
# Poissons Ratio (x) = 0.75401 0.15986
# Poissons Ratio (y) = 0.23200 0.00848
# Poissons Ratio (z) = 0.08160 0.01406
#
# Static dielectric constant tensor:
#      x y z
#    x 1.954100 -0.031000 -0.021100 
#    y -0.031000 2.063300 0.028900 
#    z -0.021100 0.028900 1.980210 
# 
# From -- ./inp_files/211465.got.cif
#   From: 2010.05.17/outbox.cif.g08.bks.cpg/sg2_106_cif.got.tgz:211465.got - 2010.06.03 11:33:40.
