data_PCOD9104739
_publ_section_title
;
Structure prediction by ZEFSAII (Michael W. Deem and Ramdas Pophale) SiO2 
 PCOD9104739
Probable space group: P -1
;
_chemical_formula_sum "Si O2"
_cell_formula_units_Z 14
_cell_length_a 17.861362
_cell_length_b 6.783846
_cell_length_c 9.207038
_cell_angle_alpha 57.671796
_cell_angle_beta 52.150106
_cell_angle_gamma 41.270346
_cell_volume 575.227778
_symmetry_space_group_name_H-M "P -1"
_symmetry_group_IT_number 2
_symmetry_cell_setting 'triclinic'
loop_
_space_group_symop_operation_xyz
x,y,z
-x,-y,-z
loop_
_atom_site_type_symbol
_atom_site_label
_atom_site_fract_x
_atom_site_fract_y
_atom_site_fract_z
Si Si1 0.682987 0.332203 0.219827
Si Si2 0.559392 0.185180 0.211355
Si Si3 0.668257 0.530477 0.462450
Si Si4 0.372253 0.083025 0.060865
Si Si5 0.914302 0.289348 0.383630
Si Si6 0.067939 0.999809 0.059094
Si Si7 0.868438 0.569910 0.614962
O O1 0.648584 0.383686 0.409493
O O2 0.817260 0.041516 0.125507
O O3 0.500000 0.000000 0.000000
O O4 0.685558 0.602111 0.073892
O O5 0.416032 0.370474 0.336123
O O6 0.592916 0.344619 0.213226
O O7 0.629360 0.849077 0.326547
O O8 0.595093 0.145833 0.016924
O O9 0.808839 0.302272 0.429517
O O10 0.264272 0.152111 0.266500
O O11 0.852301 0.559141 0.466202
O O12 0.000000 0.000000 0.500000
O O13 0.990284 0.264465 0.166038
O O14 0.107042 0.714788 0.221483
O O15 0.000000 0.000000 0.000000
O O16 0.000000 0.500000 0.500000
#
# Coordination Sequence:
#
# PCOD9104739 Si02
#       7
#     2   2   2   2   2   2   2
#     4  10  21  38  61  92 122 160 213 260 313 378
#     4  10  22  37  64  92 119 167 213 258 318 372
#     4  10  20  40  60  89 130 159 208 266 312 378
#     4  10  22  42  60  87 129 164 209 263 312 378
#     4  10  21  39  60  85 126 167 200 257 323 368
#     4  10  20  39  62  87 123 163 205 258 313 373
#     4  10  23  40  59  89 126 162 210 259 314 378
#
# _framework density 24.338187000000001
#
# number of rings (size 3 to 8) (size 9 to 14) (size 15 to 20)
#    0.000    2.000    1.429    1.286    2.000    1.714 
#    5.143    1.429    0.000    0.000    0.000    0.000 
#    0.000    0.000    0.000    0.000    0.000    0.000 
#
# Total GULP energy -78129.475417 kJ/mol
# GULP energy per Si atom -5580.676816 kJ/mol
# Density = 2.428279 g / cm^3
# Si number density = 24.338187 Si / 1000 Ang^3
#
#
#
# Elastic Constant Matrix: (Units=GPa)
#
#
# Indices 1 2 3 4 5 6 
#
# 1 68.8744 14.9889 27.4830 15.9013 13.3829 5.1216
# 2 14.9889 86.3681 70.2072 28.9350 0.7423 -4.5487
# 3 27.4830 70.2072 143.6645 33.7171 16.3123 17.3912
# 4 15.9013 28.9350 33.7171 55.4161 7.9791 1.0752
# 5 13.3829 0.7423 16.3123 7.9791 44.7476 9.5503
# 6 5.1216 -4.5487 17.3912 1.0752 9.5503 39.6177
#
#
#
# Elastic Compliance Matrix: (Units=1/GPa)
#
#
# Indices 1 2 3 4 5 6 
#
# 1 0.016778 -0.000428 -0.001838 -0.002928 -0.003726 -0.000434
# 2 -0.000428 0.022760 -0.010892 -0.005740 0.003290 0.006812
# 3 -0.001838 -0.010892 0.014178 -0.001896 -0.002706 -0.006533
# 4 -0.002928 -0.005740 -0.001896 0.023404 -0.002629 0.000550
# 5 -0.003726 0.003290 -0.002706 -0.002629 0.025734 -0.004085
# 6 -0.000434 0.006812 -0.006533 0.000550 -0.004085 0.029917
#
#
# Mechanical properties :
#
#
# Convention : Reuss Voigt Hill
#
# Bulk Modulus (GPa) = 36.49508 58.25168 47.37338
# Shear Modulus (GPa) = 29.72312 40.37147 35.04729
#
# Velocity S-wave (km/s) = 3.49844 4.07722 3.79887
# Velocity P-wave (km/s) = 5.59878 6.79347 6.22485
#
# Compressibility (1/GPa) = 0.02740095
#
# Stress axis : x y z
#
# Youngs Moduli (GPa) = 59.60232 43.93688 70.53230
#
# Poissons Ratio (x) = 0.01879 0.12963
# Poissons Ratio (y) = 0.02549 0.76822
# Poissons Ratio (z) = 0.10954 0.47855
#
# Static dielectric constant tensor:
#      x y z
#    x 1.945080 0.023190 -0.037550 
#    y 0.023190 2.065920 0.035830 
#    z -0.037550 0.035830 1.902620 
# 
# From -- ./inp_files/342543.got.cif
#   From: 2010.05.17/outbox.cif.g08.bks.cpg/sg2_172_cif.got.tgz:342543.got - 2010.06.03 11:33:40.
