data_PCOD9104241
_publ_section_title
;
Structure prediction by ZEFSAII (Michael W. Deem and Ramdas Pophale) SiO2 
 PCOD9104241
Probable space group: P -1
;
_chemical_formula_sum "Si O2"
_cell_formula_units_Z 16
_cell_length_a 6.151970
_cell_length_b 6.180638
_cell_length_c 19.003958
_cell_angle_alpha 109.023391
_cell_angle_beta 55.784380
_cell_angle_gamma 106.487815
_cell_volume 560.205604
_symmetry_space_group_name_H-M "P -1"
_symmetry_group_IT_number 2
_symmetry_cell_setting 'triclinic'
loop_
_space_group_symop_operation_xyz
x,y,z
-x,-y,-z
loop_
_atom_site_type_symbol
_atom_site_label
_atom_site_fract_x
_atom_site_fract_y
_atom_site_fract_z
Si Si1 0.536608 0.910717 0.078434
Si Si2 0.665747 0.882114 0.320764
Si Si3 0.895234 0.432084 0.822499
Si Si4 0.238298 0.190061 0.553657
Si Si5 0.158491 0.284196 0.430171
Si Si6 0.758425 0.107848 0.192939
Si Si7 0.056858 0.772109 0.021055
Si Si8 0.219426 0.515132 0.302549
O O1 0.320086 0.687517 0.096641
O O2 0.630812 0.139773 0.039186
O O3 0.526389 0.012708 0.170998
O O4 0.826224 0.824646 0.013245
O O5 0.716997 0.103179 0.283797
O O6 0.437890 0.728936 0.303180
O O7 0.935454 0.766671 0.255711
O O8 0.587279 0.852406 0.414215
O O9 0.113196 0.640905 0.828432
O O10 0.762497 0.532807 0.788285
O O11 0.065671 0.397694 0.623692
O O12 0.339781 0.252348 0.462590
O O13 0.035328 0.954313 0.562781
O O14 0.262816 0.336191 0.337837
O O15 0.000000 0.500000 0.500000
O O16 0.960595 0.917978 0.120046
O O17 0.000000 0.500000 0.000000
#
# Coordination Sequence:
#
# PCOD9104241 Si02
#       8
#     2   2   2   2   2   2   2   2
#     4   9  21  41  61  89 124 155 200 262 299 364
#     4  11  23  38  61  91 120 163 210 244 314 370
#     4  11  23  41  62  90 127 159 208 256 306 366
#     4   9  20  37  59  88 121 158 205 252 301 364
#     4   9  18  37  61  84 122 163 200 254 304 353
#     4  10  22  39  62  91 121 161 205 252 307 373
#     4   9  20  40  66  88 123 160 202 253 310 369
#     4  10  20  39  59  88 123 159 202 257 301 358
#
# _framework density 28.560943999999999
#
# number of rings (size 3 to 8) (size 9 to 14) (size 15 to 20)
#    0.750    1.500    1.250    0.750    1.750    3.000 
#    2.250    6.875    0.000    0.000    0.000    0.000 
#    0.000    0.000    0.000    0.000    0.000    0.000 
#
# Total GULP energy -89370.652822 kJ/mol
# GULP energy per Si atom -5585.665801 kJ/mol
# Density = 2.849594 g / cm^3
# Si number density = 28.560944 Si / 1000 Ang^3
#
#
#
# Elastic Constant Matrix: (Units=GPa)
#
#
# Indices 1 2 3 4 5 6 
#
# 1 62.7497 20.2644 4.9820 -10.6732 4.6838 1.7285
# 2 20.2644 150.3952 32.6226 -26.2277 -8.7894 15.9483
# 3 4.9820 32.6226 141.1324 -25.6284 -3.0284 -15.6735
# 4 -10.6732 -26.2277 -25.6284 57.6650 -7.4802 7.3387
# 5 4.6838 -8.7894 -3.0284 -7.4802 42.0831 -6.9776
# 6 1.7285 15.9483 -15.6735 7.3387 -6.9776 58.5605
#
#
#
# Elastic Compliance Matrix: (Units=1/GPa)
#
#
# Indices 1 2 3 4 5 6 
#
# 1 0.017103 -0.002049 0.000162 0.002096 -0.002015 -0.000406
# 2 -0.002049 0.008235 -0.001495 0.003309 0.001971 -0.002762
# 3 0.000162 -0.001495 0.008234 0.002857 0.001166 0.002387
# 4 0.002096 0.003309 0.002857 0.021335 0.004060 -0.002388
# 5 -0.002015 0.001971 0.001166 0.004060 0.025598 0.002376
# 6 -0.000406 -0.002762 0.002387 -0.002388 0.002376 0.019062
#
#
# Mechanical properties :
#
#
# Convention : Reuss Voigt Hill
#
# Bulk Modulus (GPa) = 37.30034 52.22393 44.76213
# Shear Modulus (GPa) = 43.37807 51.42227 47.40017
#
# Velocity S-wave (km/s) = 3.90139 4.24776 4.07826
# Velocity P-wave (km/s) = 5.77778 6.51020 6.15490
#
# Compressibility (1/GPa) = 0.02680941
#
# Stress axis : x y z
#
# Youngs Moduli (GPa) = 58.46857 121.44004 121.44365
#
# Poissons Ratio (x) = 0.24880 -0.01969
# Poissons Ratio (y) = 0.11979 0.18152
# Poissons Ratio (z) = -0.00948 0.18151
#
# Static dielectric constant tensor:
#      x y z
#    x 2.283360 -0.092620 0.094840 
#    y -0.092620 2.379730 -0.114220 
#    z 0.094840 -0.114220 2.380690 
# 
# From -- ./inp_files/351919.got.cif
#   From: 2010.05.17/outbox.cif.g08.bks.cpg/sg2_176_cif.got.tgz:351919.got - 2010.06.03 11:33:40.
