data_PCOD9104393
_publ_section_title
;
Structure prediction by ZEFSAII (Michael W. Deem and Ramdas Pophale) SiO2 
 PCOD9104393
Probable space group: P -1
;
_chemical_formula_sum "Si O2"
_cell_formula_units_Z 16
_cell_length_a 13.487921
_cell_length_b 14.610453
_cell_length_c 16.941843
_cell_angle_alpha 141.955155
_cell_angle_beta 23.564569
_cell_angle_gamma 129.555066
_cell_volume 772.015045
_symmetry_space_group_name_H-M "P -1"
_symmetry_group_IT_number 2
_symmetry_cell_setting 'triclinic'
loop_
_space_group_symop_operation_xyz
x,y,z
-x,-y,-z
loop_
_atom_site_type_symbol
_atom_site_label
_atom_site_fract_x
_atom_site_fract_y
_atom_site_fract_z
Si Si1 0.585702 0.333629 0.722702
Si Si2 0.201886 0.630688 0.579542
Si Si3 0.090091 0.141885 0.617048
Si Si4 0.208295 0.500525 0.915771
Si Si5 0.255990 0.082767 0.291219
Si Si6 0.903476 0.389496 0.669983
Si Si7 0.725015 0.834198 0.323607
Si Si8 0.233030 0.108654 0.834395
O O1 0.725579 0.340267 0.542727
O O2 0.796402 0.310383 0.623195
O O3 0.438764 0.205924 0.750083
O O4 0.355530 0.502886 0.020664
O O5 0.481981 0.554906 0.369474
O O6 0.047760 0.506343 0.611096
O O7 0.011048 0.790522 0.867177
O O8 0.305088 0.093907 0.356934
O O9 0.188355 0.145914 0.637489
O O10 0.935638 0.019444 0.644921
O O11 0.892460 0.318960 0.860091
O O12 0.204463 0.352917 0.871539
O O13 0.000000 0.500000 0.000000
O O14 0.103309 0.257075 0.488080
O O15 0.500000 0.000000 0.000000
O O16 0.847842 0.895319 0.200900
O O17 0.413919 0.936863 0.615556
#
# Coordination Sequence:
#
# PCOD9104393 Si02
#       8
#     2   2   2   2   2   2   2   2
#     4  10  20  39  60  91 127 163 199 257 312 363
#     4  11  21  37  62  92 125 163 209 252 306 375
#     4  10  23  42  63  84 123 165 202 252 314 358
#     4  10  21  41  64  85 122 169 204 251 307 358
#     4  11  23  40  61  90 118 158 206 260 302 363
#     4  10  22  36  63  90 124 162 207 254 309 369
#     4  10  21  43  61  90 128 163 201 255 311 364
#     4  10  22  38  63  92 126 160 202 256 310 367
#
# _framework density 20.724985
#
# number of rings (size 3 to 8) (size 9 to 14) (size 15 to 20)
#    0.000    1.750    1.250    2.625    1.750    2.500 
#    4.500    1.250    0.000    0.000    0.000    0.000 
#    0.000    0.000    0.000    0.000    0.000    0.000 
#
# Total GULP energy -89269.605200 kJ/mol
# GULP energy per Si atom -5579.350325 kJ/mol
# Density = 2.067781 g / cm^3
# Si number density = 20.724985 Si / 1000 Ang^3
#
#
#
# Elastic Constant Matrix: (Units=GPa)
#
#
# Indices 1 2 3 4 5 6 
#
# 1 113.5557 11.9215 31.8354 -13.9801 17.4366 -15.9384
# 2 11.9215 66.4082 15.6296 -0.8544 9.6134 -14.8711
# 3 31.8354 15.6296 113.9709 -13.1602 23.0603 -22.1034
# 4 -13.9801 -0.8544 -13.1602 38.3224 -6.3650 -3.1950
# 5 17.4366 9.6134 23.0603 -6.3650 33.6225 -0.5773
# 6 -15.9384 -14.8711 -22.1034 -3.1950 -0.5773 25.9057
#
#
#
# Elastic Compliance Matrix: (Units=1/GPa)
#
#
# Indices 1 2 3 4 5 6 
#
# 1 0.011049 0.000427 -0.000381 0.003707 -0.004767 0.007068
# 2 0.000427 0.018160 0.000836 0.000862 -0.005628 0.011381
# 3 -0.000381 0.000836 0.013157 0.004035 -0.008099 0.011788
# 4 0.003707 0.000862 0.004035 0.029824 0.000880 0.009916
# 5 -0.004767 -0.005628 -0.008099 0.000880 0.039337 -0.012089
# 6 0.007068 0.011381 0.011788 0.009916 -0.012089 0.060495
#
#
# Mechanical properties :
#
#
# Convention : Reuss Voigt Hill
#
# Bulk Modulus (GPa) = 22.66117 45.85642 34.25879
# Shear Modulus (GPa) = 27.03167 35.20667 31.11917
#
# Velocity S-wave (km/s) = 3.61543 4.12607 3.87916
# Velocity P-wave (km/s) = 5.32789 6.69876 6.05227
#
# Compressibility (1/GPa) = 0.04412834
#
# Stress axis : x y z
#
# Youngs Moduli (GPa) = 90.50753 55.06756 76.00608
#
# Poissons Ratio (x) = -0.02351 0.02899
# Poissons Ratio (y) = -0.03864 -0.06354
# Poissons Ratio (z) = 0.03452 -0.04604
#
# Static dielectric constant tensor:
#      x y z
#    x 1.783100 0.008420 0.011580 
#    y 0.008420 1.764650 0.015260 
#    z 0.011580 0.015260 1.731160 
# 
# From -- ./inp_files/364866.got.cif
#   From: 2010.05.17/outbox.cif.g08.bks.cpg/sg2_183_cif.got.tgz:364866.got - 2010.06.03 11:33:40.
