data_PCOD9104008
_publ_section_title
;
Structure prediction by ZEFSAII (Michael W. Deem and Ramdas Pophale) SiO2 
 PCOD9104008
Probable space group: P -1
;
_chemical_formula_sum "Si O2"
_cell_formula_units_Z 12
_cell_length_a 12.513180
_cell_length_b 7.912192
_cell_length_c 11.968387
_cell_angle_alpha 38.618522
_cell_angle_beta 128.153608
_cell_angle_gamma 101.009409
_cell_volume 467.692296
_symmetry_space_group_name_H-M "P -1"
_symmetry_group_IT_number 2
_symmetry_cell_setting 'triclinic'
loop_
_space_group_symop_operation_xyz
x,y,z
-x,-y,-z
loop_
_atom_site_type_symbol
_atom_site_label
_atom_site_fract_x
_atom_site_fract_y
_atom_site_fract_z
Si Si1 0.983984 0.338832 0.301371
Si Si2 0.883979 0.475641 0.523286
Si Si3 0.401084 0.486193 0.227058
Si Si4 0.597836 0.795477 0.843364
Si Si5 0.117813 0.677759 0.095104
Si Si6 0.413856 0.254231 0.683950
O O1 0.114574 0.308881 0.487966
O O2 0.035143 0.478052 0.160382
O O3 0.795005 0.619565 0.076726
O O4 0.000000 0.000000 0.500000
O O5 0.684700 0.654237 0.307886
O O6 0.000000 0.500000 0.500000
O O7 0.979683 0.077889 0.809989
O O8 0.421403 0.438265 0.131549
O O9 0.213852 0.605259 0.077204
O O10 0.439911 0.710395 0.204707
O O11 0.527825 0.123483 0.553449
O O12 0.496002 0.930892 0.822998
O O13 0.266223 0.544706 0.353720
#
# Coordination Sequence:
#
# PCOD9104008 Si02
#       6
#     2   2   2   2   2   2
#     4  11  24  44  67 100 142 178 224 286 338 401
#     4  11  24  44  70 101 132 182 234 277 339 414
#     4  10  20  38  72 102 129 176 234 277 339 410
#     4  10  21  39  66 100 134 174 227 275 344 402
#     4  10  21  42  74  95 134 187 228 276 343 403
#     4  10  20  43  70  94 135 178 226 283 344 399
#
# _framework density 25.657895
#
# number of rings (size 3 to 8) (size 9 to 14) (size 15 to 20)
#    0.000    1.667    0.000    7.000    2.333    0.667 
#   12.000   10.833    3.667    1.000    0.000    0.000 
#    0.000    0.000    0.000    0.000    0.000    0.000 
#
# Total GULP energy -66917.203967 kJ/mol
# GULP energy per Si atom -5576.433664 kJ/mol
# Density = 2.559950 g / cm^3
# Si number density = 25.657895 Si / 1000 Ang^3
#
#
#
# Elastic Constant Matrix: (Units=GPa)
#
#
# Indices 1 2 3 4 5 6 
#
# 1 199.2369 50.2577 63.6044 -25.8642 17.1281 0.1242
# 2 50.2577 113.1108 26.1127 -20.3948 -12.2231 -1.2182
# 3 63.6044 26.1127 91.4740 -32.3493 6.3097 10.6225
# 4 -25.8642 -20.3948 -32.3493 36.6123 1.9651 0.0915
# 5 17.1281 -12.2231 6.3097 1.9651 50.0972 -6.8326
# 6 0.1242 -1.2182 10.6225 0.0915 -6.8326 51.0612
#
#
#
# Elastic Compliance Matrix: (Units=1/GPa)
#
#
# Indices 1 2 3 4 5 6 
#
# 1 0.007195 -0.002477 -0.004099 0.000214 -0.002496 0.000442
# 2 -0.002477 0.011136 -0.000428 0.003881 0.003579 0.000833
# 3 -0.004099 -0.000428 0.019666 0.014379 -0.002348 -0.004431
# 4 0.000214 0.003881 0.014379 0.042505 -0.003066 -0.003386
# 5 -0.002496 0.003579 -0.002348 -0.003066 0.022596 0.003609
# 6 0.000442 0.000833 -0.004431 -0.003386 0.003609 0.021014
#
#
# Mechanical properties :
#
#
# Convention : Reuss Voigt Hill
#
# Bulk Modulus (GPa) = 41.68488 75.97462 58.82975
# Shear Modulus (GPa) = 34.21977 45.14393 39.68185
#
# Velocity S-wave (km/s) = 3.65594 4.19914 3.93692
# Velocity P-wave (km/s) = 5.83977 7.29282 6.60636
#
# Compressibility (1/GPa) = 0.02398952
#
# Stress axis : x y z
#
# Youngs Moduli (GPa) = 138.99367 89.80150 50.84898
#
# Poissons Ratio (x) = 0.22242 0.20843
# Poissons Ratio (y) = 0.34426 0.02174
# Poissons Ratio (z) = 0.56974 0.03840
#
# Static dielectric constant tensor:
#      x y z
#    x 2.278260 -0.058130 -0.102660 
#    y -0.058130 2.111830 0.081780 
#    z -0.102660 0.081780 2.065660 
# 
# From -- ./inp_files/512582.got.cif
#   From: 2010.05.17/outbox.cif.g08.bks.cpg/sg2_257_cif.got.tgz:512582.got - 2010.06.03 11:33:40.
