data_PCOD9104207
_publ_section_title
;
Structure prediction by ZEFSAII (Michael W. Deem and Ramdas Pophale) SiO2 
 PCOD9104207
Probable space group: P -1
;
_chemical_formula_sum "Si O2"
_cell_formula_units_Z 16
_cell_length_a 7.667498
_cell_length_b 10.688684
_cell_length_c 16.361094
_cell_angle_alpha 65.676195
_cell_angle_beta 137.152463
_cell_angle_gamma 85.797379
_cell_volume 661.232557
_symmetry_space_group_name_H-M "P -1"
_symmetry_group_IT_number 2
_symmetry_cell_setting 'triclinic'
loop_
_space_group_symop_operation_xyz
x,y,z
-x,-y,-z
loop_
_atom_site_type_symbol
_atom_site_label
_atom_site_fract_x
_atom_site_fract_y
_atom_site_fract_z
Si Si1 0.180578 0.768082 0.404630
Si Si2 0.626612 0.598450 0.829893
Si Si3 0.366093 0.923913 0.564869
Si Si4 0.349504 0.581734 0.279650
Si Si5 0.168158 0.078042 0.914268
Si Si6 0.981623 0.242857 0.252286
Si Si7 0.617173 0.735790 0.233830
Si Si8 0.619716 0.576655 0.108249
O O1 0.242464 0.862765 0.467355
O O2 0.484319 0.569067 0.556752
O O3 0.089774 0.863380 0.261264
O O4 0.886800 0.763646 0.333022
O O5 0.429728 0.804499 0.696062
O O6 0.621533 0.515670 0.766255
O O7 0.496547 0.535267 0.868970
O O8 0.000000 0.500000 0.000000
O O9 0.719738 0.862019 0.678979
O O10 0.119846 0.129159 0.413517
O O11 0.563037 0.647069 0.312509
O O12 0.992091 0.746413 0.136958
O O13 0.500000 0.000000 0.000000
O O14 0.273458 0.920085 0.050132
O O15 0.916488 0.426273 0.197095
O O16 0.672565 0.278183 0.089173
O O17 0.689927 0.639900 0.196648
#
# Coordination Sequence:
#
# PCOD9104207 Si02
#       8
#     2   2   2   2   2   2   2   2
#     4  10  21  38  58  89 119 152 194 241 294 348
#     4  10  20  39  59  85 116 152 197 238 292 344
#     4  10  21  38  61  85 120 153 193 247 289 349
#     4  10  21  37  62  83 119 158 192 240 295 349
#     4  10  21  37  57  87 119 152 196 238 288 348
#     4  10  21  38  60  86 117 153 202 238 295 337
#     4  10  21  38  60  84 123 151 197 235 296 349
#     4  10  21  38  60  85 115 159 193 243 287 353
#
# _framework density 24.197236
#
# number of rings (size 3 to 8) (size 9 to 14) (size 15 to 20)
#    0.000    2.000    1.250    1.875    0.000    5.500 
#    4.500    0.000    2.750    0.000    0.000    0.000 
#    0.000    0.000    0.000    0.000    0.000    0.000 
#
# Total GULP energy -89358.720196 kJ/mol
# GULP energy per Si atom -5584.920012 kJ/mol
# Density = 2.414216 g / cm^3
# Si number density = 24.197236 Si / 1000 Ang^3
#
#
#
# Elastic Constant Matrix: (Units=GPa)
#
#
# Indices 1 2 3 4 5 6 
#
# 1 54.9436 -9.8420 -1.1721 -4.1868 12.9713 6.4952
# 2 -9.8420 58.6038 20.5740 -7.5215 10.9743 0.9689
# 3 -1.1721 20.5740 108.9939 -23.7783 -10.9155 6.8693
# 4 -4.1868 -7.5215 -23.7783 44.9277 3.4734 2.7077
# 5 12.9713 10.9743 -10.9155 3.4734 28.0221 -5.7438
# 6 6.4952 0.9689 6.8693 2.7077 -5.7438 35.4912
#
#
#
# Elastic Compliance Matrix: (Units=1/GPa)
#
#
# Indices 1 2 3 4 5 6 
#
# 1 0.025357 0.008999 -0.001688 0.004852 -0.018133 -0.007864
# 2 0.008999 0.024069 -0.005044 0.003769 -0.016916 -0.004353
# 3 -0.001688 -0.005044 0.011899 0.004860 0.006550 -0.001167
# 4 0.004852 0.003769 0.004860 0.026688 -0.006154 -0.004964
# 5 -0.018133 -0.016916 0.006550 -0.006154 0.056504 0.012127
# 6 -0.007864 -0.004353 -0.001167 -0.004964 0.012127 0.032301
#
#
# Mechanical properties :
#
#
# Convention : Reuss Voigt Hill
#
# Bulk Modulus (GPa) = 15.18385 26.85121 21.01753
# Shear Modulus (GPa) = 25.74175 35.88695 30.81435
#
# Velocity S-wave (km/s) = 3.26518 3.85528 3.57244
# Velocity P-wave (km/s) = 4.52812 5.56224 5.07161
#
# Compressibility (1/GPa) = 0.06585946
#
# Stress axis : x y z
#
# Youngs Moduli (GPa) = 39.43712 41.54645 84.04400
#
# Poissons Ratio (x) = -0.37389 0.14185
# Poissons Ratio (y) = -0.35491 0.42394
# Poissons Ratio (z) = 0.06656 0.20957
#
# Static dielectric constant tensor:
#      x y z
#    x 2.005930 0.003030 -0.002700 
#    y 0.003030 1.945630 -0.051040 
#    z -0.002700 -0.051040 1.992980 
# 
# From -- ./inp_files/189171.got.cif
#   From: 2010.05.17/outbox.cif.g08.bks.cpg/sg2_95_cif.got.tgz:189171.got - 2010.06.03 11:33:40.
