data_PCOD9104028
_publ_section_title
;
Structure prediction by ZEFSAII (Michael W. Deem and Ramdas Pophale) SiO2 
 PCOD9104028
Probable space group: P -1
;
_chemical_formula_sum "Si O2"
_cell_formula_units_Z 11
_cell_length_a 7.272914
_cell_length_b 9.207979
_cell_length_c 6.562150
_cell_angle_alpha 75.047664
_cell_angle_beta 86.575144
_cell_angle_gamma 60.836000
_cell_volume 369.619116
_symmetry_space_group_name_H-M "P -1"
_symmetry_group_IT_number 2
_symmetry_cell_setting 'triclinic'
loop_
_space_group_symop_operation_xyz
x,y,z
-x,-y,-z
loop_
_atom_site_type_symbol
_atom_site_label
_atom_site_fract_x
_atom_site_fract_y
_atom_site_fract_z
Si Si1 0.006428 0.311583 0.195149
Si Si2 0.458159 0.279035 0.216875
Si Si3 0.710714 0.906885 0.266492
Si Si4 0.000000 0.500000 0.500000
Si Si5 0.245919 0.957211 0.217802
Si Si6 0.699822 0.367401 0.829182
O O1 0.243678 0.282147 0.168179
O O2 0.900873 0.462042 0.312349
O O3 0.065278 0.114238 0.300751
O O4 0.872158 0.361296 0.979594
O O5 0.393170 0.438415 0.319858
O O6 0.625989 0.085578 0.338196
O O7 0.546680 0.334158 0.998469
O O8 0.867500 0.714439 0.399204
O O9 0.489806 0.907324 0.246642
O O10 0.790922 0.960688 0.039545
O O11 0.226289 0.785789 0.279064
#
# Coordination Sequence:
#
# PCOD9104028 Si02
#       6
#     2   2   2   1   2   2
#     4  11  24  41  65  99 130 176 213 265 320 394
#     4   9  21  39  68  96 129 160 216 271 326 361
#     4   9  21  41  64  98 128 174 211 272 316 395
#     4  12  28  38  64  94 142 176 214 252 338 386
#     4   9  20  40  73  93 124 163 230 267 320 366
#     4  10  20  38  73 106 119 158 223 289 306 372
#
# _framework density 29.760366000000001
#
# number of rings (size 3 to 8) (size 9 to 14) (size 15 to 20)
#    0.000    2.182    0.000    2.182   15.273    2.909 
#    0.000    4.545    0.000    0.000    0.000    0.000 
#    0.000    0.000    0.000    0.000    0.000    0.000 
#
# Total GULP energy -61374.210417 kJ/mol
# GULP energy per Si atom -5579.473674 kJ/mol
# Density = 2.969263 g / cm^3
# Si number density = 29.760366 Si / 1000 Ang^3
#
#
#
# Elastic Constant Matrix: (Units=GPa)
#
#
# Indices 1 2 3 4 5 6 
#
# 1 101.2517 36.3256 33.7500 -15.3411 -15.8659 6.1588
# 2 36.3256 403.6233 60.5727 -29.7442 20.1815 26.9209
# 3 33.7500 60.5727 87.4756 -20.6638 -9.2500 -5.8306
# 4 -15.3411 -29.7442 -20.6638 71.9916 -8.6489 10.8863
# 5 -15.8659 20.1815 -9.2500 -8.6489 35.8048 -11.4799
# 6 6.1588 26.9209 -5.8306 10.8863 -11.4799 46.8192
#
#
#
# Elastic Compliance Matrix: (Units=1/GPa)
#
#
# Indices 1 2 3 4 5 6 
#
# 1 0.012433 -0.000664 -0.003322 0.002189 0.005270 -0.000884
# 2 -0.000664 0.003362 -0.002552 0.000551 -0.003745 -0.003210
# 3 -0.003322 -0.002552 0.016166 0.002919 0.006388 0.004805
# 4 0.002189 0.000551 0.002919 0.016403 0.004423 -0.002970
# 5 0.005270 -0.003745 0.006388 0.004423 0.038515 0.010671
# 6 -0.000884 -0.003210 0.004805 -0.002970 0.010671 0.027226
#
#
# Mechanical properties :
#
#
# Convention : Reuss Voigt Hill
#
# Bulk Modulus (GPa) = 52.94968 94.84969 73.89968
# Shear Modulus (GPa) = 37.45989 61.70328 49.58159
#
# Velocity S-wave (km/s) = 3.55169 4.55833 4.08613
# Velocity P-wave (km/s) = 5.88642 7.72301 6.86640
#
# Compressibility (1/GPa) = 0.01888585
#
# Stress axis : x y z
#
# Youngs Moduli (GPa) = 80.43089 297.42612 61.85885
#
# Poissons Ratio (x) = 0.19740 0.20549
# Poissons Ratio (y) = 0.05338 0.15786
# Poissons Ratio (z) = 0.26719 0.75901
#
# Static dielectric constant tensor:
#      x y z
#    x 2.569730 -0.168710 -0.174600 
#    y -0.168710 2.558280 0.161160 
#    z -0.174600 0.161160 2.427900 
# 
# From -- ./inp_files/145512.got.cif
#   From: 2010.05.17/outbox.cif.g08.bks.cpg/sg2_73_cif.got.tgz:145512.got - 2010.06.03 11:33:40.
