data_PCOD9104759
_publ_section_title
;
Structure prediction by ZEFSAII (Michael W. Deem and Ramdas Pophale) SiO2 
 PCOD9104759
Probable space group: P -1
;
_chemical_formula_sum "Si O2"
_cell_formula_units_Z 16
_cell_length_a 12.938758
_cell_length_b 8.893835
_cell_length_c 12.126978
_cell_angle_alpha 126.482337
_cell_angle_beta 39.981870
_cell_angle_gamma 125.408805
_cell_volume 699.956715
_symmetry_space_group_name_H-M "P -1"
_symmetry_group_IT_number 2
_symmetry_cell_setting 'triclinic'
loop_
_space_group_symop_operation_xyz
x,y,z
-x,-y,-z
loop_
_atom_site_type_symbol
_atom_site_label
_atom_site_fract_x
_atom_site_fract_y
_atom_site_fract_z
Si Si1 0.180592 0.028628 0.921642
Si Si2 0.495363 0.676686 0.843517
Si Si3 0.947449 0.995825 0.417638
Si Si4 0.000216 0.716884 0.075922
Si Si5 0.629260 0.746560 0.322825
Si Si6 0.383795 0.653992 0.150663
Si Si7 0.196011 0.301332 0.239991
Si Si8 0.556699 0.912308 0.676847
O O1 0.319737 0.089654 0.741238
O O2 0.150317 0.825547 0.921412
O O3 0.201375 0.193171 0.070783
O O4 0.000000 0.000000 0.000000
O O5 0.472563 0.455723 0.729908
O O6 0.668113 0.738884 0.799033
O O7 0.479884 0.801341 0.802409
O O8 0.359551 0.678145 0.050346
O O9 0.020847 0.199044 0.388774
O O10 0.021672 0.842545 0.223454
O O11 0.752198 0.940041 0.547027
O O12 0.000000 0.000000 0.500000
O O13 0.813777 0.720029 0.190691
O O14 0.000000 0.500000 0.000000
O O15 0.534529 0.801117 0.530276
O O16 0.229867 0.528361 0.288162
O O17 0.462370 0.869144 0.220871
O O18 0.500000 0.500000 0.000000
#
# Coordination Sequence:
#
# PCOD9104759 Si02
#       8
#     2   2   2   2   2   2   2   2
#     4   9  18  38  62  84 127 168 202 257 306 377
#     4  11  21  40  67  88 130 167 206 264 311 385
#     4  10  20  39  62  88 125 159 203 264 308 363
#     4   9  20  38  59  91 124 162 213 253 305 376
#     4  10  21  39  62  93 126 165 210 257 321 375
#     4  10  23  42  62  91 124 165 215 256 312 384
#     4  10  20  40  65  89 125 164 213 253 310 382
#     4  11  23  41  63  95 125 168 210 262 324 362
#
# _framework density 22.858557000000001
#
# number of rings (size 3 to 8) (size 9 to 14) (size 15 to 20)
#    0.000    2.000    2.500    1.500    0.000    1.500 
#   11.250    2.500    0.000    0.000    0.000    0.000 
#    0.000    0.000    0.000    0.000    0.000    0.000 
#
# Total GULP energy -89310.693476 kJ/mol
# GULP energy per Si atom -5581.918342 kJ/mol
# Density = 2.280653 g / cm^3
# Si number density = 22.858557 Si / 1000 Ang^3
#
#
#
# Elastic Constant Matrix: (Units=GPa)
#
#
# Indices 1 2 3 4 5 6 
#
# 1 79.3672 22.3139 42.0246 10.8058 27.8149 -3.0228
# 2 22.3139 159.9094 43.4489 -0.8180 14.5320 -26.8222
# 3 42.0246 43.4489 77.8816 0.4352 21.6395 -18.0221
# 4 10.8058 -0.8180 0.4352 40.3875 -5.1870 12.4589
# 5 27.8149 14.5320 21.6395 -5.1870 30.1141 7.6779
# 6 -3.0228 -26.8222 -18.0221 12.4589 7.6779 34.5801
#
#
#
# Elastic Compliance Matrix: (Units=1/GPa)
#
#
# Indices 1 2 3 4 5 6 
#
# 1 0.027082 0.002300 -0.004689 -0.015012 -0.028784 0.013507
# 2 0.002300 0.008712 -0.001450 -0.004522 -0.008546 0.009730
# 3 -0.004689 -0.001450 0.026299 -0.007623 -0.020123 0.019386
# 4 -0.015012 -0.004522 -0.007623 0.043708 0.037430 -0.032851
# 5 -0.028784 -0.008546 -0.020123 0.037430 0.098864 -0.055068
# 6 0.013507 0.009730 0.019386 -0.032851 -0.055068 0.071811
#
#
# Mechanical properties :
#
#
# Convention : Reuss Voigt Hill
#
# Bulk Modulus (GPa) = 18.37784 59.19255 38.78519
# Shear Modulus (GPa) = 16.54024 34.97440 25.75732
#
# Velocity S-wave (km/s) = 2.69288 3.91581 3.36045
# Velocity P-wave (km/s) = 4.21024 6.81147 5.66225
#
# Compressibility (1/GPa) = 0.05441337
#
# Stress axis : x y z
#
# Youngs Moduli (GPa) = 36.92523 114.78322 38.02458
#
# Poissons Ratio (x) = -0.26395 0.17830
# Poissons Ratio (y) = -0.08491 0.05514
# Poissons Ratio (z) = 0.17315 0.16644
#
# Static dielectric constant tensor:
#      x y z
#    x 1.946890 0.024010 -0.041340 
#    y 0.024010 1.887100 -0.043820 
#    z -0.041340 -0.043820 1.904510 
# 
# From -- ./inp_files/448174.got.cif
#   From: 2010.05.17/outbox.cif.g08.bks.cpg/sg2_225_cif.got.tgz:448174.got - 2010.06.03 11:33:40.
