data_PCOD9104852
_publ_section_title
;
Structure prediction by ZEFSAII (Michael W. Deem and Ramdas Pophale) SiO2 
 PCOD9104852
Probable space group: P -1
;
_chemical_formula_sum "Si O2"
_cell_formula_units_Z 16
_cell_length_a 9.388384
_cell_length_b 13.862607
_cell_length_c 14.211908
_cell_angle_alpha 29.716772
_cell_angle_beta 60.598056
_cell_angle_gamma 55.789454
_cell_volume 758.233318
_symmetry_space_group_name_H-M "P -1"
_symmetry_group_IT_number 2
_symmetry_cell_setting 'triclinic'
loop_
_space_group_symop_operation_xyz
x,y,z
-x,-y,-z
loop_
_atom_site_type_symbol
_atom_site_label
_atom_site_fract_x
_atom_site_fract_y
_atom_site_fract_z
Si Si1 0.837424 0.193772 0.499030
Si Si2 0.695319 0.500517 0.449417
Si Si3 0.191195 0.512460 0.916011
Si Si4 0.583178 0.943888 0.814059
Si Si5 0.757444 0.879744 0.003895
Si Si6 0.100931 0.845531 0.804223
Si Si7 0.785573 0.018798 0.160912
Si Si8 0.161699 0.759756 0.213371
O O1 0.806738 0.311779 0.508769
O O2 0.816826 0.358760 0.285322
O O3 0.691862 0.085954 0.622855
O O4 0.015962 0.011870 0.609411
O O5 0.500000 0.500000 0.500000
O O6 0.732200 0.698980 0.228155
O O7 0.750245 0.448406 0.583596
O O8 0.215422 0.642437 0.887745
O O9 0.327345 0.289096 0.051170
O O10 0.000000 0.500000 0.000000
O O11 0.389316 0.019093 0.778632
O O12 0.608947 0.941045 0.921077
O O13 0.935867 0.812856 0.940973
O O14 0.770838 0.069036 0.901101
O O15 0.198862 0.934366 0.774777
O O16 0.796331 0.215487 0.929567
O O17 0.956596 0.837461 0.228896
#
# Coordination Sequence:
#
# PCOD9104852 Si02
#       8
#     2   2   2   2   2   2   2   2
#     4  11  22  40  63  95 119 153 209 255 301 361
#     4  12  22  34  64  95 120 153 208 257 300 353
#     4  12  22  40  70  94 113 157 211 262 302 349
#     4  11  22  37  63  93 123 157 202 258 303 355
#     4  10  20  39  62  92 116 158 211 252 297 350
#     4  10  21  43  64  84 124 164 200 252 304 363
#     4  10  22  41  61  85 130 169 196 242 312 370
#     4  10  22  42  62  84 127 171 201 244 304 363
#
# _framework density 21.101685
#
# number of rings (size 3 to 8) (size 9 to 14) (size 15 to 20)
#    0.000    1.250    7.500    1.125    1.750    1.500 
#    0.000    8.750    0.000    0.000    0.000    0.000 
#    0.000    0.000    0.000    0.000    0.000    0.000 
#
# Total GULP energy -89504.716862 kJ/mol
# GULP energy per Si atom -5594.044804 kJ/mol
# Density = 2.105366 g / cm^3
# Si number density = 21.101685 Si / 1000 Ang^3
#
#
#
# Elastic Constant Matrix: (Units=GPa)
#
#
# Indices 1 2 3 4 5 6 
#
# 1 141.9199 6.7583 27.3936 -1.9637 1.2925 -7.5046
# 2 6.7583 54.0762 -4.5499 -12.4052 -7.1502 3.6242
# 3 27.3936 -4.5499 133.3078 2.1776 3.1744 -11.1992
# 4 -1.9637 -12.4052 2.1776 25.4918 8.6390 3.7930
# 5 1.2925 -7.1502 3.1744 8.6390 19.2518 -1.8944
# 6 -7.5046 3.6242 -11.1992 3.7930 -1.8944 22.9734
#
#
#
# Elastic Compliance Matrix: (Units=1/GPa)
#
#
# Indices 1 2 3 4 5 6 
#
# 1 0.007484 -0.001257 -0.001407 -0.000017 -0.000541 0.001915
# 2 -0.001257 0.021761 0.000333 0.010198 0.003032 -0.005115
# 3 -0.001407 0.000333 0.008129 -0.001082 -0.000282 0.003606
# 4 -0.000017 0.010198 -0.001082 0.053367 -0.021231 -0.012703
# 5 -0.000541 0.003032 -0.000282 -0.021231 0.063461 0.007945
# 6 0.001915 -0.005115 0.003606 -0.012703 0.007945 0.049472
#
#
# Mechanical properties :
#
#
# Convention : Reuss Voigt Hill
#
# Bulk Modulus (GPa) = 30.57128 43.16758 36.86943
# Shear Modulus (GPa) = 22.80605 33.52353 28.16479
#
# Velocity S-wave (km/s) = 3.29107 3.99013 3.65734
# Velocity P-wave (km/s) = 5.38150 6.45984 5.94517
#
# Compressibility (1/GPa) = 0.03271044
#
# Stress axis : x y z
#
# Youngs Moduli (GPa) = 133.62542 45.95446 123.01341
#
# Poissons Ratio (x) = 0.05779 0.17304
# Poissons Ratio (y) = 0.16803 -0.04091
# Poissons Ratio (z) = 0.18796 -0.01528
#
# Static dielectric constant tensor:
#      x y z
#    x 1.757750 0.004240 0.005460 
#    y 0.004240 1.799420 0.000810 
#    z 0.005460 0.000810 1.776970 
# 
# From -- ./inp_files/500474.got.cif
#   From: 2010.05.17/outbox.cif.g08.bks.cpg/sg2_251_cif.got.tgz:500474.got - 2010.06.03 11:33:40.
