data_PCOD9104246
_publ_section_title
;
Structure prediction by ZEFSAII (Michael W. Deem and Ramdas Pophale) SiO2 
 PCOD9104246
Probable space group: P -1
;
_chemical_formula_sum "Si O2"
_cell_formula_units_Z 16
_cell_length_a 10.564232
_cell_length_b 5.017349
_cell_length_c 15.197803
_cell_angle_alpha 85.422809
_cell_angle_beta 76.923102
_cell_angle_gamma 74.515090
_cell_volume 756.016914
_symmetry_space_group_name_H-M "P -1"
_symmetry_group_IT_number 2
_symmetry_cell_setting 'triclinic'
loop_
_space_group_symop_operation_xyz
x,y,z
-x,-y,-z
loop_
_atom_site_type_symbol
_atom_site_label
_atom_site_fract_x
_atom_site_fract_y
_atom_site_fract_z
Si Si1 0.829447 0.834830 0.299766
Si Si2 0.351536 0.074657 0.829028
Si Si3 0.040061 0.707059 0.795994
Si Si4 0.012182 0.228508 0.561670
Si Si5 0.638151 0.789709 0.815216
Si Si6 0.864468 0.208982 0.045187
Si Si7 0.624493 0.622893 0.005226
Si Si8 0.805628 0.184716 0.749904
O O1 0.702531 0.810415 0.261487
O O2 0.946875 0.572383 0.252353
O O3 0.850422 0.819416 0.401265
O O4 0.856350 0.129441 0.263588
O O5 0.485954 0.829538 0.806458
O O6 0.233050 0.960641 0.892653
O O7 0.384140 0.273058 0.895332
O O8 0.085667 0.621487 0.889666
O O9 0.902981 0.948647 0.802944
O O10 0.895374 0.227284 0.651651
O O11 0.000000 0.500000 0.500000
O O12 0.000000 0.000000 0.500000
O O13 0.630326 0.839511 0.921286
O O14 0.730813 0.483296 0.791834
O O15 0.693484 0.020957 0.751341
O O16 0.769908 0.402576 0.985333
O O17 0.000000 0.000000 0.000000
O O18 0.500000 0.500000 0.000000
#
# Coordination Sequence:
#
# PCOD9104246 Si02
#       8
#     2   2   2   2   2   2   2   2
#     4  10  21  40  66  94 130 168 213 271 337 408
#     4  11  25  42  61  90 133 188 235 275 334 385
#     4  10  20  39  59  88 130 167 217 277 330 390
#     4  11  22  43  75 104 131 160 207 281 355 427
#     4  12  25  39  66  88 138 184 231 276 320 395
#     4  11  24  38  59  88 128 177 239 299 335 371
#     4  12  24  42  61  91 133 188 249 283 327 380
#     4  11  24  42  65 101 130 172 220 269 350 410
#
# _framework density 21.163547999999999
#
# number of rings (size 3 to 8) (size 9 to 14) (size 15 to 20)
#    0.000    1.000    2.500    5.625    3.500    1.500 
#    0.000    0.000    0.000    4.500    0.000    0.000 
#    0.000    0.000    0.000    0.000    0.000    0.000 
#
# Total GULP energy -89297.950227 kJ/mol
# GULP energy per Si atom -5581.121889 kJ/mol
# Density = 2.111538 g / cm^3
# Si number density = 21.163548 Si / 1000 Ang^3
#
#
#
# Elastic Constant Matrix: (Units=GPa)
#
#
# Indices 1 2 3 4 5 6 
#
# 1 115.5179 39.7736 63.0259 -1.8217 17.0222 -16.6953
# 2 39.7736 109.2414 47.3900 2.7156 12.5041 -3.7343
# 3 63.0259 47.3900 104.1170 -2.6923 30.2858 -5.8085
# 4 -1.8217 2.7156 -2.6923 38.5341 5.9421 6.7262
# 5 17.0222 12.5041 30.2858 5.9421 45.0067 -5.6880
# 6 -16.6953 -3.7343 -5.8085 6.7262 -5.6880 45.6996
#
#
#
# Elastic Compliance Matrix: (Units=1/GPa)
#
#
# Indices 1 2 3 4 5 6 
#
# 1 0.013891 -0.001660 -0.007736 -0.000655 0.001028 0.004180
# 2 -0.001660 0.011685 -0.004521 -0.001318 0.000603 0.000043
# 3 -0.007736 -0.004521 0.019005 0.003138 -0.009325 -0.002402
# 4 -0.000655 -0.001318 0.003138 0.027961 -0.005794 -0.004785
# 5 0.001028 0.000603 -0.009325 -0.005794 0.029173 0.003723
# 6 0.004180 0.000043 -0.002402 -0.004785 0.003723 0.024275
#
#
# Mechanical properties :
#
#
# Convention : Reuss Voigt Hill
#
# Bulk Modulus (GPa) = 59.71170 69.91725 64.81447
# Shear Modulus (GPa) = 31.36658 37.76054 34.56356
#
# Velocity S-wave (km/s) = 3.85399 4.22859 4.04563
# Velocity P-wave (km/s) = 6.93397 7.54650 7.24671
#
# Compressibility (1/GPa) = 0.01674714
#
# Stress axis : x y z
#
# Youngs Moduli (GPa) = 71.98699 85.58138 52.61904
#
# Poissons Ratio (x) = 0.14208 0.40706
# Poissons Ratio (y) = 0.11951 0.23787
# Poissons Ratio (z) = 0.55689 0.38688
#
# Static dielectric constant tensor:
#      x y z
#    x 1.853650 -0.014590 0.014610 
#    y -0.014590 1.827150 0.012670 
#    z 0.014610 0.012670 1.788480 
# 
# From -- ./inp_files/488407.got.cif
#   From: 2010.05.17/outbox.cif.g08.bks.cpg/sg2_245_cif.got.tgz:488407.got - 2010.06.03 11:33:40.
