data_PCOD9104624
_publ_section_title
;
Structure prediction by ZEFSAII (Michael W. Deem and Ramdas Pophale) SiO2 
 PCOD9104624
Probable space group: P -1
;
_chemical_formula_sum "Si O2"
_cell_formula_units_Z 14
_cell_length_a 5.602142
_cell_length_b 28.294104
_cell_length_c 17.080472
_cell_angle_alpha 17.351247
_cell_angle_beta 130.360257
_cell_angle_gamma 127.949076
_cell_volume 615.184395
_symmetry_space_group_name_H-M "P -1"
_symmetry_group_IT_number 2
_symmetry_cell_setting 'triclinic'
loop_
_space_group_symop_operation_xyz
x,y,z
-x,-y,-z
loop_
_atom_site_type_symbol
_atom_site_label
_atom_site_fract_x
_atom_site_fract_y
_atom_site_fract_z
Si Si1 0.016730 0.294685 0.163233
Si Si2 0.675408 0.934879 0.999746
Si Si3 0.723467 0.638862 0.055855
Si Si4 0.755498 0.760874 0.537016
Si Si5 0.619553 0.306213 0.583624
Si Si6 0.150094 0.054737 0.316214
Si Si7 0.121337 0.041581 0.147757
O O1 0.170309 0.367747 0.002549
O O2 0.192711 0.327335 0.231135
O O3 0.648808 0.333834 0.044000
O O4 0.039900 0.104366 0.455995
O O5 0.623690 0.761838 0.297943
O O6 0.609734 0.923020 0.912282
O O7 0.443000 0.076912 0.750390
O O8 0.000000 0.000000 0.000000
O O9 0.908793 0.785064 0.901880
O O10 0.792711 0.468316 0.378954
O O11 0.578253 0.670097 0.575288
O O12 0.070414 0.850614 0.434014
O O13 0.859437 0.157613 0.868582
O O14 0.500000 0.000000 0.500000
O O15 0.148764 0.084597 0.175541
#
# Coordination Sequence:
#
# PCOD9104624 Si02
#       7
#     2   2   2   2   2   2   2
#     4  10  24  42  67  90 123 166 215 255 308 365
#     4  11  19  35  66  88 125 163 205 257 307 370
#     4  11  25  43  62  93 129 167 205 259 312 365
#     4  10  21  36  61  94 120 162 209 258 305 370
#     4  11  23  37  58  93 131 160 203 254 318 375
#     4   9  21  43  67  89 120 161 216 261 302 367
#     4  10  20  39  61  92 119 162 210 254 308 365
#
# _framework density 22.757404999999999
#
# number of rings (size 3 to 8) (size 9 to 14) (size 15 to 20)
#    0.000    1.714    2.857    1.286    8.000    1.714 
#    7.714    0.714    0.000    0.000    0.000    0.000 
#    0.000    0.000    0.000    0.000    0.000    0.000 
#
# Total GULP energy -77978.512906 kJ/mol
# GULP energy per Si atom -5569.893779 kJ/mol
# Density = 2.270561 g / cm^3
# Si number density = 22.757405 Si / 1000 Ang^3
#
#
#
# Elastic Constant Matrix: (Units=GPa)
#
#
# Indices 1 2 3 4 5 6 
#
# 1 72.6099 13.1294 31.1448 12.1370 -23.9759 -17.0378
# 2 13.1294 73.0969 8.6420 17.2910 -12.8155 -15.5697
# 3 31.1448 8.6420 62.8799 4.2810 -24.7047 -15.5978
# 4 12.1370 17.2910 4.2810 18.5915 -4.4481 0.7149
# 5 -23.9759 -12.8155 -24.7047 -4.4481 33.0747 12.2356
# 6 -17.0378 -15.5697 -15.5978 0.7149 12.2356 28.1235
#
#
#
# Elastic Compliance Matrix: (Units=1/GPa)
#
#
# Indices 1 2 3 4 5 6 
#
# 1 0.023052 0.003811 -0.005004 -0.015752 0.008656 0.009934
# 2 0.003811 0.021969 0.001883 -0.022858 0.004353 0.014202
# 3 -0.005004 0.001883 0.024952 -0.001278 0.013315 0.006089
# 4 -0.015752 -0.022858 -0.001278 0.086495 -0.000370 -0.024944
# 5 0.008656 0.004353 0.013315 -0.000370 0.050682 -0.007002
# 6 0.009934 0.014202 0.006089 -0.024944 -0.007002 0.056496
#
#
# Mechanical properties :
#
#
# Convention : Reuss Voigt Hill
#
# Bulk Modulus (GPa) = 14.01532 34.93546 24.47539
# Shear Modulus (GPa) = 17.47945 26.33598 21.90772
#
# Velocity S-wave (km/s) = 2.77443 3.40553 3.10605
# Velocity P-wave (km/s) = 4.05404 5.55410 4.86227
#
# Compressibility (1/GPa) = 0.07135051
#
# Stress axis : x y z
#
# Youngs Moduli (GPa) = 43.38084 45.51939 40.07719
#
# Poissons Ratio (x) = -0.17346 0.20055
# Poissons Ratio (y) = -0.16531 -0.07545
# Poissons Ratio (z) = 0.21708 -0.08569
#
# Static dielectric constant tensor:
#      x y z
#    x 4.023770 0.620140 -0.312680 
#    y 0.620140 2.090630 -0.101710 
#    z -0.312680 -0.101710 1.858320 
# 
# From -- ./inp_files/71105.got.cif
#   From: 2010.05.17/outbox.cif.g08.bks.cpg/sg2_36_cif.got.tgz:71105.got - 2010.06.03 11:33:40.
