data_PCOD9104475
_publ_section_title
;
Structure prediction by ZEFSAII (Michael W. Deem and Ramdas Pophale) SiO2 
 PCOD9104475
Probable space group: P -1
;
_chemical_formula_sum "Si O2"
_cell_formula_units_Z 16
_cell_length_a 15.976411
_cell_length_b 9.357429
_cell_length_c 13.470495
_cell_angle_alpha 131.956111
_cell_angle_beta 141.851330
_cell_angle_gamma 67.706851
_cell_volume 876.815213
_symmetry_space_group_name_H-M "P -1"
_symmetry_group_IT_number 2
_symmetry_cell_setting 'triclinic'
loop_
_space_group_symop_operation_xyz
x,y,z
-x,-y,-z
loop_
_atom_site_type_symbol
_atom_site_label
_atom_site_fract_x
_atom_site_fract_y
_atom_site_fract_z
Si Si1 0.043259 0.308020 0.919031
Si Si2 0.423255 0.768105 0.071210
Si Si3 0.374036 0.352183 0.945398
Si Si4 0.104687 0.033348 0.020892
Si Si5 0.572920 0.816445 0.656951
Si Si6 0.639538 0.597170 0.812563
Si Si7 0.100547 0.726416 0.713113
Si Si8 0.938745 0.942957 0.524780
O O1 0.066301 0.188367 0.982234
O O2 0.193684 0.377700 0.033315
O O3 0.931906 0.142105 0.669164
O O4 0.000000 0.500000 0.000000
O O5 0.523947 0.746191 0.065369
O O6 0.471707 0.984268 0.272214
O O7 0.411114 0.583839 0.050091
O O8 0.265478 0.742758 0.870104
O O9 0.212880 0.229792 0.704815
O O10 0.386963 0.345598 0.073371
O O11 0.276752 0.120359 0.233658
O O12 0.077698 0.819920 0.840607
O O13 0.000000 0.000000 0.000000
O O14 0.603633 0.736251 0.757343
O O15 0.456626 0.631897 0.409123
O O16 0.000000 0.500000 0.500000
O O17 0.052503 0.863829 0.653038
O O18 0.000000 0.000000 0.500000
#
# Coordination Sequence:
#
# PCOD9104475 Si02
#       8
#     2   2   2   2   2   2   2   2
#     4  10  22  37  58  85 117 150 193 241 290 346
#     4  10  23  40  59  90 122 154 197 244 294 355
#     4  11  23  39  61  90 123 152 198 249 295 350
#     4   9  20  37  58  84 114 149 194 239 281 347
#     4   9  21  41  61  83 119 157 197 241 292 351
#     4  10  21  41  61  85 118 157 196 244 293 347
#     4  10  20  39  61  84 119 157 192 237 295 353
#     4  11  22  40  61  89 120 155 195 249 297 345
#
# _framework density 18.247859999999999
#
# number of rings (size 3 to 8) (size 9 to 14) (size 15 to 20)
#    0.000    2.000    2.500    0.750    1.750    5.000 
#    2.250    0.000    0.000    0.000    0.000    0.000 
#    0.000    0.000    0.000    0.000    0.000    0.000 
#
# Total GULP energy -89291.296800 kJ/mol
# GULP energy per Si atom -5580.706050 kJ/mol
# Density = 1.820633 g / cm^3
# Si number density = 18.247860 Si / 1000 Ang^3
#
#
#
# Elastic Constant Matrix: (Units=GPa)
#
#
# Indices 1 2 3 4 5 6 
#
# 1 148.5628 42.0133 26.9131 0.2307 1.1003 4.1280
# 2 42.0133 57.2500 16.4042 19.4137 -3.2802 -16.2721
# 3 26.9131 16.4042 66.4986 13.8330 0.9537 3.1960
# 4 0.2307 19.4137 13.8330 33.9509 1.9803 -2.3726
# 5 1.1003 -3.2802 0.9537 1.9803 15.4900 1.5753
# 6 4.1280 -16.2721 3.1960 -2.3726 1.5753 25.2458
#
#
#
# Elastic Compliance Matrix: (Units=1/GPa)
#
#
# Indices 1 2 3 4 5 6 
#
# 1 0.011028 -0.012701 -0.002482 0.007789 -0.003428 -0.008730
# 2 -0.012701 0.043583 -0.002406 -0.022522 0.010341 0.027711
# 3 -0.002482 -0.002406 0.018135 -0.006263 -0.000241 -0.004014
# 4 0.007789 -0.022522 -0.006263 0.044679 -0.009612 -0.010198
# 5 -0.003428 0.010341 -0.000241 -0.009612 0.068020 0.002109
# 6 -0.008730 0.027711 -0.004014 -0.010198 0.002109 0.058317
#
#
# Mechanical properties :
#
#
# Convention : Reuss Voigt Hill
#
# Bulk Modulus (GPa) = 26.61773 49.21918 37.91846
# Shear Modulus (GPa) = 17.15474 27.40273 22.27873
#
# Velocity S-wave (km/s) = 3.06942 3.87938 3.49792
# Velocity P-wave (km/s) = 5.21347 6.86274 6.09416
#
# Compressibility (1/GPa) = 0.03756895
#
# Stress axis : x y z
#
# Youngs Moduli (GPa) = 90.67471 22.94448 55.14182
#
# Poissons Ratio (x) = 0.29142 0.13685
# Poissons Ratio (y) = 1.15166 0.13268
# Poissons Ratio (z) = 0.22503 0.05521
#
# Static dielectric constant tensor:
#      x y z
#    x 1.600080 0.000400 0.003410 
#    y 0.000400 1.619620 0.014340 
#    z 0.003410 0.014340 1.629960 
# 
# From -- ./inp_files/179264.got.cif
#   From: 2010.05.17/outbox.cif.g08.bks.cpg/sg2_90_cif.got.tgz:179264.got - 2010.06.03 11:33:40.
