data_PCOD9104984
_publ_section_title
;
Structure prediction by ZEFSAII (Michael W. Deem and Ramdas Pophale) SiO2 
 PCOD9104984
Probable space group: P -1
;
_chemical_formula_sum "Si O2"
_cell_formula_units_Z 16
_cell_length_a 20.036049
_cell_length_b 8.535346
_cell_length_c 25.256319
_cell_angle_alpha 29.061074
_cell_angle_beta 21.074126
_cell_angle_gamma 41.022467
_cell_volume 706.589539
_symmetry_space_group_name_H-M "P -1"
_symmetry_group_IT_number 2
_symmetry_cell_setting 'triclinic'
loop_
_space_group_symop_operation_xyz
x,y,z
-x,-y,-z
loop_
_atom_site_type_symbol
_atom_site_label
_atom_site_fract_x
_atom_site_fract_y
_atom_site_fract_z
Si Si1 0.585941 0.358699 0.553338
Si Si2 0.202334 0.465835 0.807554
Si Si3 0.123902 0.219755 0.296287
Si Si4 0.971487 0.349028 0.842865
Si Si5 0.572929 0.269869 0.221106
Si Si6 0.182579 0.465545 0.942051
Si Si7 0.404331 0.865378 0.167253
Si Si8 0.396697 0.950562 0.921021
O O1 0.427893 0.541550 0.602460
O O2 0.814099 0.592267 0.308958
O O3 0.540080 0.048605 0.637797
O O4 0.526808 0.194705 0.705088
O O5 0.041764 0.582792 0.861333
O O6 0.206720 0.600312 0.824330
O O7 0.113348 0.047662 0.995470
O O8 0.992211 0.375913 0.312104
O O9 0.204776 0.951559 0.286504
O O10 0.299482 0.566629 0.083456
O O11 0.000000 0.000000 0.500000
O O12 0.792814 0.412352 0.988511
O O13 0.434014 0.500420 0.256671
O O14 0.648632 0.277286 0.222737
O O15 0.226122 0.110924 0.013021
O O16 0.496560 0.035193 0.105713
O O17 0.500000 0.000000 0.000000
#
# Coordination Sequence:
#
# PCOD9104984 Si02
#       8
#     2   2   2   2   2   2   2   2
#     4  10  20  39  63  86 126 166 199 248 311 366
#     4   9  19  40  65  88 120 159 210 247 312 371
#     4  12  23  39  61  91 119 167 213 250 305 374
#     4  11  21  39  60  90 125 160 208 251 302 372
#     4  10  21  40  59  90 129 156 204 260 310 356
#     4   9  18  38  68  87 118 165 195 259 318 357
#     4  11  21  38  63  84 121 162 206 255 311 353
#     4  10  20  41  62  85 122 163 204 256 307 368
#
# _framework density 22.643981
#
# number of rings (size 3 to 8) (size 9 to 14) (size 15 to 20)
#    0.000    1.750    5.000    1.125    0.000    3.000 
#    4.500   11.875    0.000    0.000    0.000    0.000 
#    0.000    0.000    0.000    0.000    0.000    0.000 
#
# Total GULP energy -89221.358495 kJ/mol
# GULP energy per Si atom -5576.334906 kJ/mol
# Density = 2.259244 g / cm^3
# Si number density = 22.643981 Si / 1000 Ang^3
#
#
#
# Elastic Constant Matrix: (Units=GPa)
#
#
# Indices 1 2 3 4 5 6 
#
# 1 89.6060 28.6642 9.0258 -4.0240 -9.8927 2.6051
# 2 28.6642 147.0970 39.2213 21.0134 -4.7283 -5.5762
# 3 9.0258 39.2213 80.7144 9.7472 -4.7053 2.6123
# 4 -4.0240 21.0134 9.7472 22.3438 0.7274 -1.8402
# 5 -9.8927 -4.7283 -4.7053 0.7274 33.5310 4.0487
# 6 2.6051 -5.5762 2.6123 -1.8402 4.0487 37.2506
#
#
#
# Elastic Compliance Matrix: (Units=1/GPa)
#
#
# Indices 1 2 3 4 5 6 
#
# 1 0.012826 -0.003097 -0.000305 0.005126 0.003369 -0.001452
# 2 -0.003097 0.009478 -0.003359 -0.007882 -0.000057 0.001488
# 3 -0.000305 -0.003359 0.014643 -0.003497 0.001794 -0.001876
# 4 0.005126 -0.007882 -0.003497 0.054793 -0.001468 0.001573
# 5 0.003369 -0.000057 0.001794 -0.001468 0.031560 -0.003873
# 6 -0.001452 0.001488 -0.001876 0.001573 -0.003873 0.027800
#
#
# Mechanical properties :
#
#
# Convention : Reuss Voigt Hill
#
# Bulk Modulus (GPa) = 42.68958 52.35999 47.52478
# Shear Modulus (GPa) = 28.99725 34.65883 31.82804
#
# Velocity S-wave (km/s) = 3.58239 3.91653 3.75318
# Velocity P-wave (km/s) = 6.00040 6.60497 6.30993
#
# Compressibility (1/GPa) = 0.02342492
#
# Stress axis : x y z
#
# Youngs Moduli (GPa) = 77.96819 105.50939 68.29098
#
# Poissons Ratio (x) = 0.32677 0.02083
# Poissons Ratio (y) = 0.24147 0.22938
# Poissons Ratio (z) = 0.02378 0.35440
#
# Static dielectric constant tensor:
#      x y z
#    x 1.906230 -0.036900 -0.018450 
#    y -0.036900 1.797660 0.025490 
#    z -0.018450 0.025490 1.885840 
# 
# From -- ./inp_files/504445.got.cif
#   From: 2010.05.17/outbox.cif.g08.bks.cpg/sg2_253_cif.got.tgz:504445.got - 2010.06.03 11:33:40.
