data_PCOD9104538
_publ_section_title
;
Structure prediction by ZEFSAII (Michael W. Deem and Ramdas Pophale) SiO2 
 PCOD9104538
Probable space group: P -1
;
_chemical_formula_sum "Si O2"
_cell_formula_units_Z 14
_cell_length_a 9.881403
_cell_length_b 9.991972
_cell_length_c 11.160409
_cell_angle_alpha 88.226391
_cell_angle_beta 106.600801
_cell_angle_gamma 42.970228
_cell_volume 669.437402
_symmetry_space_group_name_H-M "P -1"
_symmetry_group_IT_number 2
_symmetry_cell_setting 'triclinic'
loop_
_space_group_symop_operation_xyz
x,y,z
-x,-y,-z
loop_
_atom_site_type_symbol
_atom_site_label
_atom_site_fract_x
_atom_site_fract_y
_atom_site_fract_z
Si Si1 0.758374 0.654530 0.588945
Si Si2 0.604097 0.410103 0.718258
Si Si3 0.824370 0.982392 0.786203
Si Si4 0.743640 0.969142 0.494999
Si Si5 0.163410 0.688894 0.466694
Si Si6 0.282890 0.597537 0.997962
Si Si7 0.012480 0.411990 0.127698
O O1 0.751522 0.801447 0.514761
O O2 0.807145 0.493608 0.522027
O O3 0.933560 0.541520 0.743862
O O4 0.516302 0.805803 0.583261
O O5 0.350669 0.611623 0.604840
O O6 0.763644 0.319860 0.647263
O O7 0.645397 0.224054 0.768289
O O8 0.677823 0.442166 0.849408
O O9 0.827461 0.966149 0.643605
O O10 0.801730 0.844010 0.825594
O O11 0.064355 0.845731 0.904499
O O12 0.912706 0.897471 0.439768
O O13 0.213752 0.508008 0.922790
O O14 0.500000 0.500000 0.000000
O O15 0.000000 0.500000 0.000000
#
# Coordination Sequence:
#
# PCOD9104538 Si02
#       7
#     2   2   2   2   2   2   2
#     4  10  20  39  61  88 122 156 203 256 294 365
#     4  11  22  39  58  90 125 157 205 247 305 360
#     4   9  20  38  60  84 119 161 194 253 295 363
#     4  10  20  39  61  91 118 159 205 242 314 352
#     4  11  23  37  62  91 125 160 197 256 298 366
#     4  10  21  39  63  85 117 164 204 243 302 369
#     4   9  20  38  62  85 117 158 199 251 304 348
#
# _framework density 20.913084000000001
#
# number of rings (size 3 to 8) (size 9 to 14) (size 15 to 20)
#    0.857    1.143    1.429    2.571    0.000    0.571 
#    5.143    0.000    0.000    2.571    0.000    0.000 
#    0.000    0.000    0.000    0.000    0.000    0.000 
#
# Total GULP energy -78087.624195 kJ/mol
# GULP energy per Si atom -5577.687443 kJ/mol
# Density = 2.086548 g / cm^3
# Si number density = 20.913084 Si / 1000 Ang^3
#
#
#
# Elastic Constant Matrix: (Units=GPa)
#
#
# Indices 1 2 3 4 5 6 
#
# 1 77.6639 27.6356 28.2243 0.8071 15.5870 -24.0204
# 2 27.6356 55.9223 12.0686 2.2654 5.2579 -18.2992
# 3 28.2243 12.0686 107.6989 -1.8328 29.3213 -21.1416
# 4 0.8071 2.2654 -1.8328 8.8254 1.7336 1.4009
# 5 15.5870 5.2579 29.3213 1.7336 35.0494 -2.9509
# 6 -24.0204 -18.2992 -21.1416 1.4009 -2.9509 39.3095
#
#
#
# Elastic Compliance Matrix: (Units=1/GPa)
#
#
# Indices 1 2 3 4 5 6 
#
# 1 0.019047 -0.006041 -0.001199 -0.000516 -0.005883 0.007759
# 2 -0.006041 0.023597 0.000401 -0.006607 -0.000212 0.007729
# 3 -0.001199 0.000401 0.013681 0.004014 -0.010677 0.005868
# 4 -0.000516 -0.006607 0.004014 0.118526 -0.008513 -0.006095
# 5 -0.005883 -0.000212 -0.010677 -0.008513 0.040016 -0.006128
# 6 0.007759 0.007729 0.005868 -0.006095 -0.006128 0.036691
#
#
# Mechanical properties :
#
#
# Convention : Reuss Voigt Hill
#
# Bulk Modulus (GPa) = 23.44762 41.90470 32.67616
# Shear Modulus (GPa) = 17.89218 28.19398 23.04308
#
# Velocity S-wave (km/s) = 2.92815 3.67570 3.32301
# Velocity P-wave (km/s) = 4.76113 6.17215 5.51198
#
# Compressibility (1/GPa) = 0.04264825
#
# Stress axis : x y z
#
# Youngs Moduli (GPa) = 52.50204 42.37773 73.09219
#
# Poissons Ratio (x) = 0.25601 0.08762
# Poissons Ratio (y) = 0.31717 -0.02933
# Poissons Ratio (z) = 0.06294 -0.01700
#
# Static dielectric constant tensor:
#      x y z
#    x 1.802860 0.052070 -0.019470 
#    y 0.052070 1.786650 -0.027780 
#    z -0.019470 -0.027780 1.745680 
# 
# From -- ./inp_files/384855.got.cif
#   From: 2010.05.17/outbox.cif.g08.bks.cpg/sg2_193_cif.got.tgz:384855.got - 2010.06.03 11:33:40.
