data_PCOD9104383
_publ_section_title
;
Structure prediction by ZEFSAII (Michael W. Deem and Ramdas Pophale) SiO2 
 PCOD9104383
Probable space group: P -1
;
_chemical_formula_sum "Si O2"
_cell_formula_units_Z 14
_cell_length_a 5.949324
_cell_length_b 17.827941
_cell_length_c 8.150091
_cell_angle_alpha 53.158757
_cell_angle_beta 99.867480
_cell_angle_gamma 117.980377
_cell_volume 603.501771
_symmetry_space_group_name_H-M "P -1"
_symmetry_group_IT_number 2
_symmetry_cell_setting 'triclinic'
loop_
_space_group_symop_operation_xyz
x,y,z
-x,-y,-z
loop_
_atom_site_type_symbol
_atom_site_label
_atom_site_fract_x
_atom_site_fract_y
_atom_site_fract_z
Si Si1 0.748201 0.825607 0.637846
Si Si2 0.757160 0.935344 0.170761
Si Si3 0.907104 0.140060 0.070880
Si Si4 0.278731 0.729254 0.889709
Si Si5 0.589388 0.737894 0.219614
Si Si6 0.746496 0.601620 0.960862
Si Si7 0.712367 0.484796 0.436554
O O1 0.831510 0.882106 0.401691
O O2 0.464677 0.806574 0.674774
O O3 0.922026 0.883832 0.740627
O O4 0.720561 0.707288 0.788450
O O5 0.563588 0.835949 0.168698
O O6 0.704335 0.027139 0.121773
O O7 0.000000 0.000000 0.000000
O O8 0.809025 0.204907 0.086427
O O9 0.110597 0.213590 0.860559
O O10 0.436134 0.696072 0.082870
O O11 0.037293 0.634735 0.895098
O O12 0.459865 0.640578 0.455836
O O13 0.765889 0.569753 0.190900
O O14 0.500000 0.500000 0.000000
O O15 0.500000 0.500000 0.500000
O O16 0.000000 0.500000 0.500000
#
# Coordination Sequence:
#
# PCOD9104383 Si02
#       7
#     2   2   2   2   2   2   2
#     4  10  21  40  63  90 129 169 223 273 347 407
#     4  10  21  40  64  93 126 171 223 287 340 410
#     4   9  20  38  65  87 125 172 220 273 339 402
#     4  10  20  39  60  90 127 173 214 278 331 420
#     4  10  21  39  62  93 132 168 228 274 342 397
#     4  11  24  42  64  95 132 180 231 282 343 411
#     4  12  24  43  72 104 139 188 233 283 352 417
#
# _framework density 23.197945000000001
#
# number of rings (size 3 to 8) (size 9 to 14) (size 15 to 20)
#    0.000    1.714    1.429    3.857    0.000    1.714 
#    2.571    8.571    0.000    0.000    0.000    0.000 
#    0.000    0.000    0.000    0.000    0.000    0.000 
#
# Total GULP energy -77977.909645 kJ/mol
# GULP energy per Si atom -5569.850689 kJ/mol
# Density = 2.314515 g / cm^3
# Si number density = 23.197945 Si / 1000 Ang^3
#
#
#
# Elastic Constant Matrix: (Units=GPa)
#
#
# Indices 1 2 3 4 5 6 
#
# 1 83.1936 25.9745 33.8664 -4.5081 -0.4998 3.5096
# 2 25.9745 124.5199 30.5518 -27.4379 8.7122 18.9648
# 3 33.8664 30.5518 147.4531 -13.7014 -12.4868 -6.2108
# 4 -4.5081 -27.4379 -13.7014 38.1141 -7.4231 5.7606
# 5 -0.4998 8.7122 -12.4868 -7.4231 26.0651 -4.6013
# 6 3.5096 18.9648 -6.2108 5.7606 -4.6013 27.3261
#
#
#
# Elastic Compliance Matrix: (Units=1/GPa)
#
#
# Indices 1 2 3 4 5 6 
#
# 1 0.013880 -0.002223 -0.002931 -0.001051 -0.000840 -0.000826
# 2 -0.002223 0.013390 -0.002348 0.009401 -0.005153 -0.012391
# 3 -0.002931 -0.002348 0.008822 0.001639 0.006255 0.004719
# 4 -0.001051 0.009401 0.001639 0.036520 0.005774 -0.012744
# 5 -0.000840 -0.005153 0.006255 0.005774 0.046790 0.011768
# 6 -0.000826 -0.012391 0.004719 -0.012744 0.011768 0.051041
#
#
# Mechanical properties :
#
#
# Convention : Reuss Voigt Hill
#
# Bulk Modulus (GPa) = 47.42197 59.55023 53.48610
# Shear Modulus (GPa) = 25.97690 35.95266 30.96478
#
# Velocity S-wave (km/s) = 3.34996 3.94105 3.65746
# Velocity P-wave (km/s) = 5.95396 6.81435 6.39863
#
# Compressibility (1/GPa) = 0.02108727
#
# Stress axis : x y z
#
# Youngs Moduli (GPa) = 72.04485 74.68185 113.34856
#
# Poissons Ratio (x) = 0.16605 0.33221
# Poissons Ratio (y) = 0.16019 0.26619
# Poissons Ratio (z) = 0.21115 0.17539
#
# Static dielectric constant tensor:
#      x y z
#    x 2.015180 0.037720 0.040060 
#    y 0.037720 1.956260 -0.009350 
#    z 0.040060 -0.009350 1.891540 
# 
# From -- ./inp_files/100594.got.cif
#   From: 2010.05.17/outbox.cif.g08.bks.cpg/sg2_51_cif.got.tgz:100594.got - 2010.06.03 11:33:40.
