data_PCOD9104357
_publ_section_title
;
Structure prediction by ZEFSAII (Michael W. Deem and Ramdas Pophale) SiO2 
 PCOD9104357
Probable space group: P -1
;
_chemical_formula_sum "Si O2"
_cell_formula_units_Z 14
_cell_length_a 18.119697
_cell_length_b 10.787281
_cell_length_c 13.198973
_cell_angle_alpha 147.988143
_cell_angle_beta 145.830797
_cell_angle_gamma 27.959696
_cell_volume 608.443235
_symmetry_space_group_name_H-M "P -1"
_symmetry_group_IT_number 2
_symmetry_cell_setting 'triclinic'
loop_
_space_group_symop_operation_xyz
x,y,z
-x,-y,-z
loop_
_atom_site_type_symbol
_atom_site_label
_atom_site_fract_x
_atom_site_fract_y
_atom_site_fract_z
Si Si1 0.837213 0.691122 0.072973
Si Si2 0.490083 0.797495 0.269405
Si Si3 0.359265 0.672573 0.725138
Si Si4 0.025640 0.703435 0.733546
Si Si5 0.639120 0.767999 0.103373
Si Si6 0.887086 0.902011 0.933294
Si Si7 0.419101 0.216738 0.307663
O O1 0.722954 0.737699 0.071070
O O2 0.017983 0.400359 0.105280
O O3 0.811002 0.997361 0.245230
O O4 0.751689 0.669349 0.862400
O O5 0.616404 0.478237 0.242566
O O6 0.500000 0.000000 0.500000
O O7 0.307393 0.884975 0.121761
O O8 0.500126 0.913610 0.253612
O O9 0.387113 0.458187 0.517603
O O10 0.502801 0.712407 0.904285
O O11 0.209987 0.491135 0.839269
O O12 0.000000 0.500000 0.500000
O O13 0.909187 0.834020 0.790563
O O14 0.018446 0.955750 0.840975
O O15 0.554154 0.087117 0.280796
#
# Coordination Sequence:
#
# PCOD9104357 Si02
#       7
#     2   2   2   2   2   2   2
#     4  10  23  38  59  91 122 162 200 251 312 356
#     4  10  22  40  65  89 120 168 209 247 300 358
#     4  10  20  39  60  88 123 158 203 250 302 355
#     4  10  22  37  64  91 119 163 205 246 315 357
#     4  10  21  37  58  93 118 156 205 253 302 360
#     4  10  22  43  59  88 133 152 200 269 288 362
#     4  10  22  37  62  87 123 160 207 246 300 367
#
# _framework density 23.009540000000001
#
# number of rings (size 3 to 8) (size 9 to 14) (size 15 to 20)
#    0.000    2.000    1.429    1.714    4.000    7.429 
#    0.000    2.857    0.000    0.000    0.000    0.000 
#    0.000    0.000    0.000    0.000    0.000    0.000 
#
# Total GULP energy -78219.868119 kJ/mol
# GULP energy per Si atom -5587.133437 kJ/mol
# Density = 2.295717 g / cm^3
# Si number density = 23.009540 Si / 1000 Ang^3
#
#
#
# Elastic Constant Matrix: (Units=GPa)
#
#
# Indices 1 2 3 4 5 6 
#
# 1 60.6826 22.7363 33.8009 -5.0282 -11.3935 5.2540
# 2 22.7363 106.1294 22.1126 24.8974 -7.7721 44.1096
# 3 33.8009 22.1126 114.5376 26.5465 -29.8180 2.8179
# 4 -5.0282 24.8974 26.5465 25.7899 2.2287 -3.2952
# 5 -11.3935 -7.7721 -29.8180 2.2287 24.6939 8.8595
# 6 5.2540 44.1096 2.8179 -3.2952 8.8595 26.9991
#
#
#
# Elastic Compliance Matrix: (Units=1/GPa)
#
#
# Indices 1 2 3 4 5 6 
#
# 1 0.019609 0.005204 -0.001759 -0.002922 0.015082 -0.017439
# 2 0.005204 -0.005867 -0.013764 0.025893 -0.026213 0.021770
# 3 -0.001759 -0.013764 0.008192 0.008059 -0.004778 0.024526
# 4 -0.002922 0.025893 0.008059 -0.005341 0.036863 -0.055323
# 5 0.015082 -0.026213 -0.004778 0.036863 0.015871 0.039680
# 6 -0.017439 0.021770 0.024526 -0.055323 0.039680 -0.017467
#
#
# Mechanical properties :
#
#
# Convention : Reuss Voigt Hill
#
# Bulk Modulus (GPa) = 771.62109 48.73881 410.17995
# Shear Modulus (GPa) = 138.63165 29.00990 83.82077
#
# Velocity S-wave (km/s) = 7.77049 3.55459 6.04217
# Velocity P-wave (km/s) = 20.41038 6.17048 15.07744
#
# Compressibility (1/GPa) = 0.00129597
#
# Stress axis : x y z
#
# Youngs Moduli (GPa) = 50.99784 -170.45626 122.07221
#
# Poissons Ratio (x) = 0.88700 0.21470
# Poissons Ratio (y) = -0.26538 1.68019
# Poissons Ratio (z) = 0.08969 -2.34614
#
# Static dielectric constant tensor:
#      x y z
#    x 1.945110 0.022630 -0.018910 
#    y 0.022630 1.908390 0.047890 
#    z -0.018910 0.047890 1.847370 
# 
# From -- ./inp_files/428926.got.cif
#   From: 2010.05.17/outbox.cif.g08.bks.cpg/sg2_215_cif.got.tgz:428926.got - 2010.06.03 11:33:40.
