data_PCOD9104617
_publ_section_title
;
Structure prediction by ZEFSAII (Michael W. Deem and Ramdas Pophale) SiO2 
 PCOD9104617
Probable space group: P -1
;
_chemical_formula_sum "Si O2"
_cell_formula_units_Z 16
_cell_length_a 7.712627
_cell_length_b 8.705831
_cell_length_c 10.054441
_cell_angle_alpha 88.177697
_cell_angle_beta 102.934922
_cell_angle_gamma 71.231464
_cell_volume 619.030592
_symmetry_space_group_name_H-M "P -1"
_symmetry_group_IT_number 2
_symmetry_cell_setting 'triclinic'
loop_
_space_group_symop_operation_xyz
x,y,z
-x,-y,-z
loop_
_atom_site_type_symbol
_atom_site_label
_atom_site_fract_x
_atom_site_fract_y
_atom_site_fract_z
Si Si1 0.373187 0.020989 0.128799
Si Si2 0.061732 0.845859 0.713725
Si Si3 0.870741 0.399436 0.032983
Si Si4 0.048183 0.174883 0.856353
Si Si5 0.652545 0.675689 0.162825
Si Si6 0.593621 0.419701 0.656045
Si Si7 0.526572 0.241689 0.307270
Si Si8 0.717086 0.085050 0.593692
O O1 0.483030 0.142215 0.182989
O O2 0.504179 0.851474 0.095010
O O3 0.326714 0.975397 0.270105
O O4 0.192622 0.103611 0.006884
O O5 0.042722 0.717029 0.822289
O O6 0.260176 0.761220 0.678991
O O7 0.060538 0.010273 0.785932
O O8 0.889290 0.927106 0.580287
O O9 0.688980 0.536055 0.061293
O O10 0.000000 0.500000 0.000000
O O11 0.864255 0.284115 0.909151
O O12 0.149967 0.285791 0.790891
O O13 0.560868 0.624288 0.278674
O O14 0.500000 0.500000 0.500000
O O15 0.624461 0.577287 0.722232
O O16 0.752988 0.253766 0.638323
O O17 0.551381 0.147251 0.455331
#
# Coordination Sequence:
#
# PCOD9104617 Si02
#       8
#     2   2   2   2   2   2   2   2
#     4  11  22  41  64  93 127 163 209 264 312 379
#     4  12  22  42  67  92 127 166 210 260 315 380
#     4  10  22  40  62  90 130 167 204 257 314 379
#     4  11  23  41  63  94 128 165 208 256 323 377
#     4  10  20  39  61  91 128 163 208 264 311 371
#     4   9  20  41  65  89 125 165 214 265 309 368
#     4  11  22  41  67  91 122 167 217 259 314 371
#     4  10  23  41  65  92 125 166 212 260 315 373
#
# _framework density 25.846865999999999
#
# number of rings (size 3 to 8) (size 9 to 14) (size 15 to 20)
#    0.000    1.500    3.750    1.500    0.000    0.000 
#    6.750    1.250    0.000    2.250    0.000    0.000 
#    0.000    0.000    0.000    0.000    0.000    0.000 
#
# Total GULP energy -89403.961881 kJ/mol
# GULP energy per Si atom -5587.747618 kJ/mol
# Density = 2.578804 g / cm^3
# Si number density = 25.846866 Si / 1000 Ang^3
#
#
#
# Elastic Constant Matrix: (Units=GPa)
#
#
# Indices 1 2 3 4 5 6 
#
# 1 65.7867 25.7537 3.8897 -1.4800 -22.6436 -4.3597
# 2 25.7537 157.9317 35.5310 -17.0848 7.8411 -21.6539
# 3 3.8897 35.5310 93.5954 -1.8256 -20.6126 8.4715
# 4 -1.4800 -17.0848 -1.8256 42.7971 0.1829 -3.1207
# 5 -22.6436 7.8411 -20.6126 0.1829 41.6096 -5.3867
# 6 -4.3597 -21.6539 8.4715 -3.1207 -5.3867 45.9275
#
#
#
# Elastic Compliance Matrix: (Units=1/GPa)
#
#
# Indices 1 2 3 4 5 6 
#
# 1 0.022459 -0.005535 0.004534 -0.001275 0.015571 0.000426
# 2 -0.005535 0.009829 -0.005368 0.003864 -0.006952 0.004546
# 3 0.004534 -0.005368 0.015157 -0.001660 0.010506 -0.003777
# 4 -0.001275 0.003864 -0.001660 0.025056 -0.001903 0.003487
# 5 0.015571 -0.006952 0.010506 -0.001903 0.039123 0.000722
# 6 0.000426 0.004546 -0.003777 0.003487 0.000722 0.024975
#
#
# Mechanical properties :
#
#
# Convention : Reuss Voigt Hill
#
# Bulk Modulus (GPa) = 28.81415 49.74029 39.27722
# Shear Modulus (GPa) = 31.07398 42.87613 36.97505
#
# Velocity S-wave (km/s) = 3.47109 4.07732 3.78636
# Velocity P-wave (km/s) = 5.21889 6.43833 5.86041
#
# Compressibility (1/GPa) = 0.03470517
#
# Stress axis : x y z
#
# Youngs Moduli (GPa) = 44.52650 101.74285 65.97626
#
# Poissons Ratio (x) = 0.56314 -0.29912
# Poissons Ratio (y) = 0.24645 0.35418
# Poissons Ratio (z) = -0.20187 0.54619
#
# Static dielectric constant tensor:
#      x y z
#    x 2.168190 -0.015280 0.006920 
#    y -0.015280 2.076030 0.010850 
#    z 0.006920 0.010850 2.109180 
# 
# From -- ./inp_files/382012.got.cif
#   From: 2010.05.17/outbox.cif.g08.bks.cpg/sg2_192_cif.got.tgz:382012.got - 2010.06.03 11:33:40.
