data_PCOD9104183
_publ_section_title
;
Structure prediction by ZEFSAII (Michael W. Deem and Ramdas Pophale) SiO2 
 PCOD9104183
Probable space group: P -1
;
_chemical_formula_sum "Si O2"
_cell_formula_units_Z 14
_cell_length_a 24.113573
_cell_length_b 23.778472
_cell_length_c 11.914666
_cell_angle_alpha 151.034113
_cell_angle_beta 19.666698
_cell_angle_gamma 162.976899
_cell_volume 650.168224
_symmetry_space_group_name_H-M "P -1"
_symmetry_group_IT_number 2
_symmetry_cell_setting 'triclinic'
loop_
_space_group_symop_operation_xyz
x,y,z
-x,-y,-z
loop_
_atom_site_type_symbol
_atom_site_label
_atom_site_fract_x
_atom_site_fract_y
_atom_site_fract_z
Si Si1 0.759916 0.407583 0.463050
Si Si2 0.373981 0.750310 0.328831
Si Si3 0.925246 0.749969 0.683144
Si Si4 0.646860 0.622654 0.778656
Si Si5 0.784145 0.154646 0.383638
Si Si6 0.440295 0.526079 0.774687
Si Si7 0.467061 0.054055 0.271814
O O1 0.828438 0.390745 0.423725
O O2 0.947442 0.624739 0.451273
O O3 0.707119 0.281199 0.249251
O O4 0.464337 0.308460 0.875188
O O5 0.237892 0.745679 0.479941
O O6 0.633449 0.969701 0.272433
O O7 0.471195 0.681895 0.979153
O O8 0.911906 0.755186 0.583901
O O9 0.613728 0.602187 0.065672
O O10 0.178237 0.958513 0.625658
O O11 0.648189 0.600813 0.606776
O O12 0.609873 0.060219 0.667218
O O13 0.112018 0.317880 0.070403
O O14 0.500000 0.500000 0.500000
O O15 0.500000 0.000000 0.000000
#
# Coordination Sequence:
#
# PCOD9104183 Si02
#       7
#     2   2   2   2   2   2   2
#     4   8  17  34  57  78 104 145 177 218 275 319
#     4   9  19  37  60  82 107 153 185 219 288 321
#     4   9  17  36  55  74 110 137 179 222 259 329
#     4   8  17  37  54  76 107 145 172 217 278 318
#     4  10  20  39  59  77 117 146 184 233 265 335
#     4  11  21  37  59  86 111 143 186 231 279 326
#     4  11  21  34  55  82 107 143 184 221 269 319
#
# _framework density 21.532888
#
# number of rings (size 3 to 8) (size 9 to 14) (size 15 to 20)
#    0.857    1.714    1.429    0.429    0.000    1.714 
#   10.286    0.000    0.000    0.000    0.000    0.000 
#    0.000    0.000    0.000    0.000    0.000    0.000 
#
# Total GULP energy -77959.230301 kJ/mol
# GULP energy per Si atom -5568.516450 kJ/mol
# Density = 2.148388 g / cm^3
# Si number density = 21.532888 Si / 1000 Ang^3
#
#
#
# Elastic Constant Matrix: (Units=GPa)
#
#
# Indices 1 2 3 4 5 6 
#
# 1 161.9321 33.0993 24.4510 11.8285 10.9579 14.4792
# 2 33.0993 59.3278 16.7909 6.6759 9.1916 5.1451
# 3 24.4510 16.7909 30.3676 16.2778 25.7898 1.0511
# 4 11.8285 6.6759 16.2778 19.5691 14.8928 7.5199
# 5 10.9579 9.1916 25.7898 14.8928 35.7689 6.5726
# 6 14.4792 5.1451 1.0511 7.5199 6.5726 28.7115
#
#
#
# Elastic Compliance Matrix: (Units=1/GPa)
#
#
# Indices 1 2 3 4 5 6 
#
# 1 0.008416 -0.001798 -0.013984 0.003795 0.007511 -0.006124
# 2 -0.001798 0.022547 -0.022645 0.007854 0.008994 -0.006421
# 3 -0.013984 -0.022645 0.174374 -0.076231 -0.092303 0.045822
# 4 0.003795 0.007854 -0.076231 0.114404 0.010181 -0.032825
# 5 0.007511 0.008994 -0.092303 0.010181 0.090318 -0.025362
# 6 -0.006124 -0.006421 0.045822 -0.032825 -0.025362 0.051794
#
#
# Mechanical properties :
#
#
# Convention : Reuss Voigt Hill
#
# Bulk Modulus (GPa) = 7.78302 44.47886 26.13094
# Shear Modulus (GPa) = 8.59796 28.62898 18.61347
#
# Velocity S-wave (km/s) = 2.00040 3.65025 2.94329
# Velocity P-wave (km/s) = 2.99296 6.20217 4.86953
#
# Compressibility (1/GPa) = 0.12848482
#
# Stress axis : x y z
#
# Youngs Moduli (GPa) = 118.81565 44.35177 5.73480
#
# Poissons Ratio (x) = 0.07972 0.08019
# Poissons Ratio (y) = 0.21358 0.12987
# Poissons Ratio (z) = 1.66147 1.00435
#
# Static dielectric constant tensor:
#      x y z
#    x 1.832820 -0.004930 -0.005330 
#    y -0.004930 1.813680 -0.045260 
#    z -0.005330 -0.045260 1.836690 
# 
# From -- ./inp_files/475697.got.cif
#   From: 2010.05.17/outbox.cif.g08.bks.cpg/sg2_238_cif.got.tgz:475697.got - 2010.06.03 11:33:40.
