data_PCOD9104893
_publ_section_title
;
Structure prediction by ZEFSAII (Michael W. Deem and Ramdas Pophale) SiO2 
 PCOD9104893
Probable space group: P -1
;
_chemical_formula_sum "Si O2"
_cell_formula_units_Z 14
_cell_length_a 8.937122
_cell_length_b 11.421405
_cell_length_c 8.075914
_cell_angle_alpha 92.704627
_cell_angle_beta 83.597147
_cell_angle_gamma 44.723045
_cell_volume 566.958389
_symmetry_space_group_name_H-M "P -1"
_symmetry_group_IT_number 2
_symmetry_cell_setting 'triclinic'
loop_
_space_group_symop_operation_xyz
x,y,z
-x,-y,-z
loop_
_atom_site_type_symbol
_atom_site_label
_atom_site_fract_x
_atom_site_fract_y
_atom_site_fract_z
Si Si1 0.798450 0.419542 0.757945
Si Si2 0.861994 0.962529 0.724876
Si Si3 0.834747 0.663619 0.137457
Si Si4 0.538838 0.185675 0.048665
Si Si5 0.591373 0.894573 0.655350
Si Si6 0.747009 0.571971 0.468666
Si Si7 0.284140 0.748286 0.460528
O O1 0.602932 0.616235 0.865521
O O2 0.881834 0.420887 0.569801
O O3 0.728812 0.329717 0.703442
O O4 0.019302 0.306403 0.829006
O O5 0.769770 0.092766 0.593594
O O6 0.753467 0.896153 0.717786
O O7 0.765374 0.073202 0.913256
O O8 0.117296 0.815239 0.636540
O O9 0.797284 0.593410 0.286136
O O10 0.617310 0.791434 0.065913
O O11 0.000000 0.500000 0.000000
O O12 0.568647 0.077425 0.188987
O O13 0.715820 0.708284 0.580690
O O14 0.500000 0.000000 0.500000
O O15 0.527173 0.620124 0.486325
#
# Coordination Sequence:
#
# PCOD9104893 Si02
#       7
#     2   2   2   2   2   2   2
#     4  10  23  40  67  96 129 175 221 264 332 381
#     4  11  23  41  64  96 135 176 216 264 324 392
#     4  10  20  39  62  94 128 165 221 277 316 374
#     4  10  22  42  68  98 129 167 225 279 324 374
#     4  11  21  40  70  91 124 171 221 271 323 386
#     4  11  21  41  66  95 130 177 222 268 323 387
#     4  11  23  40  66  95 141 178 212 260 329 401
#
# _framework density 24.693169000000001
#
# number of rings (size 3 to 8) (size 9 to 14) (size 15 to 20)
#    0.000    1.429    2.857    2.143    0.000    2.857 
#    0.000    2.857    3.143    0.000    0.000    0.000 
#    0.000    0.000    0.000    0.000    0.000    0.000 
#
# Total GULP energy -78037.448417 kJ/mol
# GULP energy per Si atom -5574.103458 kJ/mol
# Density = 2.463697 g / cm^3
# Si number density = 24.693169 Si / 1000 Ang^3
#
#
#
# Elastic Constant Matrix: (Units=GPa)
#
#
# Indices 1 2 3 4 5 6 
#
# 1 123.7796 20.1615 17.7675 33.4465 4.0670 -1.9426
# 2 20.1615 39.6170 11.7825 22.5865 3.5607 8.1890
# 3 17.7675 11.7825 109.1661 32.9871 -31.9863 -7.6506
# 4 33.4465 22.5865 32.9871 42.7853 -8.7448 -5.4940
# 5 4.0670 3.5607 -31.9863 -8.7448 39.7471 -2.9962
# 6 -1.9426 8.1890 -7.6506 -5.4940 -2.9962 39.1699
#
#
#
# Elastic Compliance Matrix: (Units=1/GPa)
#
#
# Indices 1 2 3 4 5 6 
#
# 1 0.010623 0.000457 0.000020 -0.009372 -0.003259 -0.001129
# 2 0.000457 0.045242 -0.001196 -0.027682 -0.012245 -0.014489
# 3 0.000020 -0.001196 0.015195 -0.008555 0.010665 0.002835
# 4 -0.009372 -0.027682 -0.008555 0.055448 0.009670 0.012168
# 5 -0.003259 -0.012245 0.010665 0.009670 0.037958 0.008741
# 6 -0.001129 -0.014489 0.002835 0.012168 0.008741 0.031432
#
#
# Mechanical properties :
#
#
# Convention : Reuss Voigt Hill
#
# Bulk Modulus (GPa) = 14.36320 41.33177 27.84749
# Shear Modulus (GPa) = 22.67129 39.19722 30.93425
#
# Velocity S-wave (km/s) = 3.03334 3.98850 3.54325
# Velocity P-wave (km/s) = 4.25411 6.16323 5.29541
#
# Compressibility (1/GPa) = 0.06962235
#
# Stress axis : x y z
#
# Youngs Moduli (GPa) = 94.13160 22.10334 65.81168
#
# Poissons Ratio (x) = -0.01011 -0.00128
# Poissons Ratio (y) = -0.04306 0.07871
# Poissons Ratio (z) = -0.00184 0.02643
#
# Static dielectric constant tensor:
#      x y z
#    x 2.042240 -0.019940 -0.032850 
#    y -0.019940 1.911900 0.111500 
#    z -0.032850 0.111500 1.957150 
# 
# From -- ./inp_files/187464.got.cif
#   From: 2010.05.17/outbox.cif.g08.bks.cpg/sg2_94_cif.got.tgz:187464.got - 2010.06.03 11:33:40.
