data_PCOD9104502
_publ_section_title
;
Structure prediction by ZEFSAII (Michael W. Deem and Ramdas Pophale) SiO2 
 PCOD9104502
Probable space group: P -1
;
_chemical_formula_sum "Si O2"
_cell_formula_units_Z 16
_cell_length_a 9.600938
_cell_length_b 8.806015
_cell_length_c 19.486075
_cell_angle_alpha 138.358489
_cell_angle_beta 47.476466
_cell_angle_gamma 139.410041
_cell_volume 689.502222
_symmetry_space_group_name_H-M "P -1"
_symmetry_group_IT_number 2
_symmetry_cell_setting 'triclinic'
loop_
_space_group_symop_operation_xyz
x,y,z
-x,-y,-z
loop_
_atom_site_type_symbol
_atom_site_label
_atom_site_fract_x
_atom_site_fract_y
_atom_site_fract_z
Si Si1 0.198881 0.133794 0.530883
Si Si2 0.553655 0.292282 0.355172
Si Si3 0.240107 0.220471 0.314458
Si Si4 0.349928 0.747043 0.885088
Si Si5 0.607551 0.361794 0.020145
Si Si6 0.406936 0.727483 0.227957
Si Si7 0.314949 0.770967 0.433279
Si Si8 0.947614 0.381700 0.802224
O O1 0.437943 0.239361 0.450530
O O2 0.233328 0.420815 0.633944
O O3 0.165418 0.901062 0.513845
O O4 0.000000 0.000000 0.500000
O O5 0.368860 0.278187 0.362419
O O6 0.569842 0.032899 0.251991
O O7 0.424844 0.246707 0.207446
O O8 0.207303 0.469230 0.395418
O O9 0.067966 0.901644 0.269861
O O10 0.272621 0.593286 0.930959
O O11 0.177522 0.612862 0.835866
O O12 0.414498 0.050254 0.977446
O O13 0.502929 0.545437 0.113582
O O14 0.770634 0.397197 0.917123
O O15 0.388652 0.739859 0.321030
O O16 0.174559 0.637860 0.236706
O O17 0.500000 0.000000 0.500000
#
# Coordination Sequence:
#
# PCOD9104502 Si02
#       8
#     2   2   2   2   2   2   2   2
#     4  10  21  39  60  85 114 154 204 256 305 354
#     4   9  20  38  59  80 120 156 196 250 307 351
#     4  10  20  39  61  86 122 163 200 246 304 359
#     4  10  21  38  65  90 127 161 196 251 306 360
#     4  10  20  39  63  92 126 161 199 246 308 366
#     4  10  21  39  61  90 124 161 205 251 304 364
#     4  11  21  40  64  86 121 165 205 253 305 361
#     4  10  22  39  62  94 125 159 203 251 302 367
#
# _framework density 23.205148999999999
#
# number of rings (size 3 to 8) (size 9 to 14) (size 15 to 20)
#    0.000    2.000    2.500    0.750    0.000    3.500 
#    2.250    1.875    0.000    0.000    0.000    0.000 
#    0.000    0.000    0.000    0.000    0.000    0.000 
#
# Total GULP energy -89244.213269 kJ/mol
# GULP energy per Si atom -5577.763329 kJ/mol
# Density = 2.315233 g / cm^3
# Si number density = 23.205149 Si / 1000 Ang^3
#
#
#
# Elastic Constant Matrix: (Units=GPa)
#
#
# Indices 1 2 3 4 5 6 
#
# 1 113.6332 48.5885 67.9499 33.3829 -4.0603 -20.1058
# 2 48.5885 110.3857 36.2180 40.9563 -9.9099 -22.5413
# 3 67.9499 36.2180 151.6101 38.7150 -19.3827 -15.8131
# 4 33.3829 40.9563 38.7150 49.7129 -15.3060 -1.3327
# 5 -4.0603 -9.9099 -19.3827 -15.3060 59.6620 8.8873
# 6 -20.1058 -22.5413 -15.8131 -1.3327 8.8873 36.6164
#
#
#
# Elastic Compliance Matrix: (Units=1/GPa)
#
#
# Indices 1 2 3 4 5 6 
#
# 1 0.014942 -0.002240 -0.004614 -0.005386 -0.003036 0.005374
# 2 -0.002240 0.016249 0.001210 -0.013134 -0.001809 0.009257
# 3 -0.004614 0.001210 0.010123 -0.005259 0.001526 0.002022
# 4 -0.005386 -0.013134 -0.005259 0.040826 0.008278 -0.013837
# 5 -0.003036 -0.001809 0.001526 0.008278 0.019863 -0.006641
# 6 0.005374 0.009257 0.002022 -0.013837 -0.006641 0.037941
#
#
# Mechanical properties :
#
#
# Convention : Reuss Voigt Hill
#
# Bulk Modulus (GPa) = 33.30369 75.68242 54.49305
# Shear Modulus (GPa) = 31.00984 44.05645 37.53314
#
# Velocity S-wave (km/s) = 3.65956 4.36198 4.02612
# Velocity P-wave (km/s) = 5.67798 7.61935 6.71915
#
# Compressibility (1/GPa) = 0.03002670
#
# Stress axis : x y z
#
# Youngs Moduli (GPa) = 66.92740 61.54247 98.78069
#
# Poissons Ratio (x) = 0.13786 0.45577
# Poissons Ratio (y) = 0.14992 -0.11956
# Poissons Ratio (z) = 0.30880 -0.07449
#
# Static dielectric constant tensor:
#      x y z
#    x 1.841850 -0.013580 -0.004760 
#    y -0.013580 2.023140 -0.083690 
#    z -0.004760 -0.083690 2.018910 
# 
# From -- ./inp_files/207459.got.cif
#   From: 2010.05.17/outbox.cif.g08.bks.cpg/sg2_104_cif.got.tgz:207459.got - 2010.06.03 11:33:40.
