data_PCOD9104800
_publ_section_title
;
Structure prediction by ZEFSAII (Michael W. Deem and Ramdas Pophale) SiO2 
 PCOD9104800
Probable space group: P -1
;
_chemical_formula_sum "Si O2"
_cell_formula_units_Z 14
_cell_length_a 19.883697
_cell_length_b 16.092649
_cell_length_c 9.265476
_cell_angle_alpha 38.262991
_cell_angle_beta 151.380109
_cell_angle_gamma 153.989994
_cell_volume 622.663946
_symmetry_space_group_name_H-M "P -1"
_symmetry_group_IT_number 2
_symmetry_cell_setting 'triclinic'
loop_
_space_group_symop_operation_xyz
x,y,z
-x,-y,-z
loop_
_atom_site_type_symbol
_atom_site_label
_atom_site_fract_x
_atom_site_fract_y
_atom_site_fract_z
Si Si1 0.007895 0.921345 0.978303
Si Si2 0.268724 0.310205 0.790698
Si Si3 0.200136 0.340929 0.298320
Si Si4 0.599172 0.276042 0.749017
Si Si5 0.126518 0.660281 0.391048
Si Si6 0.829313 0.467498 0.639210
Si Si7 0.753037 0.147869 0.385255
O O1 0.826203 0.778349 0.720915
O O2 0.186426 0.115360 0.964125
O O3 0.051041 0.800872 0.279611
O O4 0.000000 0.000000 0.000000
O O5 0.223555 0.281428 0.574484
O O6 0.144390 0.353614 0.560896
O O7 0.500000 0.500000 0.000000
O O8 0.374532 0.569758 0.322498
O O9 0.004576 0.306557 0.969514
O O10 0.649334 0.333106 0.598690
O O11 0.393423 0.061973 0.667692
O O12 0.754538 0.272255 0.110165
O O13 0.197173 0.614501 0.456088
O O14 0.306100 0.838580 0.585211
O O15 0.000000 0.500000 0.500000
O O16 0.000000 0.500000 0.000000
#
# Coordination Sequence:
#
# PCOD9104800 Si02
#       7
#     2   2   2   2   2   2   2
#     4  11  25  37  63  95 125 173 218 255 314 401
#     4  11  24  44  64  92 137 173 207 265 331 381
#     4  10  21  40  65  85 128 166 218 259 320 369
#     4  10  20  39  62  90 122 166 203 271 324 360
#     4  11  20  36  64  95 120 158 210 274 311 363
#     4  11  21  37  69  93 119 166 222 258 307 385
#     4  10  22  38  60  90 134 158 208 265 329 366
#
# _framework density 22.484037000000001
#
# number of rings (size 3 to 8) (size 9 to 14) (size 15 to 20)
#    0.000    1.429    4.286    2.143    6.000    0.571 
#    0.000    5.714    0.000    0.000    0.000    0.000 
#    0.000    0.000    0.000    0.000    0.000    0.000 
#
# Total GULP energy -78025.046527 kJ/mol
# GULP energy per Si atom -5573.217609 kJ/mol
# Density = 2.243286 g / cm^3
# Si number density = 22.484037 Si / 1000 Ang^3
#
#
#
# Elastic Constant Matrix: (Units=GPa)
#
#
# Indices 1 2 3 4 5 6 
#
# 1 93.2961 50.8013 39.8967 10.3136 -34.3327 -39.4522
# 2 50.8013 121.5315 17.1242 5.7270 -25.3522 -25.1541
# 3 39.8967 17.1242 108.2746 -9.1367 -27.6008 -2.8492
# 4 10.3136 5.7270 -9.1367 37.7995 -7.6211 -11.1408
# 5 -34.3327 -25.3522 -27.6008 -7.6211 37.7865 4.0076
# 6 -39.4522 -25.1541 -2.8492 -11.1408 4.0076 47.3891
#
#
#
# Elastic Compliance Matrix: (Units=1/GPa)
#
#
# Indices 1 2 3 4 5 6 
#
# 1 0.032306 -0.003670 -0.005257 0.001529 0.020897 0.023224
# 2 -0.003670 0.011158 0.001021 0.001378 0.004875 0.002841
# 3 -0.005257 0.001021 0.013102 0.005097 0.006764 -0.002420
# 4 0.001529 0.001378 0.005097 0.032001 0.011551 0.008857
# 5 0.020897 0.004875 0.006764 0.011551 0.054026 0.018538
# 6 0.023224 0.002841 -0.002420 0.008857 0.018538 0.042313
#
#
# Mechanical properties :
#
#
# Convention : Reuss Voigt Hill
#
# Bulk Modulus (GPa) = 24.53642 59.86075 42.19859
# Shear Modulus (GPa) = 23.33154 38.94702 31.13928
#
# Velocity S-wave (km/s) = 3.22482 4.16650 3.72553
# Velocity P-wave (km/s) = 4.98021 7.05887 6.10861
#
# Compressibility (1/GPa) = 0.04075574
#
# Stress axis : x y z
#
# Youngs Moduli (GPa) = 30.95357 89.61898 76.32523
#
# Poissons Ratio (x) = 0.32888 0.40122
# Poissons Ratio (y) = 0.11359 -0.07793
# Poissons Ratio (z) = 0.16272 -0.09151
#
# Static dielectric constant tensor:
#      x y z
#    x 1.886840 -0.039960 0.027820 
#    y -0.039960 1.966300 0.023440 
#    z 0.027820 0.023440 1.886700 
# 
# From -- ./inp_files/294843.got.cif
#   From: 2010.05.17/outbox.cif.g08.bks.cpg/sg2_148_cif.got.tgz:294843.got - 2010.06.03 11:33:40.
