data_PCOD9104591
_publ_section_title
;
Structure prediction by ZEFSAII (Michael W. Deem and Ramdas Pophale) SiO2 
 PCOD9104591
Probable space group: P -1
;
_chemical_formula_sum "Si O2"
_cell_formula_units_Z 16
_cell_length_a 29.949973
_cell_length_b 12.078899
_cell_length_c 9.762596
_cell_angle_alpha 127.838746
_cell_angle_beta 32.774031
_cell_angle_gamma 152.643035
_cell_volume 741.683795
_symmetry_space_group_name_H-M "P -1"
_symmetry_group_IT_number 2
_symmetry_cell_setting 'triclinic'
loop_
_space_group_symop_operation_xyz
x,y,z
-x,-y,-z
loop_
_atom_site_type_symbol
_atom_site_label
_atom_site_fract_x
_atom_site_fract_y
_atom_site_fract_z
Si Si1 0.219650 0.477110 0.760050
Si Si2 0.327962 0.313009 0.960754
Si Si3 0.280546 0.090397 0.653427
Si Si4 0.656517 0.358691 0.732186
Si Si5 0.259059 0.754551 0.369419
Si Si6 0.667619 0.816527 0.867628
Si Si7 0.831355 0.335626 0.769242
Si Si8 0.835954 0.891191 0.279329
O O1 0.325759 0.650076 0.480409
O O2 0.261824 0.400431 0.680418
O O3 0.209022 0.597737 0.973271
O O4 0.031875 0.163570 0.953361
O O5 0.228676 0.101073 0.928759
O O6 0.517135 0.621401 0.653395
O O7 0.277120 0.386653 0.212310
O O8 0.331109 0.202559 0.988607
O O9 0.234581 0.110053 0.653222
O O10 0.211277 0.831065 0.621758
O O11 0.753696 0.392252 0.603541
O O12 0.458389 0.057795 0.049439
O O13 0.165626 0.607960 0.352835
O O14 0.813946 0.938502 0.516109
O O15 0.689607 0.006108 0.902545
O O16 0.500000 0.500000 0.000000
O O17 0.000000 0.500000 0.500000
#
# Coordination Sequence:
#
# PCOD9104591 Si02
#       8
#     2   2   2   2   2   2   2   2
#     4  11  25  41  64  94 129 170 210 266 327 387
#     4  10  21  36  64  91 120 165 214 262 309 382
#     4  10  20  39  61  90 122 165 214 258 317 375
#     4  10  22  42  60  94 132 164 213 262 329 380
#     4  10  22  41  64  90 133 168 204 276 318 377
#     4  12  21  42  69  92 125 172 219 270 315 379
#     4  12  25  44  66  96 129 168 218 268 326 386
#     4  11  22  43  64  88 132 169 212 268 323 377
#
# _framework density 21.572534999999998
#
# number of rings (size 3 to 8) (size 9 to 14) (size 15 to 20)
#    0.000    1.250    5.000    0.750    3.500    0.500 
#    2.250    1.875    0.000    0.000    0.000    0.000 
#    0.000    0.000    0.000    0.000    0.000    0.000 
#
# Total GULP energy -89401.385127 kJ/mol
# GULP energy per Si atom -5587.586570 kJ/mol
# Density = 2.152343 g / cm^3
# Si number density = 21.572535 Si / 1000 Ang^3
#
#
#
# Elastic Constant Matrix: (Units=GPa)
#
#
# Indices 1 2 3 4 5 6 
#
# 1 101.5461 32.4267 0.5430 20.8302 -4.7605 -7.9105
# 2 32.4267 57.5258 13.5253 23.9289 -5.4928 -8.9824
# 3 0.5430 13.5253 37.7191 20.7108 -1.0922 3.9314
# 4 20.8302 23.9289 20.7108 39.9590 -2.0919 -0.3038
# 5 -4.7605 -5.4928 -1.0922 -2.0919 25.8925 10.0057
# 6 -7.9105 -8.9824 3.9314 -0.3038 10.0057 31.3318
#
#
#
# Elastic Compliance Matrix: (Units=1/GPa)
#
#
# Indices 1 2 3 4 5 6 
#
# 1 0.012990 -0.005932 0.005078 -0.005814 0.000607 0.000692
# 2 -0.005932 0.027429 -0.004370 -0.010959 0.001172 0.006434
# 3 0.005078 -0.004370 0.040070 -0.020723 0.002318 -0.005940
# 4 -0.005814 -0.010959 -0.020723 0.045348 0.000003 -0.001571
# 5 0.000607 0.001172 0.002318 0.000003 0.044494 -0.014010
# 6 0.000692 0.006434 -0.005940 -0.001571 -0.014010 0.039140
#
#
# Mechanical properties :
#
#
# Convention : Reuss Voigt Hill
#
# Bulk Modulus (GPa) = 14.27703 32.19788 23.23745
# Shear Modulus (GPa) = 20.55373 29.45638 25.00506
#
# Velocity S-wave (km/s) = 3.09005 3.69922 3.40827
# Velocity P-wave (km/s) = 4.40042 5.76224 5.12675
#
# Compressibility (1/GPa) = 0.07004258
#
# Stress axis : x y z
#
# Youngs Moduli (GPa) = 76.98381 36.45717 24.95621
#
# Poissons Ratio (x) = 0.21625 -0.12673
# Poissons Ratio (y) = 0.45664 0.10905
# Poissons Ratio (z) = -0.39092 0.15931
#
# Static dielectric constant tensor:
#      x y z
#    x 1.755350 0.001030 -0.021400 
#    y 0.001030 1.816430 -0.032010 
#    z -0.021400 -0.032010 1.837080 
# 
# From -- ./inp_files/358624.got.cif
#   From: 2010.05.17/outbox.cif.g08.bks.cpg/sg2_180_cif.got.tgz:358624.got - 2010.06.03 11:33:40.
