data_PCOD9104845
_publ_section_title
;
Structure prediction by ZEFSAII (Michael W. Deem and Ramdas Pophale) SiO2 
 PCOD9104845
Probable space group: P -1
;
_chemical_formula_sum "Si O2"
_cell_formula_units_Z 16
_cell_length_a 5.460864
_cell_length_b 23.802693
_cell_length_c 5.202701
_cell_angle_alpha 64.184306
_cell_angle_beta 83.312780
_cell_angle_gamma 64.771801
_cell_volume 548.716511
_symmetry_space_group_name_H-M "P -1"
_symmetry_group_IT_number 2
_symmetry_cell_setting 'triclinic'
loop_
_space_group_symop_operation_xyz
x,y,z
-x,-y,-z
loop_
_atom_site_type_symbol
_atom_site_label
_atom_site_fract_x
_atom_site_fract_y
_atom_site_fract_z
Si Si1 0.068773 0.418507 0.220418
Si Si2 0.780607 0.451195 0.703327
Si Si3 0.136478 0.084059 0.727892
Si Si4 0.708147 0.213837 0.378864
Si Si5 0.658519 0.827671 0.109052
Si Si6 0.463122 0.651643 0.095627
Si Si7 0.234576 0.953618 0.756458
Si Si8 0.112442 0.700373 0.443211
O O1 0.009418 0.442732 0.476752
O O2 0.033208 0.347816 0.390412
O O3 0.310550 0.397077 0.026764
O O4 0.826348 0.469235 0.955157
O O5 0.500000 0.500000 0.500000
O O6 0.768951 0.376678 0.875303
O O7 0.270398 0.121971 0.812724
O O8 0.944969 0.139594 0.431940
O O9 0.332680 0.010535 0.738010
O O10 0.923796 0.068115 0.960997
O O11 0.518173 0.200962 0.638675
O O12 0.539638 0.272228 0.082363
O O13 0.856907 0.256151 0.413365
O O14 0.932547 0.761079 0.145870
O O15 0.479926 0.880236 0.804334
O O16 0.419650 0.652926 0.406189
O O17 0.000000 0.000000 0.500000
#
# Coordination Sequence:
#
# PCOD9104845 Si02
#       8
#     2   2   2   2   2   2   2   2
#     4  11  24  43  73 102 143 191 231 292 358 415
#     4  11  26  46  71 107 145 188 241 291 347 422
#     4   9  21  38  59  89 127 172 226 288 348 425
#     4  10  20  39  62  91 131 173 229 287 350 419
#     4  10  20  39  65  90 132 179 228 296 358 425
#     4  11  24  40  69  98 141 183 232 289 349 427
#     4  10  21  39  60  89 128 176 231 288 353 428
#     4  10  22  40  62  99 137 176 236 289 357 422
#
# _framework density 29.158954999999999
#
# number of rings (size 3 to 8) (size 9 to 14) (size 15 to 20)
#    0.000    1.750    2.500    0.750    1.750    4.500 
#    0.000    8.750    0.000    0.000    0.000    0.000 
#    0.000    0.000    0.000    0.000    0.000    0.000 
#
# Total GULP energy -89397.574933 kJ/mol
# GULP energy per Si atom -5587.348433 kJ/mol
# Density = 2.909259 g / cm^3
# Si number density = 29.158955 Si / 1000 Ang^3
#
#
#
# Elastic Constant Matrix: (Units=GPa)
#
#
# Indices 1 2 3 4 5 6 
#
# 1 59.3242 34.5530 33.2725 8.0029 -15.7736 -9.1528
# 2 34.5530 124.1313 55.2582 -4.1448 -22.2329 -20.3440
# 3 33.2725 55.2582 121.8460 -2.5140 -8.3935 -4.2887
# 4 8.0029 -4.1448 -2.5140 55.2559 10.7560 -2.5507
# 5 -15.7736 -22.2329 -8.3935 10.7560 54.5755 0.3202
# 6 -9.1528 -20.3440 -4.2887 -2.5507 0.3202 61.5284
#
#
#
# Elastic Compliance Matrix: (Units=1/GPa)
#
#
# Indices 1 2 3 4 5 6 
#
# 1 0.023943 -0.003433 -0.004620 -0.004975 0.005781 0.001868
# 2 -0.003433 0.011951 -0.004144 0.000753 0.003072 0.003167
# 3 -0.004620 -0.004144 0.011224 0.001106 -0.001508 -0.001221
# 4 -0.004975 0.000753 0.001106 0.019896 -0.004884 0.000436
# 5 0.005781 0.003072 -0.001508 -0.004884 0.021968 0.001454
# 6 0.001868 0.003167 -0.001221 0.000436 0.001454 0.017503
#
#
# Mechanical properties :
#
#
# Convention : Reuss Voigt Hill
#
# Bulk Modulus (GPa) = 44.00472 61.27433 52.63952
# Shear Modulus (GPa) = 36.11347 46.41983 41.26665
#
# Velocity S-wave (km/s) = 3.52306 3.99426 3.76604
# Velocity P-wave (km/s) = 5.62790 6.50628 6.08297
#
# Compressibility (1/GPa) = 0.02272484
#
# Stress axis : x y z
#
# Youngs Moduli (GPa) = 41.76500 83.67844 89.09593
#
# Poissons Ratio (x) = 0.28724 0.41164
# Poissons Ratio (y) = 0.14337 0.36918
# Poissons Ratio (z) = 0.19296 0.34674
#
# Static dielectric constant tensor:
#      x y z
#    x 2.440080 -0.151240 0.246260 
#    y -0.151240 2.495760 -0.214360 
#    z 0.246260 -0.214360 2.553820 
# 
# From -- ./inp_files/14383.got.cif
#   From: 2010.05.17/outbox.cif.g08.bks.cpg/sg2_8_cif.got.tgz:14383.got - 2010.06.03 11:33:40.
