data_PCOD9104564
_publ_section_title
;
Structure prediction by ZEFSAII (Michael W. Deem and Ramdas Pophale) SiO2 
 PCOD9104564
Probable space group: P -1
;
_chemical_formula_sum "Si O2"
_cell_formula_units_Z 16
_cell_length_a 8.290930
_cell_length_b 7.832329
_cell_length_c 11.284249
_cell_angle_alpha 122.872910
_cell_angle_beta 86.357887
_cell_angle_gamma 96.437429
_cell_volume 611.551650
_symmetry_space_group_name_H-M "P -1"
_symmetry_group_IT_number 2
_symmetry_cell_setting 'triclinic'
loop_
_space_group_symop_operation_xyz
x,y,z
-x,-y,-z
loop_
_atom_site_type_symbol
_atom_site_label
_atom_site_fract_x
_atom_site_fract_y
_atom_site_fract_z
Si Si1 0.221900 0.127193 0.434541
Si Si2 0.917395 0.853888 0.049523
Si Si3 0.581444 0.624160 0.300625
Si Si4 0.099411 0.538964 0.819734
Si Si5 0.438203 0.887093 0.213463
Si Si6 0.893423 0.266627 0.556973
Si Si7 0.445898 0.224457 0.057083
Si Si8 0.764763 0.179324 0.298709
O O1 0.367560 0.275613 0.539140
O O2 0.066659 0.249303 0.478688
O O3 0.280377 0.007979 0.274184
O O4 0.173858 0.950155 0.466986
O O5 0.739318 0.782241 0.978329
O O6 0.033804 0.672410 0.978278
O O7 0.884444 0.994992 0.216244
O O8 0.000000 0.000000 0.000000
O O9 0.756687 0.605942 0.219623
O O10 0.473248 0.770567 0.288400
O O11 0.487532 0.400227 0.216400
O O12 0.183762 0.685647 0.767361
O O13 0.942641 0.419219 0.719156
O O14 0.589439 0.057069 0.255325
O O15 0.443526 0.728095 0.047022
O O16 0.780111 0.306625 0.467134
O O17 0.500000 0.000000 0.000000
#
# Coordination Sequence:
#
# PCOD9104564 Si02
#       8
#     2   2   2   2   2   2   2   2
#     4  10  23  40  62  91 126 163 203 254 303 368
#     4   9  20  38  60  87 118 159 196 246 308 356
#     4  11  22  41  61  91 123 164 202 250 303 367
#     4  10  22  39  62  88 125 160 206 255 303 356
#     4  11  23  40  64  90 125 163 203 250 309 364
#     4  10  21  39  61  90 123 158 209 251 303 360
#     4  11  24  42  64  92 126 158 206 259 302 366
#     4  10  20  39  61  89 121 159 204 255 304 358
#
# _framework density 26.162956999999999
#
# number of rings (size 3 to 8) (size 9 to 14) (size 15 to 20)
#    0.000    1.750    1.250    3.375    1.750    3.000 
#    0.000    8.125    0.000    0.000    0.000    0.000 
#    0.000    0.000    0.000    0.000    0.000    0.000 
#
# Total GULP energy -89493.480339 kJ/mol
# GULP energy per Si atom -5593.342521 kJ/mol
# Density = 2.610341 g / cm^3
# Si number density = 26.162957 Si / 1000 Ang^3
#
#
#
# Elastic Constant Matrix: (Units=GPa)
#
#
# Indices 1 2 3 4 5 6 
#
# 1 69.1700 -4.3529 20.0158 11.4048 -13.8036 1.7201
# 2 -4.3529 77.5399 -3.9856 18.7657 16.4784 10.4574
# 3 20.0158 -3.9856 89.5949 24.3883 0.3378 12.2758
# 4 11.4048 18.7657 24.3883 26.0187 1.6757 3.9502
# 5 -13.8036 16.4784 0.3378 1.6757 51.3206 10.4318
# 6 1.7201 10.4574 12.2758 3.9502 10.4318 25.1963
#
#
#
# Elastic Compliance Matrix: (Units=1/GPa)
#
#
# Indices 1 2 3 4 5 6 
#
# 1 0.017244 0.002053 -0.001394 -0.007719 0.004661 -0.002070
# 2 0.002053 0.020178 0.007080 -0.020760 -0.003849 -0.007116
# 3 -0.001394 0.007080 0.018554 -0.020571 -0.000370 -0.008505
# 4 -0.007719 -0.020760 -0.020571 0.074946 0.000842 0.007068
# 5 0.004661 -0.003849 -0.000370 0.000842 0.023672 -0.008473
# 6 -0.002070 -0.007116 -0.008505 0.007068 -0.008473 0.049326
#
#
# Mechanical properties :
#
#
# Convention : Reuss Voigt Hill
#
# Bulk Modulus (GPa) = 13.99528 28.85105 21.42316
# Shear Modulus (GPa) = 23.55602 35.48228 29.51915
#
# Velocity S-wave (km/s) = 3.00385 3.68666 3.36263
# Velocity P-wave (km/s) = 4.17034 5.40124 4.82520
#
# Compressibility (1/GPa) = 0.07145269
#
# Stress axis : x y z
#
# Youngs Moduli (GPa) = 57.99144 49.55980 53.89684
#
# Poissons Ratio (x) = -0.10175 0.07513
# Poissons Ratio (y) = -0.11906 -0.38156
# Poissons Ratio (z) = 0.08084 -0.35086
#
# Static dielectric constant tensor:
#      x y z
#    x 2.056080 -0.030090 0.006160 
#    y -0.030090 2.090140 -0.055600 
#    z 0.006160 -0.055600 2.146730 
# 
# From -- ./inp_files/383508.got.cif
#   From: 2010.05.17/outbox.cif.g08.bks.cpg/sg2_192_cif.got.tgz:383508.got - 2010.06.03 11:33:40.
