data_PCOD9104725
_publ_section_title
;
Structure prediction by ZEFSAII (Michael W. Deem and Ramdas Pophale) SiO2 
 PCOD9104725
Probable space group: P -1
;
_chemical_formula_sum "Si O2"
_cell_formula_units_Z 16
_cell_length_a 9.775128
_cell_length_b 12.815658
_cell_length_c 9.960041
_cell_angle_alpha 90.111722
_cell_angle_beta 41.144185
_cell_angle_gamma 110.262194
_cell_volume 699.163051
_symmetry_space_group_name_H-M "P -1"
_symmetry_group_IT_number 2
_symmetry_cell_setting 'triclinic'
loop_
_space_group_symop_operation_xyz
x,y,z
-x,-y,-z
loop_
_atom_site_type_symbol
_atom_site_label
_atom_site_fract_x
_atom_site_fract_y
_atom_site_fract_z
Si Si1 0.325066 0.750001 0.147481
Si Si2 0.125270 0.793379 0.027849
Si Si3 0.722525 0.993017 0.276578
Si Si4 0.908101 0.656655 0.670492
Si Si5 0.188408 0.166691 0.109659
Si Si6 0.602338 0.446282 0.067496
Si Si7 0.743958 0.380869 0.218088
Si Si8 0.619670 0.723080 0.301296
O O1 0.207998 0.790817 0.117683
O O2 0.360180 0.646489 0.052183
O O3 0.143333 0.693688 0.408402
O O4 0.601219 0.852561 0.987296
O O5 0.834515 0.717589 0.218147
O O6 0.208717 0.926914 0.909403
O O7 0.238711 0.733964 0.846204
O O8 0.955048 0.060371 0.204298
O O9 0.500000 0.000000 0.500000
O O10 0.654208 0.855922 0.303215
O O11 0.911689 0.779711 0.705477
O O12 0.843573 0.577505 0.854887
O O13 0.655785 0.569195 0.777048
O O14 0.335633 0.273962 0.889509
O O15 0.575897 0.398603 0.237227
O O16 0.638172 0.370001 0.443481
O O17 0.000000 0.500000 0.000000
#
# Coordination Sequence:
#
# PCOD9104725 Si02
#       8
#     2   2   2   2   2   2   2   2
#     4  10  21  39  63  89 133 164 209 264 316 367
#     4  10  22  43  65  96 126 168 210 258 326 375
#     4  11  23  45  72  88 127 172 208 268 326 375
#     4  10  20  39  62  86 131 171 210 257 311 373
#     4  10  24  38  65  99 120 165 223 254 312 389
#     4   9  21  37  57  91 126 171 214 249 309 385
#     4  11  24  38  63  97 130 162 213 262 314 379
#     4  11  24  44  66  91 131 166 211 265 323 377
#
# _framework density 22.884502999999999
#
# number of rings (size 3 to 8) (size 9 to 14) (size 15 to 20)
#    0.000    1.750    1.250    2.625    7.000    0.500 
#    4.500    3.125    0.000    0.000    0.000    0.000 
#    0.000    0.000    0.000    0.000    0.000    0.000 
#
# Total GULP energy -89390.882283 kJ/mol
# GULP energy per Si atom -5586.930143 kJ/mol
# Density = 2.283242 g / cm^3
# Si number density = 22.884503 Si / 1000 Ang^3
#
#
#
# Elastic Constant Matrix: (Units=GPa)
#
#
# Indices 1 2 3 4 5 6 
#
# 1 105.1691 1.6060 3.4656 0.9850 -16.9046 -8.3298
# 2 1.6060 21.2775 -5.7359 -0.2265 3.8562 1.2087
# 3 3.4656 -5.7359 96.8550 14.1062 -15.7559 4.8367
# 4 0.9850 -0.2265 14.1062 26.3267 1.6283 1.4155
# 5 -16.9046 3.8562 -15.7559 1.6283 24.8369 3.9785
# 6 -8.3298 1.2087 4.8367 1.4155 3.9785 20.7061
#
#
#
# Elastic Compliance Matrix: (Units=1/GPa)
#
#
# Indices 1 2 3 4 5 6 
#
# 1 0.011055 -0.002245 0.000860 -0.001550 0.008050 0.002937
# 2 -0.002245 0.049201 0.001892 0.000108 -0.007528 -0.002778
# 3 0.000860 0.001892 0.013333 -0.007544 0.009929 -0.004271
# 4 -0.001550 0.000108 -0.007544 0.042626 -0.008632 -0.000123
# 5 0.008050 -0.007528 0.009929 -0.008632 0.055160 -0.008650
# 6 0.002937 -0.002778 -0.004271 -0.000123 -0.008650 0.052307
#
#
# Mechanical properties :
#
#
# Convention : Reuss Voigt Hill
#
# Bulk Modulus (GPa) = 13.40396 24.66365 19.03381
# Shear Modulus (GPa) = 20.19908 29.30500 24.75204
#
# Velocity S-wave (km/s) = 2.97417 3.58237 3.29235
# Velocity P-wave (km/s) = 4.20288 5.28319 4.77369
#
# Compressibility (1/GPa) = 0.07460482
#
# Stress axis : x y z
#
# Youngs Moduli (GPa) = 90.45293 20.32478 75.00072
#
# Poissons Ratio (x) = 0.04563 -0.06450
# Poissons Ratio (y) = 0.20305 -0.14193
# Poissons Ratio (z) = -0.07779 -0.03846
#
# Static dielectric constant tensor:
#      x y z
#    x 1.953560 0.014650 0.013960 
#    y 0.014650 1.873980 -0.018220 
#    z 0.013960 -0.018220 1.840140 
# 
# From -- ./inp_files/206713.got.cif
#   From: 2010.05.17/outbox.cif.g08.bks.cpg/sg2_104_cif.got.tgz:206713.got - 2010.06.03 11:33:40.
