data_PCOD9104880
_publ_section_title
;
Structure prediction by ZEFSAII (Michael W. Deem and Ramdas Pophale) SiO2 
 PCOD9104880
Probable space group: P -1
;
_chemical_formula_sum "Si O2"
_cell_formula_units_Z 13
_cell_length_a 12.199133
_cell_length_b 10.090260
_cell_length_c 19.467225
_cell_angle_alpha 150.535458
_cell_angle_beta 36.888002
_cell_angle_gamma 123.688523
_cell_volume 620.725497
_symmetry_space_group_name_H-M "P -1"
_symmetry_group_IT_number 2
_symmetry_cell_setting 'triclinic'
loop_
_space_group_symop_operation_xyz
x,y,z
-x,-y,-z
loop_
_atom_site_type_symbol
_atom_site_label
_atom_site_fract_x
_atom_site_fract_y
_atom_site_fract_z
Si Si1 0.488861 0.558405 0.673436
Si Si2 0.044028 0.339924 0.831846
Si Si3 0.123306 0.650816 0.807101
Si Si4 0.715923 0.776017 0.850062
Si Si5 0.139111 0.374980 0.533471
Si Si6 0.281788 0.902399 0.139701
Si Si7 0.500000 0.000000 0.500000
O O1 0.350254 0.583878 0.688175
O O2 0.718289 0.482453 0.501720
O O3 0.492969 0.301289 0.604581
O O4 0.376880 0.888412 0.916195
O O5 0.023075 0.582041 0.893101
O O6 0.281510 0.074344 0.599026
O O7 0.869954 0.236751 0.860826
O O8 0.000000 0.500000 0.000000
O O9 0.130538 0.424833 0.641250
O O10 0.000000 0.000000 0.000000
O O11 0.913231 0.547120 0.690648
O O12 0.770195 0.826527 0.768059
O O13 0.528279 0.693881 0.909682
O O14 0.245853 0.035591 0.294775
#
# Coordination Sequence:
#
# PCOD9104880 Si02
#       7
#     2   2   2   2   2   2   1
#     4  10  21  38  63  95 125 165 214 257 310 364
#     4  11  25  44  65  94 125 163 209 264 315 367
#     4  11  23  41  65  92 129 166 208 258 313 378
#     4  10  20  39  62  93 128 163 213 254 308 375
#     4  11  22  38  64  89 126 171 206 255 316 372
#     4  10  22  38  62  91 126 165 210 257 308 372
#     4  10  22  36  64  96 122 158 210 264 302 366
#
# _framework density 20.943237
#
# number of rings (size 3 to 8) (size 9 to 14) (size 15 to 20)
#    0.000    1.538    1.538    3.692    2.154    4.308 
#    0.000    0.769    0.000    0.000    0.000    0.000 
#    0.000    0.000    0.000    0.000    0.000    0.000 
#
# Total GULP energy -72375.045159 kJ/mol
# GULP energy per Si atom -5567.311166 kJ/mol
# Density = 2.089557 g / cm^3
# Si number density = 20.943237 Si / 1000 Ang^3
#
#
#
# Elastic Constant Matrix: (Units=GPa)
#
#
# Indices 1 2 3 4 5 6 
#
# 1 151.8997 49.7706 36.0936 -15.4256 -7.7334 12.0340
# 2 49.7706 102.8588 44.0410 -10.0636 -9.9475 14.0236
# 3 36.0936 44.0410 48.2027 -2.9947 -14.6656 -0.4218
# 4 -15.4256 -10.0636 -2.9947 24.7338 -7.3658 -9.1732
# 5 -7.7334 -9.9475 -14.6656 -7.3658 55.5891 -18.3242
# 6 12.0340 14.0236 -0.4218 -9.1732 -18.3242 47.8372
#
#
#
# Elastic Compliance Matrix: (Units=1/GPa)
#
#
# Indices 1 2 3 4 5 6 
#
# 1 0.008738 -0.001631 -0.004916 0.003681 -0.000268 -0.001160
# 2 -0.001631 0.018097 -0.016223 0.001251 -0.003072 -0.005975
# 3 -0.004916 -0.016223 0.043269 0.003535 0.012156 0.011708
# 4 0.003681 0.001251 0.003535 0.052780 0.013257 0.013938
# 5 -0.000268 -0.003072 0.012156 0.013257 0.026963 0.013945
# 6 -0.001160 -0.005975 0.011708 0.013938 0.013945 0.031065
#
#
# Mechanical properties :
#
#
# Convention : Reuss Voigt Hill
#
# Bulk Modulus (GPa) = 40.70720 62.53017 51.61868
# Shear Modulus (GPa) = 21.30927 37.16909 29.23918
#
# Velocity S-wave (km/s) = 3.19325 4.21735 3.74052
# Velocity P-wave (km/s) = 5.75108 7.32370 6.58451
#
# Compressibility (1/GPa) = 0.02456568
#
# Stress axis : x y z
#
# Youngs Moduli (GPa) = 114.44636 55.25714 23.11105
#
# Poissons Ratio (x) = 0.09012 0.11361
# Poissons Ratio (y) = 0.18664 0.37493
# Poissons Ratio (z) = 0.56258 0.89643
#
# Static dielectric constant tensor:
#      x y z
#    x 1.771000 0.010700 0.013910 
#    y 0.010700 1.724170 -0.048640 
#    z 0.013910 -0.048640 1.837940 
# 
# From -- ./inp_files/565564.got.cif
#   From: 2010.05.17/outbox.cif.g08.bks.cpg/sg2_283_cif.got.tgz:565564.got - 2010.06.03 11:33:40.
