data_PCOD9104520
_publ_section_title
;
Structure prediction by ZEFSAII (Michael W. Deem and Ramdas Pophale) SiO2 
 PCOD9104520
Probable space group: P -1
;
_chemical_formula_sum "Si O2"
_cell_formula_units_Z 16
_cell_length_a 20.184375
_cell_length_b 22.071067
_cell_length_c 7.349120
_cell_angle_alpha 30.073078
_cell_angle_beta 30.719422
_cell_angle_gamma 25.509273
_cell_volume 657.936325
_symmetry_space_group_name_H-M "P -1"
_symmetry_group_IT_number 2
_symmetry_cell_setting 'triclinic'
loop_
_space_group_symop_operation_xyz
x,y,z
-x,-y,-z
loop_
_atom_site_type_symbol
_atom_site_label
_atom_site_fract_x
_atom_site_fract_y
_atom_site_fract_z
Si Si1 0.258663 0.668549 0.586016
Si Si2 0.474543 0.156286 0.624258
Si Si3 0.213143 0.503037 0.409565
Si Si4 0.817794 0.059778 0.735300
Si Si5 0.616272 0.178951 0.560448
Si Si6 0.082991 0.241954 0.759441
Si Si7 0.336926 0.506796 0.475399
Si Si8 0.357128 0.243208 0.268455
O O1 0.288758 0.778000 0.329796
O O2 0.329796 0.615458 0.356376
O O3 0.310433 0.533113 0.957400
O O4 0.063036 0.748547 0.820628
O O5 0.309997 0.320562 0.666606
O O6 0.616574 0.138926 0.455948
O O7 0.445078 0.188269 0.396380
O O8 0.500000 0.000000 0.000000
O O9 0.222457 0.568095 0.409470
O O10 0.026310 0.608077 0.501660
O O11 0.774980 0.090209 0.543283
O O12 0.000000 0.000000 0.500000
O O13 0.814907 0.921576 0.160671
O O14 0.517743 0.360766 0.359298
O O15 0.495769 0.151934 0.020711
O O16 0.208013 0.238014 0.604491
O O17 0.285153 0.418685 0.947170
#
# Coordination Sequence:
#
# PCOD9104520 Si02
#       8
#     2   2   2   2   2   2   2   2
#     4   9  19  38  61  83 121 154 202 239 286 345
#     4  11  21  36  59  89 123 155 197 238 298 359
#     4   9  19  38  54  89 119 156 201 236 287 354
#     4  10  20  40  67  85 114 164 195 249 296 345
#     4   9  22  40  60  87 120 151 202 241 300 349
#     4   9  20  36  63  86 123 160 196 236 304 343
#     4   9  19  36  60  89 117 158 198 237 301 346
#     4  10  20  39  61  87 123 156 190 246 296 355
#
# _framework density 24.318463999999999
#
# number of rings (size 3 to 8) (size 9 to 14) (size 15 to 20)
#    1.500    1.000    1.250    0.750    0.000    5.000 
#    2.250    4.375    5.500    0.000    0.000    0.000 
#    0.000    0.000    0.000    0.000    0.000    0.000 
#
# Total GULP energy -89251.525151 kJ/mol
# GULP energy per Si atom -5578.220322 kJ/mol
# Density = 2.426311 g / cm^3
# Si number density = 24.318464 Si / 1000 Ang^3
#
#
#
# Elastic Constant Matrix: (Units=GPa)
#
#
# Indices 1 2 3 4 5 6 
#
# 1 220.2807 57.3384 62.4631 -7.1653 3.2613 -17.5527
# 2 57.3384 74.4224 33.7430 -16.8322 -9.8630 -23.6825
# 3 62.4631 33.7430 83.8040 -13.6303 -9.6639 5.6731
# 4 -7.1653 -16.8322 -13.6303 37.1111 6.3060 -9.2308
# 5 3.2613 -9.8630 -9.6639 6.3060 40.1352 0.1063
# 6 -17.5527 -23.6825 5.6731 -9.2308 0.1063 48.2562
#
#
#
# Elastic Compliance Matrix: (Units=1/GPa)
#
#
# Indices 1 2 3 4 5 6 
#
# 1 0.006692 -0.003594 -0.004057 -0.001224 -0.002214 0.000918
# 2 -0.003594 0.027595 -0.007056 0.012501 0.003369 0.015449
# 3 -0.004057 -0.007056 0.018725 0.000632 0.003024 -0.007025
# 4 -0.001224 0.012501 0.000632 0.036135 -0.002387 0.012533
# 5 -0.002214 0.003369 0.003024 -0.002387 0.027027 -0.000023
# 6 0.000918 0.015449 -0.007025 0.012533 -0.000023 0.031862
#
#
# Mechanical properties :
#
#
# Convention : Reuss Voigt Hill
#
# Bulk Modulus (GPa) = 42.37844 76.17736 59.27790
# Shear Modulus (GPa) = 26.98109 40.09801 33.53955
#
# Velocity S-wave (km/s) = 3.33451 4.06503 3.71776
# Velocity P-wave (km/s) = 5.68239 7.30928 6.54657
#
# Compressibility (1/GPa) = 0.02359690
#
# Stress axis : x y z
#
# Youngs Moduli (GPa) = 149.43747 36.23826 53.40582
#
# Poissons Ratio (x) = 0.13025 0.21666
# Poissons Ratio (y) = 0.53714 0.37683
# Poissons Ratio (z) = 0.60626 0.25570
#
# Static dielectric constant tensor:
#      x y z
#    x 1.890210 0.044540 -0.007670 
#    y 0.044540 2.014320 -0.015040 
#    z -0.007670 -0.015040 2.047980 
# 
# From -- ./inp_files/338575.got.cif
#   From: 2010.05.17/outbox.cif.g08.bks.cpg/sg2_170_cif.got.tgz:338575.got - 2010.06.03 11:33:40.
