data_PCOD9104218
_publ_section_title
;
Structure prediction by ZEFSAII (Michael W. Deem and Ramdas Pophale) SiO2 
 PCOD9104218
Probable space group: P -1
;
_chemical_formula_sum "Si O2"
_cell_formula_units_Z 14
_cell_length_a 16.762615
_cell_length_b 9.101767
_cell_length_c 8.818024
_cell_angle_alpha 61.962551
_cell_angle_beta 129.543041
_cell_angle_gamma 136.044036
_cell_volume 719.940532
_symmetry_space_group_name_H-M "P -1"
_symmetry_group_IT_number 2
_symmetry_cell_setting 'triclinic'
loop_
_space_group_symop_operation_xyz
x,y,z
-x,-y,-z
loop_
_atom_site_type_symbol
_atom_site_label
_atom_site_fract_x
_atom_site_fract_y
_atom_site_fract_z
Si Si1 0.325023 0.479885 0.305696
Si Si2 0.363555 0.193612 0.939172
Si Si3 0.974152 0.814159 0.954134
Si Si4 0.895708 0.886556 0.293711
Si Si5 0.355995 0.832050 0.979076
Si Si6 0.910916 0.553484 0.291655
Si Si7 0.537387 0.578458 0.755023
O O1 0.171023 0.320153 0.228912
O O2 0.418085 0.524902 0.534647
O O3 0.354227 0.380966 0.250589
O O4 0.362650 0.697493 0.180925
O O5 0.250715 0.220667 0.775316
O O6 0.483994 0.372854 0.892148
O O7 0.315384 0.968642 0.933095
O O8 0.409382 0.238740 0.147016
O O9 0.968259 0.657470 0.143110
O O10 0.074484 0.936957 0.878345
O O11 0.000000 0.000000 0.000000
O O12 0.908270 0.720833 0.305769
O O13 0.000000 0.000000 0.500000
O O14 0.239355 0.656691 0.811440
O O15 0.500000 0.000000 0.000000
O O16 0.000000 0.500000 0.500000
#
# Coordination Sequence:
#
# PCOD9104218 Si02
#       7
#     2   2   2   2   2   2   2
#     4  10  20  39  59  86 115 160 198 245 292 366
#     4  11  22  37  60  87 120 154 198 249 300 347
#     4   9  19  37  61  82 119 153 201 236 296 355
#     4  11  22  39  63  91 119 155 203 250 300 355
#     4  11  22  40  60  87 123 159 199 247 307 358
#     4  10  22  41  63  89 120 163 203 245 302 367
#     4  10  21  36  60  84 118 154 203 240 296 350
#
# _framework density 19.44605
#
# number of rings (size 3 to 8) (size 9 to 14) (size 15 to 20)
#    0.000    1.714    1.429    4.286    2.000    1.714 
#    2.571    7.857    0.000    0.000    0.000    0.000 
#    0.000    0.000    0.000    0.000    0.000    0.000 
#
# Total GULP energy -78138.544253 kJ/mol
# GULP energy per Si atom -5581.324589 kJ/mol
# Density = 1.940179 g / cm^3
# Si number density = 19.446050 Si / 1000 Ang^3
#
#
#
# Elastic Constant Matrix: (Units=GPa)
#
#
# Indices 1 2 3 4 5 6 
#
# 1 63.2314 26.3932 27.6197 2.3818 -1.5503 -6.6912
# 2 26.3932 99.0920 31.4454 10.9641 -3.3309 -5.9535
# 3 27.6197 31.4454 97.9213 9.6445 -2.3966 -12.7879
# 4 2.3818 10.9641 9.6445 27.4132 -8.0465 -4.1958
# 5 -1.5503 -3.3309 -2.3966 -8.0465 24.1335 0.5894
# 6 -6.6912 -5.9535 -12.7879 -4.1958 0.5894 35.5992
#
#
#
# Elastic Compliance Matrix: (Units=1/GPa)
#
#
# Indices 1 2 3 4 5 6 
#
# 1 0.019397 -0.003924 -0.004151 0.001861 0.000871 0.001704
# 2 -0.003924 0.012338 -0.002490 -0.003731 -0.000040 -0.000008
# 3 -0.004151 -0.002490 0.012854 -0.002792 -0.000340 0.003097
# 4 0.001861 -0.003731 -0.002792 0.043364 0.013698 0.003607
# 5 0.000871 -0.000040 -0.000340 0.013698 0.045998 0.000888
# 6 0.001704 -0.000008 0.003097 0.003607 0.000888 0.029933
#
#
# Mechanical properties :
#
#
# Convention : Reuss Voigt Hill
#
# Bulk Modulus (GPa) = 42.62484 47.90683 45.26583
# Shear Modulus (GPa) = 25.92935 29.08160 27.50547
#
# Velocity S-wave (km/s) = 3.65554 3.87137 3.76500
# Velocity P-wave (km/s) = 6.30749 6.68375 6.49834
#
# Compressibility (1/GPa) = 0.02346050
#
# Stress axis : x y z
#
# Youngs Moduli (GPa) = 51.55381 81.05194 77.79856
#
# Poissons Ratio (x) = 0.31801 0.32292
# Poissons Ratio (y) = 0.20227 0.19371
# Poissons Ratio (z) = 0.21398 0.20181
#
# Static dielectric constant tensor:
#      x y z
#    x 1.693480 0.008090 -0.009140 
#    y 0.008090 1.693070 -0.003000 
#    z -0.009140 -0.003000 1.667990 
# 
# From -- ./inp_files/174731.got.cif
#   From: 2010.05.17/outbox.cif.g08.bks.cpg/sg2_88_cif.got.tgz:174731.got - 2010.06.03 11:33:40.
