data_PCOD9104846
_publ_section_title
;
Structure prediction by ZEFSAII (Michael W. Deem and Ramdas Pophale) SiO2 
 PCOD9104846
Probable space group: P -1
;
_chemical_formula_sum "Si O2"
_cell_formula_units_Z 16
_cell_length_a 12.270825
_cell_length_b 11.108997
_cell_length_c 19.471806
_cell_angle_alpha 147.986350
_cell_angle_beta 34.022821
_cell_angle_gamma 148.418160
_cell_volume 680.580103
_symmetry_space_group_name_H-M "P -1"
_symmetry_group_IT_number 2
_symmetry_cell_setting 'triclinic'
loop_
_space_group_symop_operation_xyz
x,y,z
-x,-y,-z
loop_
_atom_site_type_symbol
_atom_site_label
_atom_site_fract_x
_atom_site_fract_y
_atom_site_fract_z
Si Si1 0.180789 0.522040 0.358205
Si Si2 0.495783 0.545509 0.748907
Si Si3 0.003297 0.998353 0.880597
Si Si4 0.493702 0.182167 0.321883
Si Si5 0.345977 0.105824 0.504238
Si Si6 0.857534 0.037011 0.714295
Si Si7 0.131512 0.596038 0.887151
Si Si8 0.649168 0.790247 0.087487
O O1 0.386022 0.483659 0.259454
O O2 0.036131 0.266672 0.262346
O O3 0.294795 0.811621 0.405108
O O4 0.000000 0.500000 0.500000
O O5 0.687284 0.820051 0.750612
O O6 0.266011 0.556612 0.861075
O O7 0.455966 0.295838 0.603475
O O8 0.842424 0.915531 0.990162
O O9 0.246278 0.165191 0.869885
O O10 0.931184 0.176919 0.960747
O O11 0.261459 0.064732 0.345678
O O12 0.695017 0.330138 0.233220
O O13 0.485450 0.285234 0.451866
O O14 0.509704 0.933918 0.218913
O O15 0.096039 0.055985 0.600834
O O16 0.912663 0.326357 0.847719
O O17 0.500000 0.500000 0.000000
#
# Coordination Sequence:
#
# PCOD9104846 Si02
#       8
#     2   2   2   2   2   2   2   2
#     4  12  25  44  65  91 131 175 218 260 312 378
#     4  10  23  42  64  88 129 170 221 258 310 379
#     4  10  23  41  65  94 128 166 210 266 318 377
#     4  10  21  34  62  95 125 160 209 258 327 381
#     4  11  23  39  63  92 129 173 211 265 317 374
#     4  10  20  39  62  91 132 164 207 265 317 384
#     4   9  21  41  64  93 126 160 211 267 321 378
#     4  10  20  39  62  95 127 163 209 261 326 379
#
# _framework density 23.509356
#
# number of rings (size 3 to 8) (size 9 to 14) (size 15 to 20)
#    0.000    1.750    1.250    2.250    1.750    8.000 
#    2.250    0.625    0.000    0.000    0.000    0.000 
#    0.000    0.000    0.000    0.000    0.000    0.000 
#
# Total GULP energy -89329.673375 kJ/mol
# GULP energy per Si atom -5583.104586 kJ/mol
# Density = 2.345585 g / cm^3
# Si number density = 23.509356 Si / 1000 Ang^3
#
#
#
# Elastic Constant Matrix: (Units=GPa)
#
#
# Indices 1 2 3 4 5 6 
#
# 1 89.7771 29.1332 13.1798 13.9471 -0.1079 10.4456
# 2 29.1332 101.3441 -7.0337 31.5319 4.4247 -15.7923
# 3 13.1798 -7.0337 21.0844 49.7310 -3.9053 -16.8416
# 4 13.9471 31.5319 49.7310 22.2955 -2.4754 21.4879
# 5 -0.1079 4.4247 -3.9053 -2.4754 30.1815 4.7068
# 6 10.4456 -15.7923 -16.8416 21.4879 4.7068 30.7238
#
#
#
# Elastic Compliance Matrix: (Units=1/GPa)
#
#
# Indices 1 2 3 4 5 6 
#
# 1 0.012747 -0.002445 0.000912 -0.004708 0.000426 -0.001863
# 2 -0.002445 0.008754 -0.006445 0.004191 -0.001645 -0.000881
# 3 0.000912 -0.006445 0.003142 0.013823 0.004397 -0.012242
# 4 -0.004708 0.004191 0.013823 -0.000162 -0.000656 0.011545
# 5 0.000426 -0.001645 0.004397 -0.000656 0.034420 -0.003394
# 6 -0.001863 -0.000881 -0.012242 0.011545 -0.003394 0.018463
#
#
# Mechanical properties :
#
#
# Convention : Reuss Voigt Hill
#
# Bulk Modulus (GPa) = 115.10739 31.41824 73.26282
# Shear Modulus (GPa) = 51.96735 28.43524 40.20130
#
# Velocity S-wave (km/s) = 4.70669 3.48160 4.13972
# Velocity P-wave (km/s) = 8.86600 5.43647 7.35395
#
# Compressibility (1/GPa) = 0.00868754
#
# Stress axis : x y z
#
# Youngs Moduli (GPa) = 78.45059 114.23905 318.30940
#
# Poissons Ratio (x) = 0.27932 -0.29039
# Poissons Ratio (y) = 0.19181 2.05136
# Poissons Ratio (z) = -0.07157 0.73622
#
# Static dielectric constant tensor:
#      x y z
#    x 1.909890 0.027290 0.059720 
#    y 0.027290 1.904120 0.040880 
#    z 0.059720 0.040880 2.102960 
# 
# From -- ./inp_files/365299.got.cif
#   From: 2010.05.17/outbox.cif.g08.bks.cpg/sg2_183_cif.got.tgz:365299.got - 2010.06.03 11:33:40.
