data_PCOD9104842
_publ_section_title
;
Structure prediction by ZEFSAII (Michael W. Deem and Ramdas Pophale) SiO2 
 PCOD9104842
Probable space group: P -1
;
_chemical_formula_sum "Si O2"
_cell_formula_units_Z 16
_cell_length_a 11.214349
_cell_length_b 21.084504
_cell_length_c 21.309152
_cell_angle_alpha 161.632399
_cell_angle_beta 26.139353
_cell_angle_gamma 149.474452
_cell_volume 697.862005
_symmetry_space_group_name_H-M "P -1"
_symmetry_group_IT_number 2
_symmetry_cell_setting 'triclinic'
loop_
_space_group_symop_operation_xyz
x,y,z
-x,-y,-z
loop_
_atom_site_type_symbol
_atom_site_label
_atom_site_fract_x
_atom_site_fract_y
_atom_site_fract_z
Si Si1 0.402496 0.405691 0.392985
Si Si2 0.065309 0.309509 0.157977
Si Si3 0.979434 0.976224 0.776870
Si Si4 0.685810 0.426674 0.155008
Si Si5 0.019928 0.099771 0.731769
Si Si6 0.385147 0.697613 0.376939
Si Si7 0.134879 0.160630 0.539946
Si Si8 0.278190 0.713465 0.585059
O O1 0.500000 0.500000 0.500000
O O2 0.292431 0.171973 0.226251
O O3 0.638852 0.450131 0.273549
O O4 0.156286 0.532732 0.606551
O O5 0.339216 0.455834 0.163159
O O6 0.972766 0.251143 0.217913
O O7 0.031832 0.133541 0.957066
O O8 0.222444 0.824853 0.523268
O O9 0.975666 0.082449 0.810668
O O10 0.898022 0.609398 0.207120
O O11 0.397422 0.487592 0.320817
O O12 0.796969 0.209808 0.899168
O O13 0.304841 0.219494 0.695013
O O14 0.993509 0.881065 0.506654
O O15 0.260089 0.748327 0.552299
O O16 0.461693 0.158014 0.388253
O O17 0.000000 0.000000 0.500000
#
# Coordination Sequence:
#
# PCOD9104842 Si02
#       8
#     2   2   2   2   2   2   2   2
#     4  10  20  39  62  91 129 161 208 267 313 370
#     4  10  23  42  63  92 126 170 216 258 315 376
#     4  11  26  39  64  96 126 177 214 249 320 380
#     4   9  22  36  62  97 121 158 202 266 323 363
#     4  12  23  41  65  94 133 165 212 261 317 382
#     4  11  24  44  61  89 133 175 212 259 305 384
#     4  10  21  40  64  99 124 159 206 266 325 368
#     4   9  21  44  65  93 125 158 216 271 316 366
#
# _framework density 22.927168999999999
#
# number of rings (size 3 to 8) (size 9 to 14) (size 15 to 20)
#    0.750    1.000    1.250    2.250    1.750    6.000 
#    2.250    0.000    0.000    0.000    0.000    0.000 
#    0.000    0.000    0.000    0.000    0.000    0.000 
#
# Total GULP energy -89201.609839 kJ/mol
# GULP energy per Si atom -5575.100615 kJ/mol
# Density = 2.287499 g / cm^3
# Si number density = 22.927169 Si / 1000 Ang^3
#
#
#
# Elastic Constant Matrix: (Units=GPa)
#
#
# Indices 1 2 3 4 5 6 
#
# 1 81.8530 26.1537 17.9600 9.1907 30.1389 -9.3475
# 2 26.1537 114.3106 32.7870 24.0991 35.9773 6.6437
# 3 17.9600 32.7870 66.3330 16.2223 24.3053 -3.9723
# 4 9.1907 24.0991 16.2223 25.1047 7.7542 8.2125
# 5 30.1389 35.9773 24.3053 7.7542 36.2206 7.6191
# 6 -9.3475 6.6437 -3.9723 8.2125 7.6191 40.1630
#
#
#
# Elastic Compliance Matrix: (Units=1/GPa)
#
#
# Indices 1 2 3 4 5 6 
#
# 1 0.021724 0.002745 0.004857 -0.010042 -0.024387 0.011762
# 2 0.002745 0.015440 0.000945 -0.012649 -0.016361 0.003869
# 3 0.004857 0.000945 0.025600 -0.016295 -0.020944 0.010811
# 4 -0.010042 -0.012649 -0.016295 0.065794 0.021863 -0.019457
# 5 -0.024387 -0.016361 -0.020944 0.021863 0.078666 -0.024435
# 6 0.011762 0.003869 0.010811 -0.019457 -0.024435 0.036679
#
#
# Mechanical properties :
#
#
# Convention : Reuss Voigt Hill
#
# Bulk Modulus (GPa) = 12.52193 46.25532 29.38863
# Shear Modulus (GPa) = 19.72938 32.67074 26.20006
#
# Velocity S-wave (km/s) = 2.93665 3.77898 3.38413
# Velocity P-wave (km/s) = 4.11971 6.26575 5.30244
#
# Compressibility (1/GPa) = 0.07985986
#
# Stress axis : x y z
#
# Youngs Moduli (GPa) = 46.03101 64.76646 39.06218
#
# Poissons Ratio (x) = -0.17781 -0.18973
# Poissons Ratio (y) = -0.12638 -0.03691
# Poissons Ratio (z) = -0.22358 -0.06120
#
# Static dielectric constant tensor:
#      x y z
#    x 1.862070 0.001120 -0.020550 
#    y 0.001120 1.883810 0.021030 
#    z -0.020550 0.021030 1.919600 
# 
# From -- ./inp_files/596261.got.cif
#   From: 2010.05.17/outbox.cif.g08.bks.cpg/sg2_299_cif.got.tgz:596261.got - 2010.06.03 11:33:40.
