data_PCOD9104682
_publ_section_title
;
Structure prediction by ZEFSAII (Michael W. Deem and Ramdas Pophale) SiO2 
 PCOD9104682
Probable space group: P -1
;
_chemical_formula_sum "Si O2"
_cell_formula_units_Z 16
_cell_length_a 11.560573
_cell_length_b 12.194795
_cell_length_c 9.499452
_cell_angle_alpha 82.936220
_cell_angle_beta 51.817895
_cell_angle_gamma 117.628987
_cell_volume 754.241286
_symmetry_space_group_name_H-M "P -1"
_symmetry_group_IT_number 2
_symmetry_cell_setting 'triclinic'
loop_
_space_group_symop_operation_xyz
x,y,z
-x,-y,-z
loop_
_atom_site_type_symbol
_atom_site_label
_atom_site_fract_x
_atom_site_fract_y
_atom_site_fract_z
Si Si1 0.692683 0.520725 0.366973
Si Si2 0.898731 0.258938 0.352149
Si Si3 0.061917 0.855295 0.915718
Si Si4 0.804881 0.432917 0.065380
Si Si5 0.667252 0.342968 0.652401
Si Si6 0.803803 0.078786 0.713428
Si Si7 0.663503 0.223274 0.951428
Si Si8 0.812185 0.927445 0.965978
O O1 0.500000 0.500000 0.500000
O O2 0.892974 0.690737 0.142818
O O3 0.733141 0.484620 0.492911
O O4 0.654334 0.404031 0.299178
O O5 0.750577 0.278966 0.515539
O O6 0.921994 0.184682 0.472950
O O7 0.110290 0.425903 0.121455
O O8 0.821754 0.156981 0.285852
O O9 0.939789 0.887337 0.919073
O O10 0.183379 0.982252 0.924129
O O11 0.724416 0.295098 0.048148
O O12 0.000000 0.500000 0.000000
O O13 0.728006 0.349482 0.766846
O O14 0.423482 0.222410 0.855253
O O15 0.766196 0.163484 0.831905
O O16 0.895345 0.029489 0.746887
O O17 0.578611 0.923815 0.855832
#
# Coordination Sequence:
#
# PCOD9104682 Si02
#       8
#     2   2   2   2   2   2   2   2
#     4  11  22  40  61  84 120 158 196 240 298 354
#     4  10  22  38  56  94 115 151 196 244 295 345
#     4  10  23  37  57  88 121 148 200 248 287 343
#     4  11  23  39  61  91 121 149 196 254 290 344
#     4  10  20  39  62  83 116 158 192 238 295 354
#     4   9  20  38  62  84 120 161 191 237 295 353
#     4   9  21  39  59  90 121 152 199 240 293 352
#     4  10  21  38  59  83 116 163 193 241 290 344
#
# _framework density 21.213370000000001
#
# number of rings (size 3 to 8) (size 9 to 14) (size 15 to 20)
#    0.000    2.000    2.500    0.750    3.500    5.000 
#    0.000    0.625    0.000    0.000    0.000    0.000 
#    0.000    0.000    0.000    0.000    0.000    0.000 
#
# Total GULP energy -89367.492007 kJ/mol
# GULP energy per Si atom -5585.468250 kJ/mol
# Density = 2.116509 g / cm^3
# Si number density = 21.213370 Si / 1000 Ang^3
#
#
#
# Elastic Constant Matrix: (Units=GPa)
#
#
# Indices 1 2 3 4 5 6 
#
# 1 79.5234 12.0863 -32.0961 2.1642 -2.2129 -4.0659
# 2 12.0863 84.2984 -23.3474 22.6932 -4.9337 15.8922
# 3 -32.0961 -23.3474 -95.0416 20.9830 -67.5750 14.1186
# 4 2.1642 22.6932 20.9830 31.5565 -5.3688 10.2230
# 5 -2.2129 -4.9337 -67.5750 -5.3688 -19.6948 4.5737
# 6 -4.0659 15.8922 14.1186 10.2230 4.5737 23.4608
#
#
#
# Elastic Compliance Matrix: (Units=1/GPa)
#
#
# Indices 1 2 3 4 5 6 
#
# 1 0.014968 -0.000357 0.005421 -0.009302 -0.016086 0.006763
# 2 -0.000357 0.018616 0.006720 -0.020653 -0.022810 -0.003270
# 3 0.005421 0.006720 0.016539 -0.027260 -0.049747 0.008011
# 4 -0.009302 -0.020653 -0.027260 0.084622 0.071565 -0.022043
# 5 -0.016086 -0.022810 -0.049747 0.071565 0.105787 -0.009207
# 6 0.006763 -0.003270 0.008011 -0.022043 -0.009207 0.052590
#
#
# Mechanical properties :
#
#
# Convention : Reuss Voigt Hill
#
# Bulk Modulus (GPa) = 13.57015 -1.99269 5.78873
# Shear Modulus (GPa) = 16.99999 14.54033 15.77016
#
# Velocity S-wave (km/s) = 2.83394 2.62092 2.72951
# Velocity P-wave (km/s) = 4.13753 2.86663 3.55926
#
# Compressibility (1/GPa) = 0.07369117
#
# Stress axis : x y z
#
# Youngs Moduli (GPa) = 66.80746 53.71648 60.46455
#
# Poissons Ratio (x) = 0.01918 -0.32777
# Poissons Ratio (y) = 0.02385 -0.40632
# Poissons Ratio (z) = -0.36216 -0.36098
#
# Static dielectric constant tensor:
#      x y z
#    x 1.763590 -0.025680 0.041900 
#    y -0.025680 1.790500 -0.009080 
#    z 0.041900 -0.009080 1.779340 
# 
# From -- ./inp_files/262474.got.cif
#   From: 2010.05.17/outbox.cif.g08.bks.cpg/sg2_132_cif.got.tgz:262474.got - 2010.06.03 11:33:40.
