data_PCOD9104019
_publ_section_title
;
Structure prediction by ZEFSAII (Michael W. Deem and Ramdas Pophale) SiO2 
 PCOD9104019
Probable space group: P -1
;
_chemical_formula_sum "Si O2"
_cell_formula_units_Z 16
_cell_length_a 17.117455
_cell_length_b 9.879835
_cell_length_c 12.675561
_cell_angle_alpha 129.233290
_cell_angle_beta 137.830555
_cell_angle_gamma 85.335934
_cell_volume 743.421863
_symmetry_space_group_name_H-M "P -1"
_symmetry_group_IT_number 2
_symmetry_cell_setting 'triclinic'
loop_
_space_group_symop_operation_xyz
x,y,z
-x,-y,-z
loop_
_atom_site_type_symbol
_atom_site_label
_atom_site_fract_x
_atom_site_fract_y
_atom_site_fract_z
Si Si1 0.149354 0.553031 0.231905
Si Si2 0.997311 0.199160 0.111823
Si Si3 0.836436 0.381170 0.350945
Si Si4 0.276905 0.267843 0.842725
Si Si5 0.748323 0.202362 0.821208
Si Si6 0.649789 0.027908 0.188793
Si Si7 0.434554 0.791435 0.172135
Si Si8 0.100842 0.295220 0.860681
O O1 0.281788 0.831345 0.559302
O O2 0.079251 0.373310 0.175101
O O3 0.190206 0.446180 0.135198
O O4 0.000000 0.500000 0.000000
O O5 0.099305 0.374142 0.403519
O O6 0.812755 0.091798 0.877117
O O7 0.000000 0.000000 0.000000
O O8 0.779746 0.190685 0.297122
O O9 0.000000 0.500000 0.500000
O O10 0.665844 0.239326 0.042563
O O11 0.213774 0.292187 0.899559
O O12 0.388281 0.219872 0.956792
O O13 0.375643 0.525140 0.000298
O O14 0.094904 0.999053 0.474262
O O15 0.642393 0.181393 0.794957
O O16 0.639576 0.043881 0.527360
O O17 0.897342 0.513817 0.101879
O O18 0.500000 0.000000 0.000000
#
# Coordination Sequence:
#
# PCOD9104019 Si02
#       8
#     2   2   2   2   2   2   2   2
#     4  11  21  39  64  89 123 182 219 256 330 407
#     4  11  24  37  59  95 132 166 218 273 327 398
#     4  11  24  43  67  95 133 184 221 267 346 408
#     4  10  22  40  69 101 122 171 236 281 306 401
#     4  10  20  42  63  95 128 168 218 274 331 391
#     4  11  26  43  63  98 144 170 213 281 353 396
#     4  10  23  39  70  94 126 167 225 283 324 383
#     4  10  20  38  72  91 121 167 240 265 312 389
#
# _framework density 21.522103000000001
#
# number of rings (size 3 to 8) (size 9 to 14) (size 15 to 20)
#    0.000    1.500    3.750    0.750    7.000    2.000 
#    0.000    1.875    0.000    0.000    0.000    0.000 
#    0.000    0.000    0.000    0.000    0.000    0.000 
#
# Total GULP energy -89203.612541 kJ/mol
# GULP energy per Si atom -5575.225784 kJ/mol
# Density = 2.147312 g / cm^3
# Si number density = 21.522103 Si / 1000 Ang^3
#
#
#
# Elastic Constant Matrix: (Units=GPa)
#
#
# Indices 1 2 3 4 5 6 
#
# 1 67.8640 34.4985 24.4207 2.8543 -22.5603 -5.2509
# 2 34.4985 105.6911 49.7854 3.9927 -16.5032 -30.2462
# 3 24.4207 49.7854 134.8578 -15.0463 -26.6948 -6.1102
# 4 2.8543 3.9927 -15.0463 38.9471 3.3112 -8.9426
# 5 -22.5603 -16.5032 -26.6948 3.3112 38.3682 -2.3159
# 6 -5.2509 -30.2462 -6.1102 -8.9426 -2.3159 39.4998
#
#
#
# Elastic Compliance Matrix: (Units=1/GPa)
#
#
# Indices 1 2 3 4 5 6 
#
# 1 0.020864 -0.005541 -0.000068 -0.002150 0.009940 -0.001384
# 2 -0.005541 0.016954 -0.004464 -0.000552 0.001672 0.011528
# 3 -0.000068 -0.004464 0.010465 0.003942 0.004944 -0.000626
# 4 -0.002150 -0.000552 0.003942 0.028958 -0.000871 0.006406
# 5 0.009940 0.001672 0.004944 -0.000871 0.036462 0.005307
# 6 -0.001384 0.011528 -0.000626 0.006406 0.005307 0.035625
#
#
# Mechanical properties :
#
#
# Convention : Reuss Voigt Hill
#
# Bulk Modulus (GPa) = 35.53882 58.42467 46.98174
# Shear Modulus (GPa) = 27.95609 36.67690 32.31650
#
# Velocity S-wave (km/s) = 3.60800 4.13261 3.87919
# Velocity P-wave (km/s) = 5.82284 7.06941 6.47619
#
# Compressibility (1/GPa) = 0.02813825
#
# Stress axis : x y z
#
# Youngs Moduli (GPa) = 47.92914 58.98392 95.55385
#
# Poissons Ratio (x) = 0.32684 0.00646
# Poissons Ratio (y) = 0.26559 0.42652
# Poissons Ratio (z) = 0.00324 0.26328
#
# Static dielectric constant tensor:
#      x y z
#    x 2.109060 -0.218040 0.105540 
#    y -0.218040 2.022040 -0.032700 
#    z 0.105540 -0.032700 1.888640 
# 
# From -- ./inp_files/462482.got.cif
#   From: 2010.05.17/outbox.cif.g08.bks.cpg/sg2_232_cif.got.tgz:462482.got - 2010.06.03 11:33:40.
