data_PCOD9104121
_publ_section_title
;
Structure prediction by ZEFSAII (Michael W. Deem and Ramdas Pophale) SiO2 
 PCOD9104121
Probable space group: P -1
;
_chemical_formula_sum "Si O2"
_cell_formula_units_Z 16
_cell_length_a 14.213552
_cell_length_b 15.441726
_cell_length_c 14.254949
_cell_angle_alpha 27.072436
_cell_angle_beta 30.523903
_cell_angle_gamma 32.345024
_cell_volume 681.004512
_symmetry_space_group_name_H-M "P -1"
_symmetry_group_IT_number 2
_symmetry_cell_setting 'triclinic'
loop_
_space_group_symop_operation_xyz
x,y,z
-x,-y,-z
loop_
_atom_site_type_symbol
_atom_site_label
_atom_site_fract_x
_atom_site_fract_y
_atom_site_fract_z
Si Si1 0.531434 0.867393 0.694278
Si Si2 0.840719 0.190845 0.994065
Si Si3 0.424705 0.245124 0.945070
Si Si4 0.616928 0.770063 0.209942
Si Si5 0.329461 0.822041 0.644485
Si Si6 0.348276 0.536848 0.349403
Si Si7 0.074956 0.626597 0.958207
Si Si8 0.056065 0.471683 0.334892
O O1 0.354542 0.778179 0.929803
O O2 0.737109 0.697025 0.670023
O O3 0.500000 0.000000 0.500000
O O4 0.565473 0.008788 0.611780
O O5 0.791841 0.143839 0.188015
O O6 0.941360 0.360456 0.754651
O O7 0.000000 0.000000 0.000000
O O8 0.462330 0.289269 0.761885
O O9 0.576866 0.290563 0.841907
O O10 0.213506 0.418616 0.988297
O O11 0.480882 0.000508 0.129299
O O12 0.628671 0.618531 0.431920
O O13 0.847782 0.738230 0.016715
O O14 0.500263 0.606823 0.714967
O O15 0.194073 0.785648 0.712064
O O16 0.129796 0.601514 0.436015
O O17 0.058224 0.559495 0.143924
#
# Coordination Sequence:
#
# PCOD9104121 Si02
#       8
#     2   2   2   2   2   2   2   2
#     4  10  21  37  57  82 117 147 193 246 294 360
#     4  10  20  39  58  82 114 150 194 246 300 354
#     4  10  21  38  60  93 121 167 198 247 303 356
#     4  10  21  37  62  89 127 159 206 244 302 358
#     4   9  20  37  56  85 115 151 195 245 295 351
#     4  10  21  39  61  87 123 156 201 250 294 358
#     4   9  20  38  58  86 123 156 204 249 292 356
#     4  10  21  37  60  86 111 158 197 239 303 356
#
# _framework density 23.494703000000001
#
# number of rings (size 3 to 8) (size 9 to 14) (size 15 to 20)
#    0.000    2.250    0.000    1.875    3.500    0.000 
#    0.000   13.750    0.000    7.500    0.000    0.000 
#    0.000    0.000    0.000    0.000    0.000    0.000 
#
# Total GULP energy -89328.862367 kJ/mol
# GULP energy per Si atom -5583.053898 kJ/mol
# Density = 2.344123 g / cm^3
# Si number density = 23.494703 Si / 1000 Ang^3
#
#
#
# Elastic Constant Matrix: (Units=GPa)
#
#
# Indices 1 2 3 4 5 6 
#
# 1 74.3678 61.1198 13.1202 4.8886 -5.4704 9.1825
# 2 61.1198 136.9106 20.9436 0.2239 -20.3347 21.1141
# 3 13.1202 20.9436 67.6775 3.3661 -11.3699 9.1452
# 4 4.8886 0.2239 3.3661 33.0936 -2.8808 -6.6144
# 5 -5.4704 -20.3347 -11.3699 -2.8808 39.0932 -1.5505
# 6 9.1825 21.1141 9.1452 -6.6144 -1.5505 44.3517
#
#
#
# Elastic Compliance Matrix: (Units=1/GPa)
#
#
# Indices 1 2 3 4 5 6 
#
# 1 0.021902 -0.009949 -0.001460 -0.003278 -0.002780 -0.000083
# 2 -0.009949 0.013212 -0.000850 0.001178 0.005173 -0.003698
# 3 -0.001460 -0.000850 0.016438 -0.001670 0.003901 -0.002795
# 4 -0.003278 0.001178 -0.001670 0.032125 0.002247 0.005332
# 5 -0.002780 0.005173 0.003901 0.002247 0.029129 -0.001338
# 6 -0.000083 -0.003698 -0.002795 0.005332 -0.001338 0.025650
#
#
# Mechanical properties :
#
#
# Convention : Reuss Voigt Hill
#
# Bulk Modulus (GPa) = 36.98847 52.14700 44.56774
# Shear Modulus (GPa) = 29.07240 35.55919 32.31579
#
# Velocity S-wave (km/s) = 3.52149 3.89459 3.71273
# Velocity P-wave (km/s) = 5.68437 6.51669 6.11470
#
# Compressibility (1/GPa) = 0.02703545
#
# Stress axis : x y z
#
# Youngs Moduli (GPa) = 45.65757 75.68762 60.83460
#
# Poissons Ratio (x) = 0.75301 0.08881
# Poissons Ratio (y) = 0.45424 0.05169
# Poissons Ratio (z) = 0.06666 0.06431
#
# Static dielectric constant tensor:
#      x y z
#    x 1.901870 0.015130 -0.040250 
#    y 0.015130 1.905660 -0.067660 
#    z -0.040250 -0.067660 2.086590 
# 
# From -- ./inp_files/329611.got.cif
#   From: 2010.05.17/outbox.cif.g08.bks.cpg/sg2_165_cif.got.tgz:329611.got - 2010.06.03 11:33:40.
