data_PCOD9104332
_publ_section_title
;
Structure prediction by ZEFSAII (Michael W. Deem and Ramdas Pophale) SiO2 
 PCOD9104332
Probable space group: P -1
;
_chemical_formula_sum "Si O2"
_cell_formula_units_Z 16
_cell_length_a 13.876080
_cell_length_b 17.092344
_cell_length_c 15.102122
_cell_angle_alpha 42.780874
_cell_angle_beta 125.333570
_cell_angle_gamma 157.836847
_cell_volume 842.839663
_symmetry_space_group_name_H-M "P -1"
_symmetry_group_IT_number 2
_symmetry_cell_setting 'triclinic'
loop_
_space_group_symop_operation_xyz
x,y,z
-x,-y,-z
loop_
_atom_site_type_symbol
_atom_site_label
_atom_site_fract_x
_atom_site_fract_y
_atom_site_fract_z
Si Si1 0.180760 0.206781 0.206110
Si Si2 0.235794 0.082096 0.178159
Si Si3 0.176788 0.693161 0.066696
Si Si4 0.842464 0.578983 0.089095
Si Si5 0.908944 0.592224 0.848346
Si Si6 0.627006 0.552762 0.311054
Si Si7 0.300274 0.130319 0.967142
Si Si8 0.815939 0.915025 0.408866
O O1 0.414977 0.369062 0.266470
O O2 0.234193 0.183919 0.163931
O O3 0.179031 0.339715 0.065755
O O4 0.893069 0.942749 0.327862
O O5 0.926199 0.757049 0.288543
O O6 0.521680 0.269037 0.198258
O O7 0.261891 0.136087 0.043371
O O8 0.114535 0.503919 0.173553
O O9 0.995597 0.599820 0.120521
O O10 0.090958 0.681647 0.940398
O O11 0.500000 0.000000 0.000000
O O12 0.043443 0.820212 0.065237
O O13 0.593651 0.327547 0.938019
O O14 0.060797 0.848465 0.708874
O O15 0.688917 0.744691 0.190016
O O16 0.485857 0.373284 0.471621
O O17 0.000000 0.000000 0.500000
#
# Coordination Sequence:
#
# PCOD9104332 Si02
#       8
#     2   2   2   2   2   2   2   2
#     4  11  21  35  55  85 124 156 191 235 296 356
#     4  12  23  35  53  85 129 156 193 239 294 358
#     4  11  22  37  62  88 117 151 200 250 300 340
#     4  12  22  35  56  88 119 149 195 248 293 352
#     4  11  21  39  60  90 119 151 195 248 301 338
#     4  11  22  35  56  85 120 168 187 229 297 356
#     4  12  21  35  59  87 123 152 190 245 301 351
#     4  10  20  39  60  86 127 156 194 238 288 361
#
# _framework density 18.983445
#
# number of rings (size 3 to 8) (size 9 to 14) (size 15 to 20)
#    0.000    0.750    8.750    1.500    0.000    0.500 
#    0.000    2.500    0.000    0.750    0.000    5.250 
#    0.000    0.000    0.000    0.000    0.000    0.000 
#
# Total GULP energy -89082.915387 kJ/mol
# GULP energy per Si atom -5567.682212 kJ/mol
# Density = 1.894024 g / cm^3
# Si number density = 18.983445 Si / 1000 Ang^3
#
#
#
# Elastic Constant Matrix: (Units=GPa)
#
#
# Indices 1 2 3 4 5 6 
#
# 1 141.9262 54.3143 41.2607 -11.5015 -15.2537 -4.1443
# 2 54.3143 125.4654 27.5242 -16.6903 -14.9417 14.4661
# 3 41.2607 27.5242 62.7719 -17.1543 -16.4891 2.2350
# 4 -11.5015 -16.6903 -17.1543 23.4838 8.4155 -9.8895
# 5 -15.2537 -14.9417 -16.4891 8.4155 29.9788 -7.0109
# 6 -4.1443 14.4661 2.2350 -9.8895 -7.0109 43.9899
#
#
#
# Elastic Compliance Matrix: (Units=1/GPa)
#
#
# Indices 1 2 3 4 5 6 
#
# 1 0.009960 -0.003425 -0.004947 -0.000660 0.001384 0.002388
# 2 -0.003425 0.010617 -0.000990 0.003488 0.001380 -0.002759
# 3 -0.004947 -0.000990 0.025319 0.013830 0.007714 0.002912
# 4 -0.000660 0.003488 0.013830 0.061515 -0.005683 0.011012
# 5 0.001384 0.001380 0.007714 -0.005683 0.041674 0.004649
# 6 0.002388 -0.002759 0.002912 0.011012 0.004649 0.026933
#
#
# Mechanical properties :
#
#
# Convention : Reuss Voigt Hill
#
# Bulk Modulus (GPa) = 36.80320 64.04022 50.42171
# Shear Modulus (GPa) = 24.53416 33.29477 28.91446
#
# Velocity S-wave (km/s) = 3.59889 4.19248 3.90698
# Velocity P-wave (km/s) = 6.05793 7.56597 6.85355
#
# Compressibility (1/GPa) = 0.02717155
#
# Stress axis : x y z
#
# Youngs Moduli (GPa) = 100.40550 94.19202 39.49674
#
# Poissons Ratio (x) = 0.32258 0.19538
# Poissons Ratio (y) = 0.34386 0.03911
# Poissons Ratio (z) = 0.49669 0.09326
#
# Static dielectric constant tensor:
#      x y z
#    x 1.710060 0.003450 -0.055530 
#    y 0.003450 1.724710 0.016160 
#    z -0.055530 0.016160 1.599360 
# 
# From -- ./inp_files/535075.got.cif
#   From: 2010.05.17/outbox.cif.g08.bks.cpg/sg2_268_cif.got.tgz:535075.got - 2010.06.03 11:33:40.
