data_PCOD9104839
_publ_section_title
;
Structure prediction by ZEFSAII (Michael W. Deem and Ramdas Pophale) SiO2 
 PCOD9104839
Probable space group: P -1
;
_chemical_formula_sum "Si O2"
_cell_formula_units_Z 14
_cell_length_a 8.265477
_cell_length_b 14.896478
_cell_length_c 8.460605
_cell_angle_alpha 65.365096
_cell_angle_beta 84.746798
_cell_angle_gamma 37.695760
_cell_volume 523.103695
_symmetry_space_group_name_H-M "P -1"
_symmetry_group_IT_number 2
_symmetry_cell_setting 'triclinic'
loop_
_space_group_symop_operation_xyz
x,y,z
-x,-y,-z
loop_
_atom_site_type_symbol
_atom_site_label
_atom_site_fract_x
_atom_site_fract_y
_atom_site_fract_z
Si Si1 0.918757 0.145574 0.313715
Si Si2 0.744578 0.834195 0.718998
Si Si3 0.791505 0.576515 0.637373
Si Si4 0.722167 0.988971 0.126624
Si Si5 0.363544 0.200907 0.724033
Si Si6 0.673003 0.319730 0.543963
Si Si7 0.367671 0.456794 0.006923
O O1 0.791438 0.267570 0.391885
O O2 0.687354 0.242577 0.120379
O O3 0.144097 0.115666 0.254767
O O4 0.000000 0.000000 0.500000
O O5 0.500000 0.000000 0.500000
O O6 0.550862 0.864668 0.833109
O O7 0.062333 0.619410 0.818163
O O8 0.689188 0.739555 0.497122
O O9 0.572553 0.637606 0.485489
O O10 0.735795 0.551249 0.824236
O O11 0.115115 0.388397 0.699364
O O12 0.731302 0.864769 0.201294
O O13 0.041838 0.854008 0.257272
O O14 0.641999 0.075069 0.902962
O O15 0.500000 0.500000 0.500000
O O16 0.500000 0.500000 0.000000
#
# Coordination Sequence:
#
# PCOD9104839 Si02
#       7
#     2   2   2   2   2   2   2
#     4  10  23  41  67  97 130 176 221 274 337 396
#     4  11  21  39  65  95 129 174 226 273 331 404
#     4  10  20  39  62  91 128 165 222 266 331 388
#     4  11  22  39  63  96 133 172 224 264 343 388
#     4  10  22  37  64  93 126 176 213 275 325 398
#     4  11  22  40  66  95 134 172 220 275 334 391
#     4   9  20  39  65  91 126 176 222 267 333 406
#
# _framework density 26.763335000000001
#
# number of rings (size 3 to 8) (size 9 to 14) (size 15 to 20)
#    0.000    1.714    4.286    0.000    4.000    0.571 
#    0.000    0.714   22.000    0.000    0.000    0.000 
#    0.000    0.000    0.000    0.000    0.000    0.000 
#
# Total GULP energy -77968.626562 kJ/mol
# GULP energy per Si atom -5569.187612 kJ/mol
# Density = 2.670242 g / cm^3
# Si number density = 26.763335 Si / 1000 Ang^3
#
#
#
# Elastic Constant Matrix: (Units=GPa)
#
#
# Indices 1 2 3 4 5 6 
#
# 1 86.1816 22.8263 66.6542 -6.1344 18.5864 -25.1725
# 2 22.8263 70.6749 15.3167 -14.3780 11.9868 -2.8709
# 3 66.6542 15.3167 226.8767 -20.1282 40.8106 -8.0042
# 4 -6.1344 -14.3780 -20.1282 44.6849 -15.4081 -4.5817
# 5 18.5864 11.9868 40.8106 -15.4081 68.9995 -9.8781
# 6 -25.1725 -2.8709 -8.0042 -4.5817 -9.8781 32.9593
#
#
#
# Elastic Compliance Matrix: (Units=1/GPa)
#
#
# Indices 1 2 3 4 5 6 
#
# 1 0.021464 -0.005128 -0.005496 0.000558 0.000613 0.014873
# 2 -0.005128 0.016645 0.000949 0.004394 -0.001383 -0.002039
# 3 -0.005496 0.000949 0.006434 0.001199 -0.002679 -0.003188
# 4 0.000558 0.004394 0.001199 0.026897 0.005304 0.006428
# 5 0.000613 -0.001383 -0.002679 0.005304 0.018179 0.005883
# 6 0.014873 -0.002039 -0.003188 0.006428 0.005883 0.043404
#
#
# Mechanical properties :
#
#
# Convention : Reuss Voigt Hill
#
# Bulk Modulus (GPa) = 39.69137 65.92527 52.80832
# Shear Modulus (GPa) = 31.10045 47.92448 39.51247
#
# Velocity S-wave (km/s) = 3.41259 4.23623 3.84652
# Velocity P-wave (km/s) = 5.51275 6.97235 6.28506
#
# Compressibility (1/GPa) = 0.02519440
#
# Stress axis : x y z
#
# Youngs Moduli (GPa) = 46.59063 60.07748 155.42682
#
# Poissons Ratio (x) = 0.30805 0.85419
# Poissons Ratio (y) = 0.23890 -0.14754
# Poissons Ratio (z) = 0.25605 -0.05703
#
# Static dielectric constant tensor:
#      x y z
#    x 2.166530 0.009070 -0.017430 
#    y 0.009070 2.228510 -0.019930 
#    z -0.017430 -0.019930 2.198710 
# 
# From -- ./inp_files/401923.got.cif
#   From: 2010.05.17/outbox.cif.g08.bks.cpg/sg2_201_cif.got.tgz:401923.got - 2010.06.03 11:33:40.
