data_PCOD9104058
_publ_section_title
;
Structure prediction by ZEFSAII (Michael W. Deem and Ramdas Pophale) SiO2 
 PCOD9104058
Probable space group: P -1
;
_chemical_formula_sum "Si O2"
_cell_formula_units_Z 15
_cell_length_a 20.794018
_cell_length_b 6.766618
_cell_length_c 5.022675
_cell_angle_alpha 70.787745
_cell_angle_beta 94.454023
_cell_angle_gamma 121.964069
_cell_volume 562.045767
_symmetry_space_group_name_H-M "P -1"
_symmetry_group_IT_number 2
_symmetry_cell_setting 'triclinic'
loop_
_space_group_symop_operation_xyz
x,y,z
-x,-y,-z
loop_
_atom_site_type_symbol
_atom_site_label
_atom_site_fract_x
_atom_site_fract_y
_atom_site_fract_z
Si Si1 0.151986 0.635176 0.624752
Si Si2 0.649638 0.336662 0.979517
Si Si3 0.945485 0.143789 0.416398
Si Si4 0.000000 0.000000 0.000000
Si Si5 0.571680 0.496317 0.305711
Si Si6 0.320653 0.048023 0.533235
Si Si7 0.820907 0.592926 0.770360
Si Si8 0.566179 0.897644 0.836546
O O1 0.166856 0.571223 0.363863
O O2 0.083588 0.674168 0.625396
O O3 0.230370 0.898196 0.600230
O O4 0.148484 0.433093 0.920153
O O5 0.733141 0.507706 0.807283
O O6 0.582891 0.158757 0.829320
O O7 0.624222 0.467954 0.118682
O O8 0.657289 0.128985 0.230673
O O9 0.871047 0.870514 0.566187
O O10 0.000159 0.153304 0.663061
O O11 0.974745 0.150643 0.126359
O O12 0.630743 0.668401 0.478196
O O13 0.493740 0.227947 0.366239
O O14 0.540536 0.675398 0.134538
O O15 0.351074 0.046533 0.251006
#
# Coordination Sequence:
#
# PCOD9104058 Si02
#       8
#     2   2   2   1   2   2   2   2
#     4  11  24  43  69 102 137 181 227 280 341 389
#     4  10  22  37  57  87 124 163 222 286 332 390
#     4  11  24  46  75  98 146 179 212 277 329 396
#     4  10  24  48  70 110 140 174 222 262 324 410
#     4  10  22  35  58  84 117 176 219 270 354 398
#     4  10  22  37  57  86 126 160 225 285 324 404
#     4  11  24  42  68 104 134 177 237 274 333 412
#     4  10  20  39  55  83 124 162 221 284 331 409
#
# _framework density 26.688220000000001
#
# number of rings (size 3 to 8) (size 9 to 14) (size 15 to 20)
#    0.000    1.600    1.333    2.400    1.867    4.800 
#    0.000   13.333    0.000    0.000    0.000    0.000 
#    0.000    0.000    0.000    0.000    0.000    0.000 
#
# Total GULP energy -83758.055637 kJ/mol
# GULP energy per Si atom -5583.870376 kJ/mol
# Density = 2.662748 g / cm^3
# Si number density = 26.688220 Si / 1000 Ang^3
#
#
#
# Elastic Constant Matrix: (Units=GPa)
#
#
# Indices 1 2 3 4 5 6 
#
# 1 133.5014 28.0941 20.0803 6.2525 -13.6567 -25.9049
# 2 28.0941 145.6747 12.3151 9.0043 -17.6898 -9.4229
# 3 20.0803 12.3151 94.7393 28.7629 -12.6857 -8.0731
# 4 6.2525 9.0043 28.7629 49.6695 -4.8332 -20.7096
# 5 -13.6567 -17.6898 -12.6857 -4.8332 49.2582 0.6879
# 6 -25.9049 -9.4229 -8.0731 -20.7096 0.6879 40.8487
#
#
#
# Elastic Compliance Matrix: (Units=1/GPa)
#
#
# Indices 1 2 3 4 5 6 
#
# 1 0.009423 -0.001171 -0.001987 0.003251 0.001902 0.006929
# 2 -0.001171 0.007454 -0.000177 -0.000643 0.002236 0.000578
# 3 -0.001987 -0.000177 0.013660 -0.008693 0.002093 -0.003044
# 4 0.003251 -0.000643 -0.008693 0.031797 0.001324 0.016293
# 5 0.001902 0.002236 0.002093 0.001324 0.022266 0.002432
# 6 0.006929 0.000578 -0.003044 0.016293 0.002432 0.036626
#
#
# Mechanical properties :
#
#
# Convention : Reuss Voigt Hill
#
# Bulk Modulus (GPa) = 41.89906 54.98826 48.44366
# Shear Modulus (GPa) = 36.80520 48.85034 42.82777
#
# Velocity S-wave (km/s) = 3.71763 4.28297 4.01027
# Velocity P-wave (km/s) = 5.84476 6.71618 6.29557
#
# Compressibility (1/GPa) = 0.02386688
#
# Stress axis : x y z
#
# Youngs Moduli (GPa) = 106.12726 134.15590 73.20892
#
# Poissons Ratio (x) = 0.15709 0.14544
# Poissons Ratio (y) = 0.12427 0.01296
# Poissons Ratio (z) = 0.21084 0.02375
#
# Static dielectric constant tensor:
#      x y z
#    x 2.103230 0.104600 0.003160 
#    y 0.104600 2.131000 -0.085900 
#    z 0.003160 -0.085900 2.157880 
# 
# From -- ./inp_files/9949.got.cif
#   From: 2010.05.17/outbox.cif.g08.bks.cpg/sg2_5_cif.got.tgz:9949.got - 2010.06.03 11:33:40.
