data_PCOD9104636
_publ_section_title
;
Structure prediction by ZEFSAII (Michael W. Deem and Ramdas Pophale) SiO2 
 PCOD9104636
Probable space group: P -1
;
_chemical_formula_sum "Si O2"
_cell_formula_units_Z 16
_cell_length_a 17.929400
_cell_length_b 8.616292
_cell_length_c 10.355992
_cell_angle_alpha 82.807666
_cell_angle_beta 52.564547
_cell_angle_gamma 40.113918
_cell_volume 612.057513
_symmetry_space_group_name_H-M "P -1"
_symmetry_group_IT_number 2
_symmetry_cell_setting 'triclinic'
loop_
_space_group_symop_operation_xyz
x,y,z
-x,-y,-z
loop_
_atom_site_type_symbol
_atom_site_label
_atom_site_fract_x
_atom_site_fract_y
_atom_site_fract_z
Si Si1 0.943352 0.246165 0.298688
Si Si2 0.994857 0.374194 0.906084
Si Si3 0.333357 0.370542 0.661411
Si Si4 0.293332 0.159617 0.058749
Si Si5 0.513074 0.527570 0.802423
Si Si6 0.675624 0.769563 0.708092
Si Si7 0.248204 0.691202 0.227582
Si Si8 0.700783 0.250154 0.226072
O O1 0.766329 0.427258 0.388817
O O2 0.827439 0.560231 0.452954
O O3 0.049992 0.003318 0.327636
O O4 0.118644 0.013066 0.038645
O O5 0.835851 0.480452 0.108577
O O6 0.905729 0.541857 0.842372
O O7 0.000000 0.500000 0.000000
O O8 0.203008 0.990255 0.735866
O O9 0.364438 0.480851 0.698671
O O10 0.500000 0.000000 0.500000
O O11 0.279138 0.182843 0.226240
O O12 0.390656 0.857577 0.941494
O O13 0.451124 0.070363 0.870869
O O14 0.718646 0.255440 0.682587
O O15 0.470109 0.580940 0.691230
O O16 0.411160 0.526325 0.976835
O O17 0.712773 0.544558 0.756644
#
# Coordination Sequence:
#
# PCOD9104636 Si02
#       8
#     2   2   2   2   2   2   2   2
#     4  10  20  39  61  93 119 155 213 257 306 375
#     4  11  21  39  69  96 128 165 209 266 312 371
#     4  11  25  44  67  92 124 168 214 262 319 386
#     4  10  21  36  60  93 130 165 202 254 316 366
#     4   9  18  38  58  89 124 164 203 245 314 372
#     4  10  21  36  60  91 126 166 207 253 306 376
#     4   9  19  34  59  84 121 161 204 250 298 366
#     4  10  22  41  69  88 121 171 208 259 318 376
#
# _framework density 26.141335000000002
#
# number of rings (size 3 to 8) (size 9 to 14) (size 15 to 20)
#    0.000    2.000    1.250    2.625    5.250    0.000 
#    6.750    4.375    2.750    0.000    0.000    0.000 
#    0.000    0.000    0.000    0.000    0.000    0.000 
#
# Total GULP energy -89379.613962 kJ/mol
# GULP energy per Si atom -5586.225873 kJ/mol
# Density = 2.608184 g / cm^3
# Si number density = 26.141335 Si / 1000 Ang^3
#
#
#
# Elastic Constant Matrix: (Units=GPa)
#
#
# Indices 1 2 3 4 5 6 
#
# 1 195.9760 65.7178 50.0085 23.4524 16.4475 -27.2559
# 2 65.7178 99.3026 16.4346 25.0880 -10.0214 -33.8689
# 3 50.0085 16.4346 136.2551 8.4691 9.8242 -4.9608
# 4 23.4524 25.0880 8.4691 26.4764 7.0244 -9.5651
# 5 16.4475 -10.0214 9.8242 7.0244 37.3231 7.6629
# 6 -27.2559 -33.8689 -4.9608 -9.5651 7.6629 56.7106
#
#
#
# Elastic Compliance Matrix: (Units=1/GPa)
#
#
# Indices 1 2 3 4 5 6 
#
# 1 0.007764 -0.004828 -0.001895 -0.000048 -0.004472 0.001279
# 2 -0.004828 0.019975 -0.000157 -0.014914 0.009139 0.005845
# 3 -0.001895 -0.000157 0.008167 -0.000543 -0.001209 -0.000218
# 4 -0.000048 -0.014914 -0.000543 0.057111 -0.015144 0.002701
# 5 -0.004472 0.009139 -0.001209 -0.015144 0.035230 -0.004112
# 6 0.001279 0.005845 -0.000218 0.002701 -0.004112 0.022731
#
#
# Mechanical properties :
#
#
# Convention : Reuss Voigt Hill
#
# Bulk Modulus (GPa) = 45.15348 77.31726 61.23537
# Shear Modulus (GPa) = 29.04958 44.06021 36.55489
#
# Velocity S-wave (km/s) = 3.33716 4.10989 3.74352
# Velocity P-wave (km/s) = 5.67091 7.22236 6.49314
#
# Compressibility (1/GPa) = 0.02214669
#
# Stress axis : x y z
#
# Youngs Moduli (GPa) = 128.79756 50.06309 122.44869
#
# Poissons Ratio (x) = 0.24168 0.23208
# Poissons Ratio (y) = 0.62178 0.01917
# Poissons Ratio (z) = 0.24411 0.00784
#
# Static dielectric constant tensor:
#      x y z
#    x 2.082790 -0.054870 0.043220 
#    y -0.054870 2.138000 -0.063050 
#    z 0.043220 -0.063050 2.398300 
# 
# From -- ./inp_files/461390.got.cif
#   From: 2010.05.17/outbox.cif.g08.bks.cpg/sg2_231_cif.got.tgz:461390.got - 2010.06.03 11:33:40.
