data_PCOD9104457
_publ_section_title
;
Structure prediction by ZEFSAII (Michael W. Deem and Ramdas Pophale) SiO2 
 PCOD9104457
Probable space group: P -1
;
_chemical_formula_sum "Si O2"
_cell_formula_units_Z 12
_cell_length_a 14.972195
_cell_length_b 7.043397
_cell_length_c 11.686640
_cell_angle_alpha 108.591389
_cell_angle_beta 151.146590
_cell_angle_gamma 83.797171
_cell_volume 522.721560
_symmetry_space_group_name_H-M "P -1"
_symmetry_group_IT_number 2
_symmetry_cell_setting 'triclinic'
loop_
_space_group_symop_operation_xyz
x,y,z
-x,-y,-z
loop_
_atom_site_type_symbol
_atom_site_label
_atom_site_fract_x
_atom_site_fract_y
_atom_site_fract_z
Si Si1 0.129953 0.782556 0.300876
Si Si2 0.697893 0.478623 0.984581
Si Si3 0.149505 0.628344 0.554283
Si Si4 0.680411 0.746350 0.328359
Si Si5 0.693835 0.440140 0.720021
Si Si6 0.760537 0.922082 0.203104
O O1 0.161362 0.706239 0.449376
O O2 0.278706 0.727478 0.371713
O O3 0.174006 0.035105 0.406667
O O4 0.902356 0.647422 0.982941
O O5 0.517532 0.347034 0.837104
O O6 0.690475 0.366207 0.833450
O O7 0.692651 0.719456 0.002738
O O8 0.912229 0.529359 0.292596
O O9 0.232490 0.440500 0.617831
O O10 0.260026 0.849287 0.791903
O O11 0.660479 0.816608 0.189859
O O12 0.500000 0.500000 0.500000
O O13 0.000000 0.000000 0.500000
#
# Coordination Sequence:
#
# PCOD9104457 Si02
#       6
#     2   2   2   2   2   2
#     4   9  21  39  58  86 116 145 191 236 274 338
#     4  10  21  36  57  88 115 145 195 235 272 339
#     4   9  20  39  60  84 117 151 184 230 285 335
#     4  11  21  37  62  86 114 150 185 233 289 333
#     4  10  20  39  61  80 114 156 188 231 286 331
#     4   9  20  39  58  84 119 148 186 234 278 340
#
# _framework density 22.956771
#
# number of rings (size 3 to 8) (size 9 to 14) (size 15 to 20)
#    0.000    2.333    0.000    2.500    0.000    5.333 
#    0.000   21.667    0.000    0.000    0.000    0.000 
#    0.000    0.000    0.000    0.000    0.000    0.000 
#
# Total GULP energy -67117.051685 kJ/mol
# GULP energy per Si atom -5593.087640 kJ/mol
# Density = 2.290452 g / cm^3
# Si number density = 22.956771 Si / 1000 Ang^3
#
#
#
# Elastic Constant Matrix: (Units=GPa)
#
#
# Indices 1 2 3 4 5 6 
#
# 1 131.8514 31.7659 21.9167 7.0919 28.9305 -11.2249
# 2 31.7659 144.1370 29.0361 10.4276 15.1763 -20.1806
# 3 21.9167 29.0361 46.1522 -5.0186 16.3735 -4.5943
# 4 7.0919 10.4276 -5.0186 31.1844 -8.2797 3.9030
# 5 28.9305 15.1763 16.3735 -8.2797 43.0786 6.2793
# 6 -11.2249 -20.1806 -4.5943 3.9030 6.2793 35.2123
#
#
#
# Elastic Compliance Matrix: (Units=1/GPa)
#
#
# Indices 1 2 3 4 5 6 
#
# 1 0.010422 0.000124 -0.002285 -0.005543 -0.007988 0.005134
# 2 0.000124 0.009530 -0.004779 -0.005716 -0.003621 0.006157
# 3 -0.002285 -0.004779 0.028855 0.004782 -0.006978 0.001012
# 4 -0.005543 -0.005716 0.004782 0.041004 0.013456 -0.011363
# 5 -0.007988 -0.003621 -0.006978 0.013456 0.037080 -0.013636
# 6 0.005134 0.006157 0.001012 -0.011363 -0.013636 0.037388
#
#
# Mechanical properties :
#
#
# Convention : Reuss Voigt Hill
#
# Bulk Modulus (GPa) = 28.63007 54.17532 41.40270
# Shear Modulus (GPa) = 26.34346 37.85653 32.10000
#
# Velocity S-wave (km/s) = 3.39119 4.06524 3.74342
# Velocity P-wave (km/s) = 5.27560 6.75906 6.06287
#
# Compressibility (1/GPa) = 0.03492831
#
# Stress axis : x y z
#
# Youngs Moduli (GPa) = 95.94891 104.93296 34.65561
#
# Poissons Ratio (x) = -0.01306 0.07919
# Poissons Ratio (y) = -0.01194 0.16561
# Poissons Ratio (z) = 0.21926 0.50146
#
# Static dielectric constant tensor:
#      x y z
#    x 1.881730 -0.012310 -0.005020 
#    y -0.012310 1.862910 -0.015320 
#    z -0.005020 -0.015320 1.890940 
# 
# From -- ./inp_files/31839.got.cif
#   From: 2010.05.17/outbox.cif.g08.bks.cpg/sg2_16_cif.got.tgz:31839.got - 2010.06.03 11:33:40.
