data_PCOD9104281
_publ_section_title
;
Structure prediction by ZEFSAII (Michael W. Deem and Ramdas Pophale) SiO2 
 PCOD9104281
Probable space group: P -1
;
_chemical_formula_sum "Si O2"
_cell_formula_units_Z 16
_cell_length_a 9.613963
_cell_length_b 23.774924
_cell_length_c 9.138518
_cell_angle_alpha 34.481578
_cell_angle_beta 121.391847
_cell_angle_gamma 142.797530
_cell_volume 656.451122
_symmetry_space_group_name_H-M "P -1"
_symmetry_group_IT_number 2
_symmetry_cell_setting 'triclinic'
loop_
_space_group_symop_operation_xyz
x,y,z
-x,-y,-z
loop_
_atom_site_type_symbol
_atom_site_label
_atom_site_fract_x
_atom_site_fract_y
_atom_site_fract_z
Si Si1 0.989271 0.899747 0.860351
Si Si2 0.231738 0.911611 0.207525
Si Si3 0.964037 0.312857 0.919516
Si Si4 0.390680 0.042491 0.546612
Si Si5 0.426466 0.747768 0.332216
Si Si6 0.426121 0.419975 0.784361
Si Si7 0.232870 0.056795 0.145629
Si Si8 0.684024 0.500229 0.035367
O O1 0.723911 0.751272 0.962504
O O2 0.054354 0.833410 0.139166
O O3 0.973311 0.980197 0.796987
O O4 0.198238 0.010111 0.616250
O O5 0.132949 0.921441 0.279241
O O6 0.640345 0.129311 0.582557
O O7 0.451309 0.091693 0.891890
O O8 0.831835 0.339850 0.699424
O O9 0.216268 0.392453 0.805694
O O10 0.054923 0.372570 0.007053
O O11 0.762620 0.130530 0.197341
O O12 0.417917 0.103356 0.272790
O O13 0.411119 0.653573 0.641781
O O14 0.612502 0.803384 0.181288
O O15 0.500000 0.500000 0.500000
O O16 0.656788 0.506224 0.835133
O O17 0.500000 0.500000 0.000000
#
# Coordination Sequence:
#
# PCOD9104281 Si02
#       8
#     2   2   2   2   2   2   2   2
#     4  11  22  38  58  87 127 159 190 254 303 345
#     4   9  21  37  62  86 121 159 196 239 291 370
#     4   9  20  39  67  84 119 160 198 250 292 355
#     4  10  20  39  59  96 121 155 195 244 310 349
#     4   9  21  38  62  92 119 148 208 244 293 349
#     4  10  24  41  58  87 119 156 204 250 296 353
#     4  10  22  36  61  90 126 152 199 245 287 370
#     4  10  21  39  63  84 113 162 200 246 291 353
#
# _framework density 24.373483
#
# number of rings (size 3 to 8) (size 9 to 14) (size 15 to 20)
#    0.750    1.500    0.000    1.875    3.500    5.000 
#    0.000    0.625    0.000    0.000    0.000    0.000 
#    0.000    0.000    0.000    0.000    0.000    0.000 
#
# Total GULP energy -89389.235515 kJ/mol
# GULP energy per Si atom -5586.827220 kJ/mol
# Density = 2.431801 g / cm^3
# Si number density = 24.373483 Si / 1000 Ang^3
#
#
#
# Elastic Constant Matrix: (Units=GPa)
#
#
# Indices 1 2 3 4 5 6 
#
# 1 81.1130 9.4571 17.7406 7.6755 -12.6307 -5.7775
# 2 9.4571 94.3877 25.0109 34.4571 -2.8527 -4.7249
# 3 17.7406 25.0109 125.9864 35.3679 -8.3783 -4.1229
# 4 7.6755 34.4571 35.3679 43.7536 -4.4339 -0.4084
# 5 -12.6307 -2.8527 -8.3783 -4.4339 32.1718 13.6653
# 6 -5.7775 -4.7249 -4.1229 -0.4084 13.6653 25.1599
#
#
#
# Elastic Compliance Matrix: (Units=1/GPa)
#
#
# Indices 1 2 3 4 5 6 
#
# 1 0.013491 -0.000781 -0.001380 -0.000149 0.004798 0.000117
# 2 -0.000781 0.015196 0.000577 -0.012475 -0.002104 0.003709
# 3 -0.001380 0.000577 0.010518 -0.008643 0.000616 0.001040
# 4 -0.000149 -0.012475 -0.008643 0.040094 0.004478 -0.005575
# 5 0.004798 -0.002104 0.000616 0.004478 0.043135 -0.022548
# 6 0.000117 0.003709 0.001040 -0.005575 -0.022548 0.052796
#
#
# Mechanical properties :
#
#
# Convention : Reuss Voigt Hill
#
# Bulk Modulus (GPa) = 27.74877 45.10047 36.42462
# Shear Modulus (GPa) = 26.25897 36.83561 31.54729
#
# Velocity S-wave (km/s) = 3.28587 3.89176 3.60158
# Velocity P-wave (km/s) = 5.07991 6.22402 5.68084
#
# Compressibility (1/GPa) = 0.03603763
#
# Stress axis : x y z
#
# Youngs Moduli (GPa) = 74.12435 65.80536 95.07185
#
# Poissons Ratio (x) = 0.05138 0.13120
# Poissons Ratio (y) = 0.05788 -0.05484
# Poissons Ratio (z) = 0.10229 -0.03796
#
# Static dielectric constant tensor:
#      x y z
#    x 1.978670 0.001310 0.045260 
#    y 0.001310 1.983670 0.005430 
#    z 0.045260 0.005430 1.988070 
# 
# From -- ./inp_files/285773.got.cif
#   From: 2010.05.17/outbox.cif.g08.bks.cpg/sg2_143_cif.got.tgz:285773.got - 2010.06.03 11:33:40.
