data_PCOD9104479
_publ_section_title
;
Structure prediction by ZEFSAII (Michael W. Deem and Ramdas Pophale) SiO2 
 PCOD9104479
Probable space group: P -1
;
_chemical_formula_sum "Si O2"
_cell_formula_units_Z 16
_cell_length_a 15.676224
_cell_length_b 8.023770
_cell_length_c 14.173078
_cell_angle_alpha 60.867574
_cell_angle_beta 26.983744
_cell_angle_gamma 74.284657
_cell_volume 644.064305
_symmetry_space_group_name_H-M "P -1"
_symmetry_group_IT_number 2
_symmetry_cell_setting 'triclinic'
loop_
_space_group_symop_operation_xyz
x,y,z
-x,-y,-z
loop_
_atom_site_type_symbol
_atom_site_label
_atom_site_fract_x
_atom_site_fract_y
_atom_site_fract_z
Si Si1 0.435332 0.257345 0.409910
Si Si2 0.752036 0.681303 0.922167
Si Si3 0.896056 0.753907 0.138974
Si Si4 0.502739 0.305678 0.991964
Si Si5 0.920901 0.332771 0.505108
Si Si6 0.355711 0.204862 0.798606
Si Si7 0.229548 0.798445 0.123949
Si Si8 0.302129 0.782280 0.658754
O O1 0.600183 0.432596 0.135241
O O2 0.262373 0.334704 0.594082
O O3 0.553306 0.231102 0.394637
O O4 0.335404 0.020605 0.536220
O O5 0.684638 0.778580 0.871815
O O6 0.692696 0.737490 0.066475
O O7 0.990022 0.727074 0.659120
O O8 0.765722 0.731819 0.178474
O O9 0.073994 0.679880 0.956043
O O10 0.000000 0.000000 0.000000
O O11 0.706936 0.358907 0.710893
O O12 0.545284 0.159692 0.067479
O O13 0.500000 0.500000 0.000000
O O14 0.892876 0.184001 0.665615
O O15 0.099637 0.558422 0.292288
O O16 0.595285 0.283798 0.512395
O O17 0.253978 0.952083 0.972534
#
# Coordination Sequence:
#
# PCOD9104479 Si02
#       8
#     2   2   2   2   2   2   2   2
#     4   9  20  37  63  84 115 149 196 246 286 341
#     4  12  23  37  57  91 123 159 186 237 297 351
#     4   9  20  41  60  88 108 150 200 239 290 345
#     4  10  20  39  61  85 115 152 205 236 286 338
#     4   9  20  38  59  85 116 151 204 238 281 331
#     4  11  24  37  58  89 124 152 192 237 300 345
#     4   9  19  41  60  84 117 155 197 248 275 339
#     4   9  19  39  60  86 112 148 199 246 285 344
#
# _framework density 24.842238999999999
#
# number of rings (size 3 to 8) (size 9 to 14) (size 15 to 20)
#    0.750    1.500    1.250    1.500    0.000    7.000 
#    2.250    1.250    0.000    0.000    0.000    0.000 
#    0.000    0.000    0.000    0.000    0.000    0.000 
#
# Total GULP energy -89246.310710 kJ/mol
# GULP energy per Si atom -5577.894419 kJ/mol
# Density = 2.478570 g / cm^3
# Si number density = 24.842239 Si / 1000 Ang^3
#
#
#
# Elastic Constant Matrix: (Units=GPa)
#
#
# Indices 1 2 3 4 5 6 
#
# 1 38.0256 20.4503 6.6337 15.9699 2.5523 8.3454
# 2 20.4503 58.0330 44.8867 24.6555 -0.7499 10.8433
# 3 6.6337 44.8867 159.9871 52.6241 3.8171 -6.2728
# 4 15.9699 24.6555 52.6241 69.5049 -5.8831 13.9187
# 5 2.5523 -0.7499 3.8171 -5.8831 28.5277 2.8079
# 6 8.3454 10.8433 -6.2728 13.9187 2.8079 23.9350
#
#
#
# Elastic Compliance Matrix: (Units=1/GPa)
#
#
# Indices 1 2 3 4 5 6 
#
# 1 0.036327 -0.013374 0.004967 -0.007850 -0.005880 -0.000051
# 2 -0.013374 0.031019 -0.009715 0.002698 0.005258 -0.014121
# 3 0.004967 -0.009715 0.012868 -0.010503 -0.005851 0.012836
# 4 -0.007850 0.002698 -0.010503 0.027712 0.009714 -0.018492
# 5 -0.005880 0.005258 -0.005851 0.009714 0.039702 -0.012172
# 6 -0.000051 -0.014121 0.012836 -0.018492 -0.012172 0.063740
#
#
# Mechanical properties :
#
#
# Convention : Reuss Voigt Hill
#
# Bulk Modulus (GPa) = 22.74308 44.44301 33.59304
# Shear Modulus (GPa) = 19.06443 36.66519 27.86481
#
# Velocity S-wave (km/s) = 2.77324 3.84594 3.35277
# Velocity P-wave (km/s) = 4.40787 6.13601 5.34228
#
# Compressibility (1/GPa) = 0.04396941
#
# Stress axis : x y z
#
# Youngs Moduli (GPa) = 27.52772 32.23869 77.71291
#
# Poissons Ratio (x) = 0.43116 -0.38596
# Poissons Ratio (y) = 0.36815 0.75495
# Poissons Ratio (z) = -0.13672 0.31319
#
# Static dielectric constant tensor:
#      x y z
#    x 1.926240 0.014110 -0.008570 
#    y 0.014110 2.139840 0.000170 
#    z -0.008570 0.000170 1.989940 
# 
# From -- ./inp_files/536611.got.cif
#   From: 2010.05.17/outbox.cif.g08.bks.cpg/sg2_269_cif.got.tgz:536611.got - 2010.06.03 11:33:40.
