data_PCOD9104273
_publ_section_title
;
Structure prediction by ZEFSAII (Michael W. Deem and Ramdas Pophale) SiO2 
 PCOD9104273
Probable space group: P -1
;
_chemical_formula_sum "Si O2"
_cell_formula_units_Z 16
_cell_length_a 8.014690
_cell_length_b 13.517691
_cell_length_c 12.650985
_cell_angle_alpha 30.597425
_cell_angle_beta 116.784779
_cell_angle_gamma 118.181317
_cell_volume 611.961096
_symmetry_space_group_name_H-M "P -1"
_symmetry_group_IT_number 2
_symmetry_cell_setting 'triclinic'
loop_
_space_group_symop_operation_xyz
x,y,z
-x,-y,-z
loop_
_atom_site_type_symbol
_atom_site_label
_atom_site_fract_x
_atom_site_fract_y
_atom_site_fract_z
Si Si1 0.246766 0.962645 0.735007
Si Si2 0.092879 0.454295 0.771665
Si Si3 0.513221 0.833377 0.765593
Si Si4 0.462689 0.150654 0.940156
Si Si5 0.893748 0.657316 0.878329
Si Si6 0.513796 0.383796 0.255964
Si Si7 0.854090 0.965850 0.868466
Si Si8 0.202032 0.282966 0.599070
O O1 0.371336 0.949001 0.678815
O O2 0.032815 0.865485 0.738696
O O3 0.257704 0.159868 0.626830
O O4 0.339788 0.810140 0.976488
O O5 0.283807 0.590271 0.650032
O O6 0.067838 0.238297 0.913220
O O7 0.903094 0.541943 0.625336
O O8 0.145308 0.427817 0.935042
O O9 0.462805 0.765945 0.695246
O O10 0.512330 0.617248 0.016926
O O11 0.725596 0.948033 0.742196
O O12 0.302947 0.042118 0.076926
O O13 0.376680 0.318227 0.699673
O O14 0.500000 0.000000 0.000000
O O15 0.712824 0.676510 0.737648
O O16 0.000000 0.500000 0.000000
O O17 0.033189 0.136621 0.747772
#
# Coordination Sequence:
#
# PCOD9104273 Si02
#       8
#     2   2   2   2   2   2   2   2
#     4  10  19  35  60  83 119 161 192 241 301 352
#     4  11  22  37  61  90 122 153 202 253 285 356
#     4   9  15  31  58  79 109 159 191 233 293 351
#     4   9  21  39  64  85 120 162 194 249 303 349
#     4  12  19  35  64  89 116 163 198 235 305 362
#     4  10  16  33  55  83 116 150 193 241 290 351
#     4  10  19  38  65  81 117 162 195 241 308 349
#     4  11  22  39  60  91 118 153 209 246 293 352
#
# _framework density 26.145454000000001
#
# number of rings (size 3 to 8) (size 9 to 14) (size 15 to 20)
#    0.000    1.750    6.250    0.375    0.000    0.500 
#    0.000    9.375    0.000    0.000    0.000    0.000 
#    0.000    0.000    0.000    0.000    0.000    0.000 
#
# Total GULP energy -89365.975087 kJ/mol
# GULP energy per Si atom -5585.373443 kJ/mol
# Density = 2.608595 g / cm^3
# Si number density = 26.145454 Si / 1000 Ang^3
#
#
#
# Elastic Constant Matrix: (Units=GPa)
#
#
# Indices 1 2 3 4 5 6 
#
# 1 104.7422 12.1175 39.0650 -1.6462 28.7733 -28.5889
# 2 12.1175 32.9047 23.0915 -2.2523 -4.9234 -18.2913
# 3 39.0650 23.0915 126.5463 4.0695 34.6254 -4.8069
# 4 -1.6462 -2.2523 4.0695 24.5715 -6.9267 18.2644
# 5 28.7733 -4.9234 34.6254 -6.9267 36.4536 -8.2579
# 6 -28.5889 -18.2913 -4.8069 18.2644 -8.2579 55.6289
#
#
#
# Elastic Compliance Matrix: (Units=1/GPa)
#
#
# Indices 1 2 3 4 5 6 
#
# 1 0.015377 -0.003876 -0.000062 -0.008442 -0.012498 0.007539
# 2 -0.003876 0.062250 -0.018961 0.002694 0.034773 0.021115
# 3 -0.000062 -0.018961 0.017206 -0.006226 -0.021377 -0.005909
# 4 -0.008442 0.002694 -0.006226 0.063247 0.020024 -0.021784
# 5 -0.012498 0.034773 -0.021377 0.020024 0.067604 0.006624
# 6 0.007539 0.021115 -0.005909 -0.021784 0.006624 0.036419
#
#
# Mechanical properties :
#
#
# Convention : Reuss Voigt Hill
#
# Bulk Modulus (GPa) = 20.39405 45.86012 33.12709
# Shear Modulus (GPa) = 15.42035 35.99209 25.70622
#
# Velocity S-wave (km/s) = 2.43120 3.71429 3.13900
# Velocity P-wave (km/s) = 3.96208 5.99776 5.08287
#
# Compressibility (1/GPa) = 0.04903390
#
# Stress axis : x y z
#
# Youngs Moduli (GPa) = 65.03079 16.06434 58.11871
#
# Poissons Ratio (x) = 0.06227 0.00360
# Poissons Ratio (y) = 0.25208 1.10201
# Poissons Ratio (z) = 0.00403 0.30460
#
# Static dielectric constant tensor:
#      x y z
#    x 2.190720 0.000080 -0.114830 
#    y 0.000080 2.033420 0.058750 
#    z -0.114830 0.058750 2.162290 
# 
# From -- ./inp_files/505124.got.cif
#   From: 2010.05.17/outbox.cif.g08.bks.cpg/sg2_253_cif.got.tgz:505124.got - 2010.06.03 11:33:40.
