data_PCOD9104949
_publ_section_title
;
Structure prediction by ZEFSAII (Michael W. Deem and Ramdas Pophale) SiO2 
 PCOD9104949
Probable space group: P -1
;
_chemical_formula_sum "Si O2"
_cell_formula_units_Z 12
_cell_length_a 7.778766
_cell_length_b 5.359258
_cell_length_c 20.991763
_cell_angle_alpha 103.589138
_cell_angle_beta 138.514976
_cell_angle_gamma 61.952482
_cell_volume 501.214458
_symmetry_space_group_name_H-M "P -1"
_symmetry_group_IT_number 2
_symmetry_cell_setting 'triclinic'
loop_
_space_group_symop_operation_xyz
x,y,z
-x,-y,-z
loop_
_atom_site_type_symbol
_atom_site_label
_atom_site_fract_x
_atom_site_fract_y
_atom_site_fract_z
Si Si1 0.773801 0.021746 0.883752
Si Si2 0.543574 0.428277 0.118715
Si Si3 0.226326 0.433072 0.615915
Si Si4 0.880282 0.122824 0.734761
Si Si5 0.812853 0.572926 0.088647
Si Si6 0.187455 0.034434 0.692261
O O1 0.617090 0.368089 0.854369
O O2 0.491593 0.964718 0.809610
O O3 0.974864 0.770548 0.877022
O O4 0.000000 0.000000 0.000000
O O5 0.583382 0.619405 0.083921
O O6 0.343547 0.318811 0.016955
O O7 0.870420 0.207466 0.213439
O O8 0.550474 0.220704 0.667281
O O9 0.202523 0.739338 0.651445
O O10 0.000000 0.500000 0.500000
O O11 0.165541 0.253562 0.643541
O O12 0.998871 0.275819 0.827193
O O13 0.925209 0.195086 0.679051
#
# Coordination Sequence:
#
# PCOD9104949 Si02
#       6
#     2   2   2   2   2   2
#     4  10  20  40  67 105 154 194 240 294 361 445
#     4  10  21  38  63 102 151 198 249 293 363 444
#     4  12  30  53  79 109 147 196 257 323 386 443
#     4  12  25  43  76 104 150 193 250 312 380 440
#     4  10  20  39  63 101 150 201 243 296 362 445
#     4  12  26  49  77 113 151 193 253 313 378 452
#
# _framework density 23.941849000000001
#
# number of rings (size 3 to 8) (size 9 to 14) (size 15 to 20)
#    0.000    1.000    3.333    3.000    0.000    1.333 
#    3.000    2.500    0.000    0.000    0.000    0.000 
#    0.000    0.000    0.000    0.000    0.000    0.000 
#
# Total GULP energy -67066.765741 kJ/mol
# GULP energy per Si atom -5588.897145 kJ/mol
# Density = 2.388736 g / cm^3
# Si number density = 23.941849 Si / 1000 Ang^3
#
#
#
# Elastic Constant Matrix: (Units=GPa)
#
#
# Indices 1 2 3 4 5 6 
#
# 1 102.8598 33.2405 14.0331 -3.6957 -18.6329 -7.0180
# 2 33.2405 149.6149 57.2478 6.3401 -11.6037 -5.5287
# 3 14.0331 57.2478 125.4717 11.0074 3.0201 3.7331
# 4 -3.6957 6.3401 11.0074 36.3200 -2.6042 -1.0113
# 5 -18.6329 -11.6037 3.0201 -2.6042 23.0325 -4.0753
# 6 -7.0180 -5.5287 3.7331 -1.0113 -4.0753 42.9902
#
#
#
# Elastic Compliance Matrix: (Units=1/GPa)
#
#
# Indices 1 2 3 4 5 6 
#
# 1 0.012582 -0.001488 -0.001313 0.002772 0.010451 0.003033
# 2 -0.001488 0.008951 -0.004053 -0.000145 0.004112 0.001647
# 3 -0.001313 -0.004053 0.010422 -0.003019 -0.005202 -0.002205
# 4 0.002772 -0.000145 -0.003019 0.029256 0.006222 0.001974
# 5 0.010451 0.004112 -0.005202 0.006222 0.056783 0.008216
# 6 0.003033 0.001647 -0.002205 0.001974 0.008216 0.024985
#
#
# Mechanical properties :
#
#
# Convention : Reuss Voigt Hill
#
# Bulk Modulus (GPa) = 54.80492 65.22103 60.01297
# Shear Modulus (GPa) = 30.71856 38.69687 34.70771
#
# Velocity S-wave (km/s) = 3.58585 4.02467 3.81158
# Velocity P-wave (km/s) = 6.33127 6.99270 6.67019
#
# Compressibility (1/GPa) = 0.01824654
#
# Stress axis : x y z
#
# Youngs Moduli (GPa) = 79.48144 111.71859 95.95387
#
# Poissons Ratio (x) = 0.16619 0.12602
# Poissons Ratio (y) = 0.11824 0.38889
# Poissons Ratio (z) = 0.10439 0.45279
#
# Static dielectric constant tensor:
#      x y z
#    x 1.970720 0.053860 -0.037050 
#    y 0.053860 1.992400 -0.014890 
#    z -0.037050 -0.014890 1.940690 
# 
# From -- ./inp_files/96052.got.cif
#   From: 2010.05.17/outbox.cif.g08.bks.cpg/sg2_49_cif.got.tgz:96052.got - 2010.06.03 11:33:40.
