data_PCOD9104938
_publ_section_title
;
Structure prediction by ZEFSAII (Michael W. Deem and Ramdas Pophale) SiO2 
 PCOD9104938
Probable space group: P -1
;
_chemical_formula_sum "Si O2"
_cell_formula_units_Z 13
_cell_length_a 4.890412
_cell_length_b 11.127292
_cell_length_c 11.922737
_cell_angle_alpha 47.430720
_cell_angle_beta 86.866949
_cell_angle_gamma 87.046421
_cell_volume 477.007607
_symmetry_space_group_name_H-M "P -1"
_symmetry_group_IT_number 2
_symmetry_cell_setting 'triclinic'
loop_
_space_group_symop_operation_xyz
x,y,z
-x,-y,-z
loop_
_atom_site_type_symbol
_atom_site_label
_atom_site_fract_x
_atom_site_fract_y
_atom_site_fract_z
Si Si1 0.696945 0.033710 0.867773
Si Si2 0.801751 0.639625 0.461117
Si Si3 0.189761 0.007718 0.733942
Si Si4 0.744760 0.663992 0.781474
Si Si5 0.239659 0.442432 0.902478
Si Si6 0.432283 0.651837 0.247650
Si Si7 0.000000 0.000000 0.500000
O O1 0.493417 0.013679 0.776167
O O2 0.796857 0.212312 0.802543
O O3 0.978470 0.948531 0.871673
O O4 0.500000 0.000000 0.000000
O O5 0.920266 0.803962 0.401108
O O6 0.617657 0.684052 0.331434
O O7 0.627033 0.539993 0.617665
O O8 0.000000 0.500000 0.500000
O O9 0.157908 0.940653 0.652661
O O10 0.442019 0.593059 0.822987
O O11 0.957418 0.524964 0.815223
O O12 0.803218 0.650693 0.921995
O O13 0.796935 0.840969 0.619085
O O14 0.397128 0.329432 0.880547
#
# Coordination Sequence:
#
# PCOD9104938 Si02
#       7
#     2   2   2   2   2   2   1
#     4  11  25  46  67 101 137 178 227 288 344 416
#     4  10  20  39  62  99 127 167 219 286 338 403
#     4  11  26  44  68 101 139 179 230 276 352 412
#     4  10  25  45  66  99 140 180 237 282 345 412
#     4  10  23  45  68  99 133 183 233 291 341 418
#     4  10  22  36  70  94 128 173 223 283 351 402
#     4  12  28  46  74 104 148 194 230 296 346 434
#
# _framework density 27.253235
#
# number of rings (size 3 to 8) (size 9 to 14) (size 15 to 20)
#    0.000    1.538    1.538    1.385    6.462    3.692 
#    5.538    0.000    0.000    0.000    0.000    0.000 
#    0.000    0.000    0.000    0.000    0.000    0.000 
#
# Total GULP energy -72371.266885 kJ/mol
# GULP energy per Si atom -5567.020530 kJ/mol
# Density = 2.719121 g / cm^3
# Si number density = 27.253235 Si / 1000 Ang^3
#
#
#
# Elastic Constant Matrix: (Units=GPa)
#
#
# Indices 1 2 3 4 5 6 
#
# 1 94.8452 13.3747 25.2032 9.8789 -2.3148 3.1978
# 2 13.3747 70.5390 29.8451 12.1252 3.0067 -3.7756
# 3 25.2032 29.8451 145.1960 5.8499 -20.4943 18.0348
# 4 9.8789 12.1252 5.8499 46.9551 21.7245 -4.7138
# 5 -2.3148 3.0067 -20.4943 21.7245 37.6816 4.2522
# 6 3.1978 -3.7756 18.0348 -4.7138 4.2522 37.7623
#
#
#
# Elastic Compliance Matrix: (Units=1/GPa)
#
#
# Indices 1 2 3 4 5 6 
#
# 1 0.011436 -0.001309 -0.001172 -0.002964 0.002006 -0.001135
# 2 -0.001309 0.016781 -0.004061 -0.001753 -0.003052 0.003853
# 3 -0.001172 -0.004061 0.010364 -0.005165 0.009655 -0.006989
# 4 -0.002964 -0.001753 -0.005165 0.035200 -0.024236 0.009665
# 5 0.002006 -0.003052 0.009655 -0.024236 0.047650 -0.013477
# 6 -0.001135 0.003853 -0.006989 0.009665 -0.013477 0.033024
#
#
# Mechanical properties :
#
#
# Convention : Reuss Voigt Hill
#
# Bulk Modulus (GPa) = 39.22127 49.71402 44.46764
# Shear Modulus (GPa) = 28.40302 40.62361 34.51332
#
# Velocity S-wave (km/s) = 3.23180 3.86501 3.56250
# Velocity P-wave (km/s) = 5.32435 6.18053 5.76834
#
# Compressibility (1/GPa) = 0.02549637
#
# Stress axis : x y z
#
# Youngs Moduli (GPa) = 87.44633 59.59296 96.48435
#
# Poissons Ratio (x) = 0.07801 0.11311
# Poissons Ratio (y) = 0.11447 0.39180
# Poissons Ratio (z) = 0.10251 0.24199
#
# Static dielectric constant tensor:
#      x y z
#    x 3.273100 -1.896700 1.786260 
#    y -1.896700 5.273160 -3.123930 
#    z 1.786260 -3.123930 5.354680 
# 
# From -- ./inp_files/24011.got.cif
#   From: 2010.05.17/outbox.cif.g08.bks.cpg/sg2_13_cif.got.tgz:24011.got - 2010.06.03 11:33:40.
