data_PCOD9104418
_publ_section_title
;
Structure prediction by ZEFSAII (Michael W. Deem and Ramdas Pophale) SiO2 
 PCOD9104418
Probable space group: P -1
;
_chemical_formula_sum "Si O2"
_cell_formula_units_Z 16
_cell_length_a 14.972917
_cell_length_b 10.504618
_cell_length_c 13.246585
_cell_angle_alpha 55.433451
_cell_angle_beta 123.748622
_cell_angle_gamma 155.020619
_cell_volume 719.402059
_symmetry_space_group_name_H-M "P -1"
_symmetry_group_IT_number 2
_symmetry_cell_setting 'triclinic'
loop_
_space_group_symop_operation_xyz
x,y,z
-x,-y,-z
loop_
_atom_site_type_symbol
_atom_site_label
_atom_site_fract_x
_atom_site_fract_y
_atom_site_fract_z
Si Si1 0.415977 0.035841 0.364098
Si Si2 0.514769 0.759674 0.072512
Si Si3 0.705872 0.321366 0.875809
Si Si4 0.350576 0.829836 0.726718
Si Si5 0.822230 0.699803 0.323898
Si Si6 0.813472 0.689596 0.086589
Si Si7 0.015322 0.640222 0.569594
Si Si8 0.903964 0.110193 0.273367
O O1 0.489760 0.076207 0.280862
O O2 0.569521 0.367712 0.338302
O O3 0.500000 0.000000 0.500000
O O4 0.166173 0.714181 0.364260
O O5 0.316606 0.585404 0.089399
O O6 0.671172 0.853399 0.196305
O O7 0.409429 0.549229 0.003332
O O8 0.656665 0.086124 0.986006
O O9 0.918128 0.597109 0.820664
O O10 0.499550 0.101923 0.776428
O O11 0.197606 0.513271 0.825712
O O12 0.221364 0.797250 0.598293
O O13 0.836824 0.761422 0.187149
O O14 0.931848 0.669432 0.428803
O O15 0.929596 0.958280 0.346655
O O16 0.000000 0.000000 0.000000
O O17 0.063286 0.781910 0.643301
#
# Coordination Sequence:
#
# PCOD9104418 Si02
#       8
#     2   2   2   2   2   2   2   2
#     4   9  20  39  61  87 123 164 206 253 301 369
#     4  10  22  38  63  91 122 164 214 258 308 372
#     4  10  20  39  60  93 124 156 211 264 307 366
#     4  10  20  39  67  92 122 164 215 256 304 380
#     4  10  24  41  60  94 133 164 206 264 312 379
#     4  10  22  42  63  91 131 167 206 264 318 370
#     4  11  22  41  68  93 125 170 212 255 315 376
#     4  12  22  39  65  94 126 166 206 262 322 366
#
# _framework density 22.240691999999999
#
# number of rings (size 3 to 8) (size 9 to 14) (size 15 to 20)
#    0.000    1.750    2.500    1.500    0.000    6.000 
#    2.250    4.375    0.000    0.000    0.000    0.000 
#    0.000    0.000    0.000    0.000    0.000    0.000 
#
# Total GULP energy -89268.185623 kJ/mol
# GULP energy per Si atom -5579.261601 kJ/mol
# Density = 2.219007 g / cm^3
# Si number density = 22.240692 Si / 1000 Ang^3
#
#
#
# Elastic Constant Matrix: (Units=GPa)
#
#
# Indices 1 2 3 4 5 6 
#
# 1 48.7131 13.9598 12.7574 5.4496 -12.0522 -5.1136
# 2 13.9598 76.1144 29.0081 3.1437 -5.9439 -10.6628
# 3 12.7574 29.0081 81.5967 8.7237 -12.9782 2.7475
# 4 5.4496 3.1437 8.7237 33.3961 3.0465 -3.0240
# 5 -12.0522 -5.9439 -12.9782 3.0465 30.9639 7.8528
# 6 -5.1136 -10.6628 2.7475 -3.0240 7.8528 18.7652
#
#
#
# Elastic Compliance Matrix: (Units=1/GPa)
#
#
# Indices 1 2 3 4 5 6 
#
# 1 0.024373 -0.003206 -0.000845 -0.004202 0.008780 0.000592
# 2 -0.003206 0.017758 -0.007130 0.002216 -0.004182 0.012368
# 3 -0.000845 -0.007130 0.017345 -0.005588 0.009040 -0.011505
# 4 -0.004202 0.002216 -0.005588 0.033681 -0.009486 0.010329
# 5 0.008780 -0.004182 0.009040 -0.009486 0.045143 -0.021728
# 6 0.000592 0.012368 -0.011505 0.010329 -0.021728 0.072921
#
#
# Mechanical properties :
#
#
# Convention : Reuss Voigt Hill
#
# Bulk Modulus (GPa) = 26.94438 35.31942 31.13190
# Shear Modulus (GPa) = 20.32886 26.67162 23.50024
#
# Velocity S-wave (km/s) = 3.02659 3.46674 3.25412
# Velocity P-wave (km/s) = 4.93506 5.65150 5.30539
#
# Compressibility (1/GPa) = 0.03711349
#
# Stress axis : x y z
#
# Youngs Moduli (GPa) = 41.02897 56.31218 57.65308
#
# Poissons Ratio (x) = 0.18053 0.04872
# Poissons Ratio (y) = 0.13153 0.41109
# Poissons Ratio (z) = 0.03467 0.40153
#
# Static dielectric constant tensor:
#      x y z
#    x 1.869640 -0.012880 -0.018930 
#    y -0.012880 1.844260 0.012880 
#    z -0.018930 0.012880 1.853860 
# 
# From -- ./inp_files/471634.got.cif
#   From: 2010.05.17/outbox.cif.g08.bks.cpg/sg2_236_cif.got.tgz:471634.got - 2010.06.03 11:33:40.
