data_PCOD9104977
_publ_section_title
;
Structure prediction by ZEFSAII (Michael W. Deem and Ramdas Pophale) SiO2 
 PCOD9104977
Probable space group: P -1
;
_chemical_formula_sum "Si O2"
_cell_formula_units_Z 12
_cell_length_a 4.929974
_cell_length_b 8.199573
_cell_length_c 15.515692
_cell_angle_alpha 121.997105
_cell_angle_beta 101.323561
_cell_angle_gamma 109.166311
_cell_volume 445.522295
_symmetry_space_group_name_H-M "P -1"
_symmetry_group_IT_number 2
_symmetry_cell_setting 'triclinic'
loop_
_space_group_symop_operation_xyz
x,y,z
-x,-y,-z
loop_
_atom_site_type_symbol
_atom_site_label
_atom_site_fract_x
_atom_site_fract_y
_atom_site_fract_z
Si Si1 0.890852 0.345674 0.071265
Si Si2 0.639860 0.815683 0.692491
Si Si3 0.371913 0.000318 0.604708
Si Si4 0.620363 0.611925 0.195059
Si Si5 0.351185 0.344069 0.594508
Si Si6 0.282185 0.931635 0.837785
O O1 0.859587 0.563772 0.143857
O O2 0.820503 0.216280 0.122418
O O3 0.256475 0.431538 0.092534
O O4 0.607935 0.168389 0.942959
O O5 0.598804 0.912258 0.627317
O O6 0.571808 0.563649 0.614482
O O7 0.365958 0.811301 0.734437
O O8 0.981605 0.955831 0.799997
O O9 0.009325 0.802691 0.505712
O O10 0.351024 0.149149 0.723638
O O11 0.484303 0.180558 0.583822
O O12 0.659980 0.567095 0.285448
#
# Coordination Sequence:
#
# PCOD9104977 Si02
#       6
#     2   2   2   2   2   2
#     4  11  20  39  64  88 120 166 199 245 303 358
#     4  12  22  41  62  93 123 156 200 253 295 356
#     4   9  21  40  64  92 121 159 203 244 303 358
#     4  10  20  39  63  86 121 156 203 245 294 356
#     4   9  19  42  65  88 123 162 197 247 302 358
#     4  11  22  37  62  93 121 158 206 245 300 358
#
# _framework density 26.934676
#
# number of rings (size 3 to 8) (size 9 to 14) (size 15 to 20)
#    1.000    0.667    3.333    1.500    0.000    4.000 
#    0.000   15.000    0.000    0.000    0.000    0.000 
#    0.000    0.000    0.000    0.000    0.000    0.000 
#
# Total GULP energy -67244.076303 kJ/mol
# GULP energy per Si atom -5603.673025 kJ/mol
# Density = 2.687337 g / cm^3
# Si number density = 26.934676 Si / 1000 Ang^3
#
#
#
# Elastic Constant Matrix: (Units=GPa)
#
#
# Indices 1 2 3 4 5 6 
#
# 1 127.6209 33.7507 32.2388 -9.4703 27.5623 -24.5968
# 2 33.7507 157.2394 67.2802 -5.7046 15.1272 -40.9491
# 3 32.2388 67.2802 95.4944 3.9872 39.8878 -21.8905
# 4 -9.4703 -5.7046 3.9872 33.3110 0.9715 -2.0391
# 5 27.5623 15.1272 39.8878 0.9715 52.2166 -8.6146
# 6 -24.5968 -40.9491 -21.8905 -2.0391 -8.6146 38.1475
#
#
#
# Elastic Compliance Matrix: (Units=1/GPa)
#
#
# Indices 1 2 3 4 5 6 
#
# 1 0.010178 0.000046 -0.000666 0.003436 -0.004033 0.005503
# 2 0.000046 0.012059 -0.008312 0.003521 0.004312 0.009366
# 3 -0.000666 -0.008312 0.022875 -0.003909 -0.014598 0.000269
# 4 0.003436 0.003521 -0.003909 0.032396 0.000472 0.005590
# 5 -0.004033 0.004312 -0.014598 0.000472 0.031296 0.000744
# 6 0.005503 0.009366 0.000269 0.005590 0.000744 0.040437
#
#
# Mechanical properties :
#
#
# Convention : Reuss Voigt Hill
#
# Bulk Modulus (GPa) = 36.70047 71.87712 54.28879
# Shear Modulus (GPa) = 28.37874 41.20737 34.79306
#
# Velocity S-wave (km/s) = 3.24946 3.91564 3.59800
# Velocity P-wave (km/s) = 5.26631 6.86925 6.12048
#
# Compressibility (1/GPa) = 0.02724760
#
# Stress axis : x y z
#
# Youngs Moduli (GPa) = 98.24735 82.92832 43.71522
#
# Poissons Ratio (x) = -0.00381 0.02911
# Poissons Ratio (y) = -0.00451 0.36338
# Poissons Ratio (z) = 0.06542 0.68934
#
# Static dielectric constant tensor:
#      x y z
#    x 1.981410 0.019300 -0.043570 
#    y 0.019300 2.158830 -0.008670 
#    z -0.043570 -0.008670 2.091230 
# 
# From -- ./inp_files/86532.got.cif
#   From: 2010.05.17/outbox.cif.g08.bks.cpg/sg2_44_cif.got.tgz:86532.got - 2010.06.03 11:33:40.
