data_PCOD9104916
_publ_section_title
;
Structure prediction by ZEFSAII (Michael W. Deem and Ramdas Pophale) SiO2 
 PCOD9104916
Probable space group: P -1
;
_chemical_formula_sum "Si O2"
_cell_formula_units_Z 15
_cell_length_a 19.004015
_cell_length_b 11.436686
_cell_length_c 6.795273
_cell_angle_alpha 101.543822
_cell_angle_beta 90.138713
_cell_angle_gamma 153.739435
_cell_volume 581.164937
_symmetry_space_group_name_H-M "P -1"
_symmetry_group_IT_number 2
_symmetry_cell_setting 'triclinic'
loop_
_space_group_symop_operation_xyz
x,y,z
-x,-y,-z
loop_
_atom_site_type_symbol
_atom_site_label
_atom_site_fract_x
_atom_site_fract_y
_atom_site_fract_z
Si Si1 0.460510 0.549103 0.793320
Si Si2 0.119762 0.335140 0.513458
Si Si3 0.500000 0.000000 0.000000
Si Si4 0.393503 0.188086 0.503785
Si Si5 0.701691 0.081321 0.204826
Si Si6 0.779775 0.430781 0.816121
Si Si7 0.182531 0.289724 0.841176
Si Si8 0.978734 0.310787 0.778517
O O1 0.449675 0.393321 0.693753
O O2 0.464585 0.615320 0.597385
O O3 0.304099 0.363841 0.856140
O O4 0.629247 0.853136 0.014871
O O5 0.199720 0.535575 0.406106
O O6 0.250227 0.489656 0.738164
O O7 0.988180 0.209681 0.602088
O O8 0.009671 0.054852 0.329865
O O9 0.398864 0.874085 0.175259
O O10 0.595938 0.030915 0.108811
O O11 0.341645 0.007698 0.597662
O O12 0.217202 0.948862 0.304904
O O13 0.899480 0.408193 0.245775
O O14 0.813642 0.622716 0.940542
O O15 0.928992 0.584664 0.982065
#
# Coordination Sequence:
#
# PCOD9104916 Si02
#       8
#     2   2   1   2   2   2   2   2
#     4  11  24  43  67  97 134 169 221 276 322 389
#     4  10  21  38  66  96 130 179 207 278 334 376
#     4  10  22  40  62  98 132 160 220 262 318 404
#     4  11  25  45  67  96 129 182 217 267 331 381
#     4  11  24  44  67  94 135 173 214 276 324 393
#     4  10  21  39  64  97 132 172 213 275 335 379
#     4  10  20  39  62  96 132 164 232 270 313 403
#     4  10  23  43  63  97 134 163 231 262 312 416
#
# _framework density 25.810229
#
# number of rings (size 3 to 8) (size 9 to 14) (size 15 to 20)
#    0.000    1.600    2.667    1.200    1.867    3.733 
#    4.800    2.667    0.000    0.000    0.000    0.000 
#    0.000    0.000    0.000    0.000    0.000    0.000 
#
# Total GULP energy -83751.041872 kJ/mol
# GULP energy per Si atom -5583.402791 kJ/mol
# Density = 2.575148 g / cm^3
# Si number density = 25.810229 Si / 1000 Ang^3
#
#
#
# Elastic Constant Matrix: (Units=GPa)
#
#
# Indices 1 2 3 4 5 6 
#
# 1 63.3734 21.4200 22.3156 -15.2810 3.3922 3.0857
# 2 21.4200 79.5513 29.5087 -16.1503 12.7224 -19.9499
# 3 22.3156 29.5087 79.6313 -32.6320 8.9059 -9.5645
# 4 -15.2810 -16.1503 -32.6320 54.3710 -9.2313 2.0516
# 5 3.3922 12.7224 8.9059 -9.2313 15.1413 1.7472
# 6 3.0857 -19.9499 -9.5645 2.0516 1.7472 31.6754
#
#
#
# Elastic Compliance Matrix: (Units=1/GPa)
#
#
# Indices 1 2 3 4 5 6 
#
# 1 0.019883 -0.006157 -0.003650 0.002766 0.005405 -0.007394
# 2 -0.006157 0.021449 -0.002809 -0.000453 -0.016908 0.014223
# 3 -0.003650 -0.002809 0.019099 0.008933 -0.003064 0.003944
# 4 0.002766 -0.000453 0.008933 0.026181 0.010484 -0.000131
# 5 0.005405 -0.016908 -0.003064 0.010484 0.089277 -0.017705
# 6 -0.007394 0.014223 0.003944 -0.000131 -0.017705 0.043424
#
#
# Mechanical properties :
#
#
# Convention : Reuss Voigt Hill
#
# Bulk Modulus (GPa) = 28.40957 41.00496 34.70727
# Shear Modulus (GPa) = 19.50991 30.19167 24.85079
#
# Velocity S-wave (km/s) = 2.75234 3.42388 3.10631
# Velocity P-wave (km/s) = 4.59690 5.61713 5.13243
#
# Compressibility (1/GPa) = 0.03519940
#
# Stress axis : x y z
#
# Youngs Moduli (GPa) = 50.29335 46.62123 52.35949
#
# Poissons Ratio (x) = 0.28706 0.19110
# Poissons Ratio (y) = 0.30967 0.14708
# Poissons Ratio (z) = 0.18355 0.13096
#
# Static dielectric constant tensor:
#      x y z
#    x 1.989030 -0.042590 0.011220 
#    y -0.042590 2.024410 -0.043950 
#    z 0.011220 -0.043950 1.960860 
# 
# From -- ./inp_files/118293.got.cif
#   From: 2010.05.17/outbox.cif.g08.bks.cpg/sg2_60_cif.got.tgz:118293.got - 2010.06.03 11:33:40.
