data_PCOD9104450
_publ_section_title
;
Structure prediction by ZEFSAII (Michael W. Deem and Ramdas Pophale) SiO2 
 PCOD9104450
Probable space group: P -1
;
_chemical_formula_sum "Si O2"
_cell_formula_units_Z 16
_cell_length_a 18.276302
_cell_length_b 11.929666
_cell_length_c 5.729835
_cell_angle_alpha 103.945138
_cell_angle_beta 92.207582
_cell_angle_gamma 37.318329
_cell_volume 709.710645
_symmetry_space_group_name_H-M "P -1"
_symmetry_group_IT_number 2
_symmetry_cell_setting 'triclinic'
loop_
_space_group_symop_operation_xyz
x,y,z
-x,-y,-z
loop_
_atom_site_type_symbol
_atom_site_label
_atom_site_fract_x
_atom_site_fract_y
_atom_site_fract_z
Si Si1 0.469858 0.402467 0.939355
Si Si2 0.895393 0.975915 0.449563
Si Si3 0.114723 0.616572 0.998534
Si Si4 0.303322 0.960101 0.469111
Si Si5 0.870426 0.610890 0.456236
Si Si6 0.281547 0.375211 0.281366
Si Si7 0.105704 0.795943 0.700554
Si Si8 0.548692 0.664375 0.596794
O O1 0.412702 0.441766 0.203343
O O2 0.601476 0.166278 0.801434
O O3 0.500000 0.500000 0.000000
O O4 0.404357 0.450591 0.705435
O O5 0.778779 0.049939 0.545456
O O6 0.002060 0.758549 0.239513
O O7 0.968430 0.942567 0.654189
O O8 0.861642 0.117606 0.329724
O O9 0.250697 0.422352 0.028934
O O10 0.092605 0.542692 0.780118
O O11 0.109940 0.746818 0.939722
O O12 0.211799 0.185075 0.570062
O O13 0.400217 0.837951 0.633945
O O14 0.778604 0.666322 0.659356
O O15 0.000000 0.500000 0.500000
O O16 0.199234 0.587265 0.480137
O O17 0.415009 0.246793 0.324511
#
# Coordination Sequence:
#
# PCOD9104450 Si02
#       8
#     2   2   2   2   2   2   2   2
#     4  10  24  46  71 100 142 185 231 285 345 411
#     4  10  20  39  60  99 133 172 223 281 350 419
#     4  10  21  38  66  91 132 183 220 285 346 417
#     4  10  25  41  66  99 139 181 232 289 344 409
#     4  11  24  45  67  99 136 176 234 286 350 411
#     4  10  23  40  65  95 134 180 230 282 343 409
#     4   9  20  36  62  96 135 167 226 277 353 412
#     4  10  25  44  69 105 138 179 241 279 350 410
#
# _framework density 22.5444
#
# number of rings (size 3 to 8) (size 9 to 14) (size 15 to 20)
#    0.750    1.250    0.000    3.000    5.250    5.500 
#    0.000    1.250    0.000    0.000    0.000    0.000 
#    0.000    0.000    0.000    0.000    0.000    0.000 
#
# Total GULP energy -89198.465247 kJ/mol
# GULP energy per Si atom -5574.904078 kJ/mol
# Density = 2.249309 g / cm^3
# Si number density = 22.544400 Si / 1000 Ang^3
#
#
#
# Elastic Constant Matrix: (Units=GPa)
#
#
# Indices 1 2 3 4 5 6 
#
# 1 124.3272 9.2529 34.6303 -18.7345 7.9214 4.2873
# 2 9.2529 35.4652 7.1300 0.7749 7.5392 6.1945
# 3 34.6303 7.1300 103.5310 -18.7181 1.0770 3.2543
# 4 -18.7345 0.7749 -18.7181 30.1531 -2.1529 0.8702
# 5 7.9214 7.5392 1.0770 -2.1529 27.5529 -0.6059
# 6 4.2873 6.1945 3.2543 0.8702 -0.6059 33.9727
#
#
#
# Elastic Compliance Matrix: (Units=1/GPa)
#
#
# Indices 1 2 3 4 5 6 
#
# 1 0.009619 -0.001602 -0.002244 0.004513 -0.001905 -0.000856
# 2 -0.001602 0.031882 -0.002037 -0.003534 -0.008580 -0.005479
# 3 -0.002244 -0.002037 0.011638 0.005986 0.001202 -0.000592
# 4 0.004513 -0.003534 0.005986 0.039998 0.002528 -0.001478
# 5 -0.001905 -0.008580 0.001202 0.002528 0.039391 0.002328
# 6 -0.000856 -0.005479 -0.000592 -0.001478 0.002328 0.030678
#
#
# Mechanical properties :
#
#
# Convention : Reuss Voigt Hill
#
# Bulk Modulus (GPa) = 24.17124 40.59442 32.38283
# Shear Modulus (GPa) = 26.48799 32.48975 29.48887
#
# Velocity S-wave (km/s) = 3.43144 3.80036 3.62060
# Velocity P-wave (km/s) = 5.14243 6.10758 5.64567
#
# Compressibility (1/GPa) = 0.04137148
#
# Stress axis : x y z
#
# Youngs Moduli (GPa) = 103.96478 31.36529 85.92366
#
# Poissons Ratio (x) = 0.05026 0.19285
# Poissons Ratio (y) = 0.16658 0.17505
# Poissons Ratio (z) = 0.23334 0.06390
#
# Static dielectric constant tensor:
#      x y z
#    x 1.857040 -0.032140 -0.021500 
#    y -0.032140 1.853550 -0.015670 
#    z -0.021500 -0.015670 1.909700 
# 
# From -- ./inp_files/109192.got.cif
#   From: 2010.05.17/outbox.cif.g08.bks.cpg/sg2_55_cif.got.tgz:109192.got - 2010.06.03 11:33:40.
