data_PCOD9104586
_publ_section_title
;
Structure prediction by ZEFSAII (Michael W. Deem and Ramdas Pophale) SiO2 
 PCOD9104586
Probable space group: P -1
;
_chemical_formula_sum "Si O2"
_cell_formula_units_Z 16
_cell_length_a 21.131956
_cell_length_b 10.697230
_cell_length_c 6.784684
_cell_angle_alpha 112.847430
_cell_angle_beta 71.768978
_cell_angle_gamma 146.592869
_cell_volume 777.987460
_symmetry_space_group_name_H-M "P -1"
_symmetry_group_IT_number 2
_symmetry_cell_setting 'triclinic'
loop_
_space_group_symop_operation_xyz
x,y,z
-x,-y,-z
loop_
_atom_site_type_symbol
_atom_site_label
_atom_site_fract_x
_atom_site_fract_y
_atom_site_fract_z
Si Si1 0.721691 0.691188 0.555055
Si Si2 0.124637 0.227960 0.274779
Si Si3 0.513009 0.687008 0.629733
Si Si4 0.726113 0.085075 0.396943
Si Si5 0.900618 0.166794 0.457298
Si Si6 0.611251 0.751349 0.945022
Si Si7 0.900087 0.558905 0.320528
Si Si8 0.051579 0.283947 0.044283
O O1 0.768820 0.664082 0.652624
O O2 0.611588 0.462476 0.395534
O O3 0.680444 0.754272 0.756220
O O4 0.821380 0.909090 0.445564
O O5 0.075905 0.252032 0.498644
O O6 0.037169 0.966232 0.129371
O O7 0.137397 0.339765 0.132973
O O8 0.500000 0.500000 0.500000
O O9 0.560838 0.778662 0.859659
O O10 0.609318 0.903954 0.522668
O O11 0.816582 0.150107 0.478231
O O12 0.788767 0.320899 0.397734
O O13 0.692605 0.942750 0.151158
O O14 0.989897 0.344444 0.654899
O O15 0.976539 0.251302 0.245548
O O16 0.500000 0.500000 0.000000
O O17 0.888751 0.540353 0.086333
#
# Coordination Sequence:
#
# PCOD9104586 Si02
#       8
#     2   2   2   2   2   2   2   2
#     4  11  20  39  66  94 118 153 203 262 293 350
#     4  10  22  39  64  87 120 163 209 246 292 353
#     4  10  20  39  61  90 118 151 200 254 301 348
#     4  12  23  39  63  90 127 162 193 247 316 363
#     4  11  22  38  63  94 123 156 199 250 310 359
#     4  11  20  38  63  90 120 151 202 252 299 352
#     4  11  25  41  56  91 132 162 196 245 305 364
#     4  10  22  39  61  91 120 164 209 245 291 354
#
# _framework density 20.565885000000002
#
# number of rings (size 3 to 8) (size 9 to 14) (size 15 to 20)
#    0.000    1.250    6.250    1.500    3.500    2.500 
#    0.000    0.625    0.000    1.500    0.000    0.000 
#    0.000    0.000    0.000    0.000    0.000    0.000 
#
# Total GULP energy -89338.812245 kJ/mol
# GULP energy per Si atom -5583.675765 kJ/mol
# Density = 2.051908 g / cm^3
# Si number density = 20.565885 Si / 1000 Ang^3
#
#
#
# Elastic Constant Matrix: (Units=GPa)
#
#
# Indices 1 2 3 4 5 6 
#
# 1 82.4672 26.7665 32.8812 -2.9986 34.8713 19.4095
# 2 26.7665 89.6119 15.4317 -33.7567 13.5498 3.8066
# 3 32.8812 15.4317 83.3517 -22.6223 31.3788 3.2624
# 4 -2.9986 -33.7567 -22.6223 30.3040 -5.6393 5.7214
# 5 34.8713 13.5498 31.3788 -5.6393 35.5663 8.5600
# 6 19.4095 3.8066 3.2624 5.7214 8.5600 20.2841
#
#
#
# Elastic Compliance Matrix: (Units=1/GPa)
#
#
# Indices 1 2 3 4 5 6 
#
# 1 0.026655 -0.007981 -0.004903 -0.010717 -0.017370 -0.012866
# 2 -0.007981 0.026693 0.009807 0.037214 -0.003142 -0.008121
# 3 -0.004903 0.009807 0.025947 0.026937 -0.017144 -0.001685
# 4 -0.010717 0.037214 0.026937 0.097369 -0.005712 -0.026116
# 5 -0.017370 -0.003142 -0.017144 -0.005712 0.061630 -0.004429
# 6 -0.012866 -0.008121 -0.001685 -0.026116 -0.004429 0.072641
#
#
# Mechanical properties :
#
#
# Convention : Reuss Voigt Hill
#
# Bulk Modulus (GPa) = 13.67230 45.06550 29.36890
# Shear Modulus (GPa) = 14.64256 29.25430 21.94843
#
# Velocity S-wave (km/s) = 2.67120 3.77565 3.27039
# Velocity P-wave (km/s) = 4.02196 6.40060 5.34527
#
# Compressibility (1/GPa) = 0.07314057
#
# Stress axis : x y z
#
# Youngs Moduli (GPa) = 37.51627 37.46335 38.54019
#
# Poissons Ratio (x) = 0.29900 0.18897
# Poissons Ratio (y) = 0.29943 -0.37798
# Poissons Ratio (z) = 0.18395 -0.36742
#
# Static dielectric constant tensor:
#      x y z
#    x 1.775300 -0.020070 0.026350 
#    y -0.020070 1.778950 -0.006790 
#    z 0.026350 -0.006790 1.745130 
# 
# From -- ./inp_files/123713.got.cif
#   From: 2010.05.17/outbox.cif.g08.bks.cpg/sg2_62_cif.got.tgz:123713.got - 2010.06.03 11:33:40.
