data_PCOD9104862
_publ_section_title
;
Structure prediction by ZEFSAII (Michael W. Deem and Ramdas Pophale) SiO2 
 PCOD9104862
Probable space group: P -1
;
_chemical_formula_sum "Si O2"
_cell_formula_units_Z 16
_cell_length_a 5.448608
_cell_length_b 22.099365
_cell_length_c 11.939362
_cell_angle_alpha 28.763446
_cell_angle_beta 95.877442
_cell_angle_gamma 95.028398
_cell_volume 688.135359
_symmetry_space_group_name_H-M "P -1"
_symmetry_group_IT_number 2
_symmetry_cell_setting 'triclinic'
loop_
_space_group_symop_operation_xyz
x,y,z
-x,-y,-z
loop_
_atom_site_type_symbol
_atom_site_label
_atom_site_fract_x
_atom_site_fract_y
_atom_site_fract_z
Si Si1 0.027092 0.719861 0.982913
Si Si2 0.394790 0.909939 0.738777
Si Si3 0.408076 0.472695 0.165135
Si Si4 0.613288 0.826413 0.355602
Si Si5 0.070070 0.519012 0.731914
Si Si6 0.881179 0.871648 0.520416
Si Si7 0.915625 0.175777 0.764499
Si Si8 0.868049 0.915179 0.850642
O O1 0.300684 0.779411 0.897903
O O2 0.906427 0.765878 0.785351
O O3 0.904044 0.802451 0.940663
O O4 0.015027 0.570463 0.228657
O O5 0.572647 0.893986 0.877559
O O6 0.500000 0.000000 0.500000
O O7 0.168618 0.994340 0.636747
O O8 0.394843 0.323529 0.415128
O O9 0.643558 0.516482 0.176601
O O10 0.135772 0.515535 0.124944
O O11 0.500000 0.500000 0.000000
O O12 0.688181 0.848773 0.451769
O O13 0.346053 0.865650 0.232880
O O14 0.852279 0.867139 0.230034
O O15 0.070848 0.670400 0.476154
O O16 0.137931 0.927776 0.398438
O O17 0.964843 0.124070 0.973960
#
# Coordination Sequence:
#
# PCOD9104862 Si02
#       8
#     2   2   2   2   2   2   2   2
#     4  11  23  39  65  98 124 162 214 269 326 371
#     4  11  21  40  62  93 130 162 212 267 325 373
#     4  10  20  39  62  92 128 166 208 260 317 370
#     4  10  24  42  65  93 131 169 211 261 313 382
#     4  10  23  40  63  94 128 164 209 260 313 381
#     4  11  23  39  63  98 123 162 215 268 324 373
#     4  10  25  46  63  93 132 172 214 253 313 384
#     4  11  24  42  64  88 130 171 210 266 312 380
#
# _framework density 23.251239999999999
#
# number of rings (size 3 to 8) (size 9 to 14) (size 15 to 20)
#    0.000    1.500    2.500    1.875    7.000    4.500 
#    0.000    0.625    0.000    0.000    0.000    0.000 
#    0.000    0.000    0.000    0.000    0.000    0.000 
#
# Total GULP energy -89075.648680 kJ/mol
# GULP energy per Si atom -5567.228042 kJ/mol
# Density = 2.319832 g / cm^3
# Si number density = 23.251240 Si / 1000 Ang^3
#
#
#
# Elastic Constant Matrix: (Units=GPa)
#
#
# Indices 1 2 3 4 5 6 
#
# 1 91.5150 43.9397 18.1004 -5.2824 0.6316 27.7139
# 2 43.9397 94.1113 17.4473 0.8390 5.9642 31.3456
# 3 18.1004 17.4473 24.2445 4.6599 1.8913 10.2083
# 4 -5.2824 0.8390 4.6599 43.6643 6.0513 -1.1817
# 5 0.6316 5.9642 1.8913 6.0513 26.1096 -0.1203
# 6 27.7139 31.3456 10.2083 -1.1817 -0.1203 42.6650
#
#
#
# Elastic Compliance Matrix: (Units=1/GPa)
#
#
# Indices 1 2 3 4 5 6 
#
# 1 0.016325 -0.004520 -0.007163 0.002604 0.000528 -0.005496
# 2 -0.004520 0.016532 -0.004848 -0.000104 -0.003329 -0.008062
# 3 -0.007163 -0.004848 0.053407 -0.006447 -0.001116 -0.004746
# 4 0.002604 -0.000104 -0.006447 0.024655 -0.005284 0.000595
# 5 0.000528 -0.003329 -0.001116 -0.005284 0.040364 0.002337
# 6 -0.005496 -0.008062 -0.004746 0.000595 0.002337 0.034090
#
#
# Mechanical properties :
#
#
# Convention : Reuss Voigt Hill
#
# Bulk Modulus (GPa) = 18.79621 40.98284 29.88952
# Shear Modulus (GPa) = 21.17113 31.17999 26.17556
#
# Velocity S-wave (km/s) = 3.02079 3.66594 3.35889
# Velocity P-wave (km/s) = 4.50204 5.96517 5.28449
#
# Compressibility (1/GPa) = 0.05320220
#
# Stress axis : x y z
#
# Youngs Moduli (GPa) = 61.25467 60.48829 18.72405
#
# Poissons Ratio (x) = 0.27343 0.13411
# Poissons Ratio (y) = 0.27689 0.09078
# Poissons Ratio (z) = 0.43875 0.29326
#
# Static dielectric constant tensor:
#      x y z
#    x 1.913950 0.059450 0.128600 
#    y 0.059450 1.825870 -0.085920 
#    z 0.128600 -0.085920 1.703170 
# 
# From -- ./inp_files/69993.got.cif
#   From: 2010.05.17/outbox.cif.g08.bks.cpg/sg2_35_cif.got.tgz:69993.got - 2010.06.03 11:33:40.
