data_PCOD9104164
_publ_section_title
;
Structure prediction by ZEFSAII (Michael W. Deem and Ramdas Pophale) SiO2 
 PCOD9104164
Probable space group: P -1
;
_chemical_formula_sum "Si O2"
_cell_formula_units_Z 14
_cell_length_a 23.655489
_cell_length_b 26.747649
_cell_length_c 9.485999
_cell_angle_alpha 27.333838
_cell_angle_beta 147.491312
_cell_angle_gamma 166.017193
_cell_volume 656.392632
_symmetry_space_group_name_H-M "P -1"
_symmetry_group_IT_number 2
_symmetry_cell_setting 'triclinic'
loop_
_space_group_symop_operation_xyz
x,y,z
-x,-y,-z
loop_
_atom_site_type_symbol
_atom_site_label
_atom_site_fract_x
_atom_site_fract_y
_atom_site_fract_z
Si Si1 0.938196 0.784581 0.036689
Si Si2 0.384713 0.351712 0.483482
Si Si3 0.400119 0.515472 0.681562
Si Si4 0.883545 0.327059 0.941191
Si Si5 0.826559 0.198699 0.629711
Si Si6 0.440295 0.979535 0.720681
Si Si7 0.678589 0.987488 0.151079
O O1 0.747593 0.672002 0.819227
O O2 0.851958 0.704593 0.218451
O O3 0.182881 0.076596 0.790860
O O4 0.979705 0.699483 0.288777
O O5 0.500000 0.500000 0.500000
O O6 0.565029 0.466232 0.459583
O O7 0.572724 0.770664 0.462168
O O8 0.500000 0.500000 0.000000
O O9 0.106109 0.611558 0.698301
O O10 0.682603 0.219661 0.714916
O O11 0.784332 0.208011 0.183821
O O12 0.868032 0.203219 0.126265
O O13 0.590998 0.979677 0.586583
O O14 0.786719 0.117607 0.903068
O O15 0.462130 0.870943 0.011041
#
# Coordination Sequence:
#
# PCOD9104164 Si02
#       7
#     2   2   2   2   2   2   2
#     4  10  23  39  67  91 123 163 206 251 320 363
#     4  10  22  45  65  90 122 160 210 262 308 368
#     4  10  21  42  66  87 126 163 204 264 309 360
#     4   9  21  37  57  86 123 162 209 239 305 371
#     4  12  20  37  62  91 125 162 201 254 305 368
#     4   9  21  37  58  85 129 157 207 246 306 362
#     4  10  20  39  58  89 125 164 202 256 304 360
#
# _framework density 21.328696999999998
#
# number of rings (size 3 to 8) (size 9 to 14) (size 15 to 20)
#    0.857    1.143    1.429    2.143    0.000    1.714 
#    2.571    1.429    0.000    0.000    0.000    0.000 
#    0.000    0.000    0.000    0.000    0.000    0.000 
#
# Total GULP energy -77988.448430 kJ/mol
# GULP energy per Si atom -5570.603459 kJ/mol
# Density = 2.128015 g / cm^3
# Si number density = 21.328697 Si / 1000 Ang^3
#
#
#
# Elastic Constant Matrix: (Units=GPa)
#
#
# Indices 1 2 3 4 5 6 
#
# 1 175.8714 25.4732 71.2620 -6.5031 -17.4485 11.6666
# 2 25.4732 46.3681 1.3557 -1.5401 -7.8197 -37.0691
# 3 71.2620 1.3557 145.0504 -13.4283 15.2052 99.7602
# 4 -6.5031 -1.5401 -13.4283 13.4847 10.2097 -0.5024
# 5 -17.4485 -7.8197 15.2052 10.2097 34.2021 -7.6158
# 6 11.6666 -37.0691 99.7602 -0.5024 -7.6158 117.4718
#
#
#
# Elastic Compliance Matrix: (Units=1/GPa)
#
#
# Indices 1 2 3 4 5 6 
#
# 1 0.005657 -0.010385 0.004488 0.010580 -0.006428 -0.008022
# 2 -0.010385 0.012424 0.020522 0.035464 -0.025277 -0.013963
# 3 0.004488 0.020522 -0.017924 -0.035780 0.030773 0.023094
# 4 0.010580 0.035464 -0.035780 0.025592 0.031273 0.042663
# 5 -0.006428 -0.025277 0.030773 0.031273 -0.010410 -0.034012
# 6 -0.008022 -0.013963 0.023094 0.042663 -0.034012 -0.016731
#
#
# Mechanical properties :
#
#
# Convention : Reuss Voigt Hill
#
# Bulk Modulus (GPa) = 34.00443 62.60798 48.30621
# Shear Modulus (GPa) = -239.93105 50.97830 -94.47637
#
# Velocity S-wave (km/s) = -10.61774 4.89420 -6.66270
# Velocity P-wave (km/s) = 11.59040 7.83295 6.04079
#
# Compressibility (1/GPa) = 0.02940794
#
# Stress axis : x y z
#
# Youngs Moduli (GPa) = 176.77053 80.48715 -55.79108
#
# Poissons Ratio (x) = 0.83586 0.25041
# Poissons Ratio (y) = 1.83577 1.14494
# Poissons Ratio (z) = -0.79342 -1.65175
#
# Static dielectric constant tensor:
#      x y z
#    x 1.824050 0.019490 0.002230 
#    y 0.019490 1.778120 -0.005050 
#    z 0.002230 -0.005050 1.730710 
# 
# From -- ./inp_files/349967.got.cif
#   From: 2010.05.17/outbox.cif.g08.bks.cpg/sg2_175_cif.got.tgz:349967.got - 2010.06.03 11:33:40.
