data_PCOD9104278
_publ_section_title
;
Structure prediction by ZEFSAII (Michael W. Deem and Ramdas Pophale) SiO2 
 PCOD9104278
Probable space group: P -1
;
_chemical_formula_sum "Si O2"
_cell_formula_units_Z 16
_cell_length_a 10.517966
_cell_length_b 11.325855
_cell_length_c 15.681715
_cell_angle_alpha 26.073458
_cell_angle_beta 57.363893
_cell_angle_gamma 70.637293
_cell_volume 629.700408
_symmetry_space_group_name_H-M "P -1"
_symmetry_group_IT_number 2
_symmetry_cell_setting 'triclinic'
loop_
_space_group_symop_operation_xyz
x,y,z
-x,-y,-z
loop_
_atom_site_type_symbol
_atom_site_label
_atom_site_fract_x
_atom_site_fract_y
_atom_site_fract_z
Si Si1 0.226231 0.461723 0.754756
Si Si2 0.158250 0.470460 0.422237
Si Si3 0.114465 0.061429 0.205196
Si Si4 0.360358 0.867163 0.942900
Si Si5 0.424816 0.059540 0.621790
Si Si6 0.591173 0.708392 0.702996
Si Si7 0.054606 0.817678 0.665537
Si Si8 0.696895 0.346553 0.571960
O O1 0.082171 0.556289 0.778110
O O2 0.226089 0.408175 0.688833
O O3 0.399793 0.739367 0.528285
O O4 0.218165 0.217379 0.983585
O O5 0.226712 0.697049 0.172861
O O6 0.279402 0.537374 0.415617
O O7 0.000000 0.500000 0.500000
O O8 0.068957 0.145724 0.626730
O O9 0.203523 0.863090 0.339269
O O10 0.080521 0.264670 0.156106
O O11 0.431435 0.620392 0.055155
O O12 0.306176 0.947455 0.819289
O O13 0.504846 0.147536 0.752270
O O14 0.448308 0.790564 0.740604
O O15 0.406565 0.252017 0.425688
O O16 0.764703 0.952527 0.516259
O O17 0.000000 0.000000 0.500000
#
# Coordination Sequence:
#
# PCOD9104278 Si02
#       8
#     2   2   2   2   2   2   2   2
#     4  10  21  38  63  90 123 166 208 254 311 371
#     4  10  23  42  62  90 125 165 214 262 309 363
#     4  11  21  41  60  90 127 165 205 256 314 372
#     4  11  20  40  66  90 119 167 208 257 313 362
#     4   9  21  38  60  93 127 160 205 251 310 375
#     4  10  20  39  59  95 128 160 203 253 309 376
#     4  11  21  39  60  92 130 164 203 251 312 382
#     4  10  22  40  65  88 122 162 213 262 306 365
#
# _framework density 25.408906999999999
#
# number of rings (size 3 to 8) (size 9 to 14) (size 15 to 20)
#    0.000    1.750    2.500    1.875    0.000    0.500 
#   13.500    2.500    0.000    9.000    0.000    0.000 
#    0.000    0.000    0.000    0.000    0.000    0.000 
#
# Total GULP energy -89531.251555 kJ/mol
# GULP energy per Si atom -5595.703222 kJ/mol
# Density = 2.535108 g / cm^3
# Si number density = 25.408907 Si / 1000 Ang^3
#
#
#
# Elastic Constant Matrix: (Units=GPa)
#
#
# Indices 1 2 3 4 5 6 
#
# 1 59.4120 16.7575 17.1198 6.1438 14.5183 18.6734
# 2 16.7575 93.4306 40.3081 31.1323 -1.3137 17.7151
# 3 17.1198 40.3081 121.8629 37.9542 15.8894 25.7720
# 4 6.1438 31.1323 37.9542 40.3297 11.4473 18.8438
# 5 14.5183 -1.3137 15.8894 11.4473 45.3643 1.9936
# 6 18.6734 17.7151 25.7720 18.8438 1.9936 35.8134
#
#
#
# Elastic Compliance Matrix: (Units=1/GPa)
#
#
# Indices 1 2 3 4 5 6 
#
# 1 0.024278 -0.004840 -0.000639 0.010211 -0.009619 -0.014642
# 2 -0.004840 0.016315 -0.002003 -0.012670 0.005822 0.002237
# 3 -0.000639 -0.002003 0.012382 -0.007868 -0.002058 -0.003332
# 4 0.010211 -0.012670 -0.007868 0.054167 -0.013619 -0.021138
# 5 -0.009619 0.005822 -0.002058 -0.013619 0.029046 0.009166
# 6 -0.014642 0.002237 -0.003332 -0.021138 0.009166 0.047460
#
#
# Mechanical properties :
#
#
# Convention : Reuss Voigt Hill
#
# Bulk Modulus (GPa) = 26.30879 47.00849 36.65864
# Shear Modulus (GPa) = 23.66527 37.66949 30.66738
#
# Velocity S-wave (km/s) = 3.05516 3.85454 3.47789
# Velocity P-wave (km/s) = 4.77723 6.19281 5.53050
#
# Compressibility (1/GPa) = 0.03801010
#
# Stress axis : x y z
#
# Youngs Moduli (GPa) = 41.19025 61.29472 80.76477
#
# Poissons Ratio (x) = 0.29668 0.05162
# Poissons Ratio (y) = 0.19937 0.16173
# Poissons Ratio (z) = 0.02633 0.12275
#
# Static dielectric constant tensor:
#      x y z
#    x 1.991800 -0.030590 0.003230 
#    y -0.030590 2.072800 0.027680 
#    z 0.003230 0.027680 1.978190 
# 
# From -- ./inp_files/261098.got.cif
#   From: 2010.05.17/outbox.cif.g08.bks.cpg/sg2_131_cif.got.tgz:261098.got - 2010.06.03 11:33:40.
