data_PCOD9104041
_publ_section_title
;
Structure prediction by ZEFSAII (Michael W. Deem and Ramdas Pophale) SiO2 
 PCOD9104041
Probable space group: P -1
;
_chemical_formula_sum "Si O2"
_cell_formula_units_Z 12
_cell_length_a 15.495645
_cell_length_b 7.806028
_cell_length_c 6.036316
_cell_angle_alpha 57.260216
_cell_angle_beta 75.010355
_cell_angle_gamma 49.001120
_cell_volume 458.167676
_symmetry_space_group_name_H-M "P -1"
_symmetry_group_IT_number 2
_symmetry_cell_setting 'triclinic'
loop_
_space_group_symop_operation_xyz
x,y,z
-x,-y,-z
loop_
_atom_site_type_symbol
_atom_site_label
_atom_site_fract_x
_atom_site_fract_y
_atom_site_fract_z
Si Si1 0.778884 0.423256 0.581951
Si Si2 0.628421 0.289035 0.979228
Si Si3 0.368087 0.116592 0.991194
Si Si4 0.849040 0.417087 0.959347
Si Si5 0.077917 0.176227 0.183882
Si Si6 0.152539 0.073176 0.693994
O O1 0.684793 0.417317 0.773369
O O2 0.699939 0.676497 0.307909
O O3 0.862612 0.132686 0.625974
O O4 0.862444 0.434471 0.676239
O O5 0.500000 0.500000 0.000000
O O6 0.633009 0.121168 0.892884
O O7 0.709250 0.096305 0.261351
O O8 0.280994 0.316437 0.099197
O O9 0.500000 0.000000 0.000000
O O10 0.939874 0.371557 0.106286
O O11 0.865957 0.146901 0.144021
O O12 0.109194 0.213186 0.384380
O O13 0.114786 0.185722 0.896038
#
# Coordination Sequence:
#
# PCOD9104041 Si02
#       6
#     2   2   2   2   2   2
#     4  10  23  44  67  99 138 179 223 290 343 412
#     4  10  24  45  67  97 137 183 231 284 351 411
#     4  12  25  43  68 102 132 178 238 283 345 416
#     4  10  21  38  68  98 136 179 230 279 345 412
#     4  10  20  38  74  99 139 185 230 278 354 412
#     4  10  20  40  64 101 136 182 227 282 344 411
#
# _framework density 26.191286999999999
#
# number of rings (size 3 to 8) (size 9 to 14) (size 15 to 20)
#    0.000    2.000    1.667    4.500    2.333    3.333 
#    9.000    4.167    0.000    0.000    0.000    0.000 
#    0.000    0.000    0.000    0.000    0.000    0.000 
#
# Total GULP energy -66992.699517 kJ/mol
# GULP energy per Si atom -5582.724960 kJ/mol
# Density = 2.613167 g / cm^3
# Si number density = 26.191287 Si / 1000 Ang^3
#
#
#
# Elastic Constant Matrix: (Units=GPa)
#
#
# Indices 1 2 3 4 5 6 
#
# 1 86.2754 48.6456 56.6263 12.1088 34.0934 12.7897
# 2 48.6456 158.7843 50.9191 1.0648 13.6634 -4.0366
# 3 56.6263 50.9191 160.0132 12.1581 22.0553 1.6441
# 4 12.1088 1.0648 12.1581 43.7469 -0.3355 14.6429
# 5 34.0934 13.6634 22.0553 -0.3355 47.0778 -4.1681
# 6 12.7897 -4.0366 1.6441 14.6429 -4.1681 48.1003
#
#
#
# Elastic Compliance Matrix: (Units=1/GPa)
#
#
# Indices 1 2 3 4 5 6 
#
# 1 0.025110 -0.004984 -0.004904 -0.003146 -0.015108 -0.007279
# 2 -0.004984 0.008071 -0.001165 0.000869 0.001992 0.001950
# 3 -0.004904 -0.001165 0.008443 -0.001413 0.000044 0.001351
# 4 -0.003146 0.000869 -0.001413 0.026425 0.002266 -0.006890
# 5 -0.015108 0.001992 0.000044 0.002266 0.032156 0.006279
# 6 -0.007279 0.001950 0.001351 -0.006890 0.006279 0.025485
#
#
# Mechanical properties :
#
#
# Convention : Reuss Voigt Hill
#
# Bulk Modulus (GPa) = 51.23536 79.71720 65.47628
# Shear Modulus (GPa) = 32.40403 44.37712 38.39058
#
# Velocity S-wave (km/s) = 3.52121 4.12071 3.83270
# Velocity P-wave (km/s) = 6.01135 7.28992 6.68129
#
# Compressibility (1/GPa) = 0.01951777
#
# Stress axis : x y z
#
# Youngs Moduli (GPa) = 39.82412 123.90358 118.43949
#
# Poissons Ratio (x) = 0.61756 0.58083
# Poissons Ratio (y) = 0.19849 0.13799
# Poissons Ratio (z) = 0.19530 0.14436
#
# Static dielectric constant tensor:
#      x y z
#    x 2.129630 0.002430 -0.062450 
#    y 0.002430 2.105130 0.107350 
#    z -0.062450 0.107350 2.155450 
# 
# From -- ./inp_files/36593.got.cif
#   From: 2010.05.17/outbox.cif.g08.bks.cpg/sg2_19_cif.got.tgz:36593.got - 2010.06.03 11:33:40.
