data_PCOD9104809
_publ_section_title
;
Structure prediction by ZEFSAII (Michael W. Deem and Ramdas Pophale) SiO2 
 PCOD9104809
Probable space group: P -1
;
_chemical_formula_sum "Si O2"
_cell_formula_units_Z 13
_cell_length_a 16.067816
_cell_length_b 16.612869
_cell_length_c 12.893413
_cell_angle_alpha 23.394820
_cell_angle_beta 23.304608
_cell_angle_gamma 25.473010
_cell_volume 499.825945
_symmetry_space_group_name_H-M "P -1"
_symmetry_group_IT_number 2
_symmetry_cell_setting 'triclinic'
loop_
_space_group_symop_operation_xyz
x,y,z
-x,-y,-z
loop_
_atom_site_type_symbol
_atom_site_label
_atom_site_fract_x
_atom_site_fract_y
_atom_site_fract_z
Si Si1 0.356944 0.798163 0.283023
Si Si2 0.908353 0.859058 0.349729
Si Si3 0.500000 0.000000 0.500000
Si Si4 0.054341 0.272418 0.051782
Si Si5 0.259307 0.470911 0.303298
Si Si6 0.618886 0.548055 0.475193
Si Si7 0.182192 0.757087 0.855423
O O1 0.538085 0.690660 0.293047
O O2 0.417626 0.673066 0.252739
O O3 0.133392 0.752393 0.627674
O O4 0.282147 0.055157 0.058522
O O5 0.098322 0.616104 0.407050
O O6 0.666531 0.892541 0.537675
O O7 0.885904 0.993402 0.322628
O O8 0.000000 0.000000 0.000000
O O9 0.337226 0.211898 0.506621
O O10 0.955111 0.262950 0.063947
O O11 0.131253 0.468073 0.762601
O O12 0.500000 0.500000 0.000000
O O13 0.154314 0.604653 0.159635
O O14 0.444240 0.660571 0.633782
#
# Coordination Sequence:
#
# PCOD9104809 Si02
#       7
#     2   2   1   2   2   2   2
#     4   9  20  38  63  90 123 161 212 252 310 390
#     4  10  22  43  65  93 128 167 217 267 319 387
#     4  12  22  44  76  88 116 186 214 262 340 380
#     4  10  20  39  63  89 125 165 203 261 319 376
#     4  11  23  46  67  91 131 172 221 270 315 389
#     4  10  20  39  62  90 124 165 205 258 321 376
#     4  10  23  41  57  96 131 157 218 274 310 377
#
# _framework density 26.009053000000002
#
# number of rings (size 3 to 8) (size 9 to 14) (size 15 to 20)
#    0.000    1.846    3.077    1.385    0.000    3.692 
#    8.308    0.000    0.000    0.000    0.000    0.000 
#    0.000    0.000    0.000    0.000    0.000    0.000 
#
# Total GULP energy -72509.040400 kJ/mol
# GULP energy per Si atom -5577.618492 kJ/mol
# Density = 2.594986 g / cm^3
# Si number density = 26.009053 Si / 1000 Ang^3
#
#
#
# Elastic Constant Matrix: (Units=GPa)
#
#
# Indices 1 2 3 4 5 6 
#
# 1 97.8354 33.7733 25.5154 5.4819 -22.3397 13.5929
# 2 33.7733 205.7536 22.3288 -5.5149 -4.1334 21.7331
# 3 25.5154 22.3288 60.3188 5.9237 0.5089 11.0423
# 4 5.4819 -5.5149 5.9237 27.0991 0.0239 0.1720
# 5 -22.3397 -4.1334 0.5089 0.0239 31.4771 -0.1699
# 6 13.5929 21.7331 11.0423 0.1720 -0.1699 51.1016
#
#
#
# Elastic Compliance Matrix: (Units=1/GPa)
#
#
# Indices 1 2 3 4 5 6 
#
# 1 0.014915 -0.001501 -0.005234 -0.002174 0.010463 -0.002156
# 2 -0.001501 0.005455 -0.001245 0.001697 -0.000339 -0.001659
# 3 -0.005234 -0.001245 0.020082 -0.003565 -0.004213 -0.002420
# 4 -0.002174 0.001697 -0.003565 0.038464 -0.001289 0.000493
# 5 0.010463 -0.000339 -0.004213 -0.001289 0.039211 -0.001594
# 6 -0.002156 -0.001659 -0.002420 0.000493 -0.001594 0.021364
#
#
# Mechanical properties :
#
#
# Convention : Reuss Voigt Hill
#
# Bulk Modulus (GPa) = 40.82634 58.57144 49.69889
# Shear Modulus (GPa) = 30.55990 40.75489 35.65739
#
# Velocity S-wave (km/s) = 3.43150 3.96277 3.70667
# Velocity P-wave (km/s) = 5.60637 6.59595 6.12119
#
# Compressibility (1/GPa) = 0.02449399
#
# Stress axis : x y z
#
# Youngs Moduli (GPa) = 67.04859 183.30208 49.79601
#
# Poissons Ratio (x) = 0.27505 0.26061
# Poissons Ratio (y) = 0.10061 0.06199
# Poissons Ratio (z) = 0.35091 0.22819
#
# Static dielectric constant tensor:
#      x y z
#    x 2.042440 0.006890 -0.028710 
#    y 0.006890 2.099790 0.010110 
#    z -0.028710 0.010110 2.090420 
# 
# From -- ./inp_files/454284.got.cif
#   From: 2010.05.17/outbox.cif.g08.bks.cpg/sg2_228_cif.got.tgz:454284.got - 2010.06.03 11:33:40.
