data_PCOD9104466
_publ_section_title
;
Structure prediction by ZEFSAII (Michael W. Deem and Ramdas Pophale) SiO2 
 PCOD9104466
Probable space group: P -1
;
_chemical_formula_sum "Si O2"
_cell_formula_units_Z 16
_cell_length_a 5.769138
_cell_length_b 9.360897
_cell_length_c 18.494561
_cell_angle_alpha 101.864568
_cell_angle_beta 85.521435
_cell_angle_gamma 135.609525
_cell_volume 680.303615
_symmetry_space_group_name_H-M "P -1"
_symmetry_group_IT_number 2
_symmetry_cell_setting 'triclinic'
loop_
_space_group_symop_operation_xyz
x,y,z
-x,-y,-z
loop_
_atom_site_type_symbol
_atom_site_label
_atom_site_fract_x
_atom_site_fract_y
_atom_site_fract_z
Si Si1 0.921542 0.009708 0.319714
Si Si2 0.438874 0.376299 0.805685
Si Si3 0.048804 0.650566 0.706454
Si Si4 0.713273 0.265322 0.585247
Si Si5 0.839060 0.064184 0.969852
Si Si6 0.735710 0.946273 0.556285
Si Si7 0.426744 0.721694 0.834965
Si Si8 0.853810 0.529996 0.941774
O O1 0.851912 0.848045 0.248095
O O2 0.613119 0.869123 0.369558
O O3 0.922387 0.168220 0.298678
O O4 0.236656 0.123753 0.376026
O O5 0.741505 0.495847 0.753719
O O6 0.410126 0.539432 0.828303
O O7 0.534731 0.356910 0.880925
O O8 0.956668 0.503797 0.627142
O O9 0.355599 0.730658 0.755185
O O10 0.602980 0.213072 0.498499
O O11 0.842289 0.161563 0.588910
O O12 0.738125 0.950079 0.883680
O O13 0.132815 0.309835 0.002689
O O14 0.500000 0.000000 0.000000
O O15 0.000000 0.000000 0.000000
O O16 0.000000 0.000000 0.500000
O O17 0.131409 0.649246 0.884817
O O18 0.000000 0.500000 0.000000
#
# Coordination Sequence:
#
# PCOD9104466 Si02
#       8
#     2   2   2   2   2   2   2   2
#     4  10  21  36  58  86 112 149 199 233 291 359
#     4  10  21  40  56  80 117 149 192 245 301 354
#     4  10  22  37  57  84 115 154 192 240 293 357
#     4   9  19  38  59  80 120 151 185 239 291 345
#     4  10  20  39  61  83 116 157 201 253 313 373
#     4   9  18  36  60  85 114 152 187 236 289 344
#     4  10  21  39  56  78 116 154 192 248 306 361
#     4  10  22  38  56  83 111 151 201 251 308 368
#
# _framework density 23.518913000000001
#
# number of rings (size 3 to 8) (size 9 to 14) (size 15 to 20)
#    0.000    2.250    1.250    0.750    1.750    2.000 
#    2.250    5.625    0.000    0.000    0.000    0.000 
#    0.000    0.000    0.000    0.000    0.000    0.000 
#
# Total GULP energy -89221.074208 kJ/mol
# GULP energy per Si atom -5576.317138 kJ/mol
# Density = 2.346538 g / cm^3
# Si number density = 23.518913 Si / 1000 Ang^3
#
#
#
# Elastic Constant Matrix: (Units=GPa)
#
#
# Indices 1 2 3 4 5 6 
#
# 1 70.7802 28.1179 41.9138 5.0371 15.5136 -21.5154
# 2 28.1179 83.4162 75.8328 23.8711 13.9446 -18.3701
# 3 41.9138 75.8328 162.7801 15.5515 30.4252 -18.7308
# 4 5.0371 23.8711 15.5515 50.1915 -4.1073 -12.8879
# 5 15.5136 13.9446 30.4252 -4.1073 56.3841 -11.8618
# 6 -21.5154 -18.3701 -18.7308 -12.8879 -11.8618 48.3048
#
#
#
# Elastic Compliance Matrix: (Units=1/GPa)
#
#
# Indices 1 2 3 4 5 6 
#
# 1 0.019028 -0.002725 -0.002760 0.001768 -0.001586 0.006451
# 2 -0.002725 0.024421 -0.009640 -0.007804 -0.000193 0.002206
# 3 -0.002760 -0.009640 0.011800 0.000681 -0.003378 -0.000968
# 4 0.001768 -0.007804 0.000681 0.025069 0.004119 0.005784
# 5 -0.001586 -0.000193 -0.003378 0.004119 0.021231 0.004223
# 6 0.006451 0.002206 -0.000968 0.005784 0.004223 0.026619
#
#
# Mechanical properties :
#
#
# Convention : Reuss Voigt Hill
#
# Bulk Modulus (GPa) = 40.00147 67.63397 53.81772
# Shear Modulus (GPa) = 29.98488 42.38355 36.18421
#
# Velocity S-wave (km/s) = 3.57448 4.24973 3.92665
# Velocity P-wave (km/s) = 5.83790 7.27323 6.59473
#
# Compressibility (1/GPa) = 0.02499908
#
# Stress axis : x y z
#
# Youngs Moduli (GPa) = 52.55424 40.94777 84.74757
#
# Poissons Ratio (x) = 0.11158 0.23392
# Poissons Ratio (y) = 0.14320 0.81696
# Poissons Ratio (z) = 0.14506 0.39473
#
# Static dielectric constant tensor:
#      x y z
#    x 1.958020 0.038750 0.047390 
#    y 0.038750 1.887750 -0.018800 
#    z 0.047390 -0.018800 1.900480 
# 
# From -- ./inp_files/548175.got.cif
#   From: 2010.05.17/outbox.cif.g08.bks.cpg/sg2_275_cif.got.tgz:548175.got - 2010.06.03 11:33:40.
