data_PCOD9104670
_publ_section_title
;
Structure prediction by ZEFSAII (Michael W. Deem and Ramdas Pophale) SiO2 
 PCOD9104670
Probable space group: P -1
;
_chemical_formula_sum "Si O2"
_cell_formula_units_Z 16
_cell_length_a 5.690711
_cell_length_b 14.245250
_cell_length_c 11.716975
_cell_angle_alpha 127.148444
_cell_angle_beta 82.415456
_cell_angle_gamma 118.368234
_cell_volume 649.718650
_symmetry_space_group_name_H-M "P -1"
_symmetry_group_IT_number 2
_symmetry_cell_setting 'triclinic'
loop_
_space_group_symop_operation_xyz
x,y,z
-x,-y,-z
loop_
_atom_site_type_symbol
_atom_site_label
_atom_site_fract_x
_atom_site_fract_y
_atom_site_fract_z
Si Si1 0.904712 0.196379 0.444779
Si Si2 0.210965 0.205227 0.232966
Si Si3 0.436069 0.535780 0.747361
Si Si4 0.843571 0.087414 0.975617
Si Si5 0.989608 0.132470 0.639066
Si Si6 0.361644 0.288001 0.928968
Si Si7 0.137389 0.567627 0.418923
Si Si8 0.530638 0.087785 0.801762
O O1 0.943514 0.197579 0.577353
O O2 0.736673 0.268883 0.467893
O O3 0.177023 0.258064 0.395671
O O4 0.758829 0.038078 0.303128
O O5 0.442837 0.325748 0.233888
O O6 0.220414 0.066798 0.134594
O O7 0.933262 0.159396 0.144019
O O8 0.639549 0.475967 0.660743
O O9 0.116264 0.467773 0.679922
O O10 0.495400 0.574219 0.906456
O O11 0.596658 0.089682 0.930905
O O12 0.107058 0.182059 0.948059
O O13 0.735596 0.068830 0.694463
O O14 0.235134 0.252151 0.784290
O O15 0.000000 0.000000 0.500000
O O16 0.571002 0.232400 0.874854
O O17 0.000000 0.500000 0.500000
#
# Coordination Sequence:
#
# PCOD9104670 Si02
#       8
#     2   2   2   2   2   2   2   2
#     4  12  24  40  68  98 135 181 229 284 349 413
#     4  10  20  39  61  98 137 176 217 286 348 422
#     4  11  27  47  71  98 140 189 236 287 340 407
#     4   9  20  35  59 100 137 165 219 271 366 428
#     4  11  23  43  66 105 141 170 226 289 361 422
#     4  10  22  42  68  96 136 177 222 290 353 411
#     4  12  28  49  69 102 142 192 240 283 337 409
#     4  11  22  39  68 102 130 175 221 291 361 420
#
# _framework density 24.626044
#
# number of rings (size 3 to 8) (size 9 to 14) (size 15 to 20)
#    0.000    1.250    3.750    1.500    7.000    1.500 
#    0.000    1.250    0.000    0.000    0.000    0.000 
#    0.000    0.000    0.000    0.000    0.000    0.000 
#
# Total GULP energy -89367.361116 kJ/mol
# GULP energy per Si atom -5585.460070 kJ/mol
# Density = 2.456999 g / cm^3
# Si number density = 24.626044 Si / 1000 Ang^3
#
#
#
# Elastic Constant Matrix: (Units=GPa)
#
#
# Indices 1 2 3 4 5 6 
#
# 1 88.1420 3.4261 54.1322 -0.8632 2.4829 -9.8233
# 2 3.4261 63.0242 18.8630 1.1826 9.0470 -21.3314
# 3 54.1322 18.8630 130.4302 -10.8217 2.7900 -8.6564
# 4 -0.8632 1.1826 -10.8217 35.6036 -9.5415 -0.5739
# 5 2.4829 9.0470 2.7900 -9.5415 43.2361 -2.0173
# 6 -9.8233 -21.3314 -8.6564 -0.5739 -2.0173 30.7707
#
#
#
# Elastic Compliance Matrix: (Units=1/GPa)
#
#
# Indices 1 2 3 4 5 6 
#
# 1 0.016089 0.003231 -0.006939 -0.002108 -0.001370 0.005295
# 2 0.003231 0.022730 -0.003741 -0.002799 -0.004600 0.015383
# 3 -0.006939 -0.003741 0.011268 0.003678 0.001196 -0.001492
# 4 -0.002108 -0.002799 0.003678 0.031203 0.007331 -0.000516
# 5 -0.001370 -0.004600 0.001196 0.007331 0.025642 -0.001472
# 6 0.005295 0.015383 -0.001492 -0.000516 -0.001472 0.044327
#
#
# Mechanical properties :
#
#
# Convention : Reuss Voigt Hill
#
# Bulk Modulus (GPa) = 28.41770 48.27099 38.34434
# Shear Modulus (GPa) = 28.10748 35.60042 31.85395
#
# Velocity S-wave (km/s) = 3.38208 3.80628 3.60044
# Velocity P-wave (km/s) = 5.17842 6.24189 5.73486
#
# Compressibility (1/GPa) = 0.03518934
#
# Stress axis : x y z
#
# Youngs Moduli (GPa) = 62.15295 43.99409 88.74414
#
# Poissons Ratio (x) = -0.14212 0.61579
# Poissons Ratio (y) = -0.20079 0.33199
# Poissons Ratio (z) = 0.43127 0.16458
#
# Static dielectric constant tensor:
#      x y z
#    x 2.015260 0.015550 0.050450 
#    y 0.015550 1.970180 0.023130 
#    z 0.050450 0.023130 1.992780 
# 
# From -- ./inp_files/81089.got.cif
#   From: 2010.05.17/outbox.cif.g08.bks.cpg/sg2_41_cif.got.tgz:81089.got - 2010.06.03 11:33:40.
