data_PCOD9104960
_publ_section_title
;
Structure prediction by ZEFSAII (Michael W. Deem and Ramdas Pophale) SiO2 
 PCOD9104960
Probable space group: P -1
;
_chemical_formula_sum "Si O2"
_cell_formula_units_Z 16
_cell_length_a 15.235754
_cell_length_b 9.659927
_cell_length_c 18.381131
_cell_angle_alpha 55.943978
_cell_angle_beta 148.328380
_cell_angle_gamma 102.619411
_cell_volume 947.205116
_symmetry_space_group_name_H-M "P -1"
_symmetry_group_IT_number 2
_symmetry_cell_setting 'triclinic'
loop_
_space_group_symop_operation_xyz
x,y,z
-x,-y,-z
loop_
_atom_site_type_symbol
_atom_site_label
_atom_site_fract_x
_atom_site_fract_y
_atom_site_fract_z
Si Si1 0.187419 0.623354 0.930549
Si Si2 0.735291 0.169172 0.947744
Si Si3 0.707066 0.705528 0.425710
Si Si4 0.251704 0.252309 0.386019
Si Si5 0.082892 0.083372 0.476915
Si Si6 0.550073 0.549402 0.598947
Si Si7 0.830250 0.264091 0.617812
Si Si8 0.622069 0.186898 0.365469
O O1 0.242042 0.744936 0.985918
O O2 0.388770 0.389454 0.132901
O O3 0.993714 0.639066 0.825150
O O4 0.097743 0.744417 0.755489
O O5 0.530898 0.175065 0.801437
O O6 0.691226 0.336893 0.806626
O O7 0.943616 0.943379 0.146614
O O8 0.712142 0.708497 0.516708
O O9 0.814919 0.812490 0.445978
O O10 0.823987 0.468616 0.553065
O O11 0.338776 0.340066 0.368180
O O12 0.363587 0.006223 0.531963
O O13 0.256847 0.902685 0.598930
O O14 0.000000 0.000000 0.500000
O O15 0.500000 0.500000 0.500000
O O16 0.337769 0.690985 0.453213
O O17 0.745115 0.239581 0.489503
#
# Coordination Sequence:
#
# PCOD9104960 Si02
#       8
#     2   2   2   2   2   2   2   2
#     4  10  20  39  63  84 117 157 190 237 299 349
#     4  11  20  37  61  83 115 164 195 238 290 335
#     4   9  20  38  61  82 120 148 190 236 295 348
#     4  10  21  38  54  87 122 156 201 247 283 328
#     4  10  23  43  64  92 118 139 188 248 293 358
#     4  11  22  38  52  86 126 151 209 255 266 327
#     4  11  20  37  61  83 115 164 195 238 290 335
#     4  10  20  39  63  84 117 157 190 237 299 349
#
# _framework density 16.891801000000001
#
# number of rings (size 3 to 8) (size 9 to 14) (size 15 to 20)
#    0.000    2.000    7.500    0.000    0.000    7.000 
#    0.000    1.250    0.000    0.000    0.000    0.000 
#    0.000    0.000    0.000    0.000    0.000    0.000 
#
# Total GULP energy -89228.766563 kJ/mol
# GULP energy per Si atom -5576.797910 kJ/mol
# Density = 1.685335 g / cm^3
# Si number density = 16.891801 Si / 1000 Ang^3
#
#
#
# Elastic Constant Matrix: (Units=GPa)
#
#
# Indices 1 2 3 4 5 6 
#
# 1 93.5966 58.2280 48.7985 -6.5978 7.7983 33.7180
# 2 58.2280 143.3089 68.1685 -0.4637 9.8988 14.4463
# 3 48.7985 68.1685 170.3410 -19.3141 20.0552 8.8316
# 4 -6.5978 -0.4637 -19.3141 40.4567 -8.0782 4.2520
# 5 7.7983 9.8988 20.0552 -8.0782 13.1583 2.1985
# 6 33.7180 14.4463 8.8316 4.2520 2.1985 32.3377
#
#
#
# Elastic Compliance Matrix: (Units=1/GPa)
#
#
# Indices 1 2 3 4 5 6 
#
# 1 0.024678 -0.006440 -0.002908 0.005313 0.001736 -0.022877
# 2 -0.006440 0.010695 -0.002641 -0.003052 -0.002619 0.003238
# 3 -0.002908 -0.002641 0.008924 0.001686 -0.009221 0.002180
# 4 0.005313 -0.003052 0.001686 0.030812 0.017140 -0.009854
# 5 0.001736 -0.002619 -0.009221 0.017140 0.102746 -0.007361
# 6 -0.022877 0.003238 0.002180 -0.009854 -0.007361 0.054532
#
#
# Mechanical properties :
#
#
# Convention : Reuss Voigt Hill
#
# Bulk Modulus (GPa) = 49.21395 84.18182 66.69788
# Shear Modulus (GPa) = 19.00128 32.66061 25.83095
#
# Velocity S-wave (km/s) = 3.35756 4.40195 3.91474
# Velocity P-wave (km/s) = 6.65049 8.70519 7.74627
#
# Compressibility (1/GPa) = 0.02031944
#
# Stress axis : x y z
#
# Youngs Moduli (GPa) = 40.52128 93.49741 112.05388
#
# Poissons Ratio (x) = 0.60215 0.32588
# Poissons Ratio (y) = 0.26097 0.29591
# Poissons Ratio (z) = 0.11785 0.24691
#
# Static dielectric constant tensor:
#      x y z
#    x 1.552710 0.001850 0.002610 
#    y 0.001850 1.587440 0.008910 
#    z 0.002610 0.008910 1.565790 
# 
# From -- ./inp_files/212146.got.cif
#   From: 2010.05.17/outbox.cif.g08.bks.cpg/sg2_107_cif.got.tgz:212146.got - 2010.06.03 11:33:40.
