data_PCOD9104847
_publ_section_title
;
Structure prediction by ZEFSAII (Michael W. Deem and Ramdas Pophale) SiO2 
 PCOD9104847
Probable space group: P -1
;
_chemical_formula_sum "Si O2"
_cell_formula_units_Z 16
_cell_length_a 10.906030
_cell_length_b 6.986148
_cell_length_c 22.749150
_cell_angle_alpha 54.598068
_cell_angle_beta 145.373116
_cell_angle_gamma 115.757509
_cell_volume 799.474703
_symmetry_space_group_name_H-M "P -1"
_symmetry_group_IT_number 2
_symmetry_cell_setting 'triclinic'
loop_
_space_group_symop_operation_xyz
x,y,z
-x,-y,-z
loop_
_atom_site_type_symbol
_atom_site_label
_atom_site_fract_x
_atom_site_fract_y
_atom_site_fract_z
Si Si1 0.629857 0.129972 0.216254
Si Si2 0.954762 0.718214 0.864305
Si Si3 0.829493 0.664675 0.440139
Si Si4 0.137189 0.181522 0.056375
Si Si5 0.960959 0.461038 0.334324
Si Si6 0.504056 0.713477 0.618912
Si Si7 0.264420 0.182269 0.422171
Si Si8 0.130466 0.984871 0.780618
O O1 0.386537 0.138017 0.142337
O O2 0.748494 0.354698 0.244225
O O3 0.663618 0.094378 0.165548
O O4 0.767540 0.909833 0.340503
O O5 0.904243 0.837703 0.886494
O O6 0.725619 0.700587 0.744508
O O7 0.106552 0.859291 0.856322
O O8 0.059498 0.452489 0.962010
O O9 0.619140 0.518495 0.383755
O O10 0.000000 0.500000 0.500000
O O11 0.942906 0.675378 0.545964
O O12 0.000000 0.000000 0.000000
O O13 0.155032 0.403581 0.374868
O O14 0.904323 0.734699 0.276096
O O15 0.555569 0.744757 0.564719
O O16 0.361242 0.955136 0.537591
O O17 0.072189 0.089991 0.324014
#
# Coordination Sequence:
#
# PCOD9104847 Si02
#       8
#     2   2   2   2   2   2   2   2
#     4  11  25  40  65  92 128 169 212 260 317 372
#     4  10  25  44  69  92 127 164 218 267 313 366
#     4  12  22  36  60  94 135 169 205 252 308 382
#     4  11  26  48  67  94 121 163 221 273 314 369
#     4  11  22  38  62  93 131 169 206 249 315 384
#     4  10  20  39  62  91 132 168 202 260 312 370
#     4   9  20  38  59  95 134 163 207 249 308 390
#     4  10  21  44  63  97 132 166 204 260 311 385
#
# _framework density 20.013141000000001
#
# number of rings (size 3 to 8) (size 9 to 14) (size 15 to 20)
#    0.000    1.500    2.500    1.875    3.500    7.000 
#    0.000    1.250    0.000    0.000    0.000    0.000 
#    0.000    0.000    0.000    0.000    0.000    0.000 
#
# Total GULP energy -89366.816293 kJ/mol
# GULP energy per Si atom -5585.426018 kJ/mol
# Density = 1.996759 g / cm^3
# Si number density = 20.013141 Si / 1000 Ang^3
#
#
#
# Elastic Constant Matrix: (Units=GPa)
#
#
# Indices 1 2 3 4 5 6 
#
# 1 144.3220 49.5163 39.5701 -0.8168 1.0514 -14.9672
# 2 49.5163 65.2876 4.2892 -0.6888 3.3109 -16.7847
# 3 39.5701 4.2892 59.6511 -4.0107 1.4319 -14.6764
# 4 -0.8168 -0.6888 -4.0107 20.4654 0.7646 -0.7933
# 5 1.0514 3.3109 1.4319 0.7646 28.8251 -7.2360
# 6 -14.9672 -16.7847 -14.6764 -0.7933 -7.2360 30.0767
#
#
#
# Elastic Compliance Matrix: (Units=1/GPa)
#
#
# Indices 1 2 3 4 5 6 
#
# 1 0.012111 -0.009521 -0.008276 -0.001597 0.000277 -0.003300
# 2 -0.009521 0.025504 0.007977 0.002553 0.000353 0.013539
# 3 -0.008276 0.007977 0.025230 0.005342 0.001277 0.013093
# 4 -0.001597 0.002553 0.005342 0.050129 -0.000730 0.004384
# 5 0.000277 0.000353 0.001277 -0.000730 0.037072 0.009858
# 6 -0.003300 0.013539 0.013093 0.004384 0.009858 0.048038
#
#
# Mechanical properties :
#
#
# Convention : Reuss Voigt Hill
#
# Bulk Modulus (GPa) = 23.14560 50.66797 36.90679
# Shear Modulus (GPa) = 21.53999 27.59913 24.56956
#
# Velocity S-wave (km/s) = 3.28425 3.71759 3.50762
# Velocity P-wave (km/s) = 5.09628 6.61812 5.90642
#
# Compressibility (1/GPa) = 0.04320475
#
# Stress axis : x y z
#
# Youngs Moduli (GPa) = 82.56725 39.20968 39.63517
#
# Poissons Ratio (x) = 0.37333 0.32800
# Poissons Ratio (y) = 0.78615 -0.31615
# Poissons Ratio (z) = 0.68329 -0.31276
#
# Static dielectric constant tensor:
#      x y z
#    x 1.781330 -0.012990 -0.011220 
#    y -0.012990 1.692980 -0.001430 
#    z -0.011220 -0.001430 1.685090 
# 
# From -- ./inp_files/511326.got.cif
#   From: 2010.05.17/outbox.cif.g08.bks.cpg/sg2_256_cif.got.tgz:511326.got - 2010.06.03 11:33:40.
