data_PCOD9104970
_publ_section_title
;
Structure prediction by ZEFSAII (Michael W. Deem and Ramdas Pophale) SiO2 
 PCOD9104970
Probable space group: P -1
;
_chemical_formula_sum "Si O2"
_cell_formula_units_Z 16
_cell_length_a 20.055774
_cell_length_b 11.158717
_cell_length_c 9.422427
_cell_angle_alpha 105.959597
_cell_angle_beta 41.440313
_cell_angle_gamma 133.061484
_cell_volume 888.939298
_symmetry_space_group_name_H-M "P -1"
_symmetry_group_IT_number 2
_symmetry_cell_setting 'triclinic'
loop_
_space_group_symop_operation_xyz
x,y,z
-x,-y,-z
loop_
_atom_site_type_symbol
_atom_site_label
_atom_site_fract_x
_atom_site_fract_y
_atom_site_fract_z
Si Si1 0.562967 0.919059 0.043121
Si Si2 0.584395 0.711721 0.454320
Si Si3 0.655786 0.704870 0.047628
Si Si4 0.141073 0.972183 0.386642
Si Si5 0.797946 0.593541 0.750112
Si Si6 0.429232 0.786046 0.896668
Si Si7 0.350332 0.514241 0.358952
Si Si8 0.155208 0.142671 0.709025
O O1 0.559900 0.062812 0.123559
O O2 0.444275 0.732346 0.271436
O O3 0.730577 0.015778 0.816517
O O4 0.516776 0.856576 0.931113
O O5 0.500000 0.500000 0.500000
O O6 0.494345 0.746784 0.668643
O O7 0.719530 0.808048 0.377894
O O8 0.641868 0.786009 0.226829
O O9 0.706229 0.615656 0.988793
O O10 0.792470 0.871224 0.783287
O O11 0.495411 0.556775 0.170882
O O12 0.975881 0.773347 0.541598
O O13 0.134602 0.040761 0.567262
O O14 0.736129 0.559398 0.677909
O O15 0.739763 0.410970 0.850268
O O16 0.226244 0.343349 0.612093
O O17 0.000000 0.000000 0.000000
#
# Coordination Sequence:
#
# PCOD9104970 Si02
#       8
#     2   2   2   2   2   2   2   2
#     4   9  21  40  63  84 111 164 205 238 284 348
#     4  12  22  36  61  93 119 148 193 251 301 341
#     4  11  21  35  58  87 120 151 192 241 297 353
#     4  11  23  37  57  89 120 159 196 237 301 357
#     4  11  20  33  60  87 121 153 193 243 291 350
#     4  10  20  39  63  86 116 155 204 243 285 347
#     4  10  21  37  58  84 118 157 201 239 287 349
#     4  12  24  36  58  90 126 152 187 250 307 347
#
# _framework density 17.99898
#
# number of rings (size 3 to 8) (size 9 to 14) (size 15 to 20)
#    0.000    1.250    5.000    1.500    3.500    0.500 
#    0.000    2.500    0.000    0.750    0.000    0.000 
#    0.000    0.000    0.000    0.000    0.000    0.000 
#
# Total GULP energy -89112.146166 kJ/mol
# GULP energy per Si atom -5569.509135 kJ/mol
# Density = 1.795801 g / cm^3
# Si number density = 17.998980 Si / 1000 Ang^3
#
#
#
# Elastic Constant Matrix: (Units=GPa)
#
#
# Indices 1 2 3 4 5 6 
#
# 1 69.7076 51.8507 45.5196 -13.8151 2.1018 -7.6281
# 2 51.8507 99.2904 74.8159 -11.9883 -4.2804 -4.5378
# 3 45.5196 74.8159 123.1536 -17.7707 15.2803 -6.1991
# 4 -13.8151 -11.9883 -17.7707 38.3428 8.8626 -0.1933
# 5 2.1018 -4.2804 15.2803 8.8626 26.1258 0.3183
# 6 -7.6281 -4.5378 -6.1991 -0.1933 0.3183 34.2864
#
#
#
# Elastic Compliance Matrix: (Units=1/GPa)
#
#
# Indices 1 2 3 4 5 6 
#
# 1 0.025867 -0.013177 0.000552 0.007101 -0.007023 0.004216
# 2 -0.013177 0.028723 -0.015906 -0.007204 0.017540 -0.002209
# 3 0.000552 -0.015906 0.021303 0.009340 -0.018304 0.002092
# 4 0.007101 -0.007204 0.009340 0.035161 -0.019175 0.002691
# 5 -0.007023 0.017540 -0.018304 -0.019175 0.058964 -0.003206
# 6 0.004216 -0.002209 0.002092 0.002691 -0.003206 0.030235
#
#
# Mechanical properties :
#
#
# Convention : Reuss Voigt Hill
#
# Bulk Modulus (GPa) = 53.10194 70.72489 61.91341
# Shear Modulus (GPa) = 18.96877 27.74867 23.35872
#
# Velocity S-wave (km/s) = 3.24987 3.93068 3.60638
# Velocity P-wave (km/s) = 6.60674 7.74464 7.19821
#
# Compressibility (1/GPa) = 0.01883170
#
# Stress axis : x y z
#
# Youngs Moduli (GPa) = 38.65984 34.81504 46.94209
#
# Poissons Ratio (x) = 0.45875 -0.02593
# Poissons Ratio (y) = 0.50942 0.74666
# Poissons Ratio (z) = -0.02136 0.55377
#
# Static dielectric constant tensor:
#      x y z
#    x 1.746680 -0.017130 0.148350 
#    y -0.017130 1.651720 -0.021630 
#    z 0.148350 -0.021630 1.750050 
# 
# From -- ./inp_files/179362.got.cif
#   From: 2010.05.17/outbox.cif.g08.bks.cpg/sg2_90_cif.got.tgz:179362.got - 2010.06.03 11:33:40.
