data_PCOD9104603
_publ_section_title
;
Structure prediction by ZEFSAII (Michael W. Deem and Ramdas Pophale) SiO2 
 PCOD9104603
Probable space group: P -1
;
_chemical_formula_sum "Si O2"
_cell_formula_units_Z 14
_cell_length_a 9.480198
_cell_length_b 23.287418
_cell_length_c 13.400649
_cell_angle_alpha 31.651068
_cell_angle_beta 143.872899
_cell_angle_gamma 151.963677
_cell_volume 710.395123
_symmetry_space_group_name_H-M "P -1"
_symmetry_group_IT_number 2
_symmetry_cell_setting 'triclinic'
loop_
_space_group_symop_operation_xyz
x,y,z
-x,-y,-z
loop_
_atom_site_type_symbol
_atom_site_label
_atom_site_fract_x
_atom_site_fract_y
_atom_site_fract_z
Si Si1 0.855169 0.360376 0.062476
Si Si2 0.190488 0.362678 0.069447
Si Si3 0.790702 0.827606 0.134422
Si Si4 0.691744 0.830000 0.462294
Si Si5 0.600596 0.056095 0.762327
Si Si6 0.739811 0.090389 0.416728
Si Si7 0.437881 0.805082 0.152315
O O1 0.892970 0.250545 0.294112
O O2 0.048720 0.405147 0.005820
O O3 0.491480 0.262611 0.971617
O O4 0.000000 0.500000 0.000000
O O5 0.265507 0.269357 0.304794
O O6 0.500000 0.500000 0.000000
O O7 0.913588 0.273431 0.964341
O O8 0.620851 0.778958 0.217010
O O9 0.057100 0.819185 0.267204
O O10 0.000000 0.000000 0.000000
O O11 0.598765 0.899055 0.381794
O O12 0.449187 0.763177 0.332160
O O13 0.008747 0.930067 0.431176
O O14 0.429168 0.949293 0.728464
O O15 0.603005 0.970065 0.981976
O O16 0.500000 0.000000 0.500000
#
# Coordination Sequence:
#
# PCOD9104603 Si02
#       7
#     2   2   2   2   2   2   2
#     4  10  21  40  62  92 124 168 216 261 318 388
#     4  10  23  43  61  83 130 173 207 264 319 382
#     4   9  17  36  63  88 126 168 207 263 314 374
#     4  11  23  37  63  95 126 160 215 266 319 381
#     4  11  20  38  62  95 132 158 208 273 319 370
#     4  11  22  38  63  94 127 170 211 265 326 377
#     4  10  20  39  61  90 128 164 206 263 320 371
#
# _framework density 19.707342000000001
#
# number of rings (size 3 to 8) (size 9 to 14) (size 15 to 20)
#    0.000    1.714    5.714    1.714    2.000    2.857 
#    0.000    1.429    0.000    9.429    0.000    0.000 
#    0.000    0.000    0.000    0.000    0.000    0.000 
#
# Total GULP energy -77967.107384 kJ/mol
# GULP energy per Si atom -5569.079099 kJ/mol
# Density = 1.966249 g / cm^3
# Si number density = 19.707342 Si / 1000 Ang^3
#
#
#
# Elastic Constant Matrix: (Units=GPa)
#
#
# Indices 1 2 3 4 5 6 
#
# 1 116.8963 57.5531 44.1510 -7.4268 22.4163 11.2797
# 2 57.5531 104.8685 41.1655 7.3641 5.2363 3.1448
# 3 44.1510 41.1655 81.5799 21.7826 5.4176 -0.3976
# 4 -7.4268 7.3641 21.7826 21.0566 -0.2090 -3.2440
# 5 22.4163 5.2363 5.4176 -0.2090 34.4568 -2.1848
# 6 11.2797 3.1448 -0.3976 -3.2440 -2.1848 39.7856
#
#
#
# Elastic Compliance Matrix: (Units=1/GPa)
#
#
# Indices 1 2 3 4 5 6 
#
# 1 0.020959 -0.007330 -0.013010 0.022658 -0.010606 -0.004228
# 2 -0.007330 0.014625 -0.002183 -0.005317 0.002897 0.000626
# 3 -0.013010 -0.002183 0.029122 -0.033659 0.004116 0.001634
# 4 0.022658 -0.005317 -0.033659 0.092196 -0.008034 0.000736
# 5 -0.010606 0.002897 0.004116 -0.008034 0.035045 0.004088
# 6 -0.004228 0.000626 0.001634 0.000736 0.004088 0.026585
#
#
# Mechanical properties :
#
#
# Convention : Reuss Voigt Hill
#
# Bulk Modulus (GPa) = 50.86274 65.45376 58.15825
# Shear Modulus (GPa) = 18.50958 29.75814 24.13386
#
# Velocity S-wave (km/s) = 3.06800 3.89009 3.50324
# Velocity P-wave (km/s) = 6.19800 7.31178 6.77780
#
# Compressibility (1/GPa) = 0.01966076
#
# Stress axis : x y z
#
# Youngs Moduli (GPa) = 47.71305 68.37488 34.33791
#
# Poissons Ratio (x) = 0.50119 0.44674
# Poissons Ratio (y) = 0.34974 0.07494
# Poissons Ratio (z) = 0.62076 0.14923
#
# Static dielectric constant tensor:
#      x y z
#    x 1.741930 0.002800 0.024890 
#    y 0.002800 1.723920 0.043880 
#    z 0.024890 0.043880 1.780180 
# 
# From -- ./inp_files/276473.got.cif
#   From: 2010.05.17/outbox.cif.g08.bks.cpg/sg2_139_cif.got.tgz:276473.got - 2010.06.03 11:33:40.
