data_PCOD9104886
_publ_section_title
;
Structure prediction by ZEFSAII (Michael W. Deem and Ramdas Pophale) SiO2 
 PCOD9104886
Probable space group: P -1
;
_chemical_formula_sum "Si O2"
_cell_formula_units_Z 14
_cell_length_a 5.299697
_cell_length_b 10.756838
_cell_length_c 11.791278
_cell_angle_alpha 128.762372
_cell_angle_beta 96.560898
_cell_angle_gamma 91.025431
_cell_volume 517.230592
_symmetry_space_group_name_H-M "P -1"
_symmetry_group_IT_number 2
_symmetry_cell_setting 'triclinic'
loop_
_space_group_symop_operation_xyz
x,y,z
-x,-y,-z
loop_
_atom_site_type_symbol
_atom_site_label
_atom_site_fract_x
_atom_site_fract_y
_atom_site_fract_z
Si Si1 0.273991 0.102637 0.831580
Si Si2 0.918898 0.430544 0.576833
Si Si3 0.485189 0.207863 0.373413
Si Si4 0.899632 0.922285 0.567575
Si Si5 0.833557 0.535153 0.176574
Si Si6 0.338137 0.674437 0.171277
Si Si7 0.729263 0.888739 0.924016
O O1 0.472836 0.185656 0.799411
O O2 0.338403 0.920033 0.740412
O O3 0.276742 0.199654 0.004234
O O4 0.992630 0.060998 0.743219
O O5 0.617988 0.378951 0.516685
O O6 0.000000 0.500000 0.500000
O O7 0.011686 0.253711 0.504694
O O8 0.059971 0.536795 0.744485
O O9 0.391834 0.123001 0.438918
O O10 0.302757 0.207234 0.251803
O O11 0.000000 0.000000 0.500000
O O12 0.558243 0.599511 0.213154
O O13 0.081216 0.661189 0.226024
O O14 0.771014 0.422446 0.001203
O O15 0.500000 0.000000 0.000000
O O16 0.000000 0.000000 0.000000
#
# Coordination Sequence:
#
# PCOD9104886 Si02
#       7
#     2   2   2   2   2   2   2
#     4  10  22  37  68  98 130 174 226 296 353 407
#     4  11  27  45  67  98 146 190 236 286 358 432
#     4  10  24  42  64 101 136 180 234 289 354 423
#     4  11  24  42  69 102 137 183 238 291 358 421
#     4  10  24  46  65 100 136 186 238 288 349 426
#     4  10  23  43  72  99 136 178 240 296 354 415
#     4  10  20  39  62  93 134 171 222 282 347 410
#
# _framework density 27.067233999999999
#
# number of rings (size 3 to 8) (size 9 to 14) (size 15 to 20)
#    0.000    1.714    1.429    0.857   10.000    1.714 
#    0.000    1.429    0.000    0.000    0.000    0.000 
#    0.000    0.000    0.000    0.000    0.000    0.000 
#
# Total GULP energy -77985.216001 kJ/mol
# GULP energy per Si atom -5570.372571 kJ/mol
# Density = 2.700563 g / cm^3
# Si number density = 27.067234 Si / 1000 Ang^3
#
#
#
# Elastic Constant Matrix: (Units=GPa)
#
#
# Indices 1 2 3 4 5 6 
#
# 1 89.4409 32.4731 32.0744 5.7296 20.7820 25.8877
# 2 32.4731 106.0291 38.1482 -30.9539 3.7928 25.2163
# 3 32.0744 38.1482 158.6464 -37.0119 16.2898 7.9049
# 4 5.7296 -30.9539 -37.0119 44.8261 4.6435 -3.1144
# 5 20.7820 3.7928 16.2898 4.6435 45.2199 4.8353
# 6 25.8877 25.2163 7.9049 -3.1144 4.8353 41.9095
#
#
#
# Elastic Compliance Matrix: (Units=1/GPa)
#
#
# Indices 1 2 3 4 5 6 
#
# 1 0.018152 -0.004753 -0.003655 -0.008649 -0.004911 -0.007740
# 2 -0.004753 0.015331 0.000031 0.010797 0.000370 -0.005535
# 3 -0.003655 0.000031 0.009213 0.008472 -0.002666 0.001438
# 4 -0.008649 0.010797 0.008472 0.038315 -0.003976 0.000554
# 5 -0.004911 0.000370 -0.002666 -0.003976 0.025703 0.000053
# 6 -0.007740 -0.005535 0.001438 0.000554 0.000053 0.031736
#
#
# Mechanical properties :
#
#
# Convention : Reuss Voigt Hill
#
# Bulk Modulus (GPa) = 38.54645 62.16755 50.35700
# Shear Modulus (GPa) = 30.51538 43.15247 36.83392
#
# Velocity S-wave (km/s) = 3.36131 3.99716 3.69295
# Velocity P-wave (km/s) = 5.41631 6.65738 6.06866
#
# Compressibility (1/GPa) = 0.02594273
#
# Stress axis : x y z
#
# Youngs Moduli (GPa) = 55.08931 65.22772 108.53873
#
# Poissons Ratio (x) = 0.31003 0.39670
# Poissons Ratio (y) = 0.26184 -0.00337
# Poissons Ratio (z) = 0.20135 -0.00203
#
# Static dielectric constant tensor:
#      x y z
#    x 2.298850 -0.129260 0.069650 
#    y -0.129260 2.251750 -0.095530 
#    z 0.069650 -0.095530 2.181040 
# 
# From -- ./inp_files/363459.got.cif
#   From: 2010.05.17/outbox.cif.g08.bks.cpg/sg2_182_cif.got.tgz:363459.got - 2010.06.03 11:33:40.
