data_PCOD9104696
_publ_section_title
;
Structure prediction by ZEFSAII (Michael W. Deem and Ramdas Pophale) SiO2 
 PCOD9104696
Probable space group: P -1
;
_chemical_formula_sum "Si O2"
_cell_formula_units_Z 16
_cell_length_a 11.951935
_cell_length_b 9.815946
_cell_length_c 8.927076
_cell_angle_alpha 97.299611
_cell_angle_beta 49.287558
_cell_angle_gamma 98.912919
_cell_volume 783.802525
_symmetry_space_group_name_H-M "P -1"
_symmetry_group_IT_number 2
_symmetry_cell_setting 'triclinic'
loop_
_space_group_symop_operation_xyz
x,y,z
-x,-y,-z
loop_
_atom_site_type_symbol
_atom_site_label
_atom_site_fract_x
_atom_site_fract_y
_atom_site_fract_z
Si Si1 0.244759 0.391323 0.507261
Si Si2 0.061070 0.584324 0.313015
Si Si3 0.397683 0.916808 0.306364
Si Si4 0.327875 0.158135 0.611777
Si Si5 0.710666 0.618122 0.891782
Si Si6 0.549631 0.350281 0.650062
Si Si7 0.870187 0.089338 0.682440
Si Si8 0.749292 0.912785 0.012110
O O1 0.254762 0.249764 0.565803
O O2 0.284623 0.379739 0.293026
O O3 0.360382 0.516130 0.476624
O O4 0.078536 0.432205 0.677465
O O5 0.205993 0.509669 0.138422
O O6 0.090418 0.747033 0.339538
O O7 0.000000 0.500000 0.500000
O O8 0.348806 0.762362 0.387561
O O9 0.283100 0.946213 0.280670
O O10 0.573952 0.916308 0.121938
O O11 0.390148 0.032437 0.454747
O O12 0.449468 0.264317 0.603154
O O13 0.234090 0.094675 0.825327
O O14 0.553967 0.610757 0.114654
O O15 0.791239 0.766664 0.890873
O O16 0.000000 0.000000 0.500000
O O17 0.838136 0.040530 0.873139
#
# Coordination Sequence:
#
# PCOD9104696 Si02
#       8
#     2   2   2   2   2   2   2   2
#     4  11  20  36  59  83 113 155 190 229 287 342
#     4  10  21  37  57  85 115 146 187 236 284 337
#     4  10  20  39  62  85 114 151 190 236 289 338
#     4  10  21  38  58  86 119 151 189 239 285 339
#     4   9  19  37  58  86 116 145 189 244 284 332
#     4  10  21  36  58  88 115 147 191 239 284 336
#     4  12  23  38  62  89 114 150 193 238 288 341
#     4  10  22  39  58  86 117 149 192 241 284 339
#
# _framework density 20.413305000000001
#
# number of rings (size 3 to 8) (size 9 to 14) (size 15 to 20)
#    0.000    2.000    0.000    7.125    0.000    3.000 
#    0.000    7.500    0.000    3.000    0.000    0.875 
#    0.000    0.000    0.000    0.000    0.000    0.000 
#
# Total GULP energy -89228.647294 kJ/mol
# GULP energy per Si atom -5576.790456 kJ/mol
# Density = 2.036684 g / cm^3
# Si number density = 20.413305 Si / 1000 Ang^3
#
#
#
# Elastic Constant Matrix: (Units=GPa)
#
#
# Indices 1 2 3 4 5 6 
#
# 1 68.2036 31.2862 39.5094 3.4690 -2.1479 -27.5741
# 2 31.2862 145.2234 66.6908 -1.6148 -5.0277 -26.0483
# 3 39.5094 66.6908 67.1142 0.5513 0.8173 -7.7171
# 4 3.4690 -1.6148 0.5513 35.6647 -0.7489 -2.6906
# 5 -2.1479 -5.0277 0.8173 -0.7489 10.0887 7.9679
# 6 -27.5741 -26.0483 -7.7171 -2.6906 7.9679 34.2628
#
#
#
# Elastic Compliance Matrix: (Units=1/GPa)
#
#
# Indices 1 2 3 4 5 6 
#
# 1 0.045311 0.013291 -0.034883 -0.000397 -0.014068 0.041954
# 2 0.013291 0.018558 -0.023971 0.001385 -0.001580 0.019882
# 3 -0.034883 -0.023971 0.055224 -0.001095 0.003530 -0.034766
# 4 -0.000397 0.001385 -0.001095 0.028365 0.000804 0.002528
# 5 -0.014068 -0.001580 0.003530 0.000804 0.127797 -0.041384
# 6 0.041954 0.019882 -0.034766 0.002528 -0.041384 0.080058
#
#
# Mechanical properties :
#
#
# Convention : Reuss Voigt Hill
#
# Bulk Modulus (GPa) = 35.75671 61.72381 48.74026
# Shear Modulus (GPa) = 10.97071 25.54021 18.25546
#
# Velocity S-wave (km/s) = 2.32077 3.54100 2.99372
# Velocity P-wave (km/s) = 4.97350 6.85718 5.98985
#
# Compressibility (1/GPa) = 0.02796678
#
# Stress axis : x y z
#
# Youngs Moduli (GPa) = 22.06971 53.88615 18.10822
#
# Poissons Ratio (x) = -0.71623 0.63167
# Poissons Ratio (y) = -0.29334 0.43407
# Poissons Ratio (z) = 0.76986 1.29171
#
# Static dielectric constant tensor:
#      x y z
#    x 1.792920 -0.004360 -0.013660 
#    y -0.004360 1.735750 -0.013610 
#    z -0.013660 -0.013610 1.733300 
# 
# From -- ./inp_files/239561.got.cif
#   From: 2010.05.17/outbox.cif.g08.bks.cpg/sg2_120_cif.got.tgz:239561.got - 2010.06.03 11:33:40.
