data_PCOD9104976
_publ_section_title
;
Structure prediction by ZEFSAII (Michael W. Deem and Ramdas Pophale) SiO2 
 PCOD9104976
Probable space group: P -1
;
_chemical_formula_sum "Si O2"
_cell_formula_units_Z 14
_cell_length_a 8.658001
_cell_length_b 8.032368
_cell_length_c 9.567509
_cell_angle_alpha 99.061992
_cell_angle_beta 75.690607
_cell_angle_gamma 119.091378
_cell_volume 562.839832
_symmetry_space_group_name_H-M "P -1"
_symmetry_group_IT_number 2
_symmetry_cell_setting 'triclinic'
loop_
_space_group_symop_operation_xyz
x,y,z
-x,-y,-z
loop_
_atom_site_type_symbol
_atom_site_label
_atom_site_fract_x
_atom_site_fract_y
_atom_site_fract_z
Si Si1 0.572806 0.216879 0.453941
Si Si2 0.681708 0.744620 0.295046
Si Si3 0.511478 0.762863 0.065057
Si Si4 0.008804 0.279512 0.636423
Si Si5 0.646487 0.951610 0.775831
Si Si6 0.924807 0.200937 0.332482
Si Si7 0.107027 0.481977 0.109839
O O1 0.506598 0.321357 0.591526
O O2 0.469814 0.202327 0.332512
O O3 0.779585 0.281286 0.391615
O O4 0.500000 0.000000 0.500000
O O5 0.625986 0.716558 0.144146
O O6 0.805188 0.660041 0.317050
O O7 0.807429 0.972186 0.323352
O O8 0.319038 0.587728 0.047280
O O9 0.454105 0.916274 0.165816
O O10 0.629977 0.858329 0.916172
O O11 0.031444 0.268307 0.463856
O O12 0.921469 0.403940 0.737863
O O13 0.849132 0.070741 0.690820
O O14 0.027268 0.275246 0.172358
O O15 0.000000 0.500000 0.000000
#
# Coordination Sequence:
#
# PCOD9104976 Si02
#       7
#     2   2   2   2   2   2   2
#     4  10  16  33  59  89 116 151 201 246 290 359
#     4  11  22  38  65  96 123 152 208 259 307 349
#     4  10  21  38  61  87 122 164 204 248 297 367
#     4  11  23  39  62  96 124 156 203 262 305 352
#     4  10  18  34  60  88 118 157 208 242 291 359
#     4  11  21  40  66  93 122 162 203 250 302 372
#     4  11  25  44  63  87 125 167 208 242 306 374
#
# _framework density 24.873863
#
# number of rings (size 3 to 8) (size 9 to 14) (size 15 to 20)
#    0.000    1.429    5.714    2.571    4.000    0.571 
#    0.000    3.571    0.000    0.000    0.000    0.000 
#    0.000    0.000    0.000    0.000    0.000    0.000 
#
# Total GULP energy -78353.089698 kJ/mol
# GULP energy per Si atom -5596.649264 kJ/mol
# Density = 2.481725 g / cm^3
# Si number density = 24.873863 Si / 1000 Ang^3
#
#
#
# Elastic Constant Matrix: (Units=GPa)
#
#
# Indices 1 2 3 4 5 6 
#
# 1 100.6669 12.3573 25.6069 -7.1998 28.4996 4.6893
# 2 12.3573 50.9038 19.8412 -4.1639 -6.2267 6.4073
# 3 25.6069 19.8412 135.5164 -13.5105 28.1620 6.0459
# 4 -7.1998 -4.1639 -13.5105 33.0532 5.3672 -8.2157
# 5 28.4996 -6.2267 28.1620 5.3672 36.9568 12.9299
# 6 4.6893 6.4073 6.0459 -8.2157 12.9299 29.6817
#
#
#
# Elastic Compliance Matrix: (Units=1/GPa)
#
#
# Indices 1 2 3 4 5 6 
#
# 1 0.016602 -0.008513 0.003199 0.010140 -0.021976 0.010943
# 2 -0.008513 0.029246 -0.008079 -0.009726 0.024971 -0.016893
# 3 0.003199 -0.008079 0.012231 0.009867 -0.017813 0.009238
# 4 0.010140 -0.009726 0.009867 0.047016 -0.032833 0.025804
# 5 -0.021976 0.024971 -0.017813 -0.032833 0.081569 -0.042911
# 6 0.010943 -0.016893 0.009238 0.025804 -0.042911 0.059562
#
#
# Mechanical properties :
#
#
# Convention : Reuss Voigt Hill
#
# Bulk Modulus (GPa) = 31.95614 44.74421 38.35017
# Shear Modulus (GPa) = 17.64026 35.22379 26.43202
#
# Velocity S-wave (km/s) = 2.66595 3.76719 3.26336
# Velocity P-wave (km/s) = 4.72774 6.07863 5.44524
#
# Compressibility (1/GPa) = 0.03129289
#
# Stress axis : x y z
#
# Youngs Moduli (GPa) = 60.23306 34.19313 81.75990
#
# Poissons Ratio (x) = 0.29110 -0.26155
# Poissons Ratio (y) = 0.51278 0.66050
# Poissons Ratio (z) = -0.19268 0.27623
#
# Static dielectric constant tensor:
#      x y z
#    x 1.937920 -0.023280 -0.030120 
#    y -0.023280 1.656230 0.715890 
#    z -0.030120 0.715890 0.479110 
# 
# From -- ./inp_files/154259.got.cif
#   From: 2010.05.17/outbox.cif.g08.bks.cpg/sg2_78_cif.got.tgz:154259.got - 2010.06.03 11:33:40.
