data_PCOD9104326
_publ_section_title
;
Structure prediction by ZEFSAII (Michael W. Deem and Ramdas Pophale) SiO2 
 PCOD9104326
Probable space group: P -1
;
_chemical_formula_sum "Si O2"
_cell_formula_units_Z 16
_cell_length_a 13.976849
_cell_length_b 9.548253
_cell_length_c 13.585943
_cell_angle_alpha 43.161429
_cell_angle_beta 59.066680
_cell_angle_gamma 93.406742
_cell_volume 715.204530
_symmetry_space_group_name_H-M "P -1"
_symmetry_group_IT_number 2
_symmetry_cell_setting 'triclinic'
loop_
_space_group_symop_operation_xyz
x,y,z
-x,-y,-z
loop_
_atom_site_type_symbol
_atom_site_label
_atom_site_fract_x
_atom_site_fract_y
_atom_site_fract_z
Si Si1 0.411986 0.882131 0.709374
Si Si2 0.831051 0.749587 0.154750
Si Si3 0.928959 0.422557 0.966405
Si Si4 0.600916 0.062783 0.682231
Si Si5 0.903070 0.130337 0.765364
Si Si6 0.342960 0.236244 0.607601
Si Si7 0.093130 0.682376 0.528249
Si Si8 0.439735 0.095748 0.910449
O O1 0.500000 0.000000 0.500000
O O2 0.503586 0.849257 0.749202
O O3 0.439439 0.153646 0.594730
O O4 0.215961 0.603498 0.944754
O O5 0.744391 0.415454 0.389288
O O6 0.703476 0.744627 0.269949
O O7 0.861683 0.853826 0.973218
O O8 0.000000 0.000000 0.000000
O O9 0.019103 0.583219 0.729672
O O10 0.000000 0.500000 0.000000
O O11 0.832582 0.074843 0.184111
O O12 0.708225 0.055466 0.694743
O O13 0.463142 0.004170 0.843600
O O14 0.953307 0.206759 0.584936
O O15 0.031685 0.403249 0.637492
O O16 0.741054 0.056801 0.898370
O O17 0.432382 0.540495 0.347768
O O18 0.500000 0.000000 0.000000
#
# Coordination Sequence:
#
# PCOD9104326 Si02
#       8
#     2   2   2   2   2   2   2   2
#     4  10  21  37  60  86 117 161 215 269 299 351
#     4  11  19  34  58  90 128 162 200 258 321 384
#     4  10  20  39  60  86 120 163 217 263 302 364
#     4  11  20  34  57  90 120 160 213 245 317 381
#     4  11  21  35  54  88 135 160 197 249 321 389
#     4   9  21  36  58  92 121 160 213 259 311 368
#     4  11  21  34  55  89 127 164 198 252 316 377
#     4  11  21  37  59  91 130 167 196 254 327 381
#
# _framework density 22.371221999999999
#
# number of rings (size 3 to 8) (size 9 to 14) (size 15 to 20)
#    0.750    0.750    3.750    3.000    0.000    2.000 
#    0.000    0.000    0.000    4.500    0.000    8.750 
#    0.000    0.000    0.000    0.000    0.000    0.000 
#
# Total GULP energy -89099.481056 kJ/mol
# GULP energy per Si atom -5568.717566 kJ/mol
# Density = 2.232030 g / cm^3
# Si number density = 22.371222 Si / 1000 Ang^3
#
#
#
# Elastic Constant Matrix: (Units=GPa)
#
#
# Indices 1 2 3 4 5 6 
#
# 1 79.9201 28.5936 18.0616 17.4045 -5.8960 32.4739
# 2 28.5936 97.4832 28.5677 27.3531 -2.4844 38.7571
# 3 18.0616 28.5677 73.5671 25.1846 -0.6444 14.6978
# 4 17.4045 27.3531 25.1846 36.1231 2.5035 4.7421
# 5 -5.8960 -2.4844 -0.6444 2.5035 44.2979 5.1620
# 6 32.4739 38.7571 14.6978 4.7421 5.1620 40.3927
#
#
#
# Elastic Compliance Matrix: (Units=1/GPa)
#
#
# Indices 1 2 3 4 5 6 
#
# 1 0.024073 0.007406 0.001865 -0.015583 0.007590 -0.026279
# 2 0.007406 0.025046 0.001150 -0.020016 0.006911 -0.028938
# 3 0.001865 0.001150 0.019236 -0.014264 0.002358 -0.008229
# 4 -0.015583 -0.020016 -0.014264 0.056862 -0.010296 0.031564
# 5 0.007590 0.006911 0.002358 -0.010296 0.026425 -0.015759
# 6 -0.026279 -0.028938 -0.008229 0.031564 -0.015759 0.074953
#
#
# Mechanical properties :
#
#
# Convention : Reuss Voigt Hill
#
# Bulk Modulus (GPa) = 11.21107 44.60181 27.90644
# Shear Modulus (GPa) = 21.23277 35.87923 28.55600
#
# Velocity S-wave (km/s) = 3.08411 4.00911 3.57664
# Velocity P-wave (km/s) = 4.20768 6.43514 5.43671
#
# Compressibility (1/GPa) = 0.08919756
#
# Stress axis : x y z
#
# Youngs Moduli (GPa) = 41.54107 39.92590 51.98505
#
# Poissons Ratio (x) = -0.29570 -0.09696
# Poissons Ratio (y) = -0.30767 -0.05976
# Poissons Ratio (z) = -0.07748 -0.04590
#
# Static dielectric constant tensor:
#      x y z
#    x 1.892520 0.045240 -0.006930 
#    y 0.045240 1.923400 0.031220 
#    z -0.006930 0.031220 1.910020 
# 
# From -- ./inp_files/451098.got.cif
#   From: 2010.05.17/outbox.cif.g08.bks.cpg/sg2_226_cif.got.tgz:451098.got - 2010.06.03 11:33:40.
