data_PCOD9104567
_publ_section_title
;
Structure prediction by ZEFSAII (Michael W. Deem and Ramdas Pophale) SiO2 
 PCOD9104567
Probable space group: P -1
;
_chemical_formula_sum "Si O2"
_cell_formula_units_Z 16
_cell_length_a 9.623541
_cell_length_b 18.115863
_cell_length_c 21.744107
_cell_angle_alpha 18.631981
_cell_angle_beta 41.900090
_cell_angle_gamma 50.357379
_cell_volume 767.537679
_symmetry_space_group_name_H-M "P -1"
_symmetry_group_IT_number 2
_symmetry_cell_setting 'triclinic'
loop_
_space_group_symop_operation_xyz
x,y,z
-x,-y,-z
loop_
_atom_site_type_symbol
_atom_site_label
_atom_site_fract_x
_atom_site_fract_y
_atom_site_fract_z
Si Si1 0.494284 0.913369 0.864667
Si Si2 0.877387 0.410607 0.682399
Si Si3 0.231515 0.169991 0.050535
Si Si4 0.170210 0.735217 0.829341
Si Si5 0.443070 0.975384 0.439983
Si Si6 0.565239 0.683719 0.518297
Si Si7 0.223184 0.210915 0.240777
Si Si8 0.239898 0.846681 0.199807
O O1 0.628876 0.947747 0.857230
O O2 0.652364 0.843652 0.817696
O O3 0.429397 0.139110 0.680326
O O4 0.267201 0.699681 0.123407
O O5 0.772668 0.607756 0.532051
O O6 0.823777 0.196768 0.817086
O O7 0.132959 0.567652 0.481135
O O8 0.056956 0.235830 0.098590
O O9 0.135207 0.999592 0.159033
O O10 0.386826 0.422648 0.772912
O O11 0.240664 0.817358 0.672186
O O12 0.349655 0.921737 0.666004
O O13 0.181156 0.466098 0.047741
O O14 0.490858 0.812593 0.498812
O O15 0.386030 0.199406 0.251418
O O16 0.000000 0.000000 0.500000
O O17 0.500000 0.000000 0.000000
#
# Coordination Sequence:
#
# PCOD9104567 Si02
#       8
#     2   2   2   2   2   2   2   2
#     4  10  21  38  61  90 123 159 205 248 300 365
#     4  10  22  41  69  88 124 163 195 257 312 358
#     4  11  22  37  61  88 118 157 204 252 302 364
#     4  11  21  36  57  84 118 161 205 243 301 363
#     4  10  22  36  56  85 121 159 200 249 296 357
#     4  10  20  39  61  89 122 159 198 248 302 358
#     4  11  22  37  58  87 124 162 200 249 296 355
#     4  11  21  43  68  91 122 158 202 259 313 361
#
# _framework density 20.845883000000001
#
# number of rings (size 3 to 8) (size 9 to 14) (size 15 to 20)
#    0.000    1.500    2.500    4.875    0.000    2.500 
#    0.000   11.250    0.000    0.000    0.000    0.000 
#    0.000    0.000    0.000    0.000    0.000    0.000 
#
# Total GULP energy -89226.029454 kJ/mol
# GULP energy per Si atom -5576.626841 kJ/mol
# Density = 2.079844 g / cm^3
# Si number density = 20.845883 Si / 1000 Ang^3
#
#
#
# Elastic Constant Matrix: (Units=GPa)
#
#
# Indices 1 2 3 4 5 6 
#
# 1 55.3101 18.2883 38.7866 -6.8117 19.4920 -6.7001
# 2 18.2883 80.1592 49.1021 5.5716 14.1700 10.5371
# 3 38.7866 49.1021 135.4246 9.6928 5.8435 6.3547
# 4 -6.8117 5.5716 9.6928 45.1632 -2.7158 -6.8079
# 5 19.4920 14.1700 5.8435 -2.7158 42.7696 -2.3741
# 6 -6.7001 10.5371 6.3547 -6.8079 -2.3741 16.2361
#
#
#
# Elastic Compliance Matrix: (Units=1/GPa)
#
#
# Indices 1 2 3 4 5 6 
#
# 1 0.034159 -0.003560 -0.009848 0.010511 -0.011096 0.023046
# 2 -0.003560 0.019400 -0.004773 -0.004457 -0.005259 -0.014829
# 3 -0.009848 -0.004773 0.012427 -0.004418 0.003694 -0.007143
# 4 0.010511 -0.004457 -0.004418 0.028391 0.000253 0.020901
# 5 -0.011096 -0.005259 0.003694 0.000253 0.029795 0.001851
# 6 0.023046 -0.014829 -0.007143 0.020901 0.001851 0.092555
#
#
# Mechanical properties :
#
#
# Convention : Reuss Voigt Hill
#
# Bulk Modulus (GPa) = 33.75396 53.69420 43.72408
# Shear Modulus (GPa) = 19.01413 31.81492 25.41452
#
# Velocity S-wave (km/s) = 3.02342 3.91090 3.49544
# Velocity P-wave (km/s) = 5.33061 6.79758 6.10829
#
# Compressibility (1/GPa) = 0.02962615
#
# Stress axis : x y z
#
# Youngs Moduli (GPa) = 29.27448 51.54755 80.46952
#
# Poissons Ratio (x) = 0.18349 0.79245
# Poissons Ratio (y) = 0.10420 0.38405
# Poissons Ratio (z) = 0.28829 0.24601
#
# Static dielectric constant tensor:
#      x y z
#    x 1.783420 -0.026200 -0.046150 
#    y -0.026200 1.788330 0.046070 
#    z -0.046150 0.046070 1.765910 
# 
# From -- ./inp_files/590860.got.cif
#   From: 2010.05.17/outbox.cif.g08.bks.cpg/sg2_296_cif.got.tgz:590860.got - 2010.06.03 11:33:40.
