data_PCOD9104774
_publ_section_title
;
Structure prediction by ZEFSAII (Michael W. Deem and Ramdas Pophale) SiO2 
 PCOD9104774
Probable space group: P -1
;
_chemical_formula_sum "Si O2"
_cell_formula_units_Z 13
_cell_length_a 16.241351
_cell_length_b 8.815398
_cell_length_c 7.822560
_cell_angle_alpha 51.277453
_cell_angle_beta 48.254592
_cell_angle_gamma 38.093523
_cell_volume 502.841263
_symmetry_space_group_name_H-M "P -1"
_symmetry_group_IT_number 2
_symmetry_cell_setting 'triclinic'
loop_
_space_group_symop_operation_xyz
x,y,z
-x,-y,-z
loop_
_atom_site_type_symbol
_atom_site_label
_atom_site_fract_x
_atom_site_fract_y
_atom_site_fract_z
Si Si1 0.197462 0.771135 0.422890
Si Si2 0.721040 0.605101 0.717309
Si Si3 0.500000 0.500000 0.500000
Si Si4 0.989068 0.741627 0.887090
Si Si5 0.638289 0.746034 0.083428
Si Si6 0.395432 0.840763 0.990446
Si Si7 0.262554 0.967732 0.723251
O O1 0.198499 0.623503 0.363703
O O2 0.134338 0.707014 0.704026
O O3 0.097638 0.059166 0.291482
O O4 0.348522 0.720099 0.268777
O O5 0.561530 0.696580 0.864753
O O6 0.726942 0.818614 0.494639
O O7 0.752099 0.575630 0.897072
O O8 0.564329 0.645617 0.338613
O O9 0.340910 0.748231 0.631557
O O10 0.000000 0.500000 0.000000
O O11 0.898845 0.878585 0.088980
O O12 0.681817 0.869893 0.061521
O O13 0.500000 0.000000 0.000000
O O14 0.351951 0.832989 0.867643
#
# Coordination Sequence:
#
# PCOD9104774 Si02
#       7
#     2   2   1   2   2   2   2
#     4  10  21  36  64  90 118 165 204 252 306 355
#     4  11  20  39  60  95 128 160 198 255 314 369
#     4  12  22  38  60  86 126 160 198 250 312 354
#     4  10  20  39  62  89 120 162 213 248 293 371
#     4  10  21  37  56  88 124 161 195 241 309 365
#     4  10  21  38  59  97 127 156 206 256 306 368
#     4  11  22  38  65  93 122 166 206 252 308 363
#
# _framework density 25.853089000000001
#
# number of rings (size 3 to 8) (size 9 to 14) (size 15 to 20)
#    0.000    1.538    4.615    2.769    0.000    1.231 
#    0.000    0.000    0.000   15.692    0.000    0.000 
#    0.000    0.000    0.000    0.000    0.000    0.000 
#
# Total GULP energy -72485.882467 kJ/mol
# GULP energy per Si atom -5575.837113 kJ/mol
# Density = 2.579425 g / cm^3
# Si number density = 25.853089 Si / 1000 Ang^3
#
#
#
# Elastic Constant Matrix: (Units=GPa)
#
#
# Indices 1 2 3 4 5 6 
#
# 1 35.3144 22.5629 36.8073 7.1176 -16.0869 6.8136
# 2 22.5629 164.9414 81.0311 5.5113 -17.1317 31.7659
# 3 36.8073 81.0311 235.2628 -11.3249 -34.6004 12.5165
# 4 7.1176 5.5113 -11.3249 66.6913 8.0660 -0.6294
# 5 -16.0869 -17.1317 -34.6004 8.0660 51.6845 4.0961
# 6 6.8136 31.7659 12.5165 -0.6294 4.0961 37.8388
#
#
#
# Elastic Compliance Matrix: (Units=1/GPa)
#
#
# Indices 1 2 3 4 5 6 
#
# 1 0.041120 -0.000785 -0.004500 -0.006487 0.011058 -0.006562
# 2 -0.000785 0.008868 -0.002364 -0.001339 0.001856 -0.006744
# 3 -0.004500 -0.002364 0.006038 0.001517 0.001569 0.000653
# 4 -0.006487 -0.001339 0.001517 0.016591 -0.004236 0.002525
# 5 0.011058 0.001856 0.001569 -0.004236 0.025665 -0.006917
# 6 -0.006562 -0.006744 0.000653 0.002525 -0.006917 0.033846
#
#
# Mechanical properties :
#
#
# Convention : Reuss Voigt Hill
#
# Bulk Modulus (GPa) = 24.55356 79.59124 52.07240
# Shear Modulus (GPa) = 31.05548 50.91740 40.98644
#
# Velocity S-wave (km/s) = 3.46964 4.44271 3.98598
# Velocity P-wave (km/s) = 5.05659 7.56106 6.43190
#
# Compressibility (1/GPa) = 0.04072729
#
# Stress axis : x y z
#
# Youngs Moduli (GPa) = 24.31933 112.76446 165.61930
#
# Poissons Ratio (x) = 0.08856 0.74521
# Poissons Ratio (y) = 0.01910 0.39156
# Poissons Ratio (z) = 0.10943 0.26660
#
# Static dielectric constant tensor:
#      x y z
#    x 1.699810 0.179090 -0.288540 
#    y 0.179090 2.000810 0.155940 
#    z -0.288540 0.155940 1.940920 
# 
# From -- ./inp_files/342408.got.cif
#   From: 2010.05.17/outbox.cif.g08.bks.cpg/sg2_172_cif.got.tgz:342408.got - 2010.06.03 11:33:40.
