data_PCOD9104784
_publ_section_title
;
Structure prediction by ZEFSAII (Michael W. Deem and Ramdas Pophale) SiO2 
 PCOD9104784
Probable space group: P -1
;
_chemical_formula_sum "Si O2"
_cell_formula_units_Z 16
_cell_length_a 21.022159
_cell_length_b 9.635081
_cell_length_c 8.817863
_cell_angle_alpha 131.770105
_cell_angle_beta 36.014037
_cell_angle_gamma 122.735983
_cell_volume 783.236694
_symmetry_space_group_name_H-M "P -1"
_symmetry_group_IT_number 2
_symmetry_cell_setting 'triclinic'
loop_
_space_group_symop_operation_xyz
x,y,z
-x,-y,-z
loop_
_atom_site_type_symbol
_atom_site_label
_atom_site_fract_x
_atom_site_fract_y
_atom_site_fract_z
Si Si1 0.040143 0.812095 0.707609
Si Si2 0.039315 0.425550 0.580123
Si Si3 0.545771 0.895244 0.982009
Si Si4 0.423883 0.517408 0.511189
Si Si5 0.474282 0.299821 0.830002
Si Si6 0.208238 0.634981 0.892085
Si Si7 0.225914 0.976770 0.267511
Si Si8 0.773179 0.650272 0.603384
O O1 0.060928 0.639501 0.651808
O O2 0.961253 0.715573 0.664752
O O3 0.148498 0.870660 0.454256
O O4 0.000000 0.000000 0.000000
O O5 0.132407 0.367588 0.471995
O O6 0.916538 0.415201 0.872343
O O7 0.571223 0.685906 0.723971
O O8 0.653510 0.008371 0.895280
O O9 0.490134 0.854320 0.225126
O O10 0.500000 0.000000 0.000000
O O11 0.500000 0.500000 0.500000
O O12 0.472301 0.676625 0.420846
O O13 0.295390 0.563409 0.798055
O O14 0.500000 0.500000 0.000000
O O15 0.343576 0.289036 0.063163
O O16 0.241261 0.538287 0.601786
O O17 0.218450 0.857394 0.041100
O O18 0.190505 0.187740 0.464119
#
# Coordination Sequence:
#
# PCOD9104784 Si02
#       8
#     2   2   2   2   2   2   2   2
#     4  10  22  40  60  85 129 160 211 262 308 372
#     4  10  24  38  63  93 119 172 208 259 317 384
#     4  10  20  39  62  89 126 161 208 270 315 373
#     4  11  22  39  67  91 123 175 211 259 328 381
#     4   9  19  39  63  85 126 165 204 266 312 379
#     4  11  21  39  63  89 127 163 210 259 324 383
#     4  10  22  39  61  90 122 163 206 263 311 382
#     4  11  21  41  64  88 128 159 212 263 321 372
#
# _framework density 20.428051
#
# number of rings (size 3 to 8) (size 9 to 14) (size 15 to 20)
#    0.000    1.750    3.750    1.875    0.000    8.000 
#    0.000    5.625    0.000    0.000    0.000    0.000 
#    0.000    0.000    0.000    0.000    0.000    0.000 
#
# Total GULP energy -89169.310299 kJ/mol
# GULP energy per Si atom -5573.081894 kJ/mol
# Density = 2.038156 g / cm^3
# Si number density = 20.428051 Si / 1000 Ang^3
#
#
#
# Elastic Constant Matrix: (Units=GPa)
#
#
# Indices 1 2 3 4 5 6 
#
# 1 116.0232 42.3620 19.9415 -9.3609 -24.3922 -19.8218
# 2 42.3620 121.1345 24.0222 -9.1270 -7.5960 0.6541
# 3 19.9415 24.0222 66.1431 6.7346 -0.8765 -1.0137
# 4 -9.3609 -9.1270 6.7346 26.4191 10.5285 8.0269
# 5 -24.3922 -7.5960 -0.8765 10.5285 27.2041 3.9692
# 6 -19.8218 0.6541 -1.0137 8.0269 3.9692 31.3460
#
#
#
# Elastic Compliance Matrix: (Units=1/GPa)
#
#
# Indices 1 2 3 4 5 6 
#
# 1 0.013995 -0.004009 -0.002200 -0.002834 0.011264 0.008161
# 2 -0.004009 0.010569 -0.003237 0.005097 -0.002152 -0.003893
# 3 -0.002200 -0.003237 0.017663 -0.006758 0.000168 0.000957
# 4 -0.002834 0.005097 -0.006758 0.052083 -0.019600 -0.012972
# 5 0.011264 -0.002152 0.000168 -0.019600 0.053050 0.005475
# 6 0.008161 -0.003893 0.000957 -0.012972 0.005475 0.039804
#
#
# Mechanical properties :
#
#
# Convention : Reuss Voigt Hill
#
# Bulk Modulus (GPa) = 42.85604 52.88357 47.86981
# Shear Modulus (GPa) = 23.38262 31.45885 27.42074
#
# Velocity S-wave (km/s) = 3.38691 3.92852 3.66773
# Velocity P-wave (km/s) = 6.02656 6.82067 6.43588
#
# Compressibility (1/GPa) = 0.02333393
#
# Stress axis : x y z
#
# Youngs Moduli (GPa) = 71.45591 94.61377 56.61629
#
# Poissons Ratio (x) = 0.37931 0.12457
# Poissons Ratio (y) = 0.28647 0.18327
# Poissons Ratio (z) = 0.15723 0.30627
#
# Static dielectric constant tensor:
#      x y z
#    x 1.915030 -0.065630 -0.052240 
#    y -0.065630 1.740440 0.020660 
#    z -0.052240 0.020660 1.843850 
# 
# From -- ./inp_files/342985.got.cif
#   From: 2010.05.17/outbox.cif.g08.bks.cpg/sg2_172_cif.got.tgz:342985.got - 2010.06.03 11:33:40.
