data_PCOD9104115
_publ_section_title
;
Structure prediction by ZEFSAII (Michael W. Deem and Ramdas Pophale) SiO2 
 PCOD9104115
Probable space group: P -1
;
_chemical_formula_sum "Si O2"
_cell_formula_units_Z 14
_cell_length_a 5.052366
_cell_length_b 21.988217
_cell_length_c 8.154332
_cell_angle_alpha 122.538944
_cell_angle_beta 56.198642
_cell_angle_gamma 112.579583
_cell_volume 629.940226
_symmetry_space_group_name_H-M "P -1"
_symmetry_group_IT_number 2
_symmetry_cell_setting 'triclinic'
loop_
_space_group_symop_operation_xyz
x,y,z
-x,-y,-z
loop_
_atom_site_type_symbol
_atom_site_label
_atom_site_fract_x
_atom_site_fract_y
_atom_site_fract_z
Si Si1 0.006987 0.579712 0.542798
Si Si2 0.803775 0.009490 0.788335
Si Si3 0.051863 0.207425 0.278042
Si Si4 0.648229 0.080438 0.419881
Si Si5 0.290290 0.848240 0.144691
Si Si6 0.942227 0.289397 0.097538
Si Si7 0.643779 0.651378 0.520680
O O1 0.868659 0.633002 0.804780
O O2 0.376428 0.615422 0.436246
O O3 0.000000 0.500000 0.500000
O O4 0.816850 0.589794 0.457571
O O5 0.675319 0.959926 0.604823
O O6 0.102415 0.978906 0.726933
O O7 0.842233 0.092581 0.839897
O O8 0.500000 0.000000 0.000000
O O9 0.122472 0.274675 0.481176
O O10 0.796120 0.143796 0.339538
O O11 0.936998 0.245516 0.208701
O O12 0.377438 0.172150 0.076717
O O13 0.631089 0.117569 0.655950
O O14 0.034494 0.774908 0.131516
O O15 0.600012 0.317644 0.219497
#
# Coordination Sequence:
#
# PCOD9104115 Si02
#       7
#     2   2   2   2   2   2   2
#     4   9  15  28  51  86 117 144 187 227 273 337
#     4  12  25  43  60  82 114 151 193 246 294 338
#     4  10  20  39  58  80 117 148 194 235 288 339
#     4  12  27  39  61  86 106 157 195 238 298 337
#     4  11  23  39  59  82 119 144 196 245 284 351
#     4   8  19  33  56  79 113 153 179 235 285 324
#     4   8  17  29  49  79 112 148 180 228 277 324
#
# _framework density 22.224332
#
# number of rings (size 3 to 8) (size 9 to 14) (size 15 to 20)
#    0.857    1.143    1.429    2.571    6.000    0.000 
#    0.000    0.000    0.000    0.000    0.000    5.000 
#    0.000    0.143    0.000    0.000    0.000    0.000 
#
# Total GULP energy -77984.103174 kJ/mol
# GULP energy per Si atom -5570.293084 kJ/mol
# Density = 2.217375 g / cm^3
# Si number density = 22.224332 Si / 1000 Ang^3
#
#
#
# Elastic Constant Matrix: (Units=GPa)
#
#
# Indices 1 2 3 4 5 6 
#
# 1 111.3331 30.7310 0.3230 9.1990 -8.8033 -18.3678
# 2 30.7310 110.4662 39.5079 34.9720 -8.9745 -20.1430
# 3 0.3230 39.5079 41.3131 9.1582 4.6719 -3.5471
# 4 9.1990 34.9720 9.1582 23.5883 -2.0760 -0.7445
# 5 -8.8033 -8.9745 4.6719 -2.0760 26.3925 10.0401
# 6 -18.3678 -20.1430 -3.5471 -0.7445 10.0401 31.2682
#
#
#
# Elastic Compliance Matrix: (Units=1/GPa)
#
#
# Indices 1 2 3 4 5 6 
#
# 1 0.010659 -0.003139 0.003458 -0.000694 0.000075 0.004591
# 2 -0.003139 0.033219 -0.022710 -0.038245 0.005864 0.014186
# 3 0.003458 -0.022710 0.043803 0.014159 -0.011887 -0.003475
# 4 -0.000694 -0.038245 0.014159 0.093170 -0.000389 -0.021096
# 5 0.000075 0.005864 -0.011887 -0.000389 0.046756 -0.012550
# 6 0.004591 0.014186 -0.003475 -0.021096 -0.012550 0.046950
#
#
# Mechanical properties :
#
#
# Convention : Reuss Voigt Hill
#
# Bulk Modulus (GPa) = 23.31030 44.91513 34.11271
# Shear Modulus (GPa) = 14.98627 29.08651 22.03639
#
# Velocity S-wave (km/s) = 2.59958 3.62162 3.15229
# Velocity P-wave (km/s) = 4.41835 6.14344 5.35087
#
# Compressibility (1/GPa) = 0.04289948
#
# Stress axis : x y z
#
# Youngs Moduli (GPa) = 93.81558 30.10324 22.82935
#
# Poissons Ratio (x) = 0.09451 -0.07895
# Poissons Ratio (y) = 0.29452 0.51845
# Poissons Ratio (z) = -0.32445 0.68364
#
# Static dielectric constant tensor:
#      x y z
#    x 1.887430 0.069060 0.032650 
#    y 0.069060 1.846540 0.005570 
#    z 0.032650 0.005570 1.913140 
# 
# From -- ./inp_files/42501.got.cif
#   From: 2010.05.17/outbox.cif.g08.bks.cpg/sg2_22_cif.got.tgz:42501.got - 2010.06.03 11:33:40.
