data_PCOD9104872
_publ_section_title
;
Structure prediction by ZEFSAII (Michael W. Deem and Ramdas Pophale) SiO2 
 PCOD9104872
Probable space group: P -1
;
_chemical_formula_sum "Si O2"
_cell_formula_units_Z 16
_cell_length_a 9.294205
_cell_length_b 19.963854
_cell_length_c 14.107491
_cell_angle_alpha 20.606497
_cell_angle_beta 89.962455
_cell_angle_gamma 78.639305
_cell_volume 764.530434
_symmetry_space_group_name_H-M "P -1"
_symmetry_group_IT_number 2
_symmetry_cell_setting 'triclinic'
loop_
_space_group_symop_operation_xyz
x,y,z
-x,-y,-z
loop_
_atom_site_type_symbol
_atom_site_label
_atom_site_fract_x
_atom_site_fract_y
_atom_site_fract_z
Si Si1 0.662212 0.814167 0.662750
Si Si2 0.692456 0.738930 0.968105
Si Si3 0.815287 0.670433 0.645486
Si Si4 0.902999 0.008309 0.232473
Si Si5 0.021449 0.615962 0.254611
Si Si6 0.049124 0.146603 0.362908
Si Si7 0.485484 0.573232 0.293543
Si Si8 0.390353 0.261197 0.620395
O O1 0.764981 0.696959 0.721304
O O2 0.748469 0.951886 0.511865
O O3 0.697340 0.665650 0.954368
O O4 0.464337 0.991954 0.397681
O O5 0.864729 0.695414 0.074822
O O6 0.623754 0.623076 0.190689
O O7 0.654032 0.739728 0.487782
O O8 0.884907 0.830060 0.406236
O O9 0.953489 0.403096 0.986076
O O10 0.704999 0.194413 0.018110
O O11 0.003104 0.860281 0.520632
O O12 0.972344 0.166981 0.998542
O O13 0.000000 0.500000 0.500000
O O14 0.205023 0.426436 0.455612
O O15 0.000000 0.000000 0.500000
O O16 0.500000 0.500000 0.500000
O O17 0.491048 0.380632 0.484964
O O18 0.500000 0.000000 0.000000
#
# Coordination Sequence:
#
# PCOD9104872 Si02
#       8
#     2   2   2   2   2   2   2   2
#     4  10  22  37  65  95 137 176 208 285 349 398
#     4  11  21  40  66  99 137 170 223 281 351 401
#     4  11  22  39  68  96 134 172 230 277 338 411
#     4  10  20  39  62  93 124 176 223 269 334 403
#     4  11  25  43  69  98 133 180 232 287 346 399
#     4  11  20  37  66  95 129 173 228 270 331 410
#     4  11  21  40  69  92 126 180 229 271 334 411
#     4  11  25  43  66  96 132 178 234 282 332 412
#
# _framework density 20.927879000000001
#
# number of rings (size 3 to 8) (size 9 to 14) (size 15 to 20)
#    0.000    1.250    2.500    6.750    1.750    0.000 
#    0.000    5.625    0.000    0.000    0.000    0.000 
#    0.000    0.000    0.000    0.000    0.000    0.000 
#
# Total GULP energy -89223.142146 kJ/mol
# GULP energy per Si atom -5576.446384 kJ/mol
# Density = 2.088025 g / cm^3
# Si number density = 20.927879 Si / 1000 Ang^3
#
#
#
# Elastic Constant Matrix: (Units=GPa)
#
#
# Indices 1 2 3 4 5 6 
#
# 1 97.7762 37.0088 44.2732 -3.0879 -14.0537 6.3089
# 2 37.0088 96.8324 30.6242 15.2326 -14.9244 14.2985
# 3 44.2732 30.6242 132.8320 -0.0837 -10.5095 13.4403
# 4 -3.0879 15.2326 -0.0837 41.7186 2.4526 -9.3305
# 5 -14.0537 -14.9244 -10.5095 2.4526 43.2825 2.7802
# 6 6.3089 14.2985 13.4403 -9.3305 2.7802 37.7853
#
#
#
# Elastic Compliance Matrix: (Units=1/GPa)
#
#
# Indices 1 2 3 4 5 6 
#
# 1 0.013808 -0.004498 -0.003541 0.002822 0.001834 0.001218
# 2 -0.004498 0.015277 -0.000975 -0.007722 0.004452 -0.006917
# 3 -0.003541 -0.000975 0.009265 -0.000510 0.000955 -0.002531
# 4 0.002822 -0.007722 -0.000510 0.029533 -0.004201 0.010234
# 5 0.001834 0.004452 0.000955 -0.004201 0.026044 -0.005284
# 6 0.001218 -0.006917 -0.002531 0.010234 -0.005284 0.032696
#
#
# Mechanical properties :
#
#
# Convention : Reuss Voigt Hill
#
# Bulk Modulus (GPa) = 49.21437 61.25031 55.23234
# Shear Modulus (GPa) = 33.01917 38.92624 35.97270
#
# Velocity S-wave (km/s) = 3.97641 4.31747 4.15045
# Velocity P-wave (km/s) = 6.68204 7.36104 7.02975
#
# Compressibility (1/GPa) = 0.02031927
#
# Stress axis : x y z
#
# Youngs Moduli (GPa) = 72.42268 65.45663 107.93405
#
# Poissons Ratio (x) = 0.29445 0.38224
# Poissons Ratio (y) = 0.32579 0.10529
# Poissons Ratio (z) = 0.25648 0.06385
#
# Static dielectric constant tensor:
#      x y z
#    x 2.087770 -0.203390 0.691240 
#    y -0.203390 1.951310 -0.419980 
#    z 0.691240 -0.419980 3.365800 
# 
# From -- ./inp_files/508077.got.cif
#   From: 2010.05.17/outbox.cif.g08.bks.cpg/sg2_255_cif.got.tgz:508077.got - 2010.06.03 11:33:40.
