data_PCOD9104929
_publ_section_title
;
Structure prediction by ZEFSAII (Michael W. Deem and Ramdas Pophale) SiO2 
 PCOD9104929
Probable space group: P -1
;
_chemical_formula_sum "Si O2"
_cell_formula_units_Z 16
_cell_length_a 5.225823
_cell_length_b 12.446880
_cell_length_c 12.142600
_cell_angle_alpha 109.841893
_cell_angle_beta 72.927770
_cell_angle_gamma 78.035171
_cell_volume 667.528517
_symmetry_space_group_name_H-M "P -1"
_symmetry_group_IT_number 2
_symmetry_cell_setting 'triclinic'
loop_
_space_group_symop_operation_xyz
x,y,z
-x,-y,-z
loop_
_atom_site_type_symbol
_atom_site_label
_atom_site_fract_x
_atom_site_fract_y
_atom_site_fract_z
Si Si1 0.184746 0.479966 0.649568
Si Si2 0.419833 0.894650 0.251230
Si Si3 0.949417 0.856234 0.688624
Si Si4 0.788210 0.267443 0.180305
Si Si5 0.896495 0.465251 0.884314
Si Si6 0.749348 0.655080 0.607089
Si Si7 0.391681 0.697980 0.021589
Si Si8 0.211568 0.035371 0.621242
O O1 0.253914 0.594289 0.728693
O O2 0.369872 0.387170 0.502850
O O3 0.128391 0.415394 0.743193
O O4 0.909998 0.542823 0.627892
O O5 0.709948 0.874369 0.272683
O O6 0.120271 0.901537 0.354784
O O7 0.455426 0.802692 0.115316
O O8 0.330850 0.031272 0.264557
O O9 0.979271 0.822737 0.802116
O O10 0.949105 0.734719 0.584032
O O11 0.186115 0.913467 0.637756
O O12 0.496945 0.255670 0.256411
O O13 0.805698 0.256886 0.044134
O O14 0.679267 0.592465 0.909219
O O15 0.735756 0.373309 0.900701
O O16 0.000000 0.500000 0.000000
O O17 0.500000 0.000000 0.500000
#
# Coordination Sequence:
#
# PCOD9104929 Si02
#       8
#     2   2   2   2   2   2   2   2
#     4  10  21  37  65  90 133 172 226 280 336 407
#     4  10  24  44  68 105 130 181 227 275 341 411
#     4   9  23  39  66  98 135 167 231 272 346 398
#     4  11  20  40  64  96 134 181 216 287 336 408
#     4  11  23  43  62  95 131 175 230 281 342 399
#     4  10  20  39  62  97 130 175 223 273 345 400
#     4  11  25  41  68  91 137 177 230 281 340 411
#     4  10  22  45  71  93 142 178 225 281 335 401
#
# _framework density 23.969014000000001
#
# number of rings (size 3 to 8) (size 9 to 14) (size 15 to 20)
#    0.750    1.000    2.500    1.500    1.750    1.500 
#    2.250    1.250    0.000    0.000    0.000    0.000 
#    0.000    0.000    0.000    0.000    0.000    0.000 
#
# Total GULP energy -89211.809365 kJ/mol
# GULP energy per Si atom -5575.738085 kJ/mol
# Density = 2.391446 g / cm^3
# Si number density = 23.969014 Si / 1000 Ang^3
#
#
#
# Elastic Constant Matrix: (Units=GPa)
#
#
# Indices 1 2 3 4 5 6 
#
# 1 78.4305 14.6932 0.7152 -1.7922 7.7915 17.0796
# 2 14.6932 74.5372 29.0739 -1.6310 6.8439 18.7825
# 3 0.7152 29.0739 102.5753 -11.0624 16.6875 22.8918
# 4 -1.7922 -1.6310 -11.0624 23.0249 4.7929 -0.1158
# 5 7.7915 6.8439 16.6875 4.7929 35.4227 8.0542
# 6 17.0796 18.7825 22.8918 -0.1158 8.0542 33.7330
#
#
#
# Elastic Compliance Matrix: (Units=1/GPa)
#
#
# Indices 1 2 3 4 5 6 
#
# 1 0.015171 -0.001808 0.003012 0.003086 -0.003007 -0.007989
# 2 -0.001808 0.016608 -0.003471 -0.000725 0.000298 -0.006050
# 3 0.003012 -0.003471 0.014317 0.008087 -0.006049 -0.007836
# 4 0.003086 -0.000725 0.008087 0.049595 -0.010137 -0.004056
# 5 -0.003007 0.000298 -0.006049 -0.010137 0.033648 -0.002607
# 6 -0.007989 -0.006050 -0.007836 -0.004056 -0.002607 0.042984
#
#
# Mechanical properties :
#
#
# Convention : Reuss Voigt Hill
#
# Bulk Modulus (GPa) = 24.06187 38.27861 31.17024
# Shear Modulus (GPa) = 26.21761 32.50685 29.36223
#
# Velocity S-wave (km/s) = 3.31087 3.68666 3.50381
# Velocity P-wave (km/s) = 4.96753 5.84180 5.42232
#
# Compressibility (1/GPa) = 0.04155953
#
# Stress axis : x y z
#
# Youngs Moduli (GPa) = 65.91711 60.21268 69.84830
#
# Poissons Ratio (x) = 0.10889 -0.21037
# Poissons Ratio (y) = 0.11920 0.24246
# Poissons Ratio (z) = -0.19853 0.20901
#
# Static dielectric constant tensor:
#      x y z
#    x 2.049600 0.041570 -0.047080 
#    y 0.041570 1.911000 0.009590 
#    z -0.047080 0.009590 1.982520 
# 
# From -- ./inp_files/364955.got.cif
#   From: 2010.05.17/outbox.cif.g08.bks.cpg/sg2_183_cif.got.tgz:364955.got - 2010.06.03 11:33:40.
