data_PCOD9104344
_publ_section_title
;
Structure prediction by ZEFSAII (Michael W. Deem and Ramdas Pophale) SiO2 
 PCOD9104344
Probable space group: P -1
;
_chemical_formula_sum "Si O2"
_cell_formula_units_Z 12
_cell_length_a 12.766043
_cell_length_b 7.600977
_cell_length_c 9.082723
_cell_angle_alpha 79.790337
_cell_angle_beta 116.815633
_cell_angle_gamma 53.197972
_cell_volume 491.029071
_symmetry_space_group_name_H-M "P -1"
_symmetry_group_IT_number 2
_symmetry_cell_setting 'triclinic'
loop_
_space_group_symop_operation_xyz
x,y,z
-x,-y,-z
loop_
_atom_site_type_symbol
_atom_site_label
_atom_site_fract_x
_atom_site_fract_y
_atom_site_fract_z
Si Si1 0.567024 0.740547 0.270687
Si Si2 0.380333 0.685363 0.754410
Si Si3 0.586341 0.165254 0.529826
Si Si4 0.065491 0.106628 0.095249
Si Si5 0.965749 0.567634 0.770561
Si Si6 0.768852 0.834262 0.240368
O O1 0.676901 0.433556 0.336425
O O2 0.527138 0.776858 0.414341
O O3 0.674135 0.788289 0.279415
O O4 0.376660 0.962330 0.020266
O O5 0.487651 0.668525 0.695321
O O6 0.226913 0.995642 0.679579
O O7 0.500000 0.500000 0.000000
O O8 0.717916 0.163642 0.686252
O O9 0.748670 0.837233 0.630843
O O10 0.968376 0.312864 0.146465
O O11 0.039233 0.306484 0.941193
O O12 0.000000 0.000000 0.000000
O O13 0.044119 0.441938 0.679401
#
# Coordination Sequence:
#
# PCOD9104344 Si02
#       6
#     2   2   2   2   2   2
#     4  10  20  39  60  87 124 162 210 251 300 376
#     4  10  23  40  59  89 128 167 204 255 310 365
#     4  10  20  41  62  92 124 159 214 256 298 372
#     4   9  18  36  61  93 123 163 197 255 314 357
#     4   9  19  38  60  93 125 153 207 263 295 380
#     4  10  20  39  61  88 127 165 193 257 322 358
#
# _framework density 24.438473999999999
#
# number of rings (size 3 to 8) (size 9 to 14) (size 15 to 20)
#    1.000    1.333    1.667    0.500    0.000    2.667 
#   12.000    0.833    0.000    0.000    0.000    1.167 
#    0.000    0.000    0.000    0.000    0.000    0.000 
#
# Total GULP energy -66926.762645 kJ/mol
# GULP energy per Si atom -5577.230220 kJ/mol
# Density = 2.438285 g / cm^3
# Si number density = 24.438474 Si / 1000 Ang^3
#
#
#
# Elastic Constant Matrix: (Units=GPa)
#
#
# Indices 1 2 3 4 5 6 
#
# 1 66.0631 67.5266 39.1852 12.9869 -3.5508 19.3529
# 2 67.5266 230.4739 48.7662 24.6847 -17.7901 5.3613
# 3 39.1852 48.7662 132.0328 20.1734 -38.1536 -2.8081
# 4 12.9869 24.6847 20.1734 45.1003 -4.5675 -10.5819
# 5 -3.5508 -17.7901 -38.1536 -4.5675 39.4196 10.1942
# 6 19.3529 5.3613 -2.8081 -10.5819 10.1942 37.4312
#
#
#
# Elastic Compliance Matrix: (Units=1/GPa)
#
#
# Indices 1 2 3 4 5 6 
#
# 1 0.033543 -0.007369 -0.007740 -0.006717 -0.004002 -0.017677
# 2 -0.007369 0.006613 0.000606 -0.001073 0.002270 0.001986
# 3 -0.007740 0.000606 0.013619 -0.002763 0.012224 0.000826
# 4 -0.006717 -0.001073 -0.002763 0.028484 -0.003690 0.012477
# 5 -0.004002 0.002270 0.012224 -0.003690 0.039823 -0.009227
# 6 -0.017677 0.001986 0.000826 0.012477 -0.009227 0.041673
#
#
# Mechanical properties :
#
#
# Convention : Reuss Voigt Hill
#
# Bulk Modulus (GPa) = 40.36795 82.16951 61.26873
# Shear Modulus (GPa) = 24.87357 42.59635 33.73496
#
# Velocity S-wave (km/s) = 3.19376 4.17946 3.71941
# Velocity P-wave (km/s) = 5.49129 7.54894 6.60079
#
# Compressibility (1/GPa) = 0.02477213
#
# Stress axis : x y z
#
# Youngs Moduli (GPa) = 29.81222 151.20749 73.42554
#
# Poissons Ratio (x) = 1.11417 0.56829
# Poissons Ratio (y) = 0.21967 -0.04452
# Poissons Ratio (z) = 0.23074 -0.09167
#
# Static dielectric constant tensor:
#      x y z
#    x 1.897280 0.022590 0.023790 
#    y 0.022590 1.969700 0.007970 
#    z 0.023790 0.007970 2.208330 
# 
# From -- ./inp_files/289929.got.cif
#   From: 2010.05.17/outbox.cif.g08.bks.cpg/sg2_145_cif.got.tgz:289929.got - 2010.06.03 11:33:40.
