data_PCOD9104387
_publ_section_title
;
Structure prediction by ZEFSAII (Michael W. Deem and Ramdas Pophale) SiO2 
 PCOD9104387
Probable space group: P -1
;
_chemical_formula_sum "Si O2"
_cell_formula_units_Z 16
_cell_length_a 7.639268
_cell_length_b 11.612320
_cell_length_c 9.465909
_cell_angle_alpha 93.975305
_cell_angle_beta 86.817527
_cell_angle_gamma 65.377325
_cell_volume 758.221112
_symmetry_space_group_name_H-M "P -1"
_symmetry_group_IT_number 2
_symmetry_cell_setting 'triclinic'
loop_
_space_group_symop_operation_xyz
x,y,z
-x,-y,-z
loop_
_atom_site_type_symbol
_atom_site_label
_atom_site_fract_x
_atom_site_fract_y
_atom_site_fract_z
Si Si1 0.645815 0.932661 0.113199
Si Si2 0.917215 0.460591 0.361434
Si Si3 0.654386 0.353362 0.492441
Si Si4 0.624710 0.192026 0.241023
Si Si5 0.056598 0.850443 0.983326
Si Si6 0.259402 0.394847 0.116974
Si Si7 0.766034 0.684001 0.205239
Si Si8 0.809558 0.329816 0.788543
O O1 0.611684 0.828963 0.200871
O O2 0.848962 0.849824 0.016121
O O3 0.656221 0.045559 0.216726
O O4 0.500000 0.000000 0.000000
O O5 0.838716 0.360721 0.407519
O O6 0.748003 0.587831 0.312157
O O7 0.000000 0.500000 0.500000
O O8 0.080717 0.410921 0.228715
O O9 0.500000 0.500000 0.500000
O O10 0.591818 0.258415 0.399946
O O11 0.716303 0.315019 0.646709
O O12 0.444953 0.275823 0.156548
O O13 0.813827 0.198684 0.163979
O O14 0.185230 0.769107 0.100696
O O15 0.000000 0.000000 0.000000
O O16 0.291695 0.523410 0.144914
O O17 0.217008 0.380406 0.954579
O O18 0.966518 0.691911 0.242019
#
# Coordination Sequence:
#
# PCOD9104387 Si02
#       8
#     2   2   2   2   2   2   2   2
#     4  10  20  41  63  87 125 161 210 256 298 362
#     4  11  21  39  63  87 125 164 204 244 312 366
#     4  12  24  40  58  94 134 163 192 254 316 377
#     4  11  23  38  63  95 127 160 202 253 321 359
#     4   9  22  40  61  92 122 162 206 253 306 359
#     4  11  21  37  62  96 118 157 208 261 304 361
#     4  10  21  37  65  92 116 158 215 259 297 354
#     4  10  20  39  60  90 130 159 203 249 311 365
#
# _framework density 21.102022999999999
#
# number of rings (size 3 to 8) (size 9 to 14) (size 15 to 20)
#    0.000    1.500    5.000    1.500    5.250    1.500 
#    0.000    5.625    0.000    3.000    0.000    0.000 
#    0.000    0.000    0.000    0.000    0.000    0.000 
#
# Total GULP energy -89307.688532 kJ/mol
# GULP energy per Si atom -5581.730533 kJ/mol
# Density = 2.105399 g / cm^3
# Si number density = 21.102023 Si / 1000 Ang^3
#
#
#
# Elastic Constant Matrix: (Units=GPa)
#
#
# Indices 1 2 3 4 5 6 
#
# 1 40.4672 5.3694 22.7046 5.5274 8.6843 -8.8531
# 2 5.3694 113.5968 50.7800 -7.4133 2.2312 -1.0360
# 3 22.7046 50.7800 135.9387 2.3858 32.2534 1.6156
# 4 5.5274 -7.4133 2.3858 32.3190 1.1400 1.8244
# 5 8.6843 2.2312 32.2534 1.1400 31.7976 -1.2473
# 6 -8.8531 -1.0360 1.6156 1.8244 -1.2473 31.8453
#
#
#
# Elastic Compliance Matrix: (Units=1/GPa)
#
#
# Indices 1 2 3 4 5 6 
#
# 1 0.030533 0.000360 -0.004466 -0.005195 -0.003299 0.008895
# 2 0.000360 0.011302 -0.005415 0.002728 0.004533 0.000764
# 3 -0.004466 -0.005415 0.012914 -0.000884 -0.011564 -0.002475
# 4 -0.005195 0.002728 -0.000884 0.032670 0.000829 -0.003150
# 5 -0.003299 0.004533 -0.011564 0.000829 0.043791 0.001485
# 6 0.008895 0.000764 -0.002475 -0.003150 0.001485 0.034264
#
#
# Mechanical properties :
#
#
# Convention : Reuss Voigt Hill
#
# Bulk Modulus (GPa) = 28.00509 49.74562 38.87535
# Shear Modulus (GPa) = 25.45615 33.26897 29.36256
#
# Velocity S-wave (km/s) = 3.47700 3.97492 3.73427
# Velocity P-wave (km/s) = 5.42397 6.68519 6.08733
#
# Compressibility (1/GPa) = 0.03570780
#
# Stress axis : x y z
#
# Youngs Moduli (GPa) = 32.75164 88.47656 77.43803
#
# Poissons Ratio (x) = -0.03185 0.34583
# Poissons Ratio (y) = -0.01179 0.41930
# Poissons Ratio (z) = 0.14627 0.47907
#
# Static dielectric constant tensor:
#      x y z
#    x 1.857010 0.014380 -0.051740 
#    y 0.014380 1.786580 -0.004970 
#    z -0.051740 -0.004970 1.751250 
# 
# From -- ./inp_files/180308.got.cif
#   From: 2010.05.17/outbox.cif.g08.bks.cpg/sg2_91_cif.got.tgz:180308.got - 2010.06.03 11:33:40.
