data_PCOD9104881
_publ_section_title
;
Structure prediction by ZEFSAII (Michael W. Deem and Ramdas Pophale) SiO2 
 PCOD9104881
Probable space group: P -1
;
_chemical_formula_sum "Si O2"
_cell_formula_units_Z 14
_cell_length_a 16.136999
_cell_length_b 5.351996
_cell_length_c 11.704014
_cell_angle_alpha 102.887200
_cell_angle_beta 140.542124
_cell_angle_gamma 93.947494
_cell_volume 576.859553
_symmetry_space_group_name_H-M "P -1"
_symmetry_group_IT_number 2
_symmetry_cell_setting 'triclinic'
loop_
_space_group_symop_operation_xyz
x,y,z
-x,-y,-z
loop_
_atom_site_type_symbol
_atom_site_label
_atom_site_fract_x
_atom_site_fract_y
_atom_site_fract_z
Si Si1 0.569345 0.048518 0.759610
Si Si2 0.116304 0.033624 0.222260
Si Si3 0.385423 0.255040 0.420555
Si Si4 0.718645 0.215155 0.495927
Si Si5 0.402455 0.171344 0.875895
Si Si6 0.083428 0.336072 0.422585
Si Si7 0.215313 0.731857 0.797370
O O1 0.477589 0.180006 0.604978
O O2 0.662382 0.972722 0.756351
O O3 0.439079 0.788209 0.650513
O O4 0.668061 0.237642 0.980489
O O5 0.251804 0.285945 0.338927
O O6 0.065148 0.069589 0.298407
O O7 0.193376 0.818655 0.303809
O O8 0.000000 0.000000 0.000000
O O9 0.500000 0.500000 0.500000
O O10 0.832334 0.432762 0.557342
O O11 0.666193 0.932619 0.331935
O O12 0.275793 0.020942 0.817933
O O13 0.500000 0.500000 0.000000
O O14 0.500000 0.000000 0.000000
O O15 0.181387 0.465501 0.651055
O O16 0.930111 0.307649 0.298313
#
# Coordination Sequence:
#
# PCOD9104881 Si02
#       7
#     2   2   2   2   2   2   2
#     4  10  20  39  62  93 130 164 232 280 347 410
#     4  11  24  41  62  91 130 179 229 283 353 416
#     4  10  22  38  61  92 123 171 224 285 340 406
#     4  10  23  39  65  97 129 183 223 290 346 414
#     4  11  24  43  71 108 142 183 232 290 360 422
#     4  10  23  43  63  92 140 169 234 275 354 427
#     4  10  22  43  65  99 129 184 220 290 352 415
#
# _framework density 24.26934
#
# number of rings (size 3 to 8) (size 9 to 14) (size 15 to 20)
#    0.000    1.714    1.429    1.714    4.000    4.000 
#    2.571    4.286    0.000    0.000    0.000    0.000 
#    0.000    0.000    0.000    0.000    0.000    0.000 
#
# Total GULP energy -78010.279099 kJ/mol
# GULP energy per Si atom -5572.162793 kJ/mol
# Density = 2.421410 g / cm^3
# Si number density = 24.269340 Si / 1000 Ang^3
#
#
#
# Elastic Constant Matrix: (Units=GPa)
#
#
# Indices 1 2 3 4 5 6 
#
# 1 183.9673 7.4699 43.1609 5.9544 0.6179 12.0650
# 2 7.4699 33.2670 4.7640 5.4510 -0.0117 3.0678
# 3 43.1609 4.7640 143.2863 -16.7110 -5.2006 1.4940
# 4 5.9544 5.4510 -16.7110 25.3673 12.1923 5.5784
# 5 0.6179 -0.0117 -5.2006 12.1923 44.1559 5.5998
# 6 12.0650 3.0678 1.4940 5.5784 5.5998 26.0352
#
#
#
# Elastic Compliance Matrix: (Units=1/GPa)
#
#
# Indices 1 2 3 4 5 6 
#
# 1 0.006176 -0.000459 -0.002094 -0.002545 0.000659 -0.002284
# 2 -0.000459 0.032048 -0.001831 -0.008706 0.002473 -0.002125
# 3 -0.002094 -0.001831 0.008463 0.006994 -0.000827 -0.000620
# 4 -0.002545 -0.008706 0.006994 0.054419 -0.013281 -0.006999
# 5 0.000659 0.002473 -0.000827 -0.013281 0.026644 -0.003434
# 6 -0.002284 -0.002125 -0.000620 -0.006999 -0.003434 0.041992
#
#
# Mechanical properties :
#
#
# Convention : Reuss Voigt Hill
#
# Bulk Modulus (GPa) = 26.37180 52.36780 39.36980
# Shear Modulus (GPa) = 26.15759 39.45342 32.80550
#
# Velocity S-wave (km/s) = 3.28655 4.03631 3.68057
# Velocity P-wave (km/s) = 5.02910 6.58384 5.85828
#
# Compressibility (1/GPa) = 0.03791930
#
# Stress axis : x y z
#
# Youngs Moduli (GPa) = 161.92692 31.20282 118.16440
#
# Poissons Ratio (x) = 0.01432 0.24744
# Poissons Ratio (y) = 0.07431 0.21633
# Poissons Ratio (z) = 0.33908 0.05712
#
# Static dielectric constant tensor:
#      x y z
#    x 2.128240 -0.042010 -0.039610 
#    y -0.042010 2.235460 0.129500 
#    z -0.039610 0.129500 1.955340 
# 
# From -- ./inp_files/459240.got.cif
#   From: 2010.05.17/outbox.cif.g08.bks.cpg/sg2_230_cif.got.tgz:459240.got - 2010.06.03 11:33:40.
