data_PCOD9104042
_publ_section_title
;
Structure prediction by ZEFSAII (Michael W. Deem and Ramdas Pophale) SiO2 
 PCOD9104042
Probable space group: P -1
;
_chemical_formula_sum "Si O2"
_cell_formula_units_Z 16
_cell_length_a 9.206049
_cell_length_b 17.554497
_cell_length_c 5.201913
_cell_angle_alpha 130.525514
_cell_angle_beta 97.824971
_cell_angle_gamma 71.288561
_cell_volume 602.172128
_symmetry_space_group_name_H-M "P -1"
_symmetry_group_IT_number 2
_symmetry_cell_setting 'triclinic'
loop_
_space_group_symop_operation_xyz
x,y,z
-x,-y,-z
loop_
_atom_site_type_symbol
_atom_site_label
_atom_site_fract_x
_atom_site_fract_y
_atom_site_fract_z
Si Si1 0.075153 0.592321 0.176049
Si Si2 0.073194 0.074821 0.517400
Si Si3 0.237780 0.785468 0.456909
Si Si4 0.622298 0.318388 0.240023
Si Si5 0.460346 0.221931 0.655816
Si Si6 0.666588 0.592633 0.367909
Si Si7 0.609498 0.968991 0.709694
Si Si8 0.915560 0.703035 0.869196
O O1 0.284534 0.701689 0.047109
O O2 0.242578 0.521629 0.968295
O O3 0.985401 0.665478 0.084119
O O4 0.000000 0.500000 0.000000
O O5 0.230087 0.010619 0.271503
O O6 0.930572 0.135684 0.436235
O O7 0.114706 0.170649 0.886423
O O8 0.000000 0.000000 0.500000
O O9 0.265436 0.724395 0.593307
O O10 0.376827 0.836309 0.572613
O O11 0.040762 0.650115 0.565914
O O12 0.478242 0.414526 0.511098
O O13 0.521613 0.237976 0.986998
O O14 0.395656 0.329689 0.719687
O O15 0.341995 0.158369 0.515254
O O16 0.780527 0.648221 0.663431
O O17 0.500000 0.000000 0.500000
O O18 0.500000 0.000000 0.000000
#
# Coordination Sequence:
#
# PCOD9104042 Si02
#       8
#     2   2   2   2   2   2   2   2
#     4  10  23  40  68 110 159 190 242 320 392 455
#     4  12  29  53  81 109 159 213 257 311 389 462
#     4   9  22  42  68 101 140 199 242 301 371 440
#     4   9  20  37  69  99 137 189 247 292 364 443
#     4   9  22  42  71 103 146 188 253 314 366 444
#     4  10  20  38  75 109 150 190 246 314 392 431
#     4  12  30  48  75 111 148 191 260 326 382 448
#     4  11  26  42  69 113 153 197 252 313 383 462
#
# _framework density 26.570477
#
# number of rings (size 3 to 8) (size 9 to 14) (size 15 to 20)
#    0.750    1.000    0.000    3.000   14.000    2.000 
#    0.000    5.000    0.000   10.500    0.000    0.000 
#    0.000    0.000    0.000    0.000    0.000    0.000 
#
# Total GULP energy -89362.074999 kJ/mol
# GULP energy per Si atom -5585.129687 kJ/mol
# Density = 2.651000 g / cm^3
# Si number density = 26.570477 Si / 1000 Ang^3
#
#
#
# Elastic Constant Matrix: (Units=GPa)
#
#
# Indices 1 2 3 4 5 6 
#
# 1 156.8785 71.0032 25.1370 -4.2510 -27.8481 5.5038
# 2 71.0032 127.9790 69.4659 -15.2897 -8.2516 6.0132
# 3 25.1370 69.4659 115.4766 -10.9378 -22.8133 0.0890
# 4 -4.2510 -15.2897 -10.9378 46.6744 -1.8991 2.4830
# 5 -27.8481 -8.2516 -22.8133 -1.8991 50.0009 2.8879
# 6 5.5038 6.0132 0.0890 2.4830 2.8879 56.9069
#
#
#
# Elastic Compliance Matrix: (Units=1/GPa)
#
#
# Indices 1 2 3 4 5 6 
#
# 1 0.010052 -0.006890 0.003087 -0.000350 0.005887 -0.000533
# 2 -0.006890 0.016715 -0.009344 0.002497 -0.005194 -0.000931
# 3 0.003087 -0.009344 0.015109 0.001035 0.007095 0.000260
# 4 -0.000350 0.002497 0.001035 0.022589 0.001622 -0.001300
# 5 0.005887 -0.005194 0.007095 0.001622 0.025802 -0.001412
# 6 -0.000533 -0.000931 0.000260 -0.001300 -0.001412 0.017850
#
#
# Mechanical properties :
#
#
# Convention : Reuss Voigt Hill
#
# Bulk Modulus (GPa) = 64.17848 81.28294 72.73071
# Shear Modulus (GPa) = 35.81507 46.36496 41.09002
#
# Velocity S-wave (km/s) = 3.67540 4.18183 3.93676
# Velocity P-wave (km/s) = 6.49753 7.34675 6.93515
#
# Compressibility (1/GPa) = 0.01558155
#
# Stress axis : x y z
#
# Youngs Moduli (GPa) = 99.47896 59.82492 66.18771
#
# Poissons Ratio (x) = 0.41218 -0.20431
# Poissons Ratio (y) = 0.68539 0.61848
# Poissons Ratio (z) = -0.30707 0.55903
#
# Static dielectric constant tensor:
#      x y z
#    x 2.194610 0.045960 0.019870 
#    y 0.045960 2.023190 0.070200 
#    z 0.019870 0.070200 2.178990 
# 
# From -- ./inp_files/39708.got.cif
#   From: 2010.05.17/outbox.cif.g08.bks.cpg/sg2_20_cif.got.tgz:39708.got - 2010.06.03 11:33:40.
