data_PCOD9104146
_publ_section_title
;
Structure prediction by ZEFSAII (Michael W. Deem and Ramdas Pophale) SiO2 
 PCOD9104146
Probable space group: P -1
;
_chemical_formula_sum "Si O2"
_cell_formula_units_Z 16
_cell_length_a 7.486396
_cell_length_b 22.903043
_cell_length_c 11.416196
_cell_angle_alpha 22.300086
_cell_angle_beta 93.866657
_cell_angle_gamma 89.437626
_cell_volume 727.469694
_symmetry_space_group_name_H-M "P -1"
_symmetry_group_IT_number 2
_symmetry_cell_setting 'triclinic'
loop_
_space_group_symop_operation_xyz
x,y,z
-x,-y,-z
loop_
_atom_site_type_symbol
_atom_site_label
_atom_site_fract_x
_atom_site_fract_y
_atom_site_fract_z
Si Si1 0.529037 0.093892 0.710952
Si Si2 0.097890 0.342841 0.452676
Si Si3 0.289352 0.492289 0.479044
Si Si4 0.210731 0.641899 0.434566
Si Si5 0.555036 0.588796 0.950616
Si Si6 0.433760 0.212313 0.844794
Si Si7 0.169930 0.667554 0.917686
Si Si8 0.073954 0.853176 0.361639
O O1 0.386421 0.249213 0.384010
O O2 0.711086 0.160285 0.622691
O O3 0.500000 0.000000 0.000000
O O4 0.553179 0.972782 0.827702
O O5 0.983523 0.276220 0.675235
O O6 0.015231 0.282620 0.446106
O O7 0.311757 0.278218 0.603907
O O8 0.079796 0.526827 0.125695
O O9 0.500000 0.500000 0.500000
O O10 0.190739 0.537468 0.513721
O O11 0.319310 0.318491 0.744901
O O12 0.196289 0.624400 0.136288
O O13 0.363034 0.748536 0.220943
O O14 0.296392 0.526848 0.755475
O O15 0.379547 0.633830 0.944241
O O16 0.500000 0.500000 0.000000
O O17 0.069555 0.826984 0.551998
O O18 0.000000 0.000000 0.000000
#
# Coordination Sequence:
#
# PCOD9104146 Si02
#       8
#     2   2   2   2   2   2   2   2
#     4  11  23  36  57  83 124 162 191 248 309 359
#     4  11  21  37  62  90 119 158 198 254 304 365
#     4   9  18  37  66  83 118 158 205 255 296 357
#     4  11  21  39  64  92 116 158 210 249 302 357
#     4  11  21  36  60  89 118 156 201 248 299 362
#     4  10  20  39  58  86 120 161 196 250 305 354
#     4  10  21  37  58  86 118 157 199 244 306 349
#     4  11  22  36  57  85 122 158 196 241 309 368
#
# _framework density 21.994046000000001
#
# number of rings (size 3 to 8) (size 9 to 14) (size 15 to 20)
#    0.000    1.500    5.000    3.375    0.000    3.000 
#    0.000    0.625    0.000    0.750    0.000    0.000 
#    0.000    0.000    0.000    0.000    0.000    0.000 
#
# Total GULP energy -89126.330143 kJ/mol
# GULP energy per Si atom -5570.395634 kJ/mol
# Density = 2.194399 g / cm^3
# Si number density = 21.994046 Si / 1000 Ang^3
#
#
#
# Elastic Constant Matrix: (Units=GPa)
#
#
# Indices 1 2 3 4 5 6 
#
# 1 61.9188 4.6411 -5.6570 -3.6616 -11.9331 12.3505
# 2 4.6411 128.5548 40.3766 5.7649 8.3221 8.2180
# 3 -5.6570 40.3766 99.6552 10.1684 11.2648 12.8458
# 4 -3.6616 5.7649 10.1684 33.7392 4.9231 0.6755
# 5 -11.9331 8.3221 11.2648 4.9231 22.9967 -0.1276
# 6 12.3505 8.2180 12.8458 0.6755 -0.1276 36.1404
#
#
#
# Elastic Compliance Matrix: (Units=1/GPa)
#
#
# Indices 1 2 3 4 5 6 
#
# 1 0.019691 -0.001372 0.001380 0.000655 0.009860 -0.006885
# 2 -0.001372 0.009088 -0.003422 -0.000334 -0.002255 -0.000383
# 3 0.001380 -0.003422 0.012716 -0.002464 -0.003770 -0.004180
# 4 0.000655 -0.000334 -0.002464 0.031240 -0.005020 0.000126
# 5 0.009860 -0.002255 -0.003770 -0.005020 0.052332 -0.001238
# 6 -0.006885 -0.000383 -0.004180 0.000126 -0.001238 0.031589
#
#
# Mechanical properties :
#
#
# Convention : Reuss Voigt Hill
#
# Bulk Modulus (GPa) = 28.84504 40.98334 34.91419
# Shear Modulus (GPa) = 28.56493 35.29315 31.92904
#
# Velocity S-wave (km/s) = 3.60774 4.01018 3.81427
# Velocity P-wave (km/s) = 5.52248 6.33374 5.94197
#
# Compressibility (1/GPa) = 0.03466801
#
# Stress axis : x y z
#
# Youngs Moduli (GPa) = 50.78367 110.02920 78.64251
#
# Poissons Ratio (x) = 0.15093 -0.10851
# Poissons Ratio (y) = 0.06966 0.26910
# Poissons Ratio (z) = -0.07007 0.37650
#
# Static dielectric constant tensor:
#      x y z
#    x 1.953750 -0.035840 0.032390 
#    y -0.035840 1.849910 0.006940 
#    z 0.032390 0.006940 1.913560 
# 
# From -- ./inp_files/239020.got.cif
#   From: 2010.05.17/outbox.cif.g08.bks.cpg/sg2_120_cif.got.tgz:239020.got - 2010.06.03 11:33:40.
