data_PCOD9104316
_publ_section_title
;
Structure prediction by ZEFSAII (Michael W. Deem and Ramdas Pophale) SiO2 
 PCOD9104316
Probable space group: P -1
;
_chemical_formula_sum "Si O2"
_cell_formula_units_Z 16
_cell_length_a 13.667477
_cell_length_b 10.982399
_cell_length_c 9.412778
_cell_angle_alpha 51.034590
_cell_angle_beta 135.420271
_cell_angle_gamma 136.040200
_cell_volume 668.548412
_symmetry_space_group_name_H-M "P -1"
_symmetry_group_IT_number 2
_symmetry_cell_setting 'triclinic'
loop_
_space_group_symop_operation_xyz
x,y,z
-x,-y,-z
loop_
_atom_site_type_symbol
_atom_site_label
_atom_site_fract_x
_atom_site_fract_y
_atom_site_fract_z
Si Si1 0.742358 0.721301 0.746948
Si Si2 0.555743 0.072438 0.345995
Si Si3 0.463484 0.191147 0.716831
Si Si4 0.005888 0.590269 0.666516
Si Si5 0.946656 0.241639 0.956162
Si Si6 0.869233 0.061523 0.279390
Si Si7 0.338139 0.604849 0.953281
Si Si8 0.912347 0.142514 0.675418
O O1 0.592250 0.692508 0.520362
O O2 0.673504 0.589308 0.908137
O O3 0.852778 0.937680 0.719027
O O4 0.872790 0.672310 0.854487
O O5 0.744163 0.138592 0.496368
O O6 0.500000 0.000000 0.500000
O O7 0.491460 0.921720 0.264495
O O8 0.553564 0.250456 0.159937
O O9 0.590501 0.299413 0.890663
O O10 0.297912 0.057080 0.726263
O O11 0.063022 0.736472 0.741529
O O12 0.968577 0.693041 0.425499
O O13 0.893571 0.390776 0.760895
O O14 0.157357 0.571719 0.783503
O O15 0.959691 0.173274 0.864520
O O16 0.842953 0.076336 0.074367
O O17 0.000000 0.000000 0.500000
#
# Coordination Sequence:
#
# PCOD9104316 Si02
#       8
#     2   2   2   2   2   2   2   2
#     4  10  20  39  60  89 124 156 201 251 301 358
#     4  10  22  39  61  87 118 156 204 254 300 355
#     4  11  21  40  62  88 123 162 198 250 307 358
#     4  10  21  40  59  90 123 152 205 258 297 353
#     4  11  22  34  63  90 117 162 207 244 297 369
#     4  12  22  39  59  89 130 159 200 248 301 360
#     4  10  21  37  67  89 118 158 204 252 303 356
#     4  10  20  39  60  85 119 162 196 249 309 359
#
# _framework density 23.932447
#
# number of rings (size 3 to 8) (size 9 to 14) (size 15 to 20)
#    0.000    1.500    5.000    1.875    1.750    0.000 
#    0.000    2.500    5.500    0.000    0.000    0.000 
#    0.000    0.000    0.000    0.000    0.000    0.000 
#
# Total GULP energy -89215.502986 kJ/mol
# GULP energy per Si atom -5575.968937 kJ/mol
# Density = 2.387798 g / cm^3
# Si number density = 23.932447 Si / 1000 Ang^3
#
#
#
# Elastic Constant Matrix: (Units=GPa)
#
#
# Indices 1 2 3 4 5 6 
#
# 1 47.0101 25.8601 19.1488 -20.3717 -22.4088 3.6104
# 2 25.8601 87.1855 46.8199 -26.1320 -13.9442 -0.5308
# 3 19.1488 46.8199 141.1776 -47.1471 -33.1205 0.5596
# 4 -20.3717 -26.1320 -47.1471 55.0763 9.6995 -5.9713
# 5 -22.4088 -13.9442 -33.1205 9.6995 36.0845 -0.5605
# 6 3.6104 -0.5308 0.5596 -5.9713 -0.5605 16.7600
#
#
#
# Elastic Compliance Matrix: (Units=1/GPa)
#
#
# Indices 1 2 3 4 5 6 
#
# 1 0.040631 -0.008215 0.007376 0.012546 0.025394 -0.003940
# 2 -0.008215 0.016340 -0.004517 0.001759 -0.003360 0.002952
# 3 0.007376 -0.004517 0.014187 0.010655 0.013024 0.002026
# 4 0.012546 0.001759 0.010655 0.031974 0.009792 0.008717
# 5 0.025394 -0.003360 0.013024 0.009792 0.051494 -0.000801
# 6 -0.003940 0.002952 0.002026 0.008717 -0.000801 0.063619
#
#
# Mechanical properties :
#
#
# Convention : Reuss Voigt Hill
#
# Bulk Modulus (GPa) = 16.54371 51.00340 33.77356
# Shear Modulus (GPa) = 20.07190 33.82047 26.94618
#
# Velocity S-wave (km/s) = 2.89916 3.76329 3.35912
# Velocity P-wave (km/s) = 4.25846 6.34356 5.40256
#
# Compressibility (1/GPa) = 0.06044593
#
# Stress axis : x y z
#
# Youngs Moduli (GPa) = 24.61196 61.19929 70.48850
#
# Poissons Ratio (x) = 0.50274 -0.51995
# Poissons Ratio (y) = 0.20218 0.31842
# Poissons Ratio (z) = -0.18155 0.27646
#
# Static dielectric constant tensor:
#      x y z
#    x 1.947650 0.027900 -0.057060 
#    y 0.027900 2.006090 -0.055840 
#    z -0.057060 -0.055840 2.084770 
# 
# From -- ./inp_files/169665.got.cif
#   From: 2010.05.17/outbox.cif.g08.bks.cpg/sg2_85_cif.got.tgz:169665.got - 2010.06.03 11:33:40.
