data_PCOD9104426
_publ_section_title
;
Structure prediction by ZEFSAII (Michael W. Deem and Ramdas Pophale) SiO2 
 PCOD9104426
Probable space group: P -1
;
_chemical_formula_sum "Si O2"
_cell_formula_units_Z 16
_cell_length_a 9.706239
_cell_length_b 18.021251
_cell_length_c 12.820428
_cell_angle_alpha 149.271808
_cell_angle_beta 34.746642
_cell_angle_gamma 128.502382
_cell_volume 625.477970
_symmetry_space_group_name_H-M "P -1"
_symmetry_group_IT_number 2
_symmetry_cell_setting 'triclinic'
loop_
_space_group_symop_operation_xyz
x,y,z
-x,-y,-z
loop_
_atom_site_type_symbol
_atom_site_label
_atom_site_fract_x
_atom_site_fract_y
_atom_site_fract_z
Si Si1 0.620976 0.117171 0.794085
Si Si2 0.017727 0.429563 0.193254
Si Si3 0.567257 0.882243 0.701076
Si Si4 0.058554 0.151274 0.107470
Si Si5 0.819828 0.605681 0.324327
Si Si6 0.524821 0.354909 0.701253
Si Si7 0.529223 0.544698 0.736662
Si Si8 0.030160 0.885350 0.121897
O O1 0.641972 0.022533 0.773626
O O2 0.824925 0.019735 0.469069
O O3 0.334367 0.140848 0.963204
O O4 0.625046 0.289501 0.003595
O O5 0.923828 0.550784 0.305593
O O6 0.831022 0.503285 0.491506
O O7 0.319993 0.389344 0.961816
O O8 0.961748 0.269460 0.008951
O O9 0.768813 0.777488 0.527783
O O10 0.540176 0.773826 0.488696
O O11 0.295760 0.917472 0.969119
O O12 0.819483 0.286308 0.459234
O O13 0.061422 0.149666 0.978512
O O14 0.000000 0.000000 0.000000
O O15 0.555672 0.568944 0.425418
O O16 0.000000 0.500000 0.000000
O O17 0.473588 0.499818 0.832845
#
# Coordination Sequence:
#
# PCOD9104426 Si02
#       8
#     2   2   2   2   2   2   2   2
#     4  12  24  41  64  93 138 160 200 275 315 350
#     4  12  20  41  73  87 122 173 214 254 307 376
#     4  10  20  39  60  94 125 160 216 253 294 385
#     4  11  20  41  68  92 123 170 214 249 305 383
#     4  11  20  41  71  88 121 173 212 252 311 379
#     4  10  20  40  62  91 125 159 219 252 292 384
#     4  11  25  40  60 101 129 156 212 267 313 364
#     4  11  21  39  68  91 121 170 220 242 303 387
#
# _framework density 25.580435000000001
#
# number of rings (size 3 to 8) (size 9 to 14) (size 15 to 20)
#    0.000    1.000   10.000    0.750    0.000    1.500 
#    0.000    3.750    0.000    0.000    0.000    0.000 
#    0.000    0.000    0.000    0.000    0.000    0.000 
#
# Total GULP energy -89622.617658 kJ/mol
# GULP energy per Si atom -5601.413604 kJ/mol
# Density = 2.552221 g / cm^3
# Si number density = 25.580435 Si / 1000 Ang^3
#
#
#
# Elastic Constant Matrix: (Units=GPa)
#
#
# Indices 1 2 3 4 5 6 
#
# 1 53.2351 7.3661 18.7929 -1.8222 -9.3240 -4.2198
# 2 7.3661 142.6320 86.0213 3.5805 -9.8248 -4.2235
# 3 18.7929 86.0213 182.3534 -7.0695 -10.6586 -0.4437
# 4 -1.8222 3.5805 -7.0695 69.5920 -0.1305 -10.2765
# 5 -9.3240 -9.8248 -10.6586 -0.1305 34.4456 -0.6641
# 6 -4.2198 -4.2235 -0.4437 -10.2765 -0.6641 28.0034
#
#
#
# Elastic Compliance Matrix: (Units=1/GPa)
#
#
# Indices 1 2 3 4 5 6 
#
# 1 0.020658 0.000633 -0.002082 0.000839 0.005201 0.003607
# 2 0.000633 0.009986 -0.004711 -0.000784 0.001584 0.001277
# 3 -0.002082 -0.004711 0.007987 0.000920 0.000557 -0.000547
# 4 0.000839 -0.000784 0.000920 0.015364 0.000456 0.005672
# 5 0.005201 0.001584 0.000557 0.000456 0.031102 0.001936
# 6 0.003607 0.001277 -0.000547 0.005672 0.001936 0.038565
#
#
# Mechanical properties :
#
#
# Convention : Reuss Voigt Hill
#
# Bulk Modulus (GPa) = 38.00672 66.95346 52.48009
# Shear Modulus (GPa) = 34.54198 44.14420 39.34309
#
# Velocity S-wave (km/s) = 3.67867 4.15866 3.92601
# Velocity P-wave (km/s) = 5.73877 7.02067 6.41184
#
# Compressibility (1/GPa) = 0.02631114
#
# Stress axis : x y z
#
# Youngs Moduli (GPa) = 48.40841 100.14127 125.19633
#
# Poissons Ratio (x) = -0.06338 0.26068
# Poissons Ratio (y) = -0.03064 0.58975
# Poissons Ratio (z) = 0.10079 0.47172
#
# Static dielectric constant tensor:
#      x y z
#    x 2.050970 0.071060 0.006000 
#    y 0.071060 2.072530 0.016740 
#    z 0.006000 0.016740 2.006810 
# 
# From -- ./inp_files/492989.got.cif
#   From: 2010.05.17/outbox.cif.g08.bks.cpg/sg2_247_cif.got.tgz:492989.got - 2010.06.03 11:33:40.
