data_PCOD9104640
_publ_section_title
;
Structure prediction by ZEFSAII (Michael W. Deem and Ramdas Pophale) SiO2 
 PCOD9104640
Probable space group: P -1
;
_chemical_formula_sum "Si O2"
_cell_formula_units_Z 10
_cell_length_a 15.676502
_cell_length_b 12.337391
_cell_length_c 8.988071
_cell_angle_alpha 40.194150
_cell_angle_beta 57.279117
_cell_angle_gamma 28.355208
_cell_volume 481.166587
_symmetry_space_group_name_H-M "P -1"
_symmetry_group_IT_number 2
_symmetry_cell_setting 'triclinic'
loop_
_space_group_symop_operation_xyz
x,y,z
-x,-y,-z
loop_
_atom_site_type_symbol
_atom_site_label
_atom_site_fract_x
_atom_site_fract_y
_atom_site_fract_z
Si Si1 0.643781 0.716325 0.787936
Si Si2 0.052703 0.289071 0.795098
Si Si3 0.676170 0.370454 0.916471
Si Si4 0.420836 0.237266 0.672862
Si Si5 0.798494 0.740319 0.029508
O O1 0.705894 0.446592 0.951956
O O2 0.844712 0.532823 0.805573
O O3 0.500000 0.000000 0.500000
O O4 0.523938 0.924583 0.830783
O O5 0.184233 0.180158 0.916310
O O6 0.000000 0.500000 0.500000
O O7 0.149908 0.996010 0.922758
O O8 0.629096 0.561284 0.622053
O O9 0.500000 0.500000 0.000000
O O10 0.230509 0.419159 0.738775
O O11 0.595919 0.067429 0.785863
O O12 0.000000 0.500000 0.000000
#
# Coordination Sequence:
#
# PCOD9104640 Si02
#       5
#     2   2   2   2   2
#     4  10  20  39  61  93 129 166 214 270 317 383
#     4  12  23  40  67  96 129 176 223 267 329 387
#     4  11  23  40  65  99 132 172 220 273 322 391
#     4  10  22  44  67  96 135 171 218 268 329 391
#     4  11  23  42  71  94 131 179 213 269 333 391
#
# _framework density 20.782823
#
# number of rings (size 3 to 8) (size 9 to 14) (size 15 to 20)
#    0.000    1.200    2.000    6.600    0.000    0.800 
#    0.000    1.000    0.000    0.000    0.000    0.000 
#    0.000    0.000    0.000    0.000    0.000    0.000 
#
# Total GULP energy -55747.088449 kJ/mol
# GULP energy per Si atom -5574.708845 kJ/mol
# Density = 2.073552 g / cm^3
# Si number density = 20.782823 Si / 1000 Ang^3
#
#
#
# Elastic Constant Matrix: (Units=GPa)
#
#
# Indices 1 2 3 4 5 6 
#
# 1 139.3885 32.3193 33.4428 -6.0659 8.7304 -4.0447
# 2 32.3193 111.7851 32.8072 2.8218 -12.3617 -20.8807
# 3 33.4428 32.8072 87.9277 5.1424 -16.0522 7.0546
# 4 -6.0659 2.8218 5.1424 32.7188 -3.1429 -12.3337
# 5 8.7304 -12.3617 -16.0522 -3.1429 27.6461 4.6098
# 6 -4.0447 -20.8807 7.0546 -12.3337 4.6098 57.7834
#
#
#
# Elastic Compliance Matrix: (Units=1/GPa)
#
#
# Indices 1 2 3 4 5 6 
#
# 1 0.009141 -0.001885 -0.004152 0.002482 -0.006105 0.001482
# 2 -0.001885 0.011681 -0.003495 0.001201 0.003172 0.004519
# 3 -0.004152 -0.003495 0.016721 -0.004133 0.009865 -0.005264
# 4 0.002482 0.001201 -0.004133 0.034780 -0.000118 0.008545
# 5 -0.006105 0.003172 0.009865 -0.000118 0.045928 -0.004175
# 6 0.001482 0.004519 -0.005264 0.008545 -0.004175 0.021842
#
#
# Mechanical properties :
#
#
# Convention : Reuss Voigt Hill
#
# Bulk Modulus (GPa) = 54.11600 59.58220 56.84910
# Shear Modulus (GPa) = 30.24472 39.66514 34.95493
#
# Velocity S-wave (km/s) = 3.81894 4.37344 4.10556
# Velocity P-wave (km/s) = 6.74842 7.36436 7.06311
#
# Compressibility (1/GPa) = 0.01847882
#
# Stress axis : x y z
#
# Youngs Moduli (GPa) = 109.39839 85.60805 59.80383
#
# Poissons Ratio (x) = 0.16139 0.24831
# Poissons Ratio (y) = 0.20624 0.20902
# Poissons Ratio (z) = 0.45422 0.29921
#
# Static dielectric constant tensor:
#      x y z
#    x 1.786050 -0.004000 -0.005980 
#    y -0.004000 1.847840 0.030570 
#    z -0.005980 0.030570 1.737200 
# 
# From -- ./inp_files/166865.got.cif
#   From: 2010.05.17/outbox.cif.g08.bks.cpg/sg2_84_cif.got.tgz:166865.got - 2010.06.03 11:33:40.
