data_PCOD9104791
_publ_section_title
;
Structure prediction by ZEFSAII (Michael W. Deem and Ramdas Pophale) SiO2 
 PCOD9104791
Probable space group: P -1
;
_chemical_formula_sum "Si O2"
_cell_formula_units_Z 10
_cell_length_a 5.075707
_cell_length_b 5.495671
_cell_length_c 16.992474
_cell_angle_alpha 83.846955
_cell_angle_beta 50.541806
_cell_angle_gamma 75.951098
_cell_volume 354.317487
_symmetry_space_group_name_H-M "P -1"
_symmetry_group_IT_number 2
_symmetry_cell_setting 'triclinic'
loop_
_space_group_symop_operation_xyz
x,y,z
-x,-y,-z
loop_
_atom_site_type_symbol
_atom_site_label
_atom_site_fract_x
_atom_site_fract_y
_atom_site_fract_z
Si Si1 0.771927 0.601156 0.226325
Si Si2 0.710826 0.206398 0.980308
Si Si3 0.144585 0.161991 0.402811
Si Si4 0.570374 0.527754 0.562169
Si Si5 0.432916 0.264793 0.191122
O O1 0.574015 0.661485 0.345371
O O2 0.525548 0.492643 0.216436
O O3 0.094573 0.375068 0.198704
O O4 0.959581 0.793002 0.139329
O O5 0.736760 0.185321 0.071322
O O6 0.500000 0.500000 0.000000
O O7 0.500000 0.000000 0.000000
O O8 0.747696 0.358805 0.447941
O O9 0.481292 0.222504 0.380703
O O10 0.295653 0.095108 0.288724
O O11 0.000000 0.000000 0.500000
O O12 0.000000 0.500000 0.500000
#
# Coordination Sequence:
#
# PCOD9104791 Si02
#       5
#     2   2   2   2   2
#     4  10  21  42  68  96 134 178 224 278 339 405
#     4  10  23  46  71 101 137 179 229 284 343 407
#     4  10  22  39  61  95 129 173 221 272 332 396
#     4  10  20  39  62  89 133 170 218 271 331 399
#     4  10  21  43  66  96 136 174 227 280 338 404
#
# _framework density 28.223275999999998
#
# number of rings (size 3 to 8) (size 9 to 14) (size 15 to 20)
#    0.000    2.000    2.000    0.600    0.000    2.400 
#   21.600    8.000    0.000    0.000    0.000    0.000 
#    0.000    0.000    0.000    0.000    0.000    0.000 
#
# Total GULP energy -55731.132964 kJ/mol
# GULP energy per Si atom -5573.113296 kJ/mol
# Density = 2.815904 g / cm^3
# Si number density = 28.223276 Si / 1000 Ang^3
#
#
#
# Elastic Constant Matrix: (Units=GPa)
#
#
# Indices 1 2 3 4 5 6 
#
# 1 137.2873 35.6804 69.3087 -9.3569 19.1855 3.5708
# 2 35.6804 115.8205 82.1723 -28.3601 14.2873 9.8799
# 3 69.3087 82.1723 377.2346 -21.7763 12.7269 -18.9101
# 4 -9.3569 -28.3601 -21.7763 79.1487 -14.7187 5.9979
# 5 19.1855 14.2873 12.7269 -14.7187 77.5644 -0.7171
# 6 3.5708 9.8799 -18.9101 5.9979 -0.7171 36.9777
#
#
#
# Elastic Compliance Matrix: (Units=1/GPa)
#
#
# Indices 1 2 3 4 5 6 
#
# 1 0.008555 -0.001467 -0.001256 -0.000087 -0.001666 -0.001095
# 2 -0.001467 0.012241 -0.002401 0.003776 -0.000828 -0.004986
# 3 -0.001256 -0.002401 0.003517 -0.000208 0.000160 0.002598
# 4 -0.000087 0.003776 -0.000208 0.014569 0.002093 -0.003430
# 5 -0.001666 -0.000828 0.000160 0.002093 0.013832 0.000393
# 6 -0.001095 -0.004986 0.002598 -0.003430 0.000393 0.030374
#
#
# Mechanical properties :
#
#
# Convention : Reuss Voigt Hill
#
# Bulk Modulus (GPa) = 71.09193 111.62945 91.36069
# Shear Modulus (GPa) = 51.00788 68.28357 59.64572
#
# Velocity S-wave (km/s) = 4.25585 4.92408 4.60211
# Velocity P-wave (km/s) = 7.02805 8.48333 7.78975
#
# Compressibility (1/GPa) = 0.01406629
#
# Stress axis : x y z
#
# Youngs Moduli (GPa) = 116.89560 81.69000 284.29495
#
# Poissons Ratio (x) = 0.11981 0.35705
# Poissons Ratio (y) = 0.17144 0.68261
# Poissons Ratio (z) = 0.14681 0.19614
#
# Static dielectric constant tensor:
#      x y z
#    x 2.251190 -0.194720 -0.068090 
#    y -0.194720 0.486750 -1.322920 
#    z -0.068090 -1.322920 1.333170 
# 
# From -- ./inp_files/2990.got.cif
#   From: 2010.05.17/outbox.cif.g08.bks.cpg/sg2_2_cif.got.tgz:2990.got - 2010.06.03 11:33:40.
