data_PCOD9104606
_publ_section_title
;
Structure prediction by ZEFSAII (Michael W. Deem and Ramdas Pophale) SiO2 
 PCOD9104606
Probable space group: P -1
;
_chemical_formula_sum "Si O2"
_cell_formula_units_Z 14
_cell_length_a 13.413390
_cell_length_b 10.018451
_cell_length_c 10.539391
_cell_angle_alpha 68.328432
_cell_angle_beta 32.707200
_cell_angle_gamma 60.096569
_cell_volume 659.583566
_symmetry_space_group_name_H-M "P -1"
_symmetry_group_IT_number 2
_symmetry_cell_setting 'triclinic'
loop_
_space_group_symop_operation_xyz
x,y,z
-x,-y,-z
loop_
_atom_site_type_symbol
_atom_site_label
_atom_site_fract_x
_atom_site_fract_y
_atom_site_fract_z
Si Si1 0.931529 0.390406 0.021698
Si Si2 0.917485 0.856096 0.849659
Si Si3 0.638568 0.548133 0.740943
Si Si4 0.052882 0.425049 0.274623
Si Si5 0.524731 0.110565 0.114020
Si Si6 0.708880 0.092232 0.649364
Si Si7 0.445683 0.425338 0.781012
O O1 0.696515 0.470094 0.212908
O O2 0.000724 0.228795 0.075109
O O3 0.000000 0.500000 0.000000
O O4 0.023228 0.413472 0.781288
O O5 0.925003 0.721970 0.787245
O O6 0.064657 0.934815 0.611079
O O7 0.694620 0.977670 0.056339
O O8 0.871648 0.451047 0.552921
O O9 0.583668 0.499514 0.678013
O O10 0.500000 0.500000 0.000000
O O11 0.572083 0.730541 0.764447
O O12 0.279322 0.405992 0.064118
O O13 0.643145 0.125998 0.854662
O O14 0.357789 0.045824 0.272222
O O15 0.580164 0.251858 0.659109
#
# Coordination Sequence:
#
# PCOD9104606 Si02
#       7
#     2   2   2   2   2   2   2
#     4   8  18  37  61  88 118 150 202 247 285 335
#     4  11  19  39  62  86 117 157 197 245 292 340
#     4  12  23  40  60  90 120 159 195 237 305 357
#     4   9  20  38  61  88 122 149 200 250 279 350
#     4  11  24  38  57  90 124 146 201 245 295 351
#     4  11  21  38  62  88 116 157 200 241 293 351
#     4  10  20  39  61  91 114 156 199 241 291 349
#
# _framework density 21.225514
#
# number of rings (size 3 to 8) (size 9 to 14) (size 15 to 20)
#    0.857    0.857    4.286    0.429    0.000    2.286 
#    2.571    1.429    0.000    0.000    0.000    0.000 
#    0.000    0.000    0.000    0.000    0.000    0.000 
#
# Total GULP energy -78061.204547 kJ/mol
# GULP energy per Si atom -5575.800325 kJ/mol
# Density = 2.117720 g / cm^3
# Si number density = 21.225514 Si / 1000 Ang^3
#
#
#
# Elastic Constant Matrix: (Units=GPa)
#
#
# Indices 1 2 3 4 5 6 
#
# 1 55.4208 11.9105 -4.8540 -4.7901 -22.4438 -7.1473
# 2 11.9105 94.8031 8.5882 7.8057 -10.1710 7.3518
# 3 -4.8540 8.5882 77.6991 0.2968 -25.6443 12.8063
# 4 -4.7901 7.8057 0.2968 28.2546 -5.3333 -2.3367
# 5 -22.4438 -10.1710 -25.6443 -5.3333 31.1899 -6.9551
# 6 -7.1473 7.3518 12.8063 -2.3367 -6.9551 33.1399
#
#
#
# Elastic Compliance Matrix: (Units=1/GPa)
#
#
# Indices 1 2 3 4 5 6 
#
# 1 0.046967 -0.004728 0.018738 0.020857 0.055008 0.016952
# 2 -0.004728 0.011708 -0.001865 -0.004862 -0.002803 -0.003827
# 3 0.018738 -0.001865 0.025784 0.010556 0.036527 0.002902
# 4 0.020857 -0.004862 0.010556 0.047323 0.032807 0.011720
# 5 0.055008 -0.002803 0.036527 0.032807 0.111755 0.024138
# 6 0.016952 -0.003827 0.002902 0.011720 0.024138 0.039451
#
#
# Mechanical properties :
#
#
# Convention : Reuss Voigt Hill
#
# Bulk Modulus (GPa) = 9.19565 28.80137 18.99851
# Shear Modulus (GPa) = 16.95216 32.66876 24.81046
#
# Velocity S-wave (km/s) = 2.82914 3.92743 3.42262
# Velocity P-wave (km/s) = 3.87476 5.84508 4.95877
#
# Compressibility (1/GPa) = 0.10874704
#
# Stress axis : x y z
#
# Youngs Moduli (GPa) = 21.29172 85.41463 38.78370
#
# Poissons Ratio (x) = 0.40388 -0.72673
# Poissons Ratio (y) = 0.10068 0.07234
# Poissons Ratio (z) = -0.39897 0.15932
#
# Static dielectric constant tensor:
#      x y z
#    x 1.818160 -0.028800 0.038020 
#    y -0.028800 1.754150 -0.021350 
#    z 0.038020 -0.021350 1.825410 
# 
# From -- ./inp_files/445593.got.cif
#   From: 2010.05.17/outbox.cif.g08.bks.cpg/sg2_223_cif.got.tgz:445593.got - 2010.06.03 11:33:40.
