data_PCOD9104454
_publ_section_title
;
Structure prediction by ZEFSAII (Michael W. Deem and Ramdas Pophale) SiO2 
 PCOD9104454
Probable space group: P -1
;
_chemical_formula_sum "Si O2"
_cell_formula_units_Z 15
_cell_length_a 21.576569
_cell_length_b 11.601322
_cell_length_c 11.270362
_cell_angle_alpha 137.708871
_cell_angle_beta 26.530066
_cell_angle_gamma 149.575031
_cell_volume 631.815947
_symmetry_space_group_name_H-M "P -1"
_symmetry_group_IT_number 2
_symmetry_cell_setting 'triclinic'
loop_
_space_group_symop_operation_xyz
x,y,z
-x,-y,-z
loop_
_atom_site_type_symbol
_atom_site_label
_atom_site_fract_x
_atom_site_fract_y
_atom_site_fract_z
Si Si1 0.118047 0.930544 0.285697
Si Si2 0.990342 0.780331 0.039536
Si Si3 0.136611 0.244208 0.205540
Si Si4 0.505112 0.282028 0.983888
Si Si5 0.358439 0.281764 0.492920
Si Si6 0.501615 0.084179 0.189746
Si Si7 0.000000 0.500000 0.000000
Si Si8 0.901876 0.551688 0.795265
O O1 0.050820 0.853424 0.479226
O O2 0.079784 0.722841 0.123773
O O3 0.334264 0.163323 0.096745
O O4 0.000000 0.000000 0.500000
O O5 0.825105 0.765125 0.260629
O O6 0.934113 0.598445 0.096955
O O7 0.036997 0.706442 0.789448
O O8 0.137516 0.039378 0.034839
O O9 0.142628 0.329764 0.129053
O O10 0.302307 0.459830 0.165173
O O11 0.442542 0.298594 0.233885
O O12 0.533241 0.099730 0.801778
O O13 0.500000 0.500000 0.500000
O O14 0.347062 0.102290 0.454581
O O15 0.711060 0.333249 0.020444
O O16 0.500000 0.000000 0.000000
O O17 0.000000 0.500000 0.500000
#
# Coordination Sequence:
#
# PCOD9104454 Si02
#       8
#     2   2   2   2   2   2   1   2
#     4  12  26  51  79 100 148 204 253 314 372 444
#     4  12  25  45  72 109 146 202 253 308 376 449
#     4  12  24  44  73 113 144 192 242 311 387 439
#     4  11  23  44  70 107 149 192 248 303 376 454
#     4  11  20  39  68 104 149 189 242 299 375 444
#     4  10  20  39  61 101 142 190 223 291 378 443
#     4  12  26  52  78 104 142 208 264 296 378 452
#     4  12  24  41  70 108 152 187 245 310 380 451
#
# _framework density 23.741091999999998
#
# number of rings (size 3 to 8) (size 9 to 14) (size 15 to 20)
#    0.000    0.533    6.667    2.800    1.867    0.533 
#    0.000    0.667    0.000    0.000    0.000    0.000 
#    0.000    0.000    0.000    0.000    0.000    0.000 
#
# Total GULP energy -83511.882680 kJ/mol
# GULP energy per Si atom -5567.458845 kJ/mol
# Density = 2.368706 g / cm^3
# Si number density = 23.741092 Si / 1000 Ang^3
#
#
#
# Elastic Constant Matrix: (Units=GPa)
#
#
# Indices 1 2 3 4 5 6 
#
# 1 97.4719 41.3604 24.4945 9.3797 -32.5303 4.7383
# 2 41.3604 153.2372 26.7845 17.9477 -18.4737 4.3526
# 3 24.4945 26.7845 46.6357 12.1196 -16.3531 -5.7791
# 4 9.3797 17.9477 12.1196 44.4193 -1.6376 0.4277
# 5 -32.5303 -18.4737 -16.3531 -1.6376 50.4777 19.2678
# 6 4.7383 4.3526 -5.7791 0.4277 19.2678 38.0693
#
#
#
# Elastic Compliance Matrix: (Units=1/GPa)
#
#
# Indices 1 2 3 4 5 6 
#
# 1 0.016604 -0.001956 -0.004234 -0.001044 0.011804 -0.008448
# 2 -0.001956 0.007988 -0.002782 -0.001988 0.001370 -0.001763
# 3 -0.004234 -0.002782 0.028570 -0.005656 0.004119 0.003161
# 4 -0.001044 -0.001988 -0.005656 0.024977 -0.002632 0.000550
# 5 0.011804 0.001370 0.004119 -0.002632 0.036612 -0.019501
# 6 -0.008448 -0.001763 0.003161 0.000550 -0.019501 0.037864
#
#
# Mechanical properties :
#
#
# Convention : Reuss Voigt Hill
#
# Bulk Modulus (GPa) = 28.39429 53.62482 41.00955
# Shear Modulus (GPa) = 27.42745 40.24030 33.83388
#
# Velocity S-wave (km/s) = 3.40262 4.12146 3.77917
# Velocity P-wave (km/s) = 5.23670 6.72941 6.02943
#
# Compressibility (1/GPa) = 0.03521835
#
# Stress axis : x y z
#
# Youngs Moduli (GPa) = 60.22685 125.18467 35.00151
#
# Poissons Ratio (x) = 0.24490 0.14819
# Poissons Ratio (y) = 0.11782 0.09737
# Poissons Ratio (z) = 0.25499 0.34824
#
# Static dielectric constant tensor:
#      x y z
#    x 1.881530 -0.030060 -0.009370 
#    y -0.030060 2.105700 0.016280 
#    z -0.009370 0.016280 1.925260 
# 
# From -- ./inp_files/471230.got.cif
#   From: 2010.05.17/outbox.cif.g08.bks.cpg/sg2_236_cif.got.tgz:471230.got - 2010.06.03 11:33:40.
