data_PCOD9104250
_publ_section_title
;
Structure prediction by ZEFSAII (Michael W. Deem and Ramdas Pophale) SiO2 
 PCOD9104250
Probable space group: P -1
;
_chemical_formula_sum "Si O2"
_cell_formula_units_Z 15
_cell_length_a 7.752146
_cell_length_b 14.494401
_cell_length_c 9.548688
_cell_angle_alpha 123.519267
_cell_angle_beta 46.767325
_cell_angle_gamma 93.481388
_cell_volume 555.572221
_symmetry_space_group_name_H-M "P -1"
_symmetry_group_IT_number 2
_symmetry_cell_setting 'triclinic'
loop_
_space_group_symop_operation_xyz
x,y,z
-x,-y,-z
loop_
_atom_site_type_symbol
_atom_site_label
_atom_site_fract_x
_atom_site_fract_y
_atom_site_fract_z
Si Si1 0.328769 0.950081 0.756304
Si Si2 0.064756 0.223209 0.799174
Si Si3 0.050158 0.832011 0.489132
Si Si4 0.417085 0.185571 0.925941
Si Si5 0.673344 0.122317 0.013544
Si Si6 0.000000 0.500000 0.500000
Si Si7 0.082584 0.428671 0.115601
Si Si8 0.600573 0.412656 0.732476
O O1 0.598908 0.859542 0.430246
O O2 0.324278 0.083880 0.872423
O O3 0.439970 0.857674 0.752693
O O4 0.000000 0.000000 0.000000
O O5 0.942604 0.362709 0.055874
O O6 0.992319 0.227455 0.678703
O O7 0.917948 0.152630 0.890467
O O8 0.279996 0.867639 0.349776
O O9 0.177876 0.734146 0.465461
O O10 0.792018 0.970658 0.787281
O O11 0.455269 0.197581 0.077681
O O12 0.233351 0.328916 0.084368
O O13 0.256172 0.531008 0.394065
O O14 0.945489 0.548403 0.396693
O O15 0.310543 0.419633 0.871378
O O16 0.500000 0.500000 0.000000
#
# Coordination Sequence:
#
# PCOD9104250 Si02
#       8
#     2   2   2   2   2   1   2   2
#     4  12  25  33  55  90 134 171 211 253 299 366
#     4  11  23  42  57  98 135 167 210 258 312 375
#     4  10  20  40  68  85 129 179 210 252 314 377
#     4  10  20  39  59  89 127 175 210 247 310 376
#     4  11  22  39  61  90 133 178 213 245 303 393
#     4  10  22  44  66  88 112 156 218 262 324 374
#     4  10  23  38  67  90 125 160 211 269 313 373
#     4   9  21  41  65  92 115 158 216 268 318 375
#
# _framework density 26.999192000000001
#
# number of rings (size 3 to 8) (size 9 to 14) (size 15 to 20)
#    0.000    1.600    2.667    2.000    5.600    2.133 
#    0.000    2.667    0.000   13.600    0.000    0.000 
#    0.000    0.000    0.000    0.000    0.000    0.000 
#
# Total GULP energy -83613.425338 kJ/mol
# GULP energy per Si atom -5574.228356 kJ/mol
# Density = 2.693774 g / cm^3
# Si number density = 26.999192 Si / 1000 Ang^3
#
#
#
# Elastic Constant Matrix: (Units=GPa)
#
#
# Indices 1 2 3 4 5 6 
#
# 1 88.7074 22.9719 2.5214 -13.4148 6.2722 16.4575
# 2 22.9719 139.0802 30.4818 -29.8474 -18.2216 6.2824
# 3 2.5214 30.4818 91.3709 -11.9854 -16.7705 0.7987
# 4 -13.4148 -29.8474 -11.9854 57.5751 8.9765 3.7879
# 5 6.2722 -18.2216 -16.7705 8.9765 28.3785 -6.4010
# 6 16.4575 6.2824 0.7987 3.7879 -6.4010 40.0982
#
#
#
# Elastic Compliance Matrix: (Units=1/GPa)
#
#
# Indices 1 2 3 4 5 6 
#
# 1 0.014255 -0.002106 -0.000530 0.003771 -0.007606 -0.007081
# 2 -0.002106 0.009193 -0.001804 0.003251 0.004236 -0.000171
# 3 -0.000530 -0.001804 0.012839 0.000490 0.006677 0.001264
# 4 0.003771 0.003251 0.000490 0.021362 -0.006364 -0.005101
# 5 -0.007606 0.004236 0.006677 -0.006364 0.047986 0.010586
# 6 -0.007081 -0.000171 0.001264 -0.005101 0.010586 0.030018
#
#
# Mechanical properties :
#
#
# Convention : Reuss Voigt Hill
#
# Bulk Modulus (GPa) = 36.48454 47.90097 42.19276
# Shear Modulus (GPa) = 32.53733 42.75591 37.64662
#
# Velocity S-wave (km/s) = 3.47525 3.98376 3.73817
# Velocity P-wave (km/s) = 5.44479 6.24024 5.85604
#
# Compressibility (1/GPa) = 0.02740887
#
# Stress axis : x y z
#
# Youngs Moduli (GPa) = 70.15024 108.77276 77.88510
#
# Poissons Ratio (x) = 0.22904 0.04131
# Poissons Ratio (y) = 0.14771 0.14047
# Poissons Ratio (z) = 0.03721 0.19617
#
# Static dielectric constant tensor:
#      x y z
#    x 2.277690 0.000920 -0.256310 
#    y 0.000920 2.083390 -0.217850 
#    z -0.256310 -0.217850 1.601280 
# 
# From -- ./inp_files/399508.got.cif
#   From: 2010.05.17/outbox.cif.g08.bks.cpg/sg2_200_cif.got.tgz:399508.got - 2010.06.03 11:33:40.
