data_PCOD9104967
_publ_section_title
;
Structure prediction by ZEFSAII (Michael W. Deem and Ramdas Pophale) SiO2 
 PCOD9104967
Probable space group: P -1
;
_chemical_formula_sum "Si O2"
_cell_formula_units_Z 16
_cell_length_a 12.489199
_cell_length_b 11.058748
_cell_length_c 8.434022
_cell_angle_alpha 70.402058
_cell_angle_beta 116.779509
_cell_angle_gamma 140.336687
_cell_volume 663.627252
_symmetry_space_group_name_H-M "P -1"
_symmetry_group_IT_number 2
_symmetry_cell_setting 'triclinic'
loop_
_space_group_symop_operation_xyz
x,y,z
-x,-y,-z
loop_
_atom_site_type_symbol
_atom_site_label
_atom_site_fract_x
_atom_site_fract_y
_atom_site_fract_z
Si Si1 0.196801 0.162872 0.138267
Si Si2 0.204558 0.185053 0.518004
Si Si3 0.819616 0.559025 0.659956
Si Si4 0.570620 0.872434 0.850149
Si Si5 0.715139 0.182932 0.407942
Si Si6 0.234525 0.951610 0.796087
Si Si7 0.966089 0.408329 0.709517
Si Si8 0.729972 0.488926 0.973604
O O1 0.214227 0.171969 0.339084
O O2 0.319153 0.150425 0.150922
O O3 0.262516 0.355816 0.050601
O O4 0.000000 0.000000 0.000000
O O5 0.254722 0.372565 0.509553
O O6 0.286835 0.139168 0.703700
O O7 0.000000 0.000000 0.500000
O O8 0.850129 0.441740 0.662833
O O9 0.702503 0.452735 0.784333
O O10 0.022204 0.764220 0.739847
O O11 0.466223 0.885078 0.658214
O O12 0.415321 0.691359 0.936078
O O13 0.692729 0.035526 0.992115
O O14 0.694638 0.076160 0.290385
O O15 0.828830 0.208658 0.613380
O O16 0.865853 0.405464 0.359030
O O17 0.074305 0.418553 0.910223
#
# Coordination Sequence:
#
# PCOD9104967 Si02
#       8
#     2   2   2   2   2   2   2   2
#     4  11  23  40  64  89 124 160 207 253 302 371
#     4   9  19  37  60  91 116 156 207 246 297 358
#     4   9  18  37  62  92 118 161 210 247 297 368
#     4  11  22  41  59  91 125 160 203 254 313 356
#     4   9  20  37  60  89 122 162 204 255 302 358
#     4  10  20  39  63  85 125 166 205 245 304 367
#     4   9  18  36  61  90 123 160 205 252 302 359
#     4  10  21  37  62  92 125 161 202 251 310 361
#
# _framework density 24.109919000000001
#
# number of rings (size 3 to 8) (size 9 to 14) (size 15 to 20)
#    0.000    2.250    0.000    3.375    1.750    0.000 
#   13.500    3.125    0.000    0.000    0.000    0.000 
#    0.000    0.000    0.000    0.000    0.000    0.000 
#
# Total GULP energy -89310.900100 kJ/mol
# GULP energy per Si atom -5581.931256 kJ/mol
# Density = 2.405504 g / cm^3
# Si number density = 24.109919 Si / 1000 Ang^3
#
#
#
# Elastic Constant Matrix: (Units=GPa)
#
#
# Indices 1 2 3 4 5 6 
#
# 1 132.5964 24.3206 10.1158 -0.5313 11.3072 -0.3508
# 2 24.3206 42.3908 15.0443 -8.2207 0.8191 2.9864
# 3 10.1158 15.0443 65.1446 -6.3965 19.2933 -4.1955
# 4 -0.5313 -8.2207 -6.3965 30.9004 4.5376 -3.4341
# 5 11.3072 0.8191 19.2933 4.5376 27.1810 0.9735
# 6 -0.3508 2.9864 -4.1955 -3.4341 0.9735 28.9504
#
#
#
# Elastic Compliance Matrix: (Units=1/GPa)
#
#
# Indices 1 2 3 4 5 6 
#
# 1 0.008840 -0.005556 0.001235 -0.000322 -0.004367 0.000968
# 2 -0.005556 0.030704 -0.007831 0.005094 0.006236 -0.003975
# 3 0.001235 -0.007831 0.023231 0.005997 -0.017966 0.005505
# 4 -0.000322 0.005094 0.005997 0.037083 -0.010649 0.005097
# 5 -0.004367 0.006236 -0.017966 -0.010649 0.053177 -0.006351
# 6 0.000968 -0.003975 0.005505 0.005097 -0.006351 0.036579
#
#
# Mechanical properties :
#
#
# Convention : Reuss Voigt Hill
#
# Bulk Modulus (GPa) = 25.99346 37.67701 31.83524
# Shear Modulus (GPa) = 22.05132 30.11645 26.08389
#
# Velocity S-wave (km/s) = 3.02754 3.53814 3.29275
# Velocity P-wave (km/s) = 4.79854 5.68791 5.26205
#
# Compressibility (1/GPa) = 0.03847121
#
# Stress axis : x y z
#
# Youngs Moduli (GPa) = 113.11813 32.56868 43.04552
#
# Poissons Ratio (x) = 0.18096 -0.05314
# Poissons Ratio (y) = 0.62851 0.33708
# Poissons Ratio (z) = -0.13966 0.25504
#
# Static dielectric constant tensor:
#      x y z
#    x 1.922050 -0.016270 0.004670 
#    y -0.016270 1.944590 0.000930 
#    z 0.004670 0.000930 2.055090 
# 
# From -- ./inp_files/262314.got.cif
#   From: 2010.05.17/outbox.cif.g08.bks.cpg/sg2_132_cif.got.tgz:262314.got - 2010.06.03 11:33:40.
