data_PCOD9104307
_publ_section_title
;
Structure prediction by ZEFSAII (Michael W. Deem and Ramdas Pophale) SiO2 
 PCOD9104307
Probable space group: P -1
;
_chemical_formula_sum "Si O2"
_cell_formula_units_Z 12
_cell_length_a 16.413992
_cell_length_b 8.655644
_cell_length_c 13.703789
_cell_angle_alpha 114.799532
_cell_angle_beta 158.505921
_cell_angle_gamma 54.919998
_cell_volume 538.897027
_symmetry_space_group_name_H-M "P -1"
_symmetry_group_IT_number 2
_symmetry_cell_setting 'triclinic'
loop_
_space_group_symop_operation_xyz
x,y,z
-x,-y,-z
loop_
_atom_site_type_symbol
_atom_site_label
_atom_site_fract_x
_atom_site_fract_y
_atom_site_fract_z
Si Si1 0.314351 0.912446 0.283407
Si Si2 0.701842 0.261769 0.173413
Si Si3 0.235931 0.360252 0.148216
Si Si4 0.056146 0.723534 0.907393
Si Si5 0.485014 0.033839 0.750194
Si Si6 0.288896 0.971198 0.701642
O O1 0.484776 0.736879 0.508725
O O2 0.500000 0.000000 0.500000
O O3 0.247384 0.793869 0.097716
O O4 0.051123 0.127467 0.078416
O O5 0.724210 0.195513 0.294264
O O6 0.500000 0.500000 0.000000
O O7 0.593032 0.147572 0.960534
O O8 0.996370 0.177378 0.440054
O O9 0.278223 0.150581 0.098437
O O10 0.190642 0.500132 0.041368
O O11 0.000000 0.500000 0.000000
O O12 0.786626 0.803994 0.567767
O O13 0.384596 0.931757 0.687200
O O14 0.500000 0.000000 0.000000
#
# Coordination Sequence:
#
# PCOD9104307 Si02
#       6
#     2   2   2   2   2   2
#     4  10  20  39  60  84 118 173 219 269 317 373
#     4  10  22  43  72  96 130 171 211 274 345 395
#     4  11  22  41  63  87 134 183 218 266 321 380
#     4  10  22  38  60  87 127 166 224 267 318 376
#     4  10  24  40  63 100 129 167 224 268 320 398
#     4   9  21  43  66  94 132 166 210 273 331 401
#
# _framework density 22.267703999999998
#
# number of rings (size 3 to 8) (size 9 to 14) (size 15 to 20)
#    0.000    2.000    1.667    0.500    0.000   10.667 
#    6.000    0.000    0.000    0.000    0.000    0.000 
#    0.000    0.000    0.000    0.000    0.000    0.000 
#
# Total GULP energy -66807.310620 kJ/mol
# GULP energy per Si atom -5567.275885 kJ/mol
# Density = 2.221702 g / cm^3
# Si number density = 22.267704 Si / 1000 Ang^3
#
#
#
# Elastic Constant Matrix: (Units=GPa)
#
#
# Indices 1 2 3 4 5 6 
#
# 1 74.0406 29.2296 21.7381 -17.1659 0.6478 -5.6782
# 2 29.2296 113.8865 57.5952 -24.5394 -0.6198 -1.8379
# 3 21.7381 57.5952 145.5939 -18.4048 -4.1338 -1.1057
# 4 -17.1659 -24.5394 -18.4048 44.3880 2.0804 0.1945
# 5 0.6478 -0.6198 -4.1338 2.0804 29.8639 -6.7209
# 6 -5.6782 -1.8379 -1.1057 0.1945 -6.7209 19.2456
#
#
#
# Elastic Compliance Matrix: (Units=1/GPa)
#
#
# Indices 1 2 3 4 5 6 
#
# 1 0.016172 -0.002762 -0.000726 0.004397 0.000195 0.004490
# 2 -0.002762 0.012395 -0.003981 0.004159 -0.000544 -0.000092
# 3 -0.000726 -0.003981 0.008723 0.001081 0.001131 0.000291
# 4 0.004397 0.004159 0.001081 0.027044 -0.001530 0.000949
# 5 0.000195 -0.000544 0.001131 -0.001530 0.036631 0.012878
# 6 0.004490 -0.000092 0.000291 0.000949 0.012878 0.057780
#
#
# Mechanical properties :
#
#
# Convention : Reuss Voigt Hill
#
# Bulk Modulus (GPa) = 44.74353 61.18300 52.96327
# Shear Modulus (GPa) = 27.60383 33.69669 30.65026
#
# Velocity S-wave (km/s) = 3.52467 3.89428 3.71407
# Velocity P-wave (km/s) = 6.05817 6.91059 6.49837
#
# Compressibility (1/GPa) = 0.02234960
#
# Stress axis : x y z
#
# Youngs Moduli (GPa) = 61.83574 80.67924 114.64364
#
# Poissons Ratio (x) = 0.22286 0.08327
# Poissons Ratio (y) = 0.17081 0.45642
# Poissons Ratio (z) = 0.04491 0.32120
#
# Static dielectric constant tensor:
#      x y z
#    x 2.324120 0.266490 0.389330 
#    y 0.266490 1.968800 0.293300 
#    z 0.389330 0.293300 2.227370 
# 
# From -- ./inp_files/536755.got.cif
#   From: 2010.05.17/outbox.cif.g08.bks.cpg/sg2_269_cif.got.tgz:536755.got - 2010.06.03 11:33:40.
