data_PCOD9104215
_publ_section_title
;
Structure prediction by ZEFSAII (Michael W. Deem and Ramdas Pophale) SiO2 
 PCOD9104215
Probable space group: P -1
;
_chemical_formula_sum "Si O2"
_cell_formula_units_Z 16
_cell_length_a 20.313524
_cell_length_b 7.086403
_cell_length_c 16.374417
_cell_angle_alpha 70.845479
_cell_angle_beta 162.115829
_cell_angle_gamma 101.802857
_cell_volume 634.887789
_symmetry_space_group_name_H-M "P -1"
_symmetry_group_IT_number 2
_symmetry_cell_setting 'triclinic'
loop_
_space_group_symop_operation_xyz
x,y,z
-x,-y,-z
loop_
_atom_site_type_symbol
_atom_site_label
_atom_site_fract_x
_atom_site_fract_y
_atom_site_fract_z
Si Si1 0.250095 0.636525 0.147451
Si Si2 0.756855 0.809568 0.845636
Si Si3 0.584023 0.821685 0.217110
Si Si4 0.875480 0.838304 0.806973
Si Si5 0.251653 0.590745 0.806235
Si Si6 0.436090 0.361674 0.605816
Si Si7 0.558650 0.737632 0.775732
Si Si8 0.783392 0.728325 0.310189
O O1 0.500000 0.500000 0.500000
O O2 0.175379 0.446234 0.054964
O O3 0.322439 0.752577 0.140722
O O4 0.085875 0.789638 0.999364
O O5 0.901373 0.853147 0.933838
O O6 0.741513 0.798405 0.927673
O O7 0.500000 0.000000 0.500000
O O8 0.604037 0.741010 0.343425
O O9 0.806046 0.747727 0.431475
O O10 0.426000 0.710884 0.001560
O O11 0.445988 0.074578 0.014448
O O12 0.767341 0.652932 0.689091
O O13 0.662201 0.050451 0.497513
O O14 0.232688 0.490629 0.711195
O O15 0.000849 0.744951 0.518082
O O16 0.332101 0.397620 0.995707
O O17 0.456419 0.587506 0.622391
#
# Coordination Sequence:
#
# PCOD9104215 Si02
#       8
#     2   2   2   2   2   2   2   2
#     4  11  22  39  58  87 116 156 201 238 287 354
#     4   9  19  37  59  83 114 154 193 239 288 340
#     4  10  21  38  59  90 116 153 199 240 289 354
#     4  11  21  40  62  82 120 163 192 243 298 338
#     4  10  20  39  59  85 123 150 190 248 293 347
#     4  10  22  39  60  85 121 154 196 245 289 344
#     4   9  21  39  59  90 119 149 205 245 283 359
#     4  10  21  37  62  87 115 158 192 236 305 351
#
# _framework density 25.201301999999998
#
# number of rings (size 3 to 8) (size 9 to 14) (size 15 to 20)
#    0.000    2.000    1.250    1.875    0.000    3.000 
#    2.250   10.625    0.000    0.000    0.000    0.000 
#    0.000    0.000    0.000    0.000    0.000    0.000 
#
# Total GULP energy -89330.583293 kJ/mol
# GULP energy per Si atom -5583.161456 kJ/mol
# Density = 2.514394 g / cm^3
# Si number density = 25.201302 Si / 1000 Ang^3
#
#
#
# Elastic Constant Matrix: (Units=GPa)
#
#
# Indices 1 2 3 4 5 6 
#
# 1 172.8608 43.3787 45.8999 -23.4955 47.7195 -8.1327
# 2 43.3787 74.7974 16.0725 -13.4253 7.1517 -14.8984
# 3 45.8999 16.0725 63.9610 -7.7787 26.0732 -18.9471
# 4 -23.4955 -13.4253 -7.7787 20.2819 -4.9738 11.0859
# 5 47.7195 7.1517 26.0732 -4.9738 46.9504 -11.1008
# 6 -8.1327 -14.8984 -18.9471 11.0859 -11.1008 33.0803
#
#
#
# Elastic Compliance Matrix: (Units=1/GPa)
#
#
# Indices 1 2 3 4 5 6 
#
# 1 0.012128 -0.004798 -0.004758 0.011605 -0.009878 -0.009108
# 2 -0.004798 0.017799 -0.000327 0.003345 0.004354 0.006989
# 3 -0.004758 -0.000327 0.024863 -0.004479 -0.006502 0.012243
# 4 0.011605 0.003345 -0.004479 0.075622 -0.008009 -0.026236
# 5 -0.009878 0.004354 -0.006502 -0.008009 0.035932 0.010550
# 6 -0.009108 0.006989 0.012243 -0.026236 0.010550 0.050483
#
#
# Mechanical properties :
#
#
# Convention : Reuss Voigt Hill
#
# Bulk Modulus (GPa) = 28.55154 58.03571 43.29363
# Shear Modulus (GPa) = 20.13960 33.81373 26.97667
#
# Velocity S-wave (km/s) = 2.82999 3.66696 3.27532
# Velocity P-wave (km/s) = 4.69387 6.40372 5.61427
#
# Compressibility (1/GPa) = 0.03502438
#
# Stress axis : x y z
#
# Youngs Moduli (GPa) = 82.45305 56.18420 40.21968
#
# Poissons Ratio (x) = 0.26958 0.19136
# Poissons Ratio (y) = 0.39562 0.01315
# Poissons Ratio (z) = 0.39230 0.01837
#
# Static dielectric constant tensor:
#      x y z
#    x 2.061500 0.015730 0.006970 
#    y 0.015730 2.027310 0.045080 
#    z 0.006970 0.045080 1.995900 
# 
# From -- ./inp_files/577332.got.cif
#   From: 2010.05.17/outbox.cif.g08.bks.cpg/sg2_289_cif.got.tgz:577332.got - 2010.06.03 11:33:40.
