data_PCOD9104556
_publ_section_title
;
Structure prediction by ZEFSAII (Michael W. Deem and Ramdas Pophale) SiO2 
 PCOD9104556
Probable space group: P -1
;
_chemical_formula_sum "Si O2"
_cell_formula_units_Z 16
_cell_length_a 15.164620
_cell_length_b 11.407959
_cell_length_c 14.094232
_cell_angle_alpha 132.259610
_cell_angle_beta 27.825771
_cell_angle_gamma 141.678122
_cell_volume 703.819406
_symmetry_space_group_name_H-M "P -1"
_symmetry_group_IT_number 2
_symmetry_cell_setting 'triclinic'
loop_
_space_group_symop_operation_xyz
x,y,z
-x,-y,-z
loop_
_atom_site_type_symbol
_atom_site_label
_atom_site_fract_x
_atom_site_fract_y
_atom_site_fract_z
Si Si1 0.928293 0.639832 0.679642
Si Si2 0.911321 0.744558 0.358616
Si Si3 0.594904 0.794309 0.582135
Si Si4 0.680737 0.216568 0.472547
Si Si5 0.910618 0.843963 0.137253
Si Si6 0.694310 0.742076 0.080214
Si Si7 0.999063 0.873236 0.556518
Si Si8 0.131316 0.619938 0.825562
O O1 0.000000 0.500000 0.500000
O O2 0.130082 0.771698 0.633940
O O3 0.915126 0.741518 0.654915
O O4 0.713445 0.586918 0.920063
O O5 0.660040 0.670117 0.516160
O O6 0.983944 0.604637 0.183254
O O7 0.917723 0.762970 0.475826
O O8 0.053913 0.962151 0.304488
O O9 0.344573 0.712350 0.743208
O O10 0.725867 0.993361 0.623464
O O11 0.740509 0.841199 0.372759
O O12 0.550797 0.294028 0.695248
O O13 0.782246 0.323011 0.334747
O O14 0.500000 0.000000 0.500000
O O15 0.979976 0.703036 0.031202
O O16 0.137105 0.052332 0.018276
O O17 0.788829 0.768947 0.111351
#
# Coordination Sequence:
#
# PCOD9104556 Si02
#       8
#     2   2   2   2   2   2   2   2
#     4  12  24  40  64  91 123 164 202 245 304 365
#     4   9  21  39  62  84 119 162 202 249 295 346
#     4  10  20  39  61  89 116 158 200 248 296 355
#     4  12  22  37  64  94 124 161 197 245 308 369
#     4  11  21  34  61  90 126 154 193 246 311 358
#     4  11  21  37  57  91 128 161 191 247 308 361
#     4   9  20  40  62  83 119 166 200 239 305 355
#     4  12  21  35  64  95 117 155 204 247 297 361
#
# _framework density 22.733105999999999
#
# number of rings (size 3 to 8) (size 9 to 14) (size 15 to 20)
#    0.750    0.500    5.000    2.625    0.000    1.000 
#    0.000    0.000    0.000    6.000    0.000    0.000 
#    0.000    0.000    0.000    0.000    0.000    0.000 
#
# Total GULP energy -89390.955497 kJ/mol
# GULP energy per Si atom -5586.934719 kJ/mol
# Density = 2.268136 g / cm^3
# Si number density = 22.733106 Si / 1000 Ang^3
#
#
#
# Elastic Constant Matrix: (Units=GPa)
#
#
# Indices 1 2 3 4 5 6 
#
# 1 163.5103 32.9180 33.8355 -1.4972 6.1360 -6.1022
# 2 32.9180 67.5847 15.5294 13.2069 -1.9454 -5.5466
# 3 33.8355 15.5294 97.2506 12.1389 -2.1984 -6.4915
# 4 -1.4972 13.2069 12.1389 23.5567 -5.3259 -2.3344
# 5 6.1360 -1.9454 -2.1984 -5.3259 32.7146 -0.6982
# 6 -6.1022 -5.5466 -6.4915 -2.3344 -0.6982 30.8659
#
#
#
# Elastic Compliance Matrix: (Units=1/GPa)
#
#
# Indices 1 2 3 4 5 6 
#
# 1 0.007481 -0.003784 -0.002444 0.003641 -0.001188 0.000533
# 2 -0.003784 0.018903 -0.000269 -0.010488 0.000147 0.001802
# 3 -0.002444 -0.000269 0.012033 -0.005981 0.000311 0.001554
# 4 0.003641 -0.010488 -0.005981 0.053408 0.007024 0.001775
# 5 -0.001188 0.000147 0.000311 0.007024 0.031987 0.001112
# 6 0.000533 0.001802 0.001554 0.001775 0.001112 0.033314
#
#
# Mechanical properties :
#
#
# Convention : Reuss Voigt Hill
#
# Bulk Modulus (GPa) = 39.33562 54.76793 47.05178
# Shear Modulus (GPa) = 27.99615 33.83162 30.91389
#
# Velocity S-wave (km/s) = 3.51310 3.86192 3.69163
# Velocity P-wave (km/s) = 5.81349 6.63550 6.23805
#
# Compressibility (1/GPa) = 0.02542225
#
# Stress axis : x y z
#
# Youngs Moduli (GPa) = 133.66671 52.90227 83.10165
#
# Poissons Ratio (x) = 0.20019 0.20313
# Poissons Ratio (y) = 0.50581 0.02237
# Poissons Ratio (z) = 0.32673 0.01424
#
# Static dielectric constant tensor:
#      x y z
#    x 1.852390 0.009440 0.008820 
#    y 0.009440 1.920190 0.016990 
#    z 0.008820 0.016990 1.841630 
# 
# From -- ./inp_files/531935.got.cif
#   From: 2010.05.17/outbox.cif.g08.bks.cpg/sg2_266_cif.got.tgz:531935.got - 2010.06.03 11:33:40.
