data_PCOD9104229
_publ_section_title
;
Structure prediction by ZEFSAII (Michael W. Deem and Ramdas Pophale) SiO2 
 PCOD9104229
Probable space group: P -1
;
_chemical_formula_sum "Si O2"
_cell_formula_units_Z 14
_cell_length_a 17.652706
_cell_length_b 6.810075
_cell_length_c 13.764431
_cell_angle_alpha 79.601557
_cell_angle_beta 21.234674
_cell_angle_gamma 70.518482
_cell_volume 522.203068
_symmetry_space_group_name_H-M "P -1"
_symmetry_group_IT_number 2
_symmetry_cell_setting 'triclinic'
loop_
_space_group_symop_operation_xyz
x,y,z
-x,-y,-z
loop_
_atom_site_type_symbol
_atom_site_label
_atom_site_fract_x
_atom_site_fract_y
_atom_site_fract_z
Si Si1 0.241874 0.737095 0.834213
Si Si2 0.994677 0.093597 0.372292
Si Si3 0.770808 0.827956 0.721395
Si Si4 0.490271 0.402291 0.873038
Si Si5 0.439821 0.817380 0.777343
Si Si6 0.066960 0.454645 0.811568
Si Si7 0.242509 0.806587 0.603712
O O1 0.154668 0.549648 0.972257
O O2 0.421109 0.729410 0.701098
O O3 0.318120 0.739535 0.631466
O O4 0.002530 0.968412 0.114901
O O5 0.930373 0.884082 0.449953
O O6 0.122977 0.111893 0.315344
O O7 0.206641 0.049337 0.048818
O O8 0.730391 0.300461 0.659872
O O9 0.730598 0.611338 0.810194
O O10 0.500000 0.000000 0.000000
O O11 0.428557 0.651852 0.888896
O O12 0.556398 0.237066 0.712901
O O13 0.703420 0.784988 0.465140
O O14 0.159462 0.633689 0.668345
O O15 0.000000 0.500000 0.000000
#
# Coordination Sequence:
#
# PCOD9104229 Si02
#       7
#     2   2   2   2   2   2   2
#     4  10  20  39  59  86 128 167 204 259 299 355
#     4  10  21  41  61  89 123 150 204 254 299 381
#     4   9  21  41  65  87 120 158 191 255 318 362
#     4  10  21  38  59  90 121 157 202 253 305 358
#     4  11  23  37  64  90 119 168 207 245 308 369
#     4   9  21  37  54  86 122 157 209 254 294 357
#     4   9  19  37  59  85 126 160 210 254 292 362
#
# _framework density 26.809494000000001
#
# number of rings (size 3 to 8) (size 9 to 14) (size 15 to 20)
#    0.000    2.286    1.429    0.000    2.000    8.000 
#    0.000   14.286    0.000    0.000    0.000    0.000 
#    0.000    0.000    0.000    0.000    0.000    0.000 
#
# Total GULP energy -78046.958483 kJ/mol
# GULP energy per Si atom -5574.782749 kJ/mol
# Density = 2.674847 g / cm^3
# Si number density = 26.809494 Si / 1000 Ang^3
#
#
#
# Elastic Constant Matrix: (Units=GPa)
#
#
# Indices 1 2 3 4 5 6 
#
# 1 102.5503 8.0084 29.3818 -5.8294 -30.6777 -1.0060
# 2 8.0084 35.1424 17.4212 -2.3357 -11.4758 -11.0619
# 3 29.3818 17.4212 176.6187 3.9894 -25.2561 4.6261
# 4 -5.8294 -2.3357 3.9894 33.6146 3.4910 2.8598
# 5 -30.6777 -11.4758 -25.2561 3.4910 48.9135 10.0890
# 6 -1.0060 -11.0619 4.6261 2.8598 10.0890 28.8918
#
#
#
# Elastic Compliance Matrix: (Units=1/GPa)
#
#
# Indices 1 2 3 4 5 6 
#
# 1 0.012382 -0.000571 -0.000896 0.001637 0.007557 -0.002445
# 2 -0.000571 0.035447 -0.003253 0.001299 0.003567 0.012698
# 3 -0.000896 -0.003253 0.006652 -0.001194 0.002859 -0.003222
# 4 0.001637 0.001299 -0.001194 0.030538 -0.001072 -0.001903
# 5 0.007557 0.003567 0.002859 -0.001072 0.029430 -0.009000
# 6 -0.002445 0.012698 -0.003222 -0.001903 -0.009000 0.043236
#
#
# Mechanical properties :
#
#
# Convention : Reuss Voigt Hill
#
# Bulk Modulus (GPa) = 22.20188 47.10380 34.65284
# Shear Modulus (GPa) = 27.45168 39.58400 33.51784
#
# Velocity S-wave (km/s) = 3.20340 3.84668 3.53968
# Velocity P-wave (km/s) = 4.68846 6.11042 5.44605
#
# Compressibility (1/GPa) = 0.04504123
#
# Stress axis : x y z
#
# Youngs Moduli (GPa) = 80.76054 28.21141 150.32815
#
# Poissons Ratio (x) = 0.01610 0.13468
# Poissons Ratio (y) = 0.04608 0.48908
# Poissons Ratio (z) = 0.07236 0.09178
#
# Static dielectric constant tensor:
#      x y z
#    x 2.164900 -0.105910 0.130630 
#    y -0.105910 2.356090 -0.042420 
#    z 0.130630 -0.042420 2.147960 
# 
# From -- ./inp_files/35641.got.cif
#   From: 2010.05.17/outbox.cif.g08.bks.cpg/sg2_18_cif.got.tgz:35641.got - 2010.06.03 11:33:40.
