data_PCOD9104211
_publ_section_title
;
Structure prediction by ZEFSAII (Michael W. Deem and Ramdas Pophale) SiO2 
 PCOD9104211
Probable space group: P -1
;
_chemical_formula_sum "Si O2"
_cell_formula_units_Z 16
_cell_length_a 20.139886
_cell_length_b 17.878614
_cell_length_c 12.619289
_cell_angle_alpha 31.299605
_cell_angle_beta 139.282613
_cell_angle_gamma 160.633620
_cell_volume 751.558695
_symmetry_space_group_name_H-M "P -1"
_symmetry_group_IT_number 2
_symmetry_cell_setting 'triclinic'
loop_
_space_group_symop_operation_xyz
x,y,z
-x,-y,-z
loop_
_atom_site_type_symbol
_atom_site_label
_atom_site_fract_x
_atom_site_fract_y
_atom_site_fract_z
Si Si1 0.980711 0.014929 0.641114
Si Si2 0.834309 0.464733 0.748434
Si Si3 0.960720 0.591598 0.976230
Si Si4 0.589148 0.323888 0.445341
Si Si5 0.261539 0.236432 0.546408
Si Si6 0.183902 0.690441 0.649290
Si Si7 0.863906 0.493596 0.402579
Si Si8 0.099059 0.046645 0.960544
O O1 0.986899 0.191492 0.463385
O O2 0.197096 0.245065 0.562547
O O3 0.965519 0.912776 0.855362
O O4 0.816782 0.781633 0.633110
O O5 0.652301 0.308987 0.644541
O O6 0.922655 0.419095 0.875972
O O7 0.808262 0.418453 0.899983
O O8 0.845778 0.456034 0.113156
O O9 0.130625 0.927190 0.768659
O O10 0.715812 0.402614 0.408555
O O11 0.683087 0.602020 0.224941
O O12 0.348539 0.009884 0.505467
O O13 0.500000 0.500000 0.500000
O O14 0.248268 0.697421 0.608260
O O15 0.961883 0.485945 0.598165
O O16 0.066832 0.839130 0.195209
O O17 0.000000 0.000000 0.000000
#
# Coordination Sequence:
#
# PCOD9104211 Si02
#       8
#     2   2   2   2   2   2   2   2
#     4   9  19  40  60  84 119 153 192 240 293 343
#     4   9  19  39  58  83 120 146 190 241 289 344
#     4  10  20  39  59  85 121 153 186 243 300 337
#     4  10  20  39  59  88 110 151 200 235 283 353
#     4  10  21  40  61  87 117 154 195 238 290 357
#     4  11  22  36  61  83 116 154 191 239 289 345
#     4  10  21  39  56  83 121 151 188 244 290 335
#     4   9  19  38  61  81 118 156 190 240 291 336
#
# _framework density 21.289090000000002
#
# number of rings (size 3 to 8) (size 9 to 14) (size 15 to 20)
#    0.000    2.250    1.250    1.125    0.000    1.000 
#   22.500    5.000    0.000    0.000    0.000    0.000 
#    0.000    0.000    0.000    0.000    0.000    0.000 
#
# Total GULP energy -89196.240992 kJ/mol
# GULP energy per Si atom -5574.765062 kJ/mol
# Density = 2.124063 g / cm^3
# Si number density = 21.289090 Si / 1000 Ang^3
#
#
#
# Elastic Constant Matrix: (Units=GPa)
#
#
# Indices 1 2 3 4 5 6 
#
# 1 64.4275 25.6024 21.8144 11.2306 -8.0468 -19.0920
# 2 25.6024 79.8276 27.9834 1.9771 -23.5649 -17.7341
# 3 21.8144 27.9834 81.5505 11.9971 -13.4020 -17.3815
# 4 11.2306 1.9771 11.9971 32.7083 -15.0048 -7.7964
# 5 -8.0468 -23.5649 -13.4020 -15.0048 40.4575 7.3955
# 6 -19.0920 -17.7341 -17.3815 -7.7964 7.3955 32.5396
#
#
#
# Elastic Compliance Matrix: (Units=1/GPa)
#
#
# Indices 1 2 3 4 5 6 
#
# 1 0.021163 -0.005103 -0.001859 -0.005741 -0.002960 0.007939
# 2 -0.005103 0.019785 -0.003660 0.008403 0.011455 0.005243
# 3 -0.001859 -0.003660 0.015533 -0.003581 0.000543 0.004230
# 4 -0.005741 0.008403 -0.003581 0.042643 0.017364 0.005569
# 5 -0.002960 0.011455 0.000543 0.017364 0.037334 0.000471
# 6 0.007939 0.005243 0.004230 0.005569 0.000471 0.041735
#
#
# Mechanical properties :
#
#
# Convention : Reuss Voigt Hill
#
# Bulk Modulus (GPa) = 28.38074 41.84512 35.11293
# Shear Modulus (GPa) = 23.67610 31.16809 27.42210
#
# Velocity S-wave (km/s) = 3.33847 3.83043 3.59288
# Velocity P-wave (km/s) = 5.31230 6.26588 5.80869
#
# Compressibility (1/GPa) = 0.03523516
#
# Stress axis : x y z
#
# Youngs Moduli (GPa) = 47.25302 50.54368 64.37810
#
# Poissons Ratio (x) = 0.25794 0.11970
# Poissons Ratio (y) = 0.24114 0.23563
# Poissons Ratio (z) = 0.08786 0.18500
#
# Static dielectric constant tensor:
#      x y z
#    x 1.878660 0.046840 0.102960 
#    y 0.046840 1.836480 0.066490 
#    z 0.102960 0.066490 1.880560 
# 
# From -- ./inp_files/472348.got.cif
#   From: 2010.05.17/outbox.cif.g08.bks.cpg/sg2_237_cif.got.tgz:472348.got - 2010.06.03 11:33:40.
