data_PCOD9104400
_publ_section_title
;
Structure prediction by ZEFSAII (Michael W. Deem and Ramdas Pophale) SiO2 
 PCOD9104400
Probable space group: P -1
;
_chemical_formula_sum "Si O2"
_cell_formula_units_Z 14
_cell_length_a 20.073076
_cell_length_b 17.367656
_cell_length_c 9.042281
_cell_angle_alpha 134.282131
_cell_angle_beta 36.536298
_cell_angle_gamma 161.649514
_cell_volume 554.829588
_symmetry_space_group_name_H-M "P -1"
_symmetry_group_IT_number 2
_symmetry_cell_setting 'triclinic'
loop_
_space_group_symop_operation_xyz
x,y,z
-x,-y,-z
loop_
_atom_site_type_symbol
_atom_site_label
_atom_site_fract_x
_atom_site_fract_y
_atom_site_fract_z
Si Si1 0.340809 0.467710 0.692344
Si Si2 0.847075 0.907841 0.855403
Si Si3 0.340677 0.714716 0.508401
Si Si4 0.748864 0.920597 0.756866
Si Si5 0.329522 0.784357 0.303690
Si Si6 0.219819 0.880134 0.247581
Si Si7 0.400403 0.211471 0.611681
O O1 0.500000 0.500000 0.500000
O O2 0.470789 0.672880 0.830647
O O3 0.394667 0.548328 0.538866
O O4 0.034064 0.178399 0.882794
O O5 0.029039 0.966343 0.562764
O O6 0.673009 0.789398 0.865695
O O7 0.747384 0.819155 0.080555
O O8 0.388913 0.757877 0.303577
O O9 0.463269 0.730318 0.416566
O O10 0.014217 0.413111 0.702098
O O11 0.508049 0.965295 0.601199
O O12 0.857052 0.129992 0.787270
O O13 0.000000 0.500000 0.500000
O O14 0.476099 0.892806 0.029468
O O15 0.238051 0.983994 0.490045
#
# Coordination Sequence:
#
# PCOD9104400 Si02
#       7
#     2   2   2   2   2   2   2
#     4   9  20  37  57  87 127 171 216 268 319 374
#     4  10  20  39  60  91 134 176 221 270 321 382
#     4  11  25  44  69  99 131 175 220 276 340 402
#     4   9  20  38  63  91 130 176 220 271 325 387
#     4  11  26  47  71  99 132 171 220 281 346 405
#     4  11  24  43  66  98 134 173 222 277 337 401
#     4  11  24  38  65  99 131 177 227 268 323 396
#
# _framework density 25.232972
#
# number of rings (size 3 to 8) (size 9 to 14) (size 15 to 20)
#    0.000    1.714    0.000    3.000    0.000   15.429 
#    0.000   11.429    0.000    0.000    0.000    0.000 
#    0.000    0.000    0.000    0.000    0.000    0.000 
#
# Total GULP energy -77944.797486 kJ/mol
# GULP energy per Si atom -5567.485535 kJ/mol
# Density = 2.517554 g / cm^3
# Si number density = 25.232972 Si / 1000 Ang^3
#
#
#
# Elastic Constant Matrix: (Units=GPa)
#
#
# Indices 1 2 3 4 5 6 
#
# 1 119.8157 11.9366 16.8650 -8.1671 14.4521 -0.2648
# 2 11.9366 123.3194 35.7727 -15.7461 14.2237 -12.9315
# 3 16.8650 35.7727 106.4755 0.4191 35.5714 2.9779
# 4 -8.1671 -15.7461 0.4191 33.0263 -1.2831 5.2246
# 5 14.4521 14.2237 35.5714 -1.2831 41.0918 -16.2081
# 6 -0.2648 -12.9315 2.9779 5.2246 -16.2081 58.2542
#
#
#
# Elastic Compliance Matrix: (Units=1/GPa)
#
#
# Indices 1 2 3 4 5 6 
#
# 1 0.008936 -0.000270 -0.000228 0.002132 -0.003217 -0.001094
# 2 -0.000270 0.009885 -0.003635 0.004374 0.000832 0.002218
# 3 -0.000228 -0.003635 0.015613 -0.001683 -0.014382 -0.005457
# 4 0.002132 0.004374 -0.001683 0.033218 -0.000588 -0.002076
# 5 -0.003217 0.000832 -0.014382 -0.000588 0.042672 0.012831
# 6 -0.001094 0.002218 -0.005457 -0.002076 0.012831 0.021689
#
#
# Mechanical properties :
#
#
# Convention : Reuss Voigt Hill
#
# Bulk Modulus (GPa) = 38.21519 53.19547 45.70533
# Shear Modulus (GPa) = 33.55654 45.47687 39.51670
#
# Velocity S-wave (km/s) = 3.65069 4.24993 3.96166
# Velocity P-wave (km/s) = 5.74003 6.72384 6.25132
#
# Compressibility (1/GPa) = 0.02616760
#
# Stress axis : x y z
#
# Youngs Moduli (GPa) = 111.90589 101.16516 64.04777
#
# Poissons Ratio (x) = 0.02735 0.01457
# Poissons Ratio (y) = 0.03026 0.23284
# Poissons Ratio (z) = 0.02546 0.36777
#
# Static dielectric constant tensor:
#      x y z
#    x 2.028540 -0.031480 -0.096270 
#    y -0.031480 1.948060 -0.074990 
#    z -0.096270 -0.074990 1.984640 
# 
# From -- ./inp_files/348561.got.cif
#   From: 2010.05.17/outbox.cif.g08.bks.cpg/sg2_175_cif.got.tgz:348561.got - 2010.06.03 11:33:40.
