data_PCOD9104605
_publ_section_title
;
Structure prediction by ZEFSAII (Michael W. Deem and Ramdas Pophale) SiO2 
 PCOD9104605
Probable space group: P -1
;
_chemical_formula_sum "Si O2"
_cell_formula_units_Z 14
_cell_length_a 10.393274
_cell_length_b 5.219556
_cell_length_c 10.771001
_cell_angle_alpha 93.280748
_cell_angle_beta 106.623918
_cell_angle_gamma 91.477678
_cell_volume 558.425343
_symmetry_space_group_name_H-M "P -1"
_symmetry_group_IT_number 2
_symmetry_cell_setting 'triclinic'
loop_
_space_group_symop_operation_xyz
x,y,z
-x,-y,-z
loop_
_atom_site_type_symbol
_atom_site_label
_atom_site_fract_x
_atom_site_fract_y
_atom_site_fract_z
Si Si1 0.977333 0.299068 0.098741
Si Si2 0.053946 0.335994 0.687600
Si Si3 0.244122 0.769706 0.361733
Si Si4 0.259601 0.231147 0.209355
Si Si5 0.244029 0.980035 0.844163
Si Si6 0.273573 0.610651 0.629787
Si Si7 0.491126 0.689817 0.887458
O O1 0.108687 0.132358 0.124671
O O2 0.992560 0.415783 0.244937
O O3 0.828472 0.179119 0.069989
O O4 0.000000 0.500000 0.000000
O O5 0.146658 0.405948 0.596894
O O6 0.911552 0.183018 0.637302
O O7 0.161843 0.232091 0.813885
O O8 0.255196 0.524936 0.266019
O O9 0.313757 0.688291 0.505886
O O10 0.300340 0.027989 0.319006
O O11 0.364328 0.237233 0.126419
O O12 0.218070 0.851637 0.696920
O O13 0.400453 0.935703 0.893782
O O14 0.400112 0.543887 0.749174
O O15 0.500000 0.500000 0.000000
#
# Coordination Sequence:
#
# PCOD9104605 Si02
#       7
#     2   2   2   2   2   2   2
#     4  10  20  39  61  90 131 169 224 274 325 385
#     4  10  20  39  63 100 127 171 225 275 338 396
#     4  11  24  43  68 101 139 170 226 279 335 398
#     4  11  25  43  67 101 136 178 217 281 337 388
#     4   9  20  39  61  91 121 169 222 259 338 382
#     4   9  23  39  66  96 127 183 211 281 329 400
#     4  10  23  46  65  95 137 175 228 271 334 406
#
# _framework density 25.070498000000001
#
# number of rings (size 3 to 8) (size 9 to 14) (size 15 to 20)
#    0.857    1.143    1.429    1.286    2.000    3.429 
#    2.571    1.429    0.000    0.000    0.000    0.000 
#    0.000    0.000    0.000    0.000    0.000    0.000 
#
# Total GULP energy -78064.781395 kJ/mol
# GULP energy per Si atom -5576.055814 kJ/mol
# Density = 2.501344 g / cm^3
# Si number density = 25.070498 Si / 1000 Ang^3
#
#
#
# Elastic Constant Matrix: (Units=GPa)
#
#
# Indices 1 2 3 4 5 6 
#
# 1 149.3068 21.8000 36.7103 -8.9115 -5.5171 -2.4780
# 2 21.8000 56.0107 5.6787 -15.2796 -7.4457 -8.8680
# 3 36.7103 5.6787 117.6292 -27.8164 -5.4999 2.2886
# 4 -8.9115 -15.2796 -27.8164 40.8265 4.7832 -3.8805
# 5 -5.5171 -7.4457 -5.4999 4.7832 39.2449 -4.0165
# 6 -2.4780 -8.8680 2.2886 -3.8805 -4.0165 31.8857
#
#
#
# Elastic Compliance Matrix: (Units=1/GPa)
#
#
# Indices 1 2 3 4 5 6 
#
# 1 0.007702 -0.003074 -0.002533 -0.001246 0.000277 -0.000191
# 2 -0.003074 0.023245 0.002185 0.009799 0.003883 0.007751
# 3 -0.002533 0.002185 0.011044 0.007767 0.000727 0.000655
# 4 -0.001246 0.009799 0.007767 0.033846 -0.000729 0.006098
# 5 0.000277 0.003883 0.000727 -0.000729 0.026892 0.004348
# 6 -0.000191 0.007751 0.000655 0.006098 0.004348 0.034746
#
#
# Mechanical properties :
#
#
# Convention : Reuss Voigt Hill
#
# Bulk Modulus (GPa) = 28.45173 50.14718 39.29945
# Shear Modulus (GPa) = 32.04385 39.64193 35.84289
#
# Velocity S-wave (km/s) = 3.57900 3.98077 3.78522
# Velocity P-wave (km/s) = 5.33407 6.41674 5.90029
#
# Compressibility (1/GPa) = 0.03514725
#
# Stress axis : x y z
#
# Youngs Moduli (GPa) = 129.83595 43.01928 90.54455
#
# Poissons Ratio (x) = 0.13225 0.22937
# Poissons Ratio (y) = 0.39916 -0.19787
# Poissons Ratio (z) = 0.32891 -0.09401
#
# Static dielectric constant tensor:
#      x y z
#    x 2.004810 0.066900 0.076450 
#    y 0.066900 2.071520 0.046230 
#    z 0.076450 0.046230 2.012990 
# 
# From -- ./inp_files/92701.got.cif
#   From: 2010.05.17/outbox.cif.g08.bks.cpg/sg2_47_cif.got.tgz:92701.got - 2010.06.03 11:33:40.
