data_PCOD9104156
_publ_section_title
;
Structure prediction by ZEFSAII (Michael W. Deem and Ramdas Pophale) SiO2 
 PCOD9104156
Probable space group: P -1
;
_chemical_formula_sum "Si O2"
_cell_formula_units_Z 16
_cell_length_a 12.810947
_cell_length_b 9.377122
_cell_length_c 16.120952
_cell_angle_alpha 43.813729
_cell_angle_beta 43.369095
_cell_angle_gamma 37.398427
_cell_volume 757.963903
_symmetry_space_group_name_H-M "P -1"
_symmetry_group_IT_number 2
_symmetry_cell_setting 'triclinic'
loop_
_space_group_symop_operation_xyz
x,y,z
-x,-y,-z
loop_
_atom_site_type_symbol
_atom_site_label
_atom_site_fract_x
_atom_site_fract_y
_atom_site_fract_z
Si Si1 0.109966 0.921848 0.834280
Si Si2 0.631380 0.596714 0.879957
Si Si3 0.969100 0.739503 0.124001
Si Si4 0.900554 0.313352 0.336989
Si Si5 0.326105 0.482849 0.777190
Si Si6 0.394869 0.996758 0.980326
Si Si7 0.215969 0.682886 0.248594
Si Si8 0.752218 0.243612 0.621685
O O1 0.273647 0.665661 0.808431
O O2 0.976170 0.861734 0.983917
O O3 0.159598 0.043808 0.826604
O O4 0.990556 0.127627 0.746880
O O5 0.823133 0.410073 0.895878
O O6 0.687638 0.557880 0.766683
O O7 0.524912 0.854198 0.884699
O O8 0.500000 0.500000 0.000000
O O9 0.919111 0.543265 0.228003
O O10 0.780662 0.349038 0.311213
O O11 0.806177 0.314297 0.476072
O O12 0.100659 0.053412 0.326553
O O13 0.268209 0.290818 0.908484
O O14 0.544083 0.323895 0.704061
O O15 0.500000 0.000000 0.000000
O O16 0.307468 0.841798 0.117754
O O17 0.226319 0.631389 0.361434
#
# Coordination Sequence:
#
# PCOD9104156 Si02
#       8
#     2   2   2   2   2   2   2   2
#     4  10  22  37  62  92 125 158 196 259 321 377
#     4   9  20  35  57  91 129 163 196 248 315 377
#     4  10  21  40  61  91 130 164 201 253 317 377
#     4  11  25  44  66  87 124 169 217 256 306 370
#     4  12  23  39  67  93 125 160 211 263 315 371
#     4  11  20  32  60  99 125 155 202 257 316 368
#     4  10  20  39  58  87 128 163 202 250 322 369
#     4  11  24  43  65  88 125 168 214 264 303 363
#
# _framework density 21.109183000000002
#
# number of rings (size 3 to 8) (size 9 to 14) (size 15 to 20)
#    0.000    1.500    2.500    2.625    3.500    2.000 
#    0.000    3.125    2.750    0.000    0.000    0.000 
#    0.000    0.000    0.000    0.000    0.000    0.000 
#
# Total GULP energy -89383.669032 kJ/mol
# GULP energy per Si atom -5586.479315 kJ/mol
# Density = 2.106114 g / cm^3
# Si number density = 21.109183 Si / 1000 Ang^3
#
#
#
# Elastic Constant Matrix: (Units=GPa)
#
#
# Indices 1 2 3 4 5 6 
#
# 1 75.3111 26.0580 24.6104 8.7190 12.7654 7.1381
# 2 26.0580 102.1942 24.6905 21.0106 8.4645 17.9176
# 3 24.6104 24.6905 46.9896 7.4730 22.7599 4.4222
# 4 8.7190 21.0106 7.4730 27.2983 0.4322 8.9537
# 5 12.7654 8.4645 22.7599 0.4322 28.7485 6.7003
# 6 7.1381 17.9176 4.4222 8.9537 6.7003 31.4890
#
#
#
# Elastic Compliance Matrix: (Units=1/GPa)
#
#
# Indices 1 2 3 4 5 6 
#
# 1 0.016660 -0.002027 -0.006722 -0.001584 -0.001230 -0.000967
# 2 -0.002027 0.013819 -0.006096 -0.006629 0.002992 -0.005299
# 3 -0.006722 -0.006096 0.043644 -0.007094 -0.031431 0.007568
# 4 -0.001584 -0.006629 -0.007094 0.047468 0.010005 -0.010498
# 5 -0.001230 0.002992 -0.031431 0.010005 0.062235 -0.013097
# 6 -0.000967 -0.005299 0.007568 -0.010498 -0.013097 0.039701
#
#
# Mechanical properties :
#
#
# Convention : Reuss Voigt Hill
#
# Bulk Modulus (GPa) = 22.50491 41.69029 32.09760
# Shear Modulus (GPa) = 18.65487 27.44957 23.05222
#
# Velocity S-wave (km/s) = 2.97599 3.60996 3.30820
# Velocity P-wave (km/s) = 4.74268 6.09660 5.46175
#
# Compressibility (1/GPa) = 0.04443474
#
# Stress axis : x y z
#
# Youngs Moduli (GPa) = 60.02528 72.36352 22.91246
#
# Poissons Ratio (x) = 0.14667 0.15401
# Poissons Ratio (y) = 0.12166 0.13967
# Poissons Ratio (z) = 0.40346 0.44112
#
# Static dielectric constant tensor:
#      x y z
#    x 1.784550 0.002950 0.027200 
#    y 0.002950 1.789430 0.014290 
#    z 0.027200 0.014290 1.747420 
# 
# From -- ./inp_files/204325.got.cif
#   From: 2010.05.17/outbox.cif.g08.bks.cpg/sg2_103_cif.got.tgz:204325.got - 2010.06.03 11:33:40.
