data_PCOD9104515
_publ_section_title
;
Structure prediction by ZEFSAII (Michael W. Deem and Ramdas Pophale) SiO2 
 PCOD9104515
Probable space group: P -1
;
_chemical_formula_sum "Si O2"
_cell_formula_units_Z 16
_cell_length_a 21.792046
_cell_length_b 8.858259
_cell_length_c 15.950178
_cell_angle_alpha 106.638469
_cell_angle_beta 15.009946
_cell_angle_gamma 100.163236
_cell_volume 699.100331
_symmetry_space_group_name_H-M "P -1"
_symmetry_group_IT_number 2
_symmetry_cell_setting 'triclinic'
loop_
_space_group_symop_operation_xyz
x,y,z
-x,-y,-z
loop_
_atom_site_type_symbol
_atom_site_label
_atom_site_fract_x
_atom_site_fract_y
_atom_site_fract_z
Si Si1 0.187586 0.348562 0.788096
Si Si2 0.981715 0.504921 0.261651
Si Si3 0.415435 0.377951 0.905767
Si Si4 0.632753 0.002308 0.576695
Si Si5 0.309570 0.660109 0.964919
Si Si6 0.117221 0.624443 0.466300
Si Si7 0.052834 0.018626 0.331255
Si Si8 0.259179 0.111728 0.393344
O O1 0.185856 0.162943 0.741350
O O2 0.473272 0.325349 0.378820
O O3 0.126108 0.402215 0.973567
O O4 0.000000 0.500000 0.000000
O O5 0.892187 0.389812 0.423525
O O6 0.775289 0.690815 0.533580
O O7 0.159840 0.567552 0.095615
O O8 0.338986 0.449137 0.111490
O O9 0.151498 0.375260 0.215160
O O10 0.456713 0.525136 0.822209
O O11 0.630701 0.186703 0.586894
O O12 0.695873 0.955864 0.582855
O O13 0.333640 0.026205 0.963937
O O14 0.115628 0.851301 0.288463
O O15 0.132014 0.789937 0.428543
O O16 0.986810 0.912038 0.325638
O O17 0.500000 0.000000 0.000000
#
# Coordination Sequence:
#
# PCOD9104515 Si02
#       8
#     2   2   2   2   2   2   2   2
#     4  11  21  39  60  84 118 158 203 249 294 354
#     4  10  20  39  61  87 120 155 201 245 299 354
#     4   9  18  36  61  89 121 154 196 243 305 354
#     4  10  21  40  59  85 121 157 197 250 300 349
#     4   9  20  37  62  88 115 159 200 246 298 357
#     4   9  18  36  61  89 122 155 192 248 296 359
#     4   9  21  38  59  89 119 156 200 240 297 361
#     4  11  22  37  59  89 121 157 199 246 299 357
#
# _framework density 22.886558000000001
#
# number of rings (size 3 to 8) (size 9 to 14) (size 15 to 20)
#    0.000    2.250    1.250    1.125    0.000    6.000 
#    2.250   14.375    0.000    0.000    0.000    0.000 
#    0.000    0.000    0.000    0.000    0.000    0.000 
#
# Total GULP energy -89180.364409 kJ/mol
# GULP energy per Si atom -5573.772776 kJ/mol
# Density = 2.283447 g / cm^3
# Si number density = 22.886558 Si / 1000 Ang^3
#
#
#
# Elastic Constant Matrix: (Units=GPa)
#
#
# Indices 1 2 3 4 5 6 
#
# 1 155.5479 70.3656 86.0723 21.8623 31.9082 4.3549
# 2 70.3656 159.7430 54.7675 48.1051 24.7834 -22.2793
# 3 86.0723 54.7675 118.7928 35.9477 25.6696 7.0818
# 4 21.8623 48.1051 35.9477 51.2935 16.3873 -1.5461
# 5 31.9082 24.7834 25.6696 16.3873 53.7828 -1.7253
# 6 4.3549 -22.2793 7.0818 -1.5461 -1.7253 37.2951
#
#
#
# Elastic Compliance Matrix: (Units=1/GPa)
#
#
# Indices 1 2 3 4 5 6 
#
# 1 0.012854 -0.004286 -0.008006 0.005192 -0.003492 -0.002487
# 2 -0.004286 0.011916 -0.000089 -0.009099 0.000100 0.007263
# 3 -0.008006 -0.000089 0.017140 -0.008296 -0.000951 -0.002761
# 4 0.005192 -0.009099 -0.008296 0.033172 -0.005142 -0.003329
# 5 -0.003492 0.000100 -0.000951 -0.005142 0.022687 0.001484
# 6 -0.002487 0.007263 -0.002761 -0.003329 0.001484 0.031898
#
#
# Mechanical properties :
#
#
# Convention : Reuss Voigt Hill
#
# Bulk Modulus (GPa) = 58.31610 95.16606 76.74108
# Shear Modulus (GPa) = 31.22139 43.33283 37.27711
#
# Velocity S-wave (km/s) = 3.69749 4.35601 4.04019
# Velocity P-wave (km/s) = 6.61546 8.18362 7.44097
#
# Compressibility (1/GPa) = 0.01714792
#
# Stress axis : x y z
#
# Youngs Moduli (GPa) = 77.79700 83.91826 58.34183
#
# Poissons Ratio (x) = 0.35968 0.46708
# Poissons Ratio (y) = 0.33345 0.00522
# Poissons Ratio (z) = 0.62283 0.00751
#
# Static dielectric constant tensor:
#      x y z
#    x 1.956060 -0.066420 0.085030 
#    y -0.066420 1.969200 -0.057460 
#    z 0.085030 -0.057460 2.175810 
# 
# From -- ./inp_files/304825.got.cif
#   From: 2010.05.17/outbox.cif.g08.bks.cpg/sg2_153_cif.got.tgz:304825.got - 2010.06.03 11:33:40.
