data_PCOD9104082
_publ_section_title
;
Structure prediction by ZEFSAII (Michael W. Deem and Ramdas Pophale) SiO2 
 PCOD9104082
Probable space group: P -1
;
_chemical_formula_sum "Si O2"
_cell_formula_units_Z 12
_cell_length_a 5.156854
_cell_length_b 16.557515
_cell_length_c 5.519105
_cell_angle_alpha 116.080288
_cell_angle_beta 96.741245
_cell_angle_gamma 79.981214
_cell_volume 416.363768
_symmetry_space_group_name_H-M "P -1"
_symmetry_group_IT_number 2
_symmetry_cell_setting 'triclinic'
loop_
_space_group_symop_operation_xyz
x,y,z
-x,-y,-z
loop_
_atom_site_type_symbol
_atom_site_label
_atom_site_fract_x
_atom_site_fract_y
_atom_site_fract_z
Si Si1 0.792644 0.510328 0.144015
Si Si2 0.125759 0.371263 0.222983
Si Si3 0.580073 0.196467 0.460275
Si Si4 0.602414 0.064878 0.897409
Si Si5 0.679562 0.319782 0.016664
Si Si6 0.867280 0.895104 0.479248
O O1 0.840750 0.583918 0.449884
O O2 0.779831 0.418989 0.210884
O O3 0.500000 0.500000 0.000000
O O4 0.892606 0.556471 0.946881
O O5 0.423239 0.323070 0.143525
O O6 0.974653 0.280549 0.066208
O O7 0.288873 0.172341 0.458846
O O8 0.824389 0.140427 0.566213
O O9 0.613387 0.295124 0.702048
O O10 0.660028 0.156342 0.154024
O O11 0.351307 0.090234 0.733700
O O12 0.842442 0.996457 0.723789
O O13 0.500000 0.000000 0.000000
#
# Coordination Sequence:
#
# PCOD9104082 Si02
#       6
#     2   2   2   2   2   2
#     4   9  20  37  62  85 111 155 207 244 297 362
#     4   9  20  38  57  81 115 154 196 249 300 354
#     4  11  22  39  61  88 128 158 202 252 304 361
#     4   9  21  40  64  90 121 159 206 252 293 362
#     4  10  20  39  57  83 124 156 194 254 308 350
#     4  10  22  39  63  90 118 165 205 242 307 361
#
# _framework density 28.820951999999998
#
# number of rings (size 3 to 8) (size 9 to 14) (size 15 to 20)
#    1.000    1.333    0.000    2.000    0.000    9.333 
#    3.000    1.667    0.000    0.000    0.000    0.000 
#    0.000    0.000    0.000    0.000    0.000    0.000 
#
# Total GULP energy -66868.386968 kJ/mol
# GULP energy per Si atom -5572.365581 kJ/mol
# Density = 2.875535 g / cm^3
# Si number density = 28.820952 Si / 1000 Ang^3
#
#
#
# Elastic Constant Matrix: (Units=GPa)
#
#
# Indices 1 2 3 4 5 6 
#
# 1 232.7677 18.0656 55.7339 1.9634 40.3150 14.7226
# 2 18.0656 89.3729 24.4933 -3.0456 14.4219 -10.8796
# 3 55.7339 24.4933 243.0033 34.1254 29.3522 -0.9656
# 4 1.9634 -3.0456 34.1254 42.2512 -2.3652 9.7843
# 5 40.3150 14.4219 29.3522 -2.3652 43.2611 -3.0288
# 6 14.7226 -10.8796 -0.9656 9.7843 -3.0288 39.2716
#
#
#
# Elastic Compliance Matrix: (Units=1/GPa)
#
#
# Indices 1 2 3 4 5 6 
#
# 1 0.005476 -0.000466 -0.000766 0.000706 -0.004580 -0.002730
# 2 -0.000466 0.012397 -0.000892 0.000740 -0.002830 0.003185
# 3 -0.000766 -0.000892 0.005405 -0.004821 -0.002839 0.001155
# 4 0.000706 0.000740 -0.004821 0.029455 0.003469 -0.007249
# 5 -0.004580 -0.002830 -0.002839 0.003469 0.030609 0.002360
# 6 -0.002730 0.003185 0.001155 -0.007249 0.002360 0.029386
#
#
# Mechanical properties :
#
#
# Convention : Reuss Voigt Hill
#
# Bulk Modulus (GPa) = 52.54738 84.63663 68.59200
# Shear Modulus (GPa) = 40.54528 56.08020 48.31274
#
# Velocity S-wave (km/s) = 3.75480 4.41592 4.09871
# Velocity P-wave (km/s) = 6.08851 7.44517 6.80076
#
# Compressibility (1/GPa) = 0.01903044
#
# Stress axis : x y z
#
# Youngs Moduli (GPa) = 182.62624 80.66262 185.00653
#
# Poissons Ratio (x) = 0.03760 0.14165
# Poissons Ratio (y) = 0.08513 0.16505
# Poissons Ratio (z) = 0.13982 0.07196
#
# Static dielectric constant tensor:
#      x y z
#    x 2.058260 0.002240 -0.118310 
#    y 0.002240 2.608050 -0.020260 
#    z -0.118310 -0.020260 2.227050 
# 
# From -- ./inp_files/8619.got.cif
#   From: 2010.05.17/outbox.cif.g08.bks.cpg/sg2_5_cif.got.tgz:8619.got - 2010.06.03 11:33:40.
