data_PCOD9104073
_publ_section_title
;
Structure prediction by ZEFSAII (Michael W. Deem and Ramdas Pophale) SiO2 
 PCOD9104073
Probable space group: P -1
;
_chemical_formula_sum "Si O2"
_cell_formula_units_Z 16
_cell_length_a 11.372571
_cell_length_b 12.322083
_cell_length_c 7.779509
_cell_angle_alpha 104.594819
_cell_angle_beta 140.632109
_cell_angle_gamma 71.052823
_cell_volume 654.026053
_symmetry_space_group_name_H-M "P -1"
_symmetry_group_IT_number 2
_symmetry_cell_setting 'triclinic'
loop_
_space_group_symop_operation_xyz
x,y,z
-x,-y,-z
loop_
_atom_site_type_symbol
_atom_site_label
_atom_site_fract_x
_atom_site_fract_y
_atom_site_fract_z
Si Si1 0.181292 0.760332 0.739137
Si Si2 0.897899 0.334359 0.703855
Si Si3 0.130830 0.910572 0.440810
Si Si4 0.323150 0.280804 0.182774
Si Si5 0.595041 0.618080 0.044205
Si Si6 0.546625 0.024507 0.320987
Si Si7 0.229917 0.936375 0.074149
Si Si8 0.380699 0.440309 0.590382
O O1 0.075734 0.676510 0.481526
O O2 0.094132 0.878862 0.583055
O O3 0.396177 0.701393 0.908896
O O4 0.176559 0.811670 0.944000
O O5 0.809238 0.223969 0.608043
O O6 0.761777 0.455923 0.625235
O O7 0.104539 0.314532 0.007635
O O8 0.304801 0.975590 0.663564
O O9 0.951664 0.968486 0.149430
O O10 0.335687 0.326888 0.023191
O O11 0.399757 0.145612 0.209001
O O12 0.433197 0.339498 0.472844
O O13 0.549566 0.498523 0.873823
O O14 0.703900 0.597305 0.340704
O O15 0.690632 0.028062 0.643378
O O16 0.417480 0.932999 0.165094
#
# Coordination Sequence:
#
# PCOD9104073 Si02
#       8
#     2   2   2   2   2   2   2   2
#     4   9  19  39  56  79 114 152 190 239 298 342
#     4   9  21  38  57  83 121 149 193 249 289 356
#     4  10  20  39  57  80 121 151 193 247 292 347
#     4  12  20  39  62  85 120 158 194 248 301 350
#     4  10  21  38  59  89 115 150 205 244 290 364
#     4  11  22  37  58  88 117 151 206 242 292 365
#     4  11  22  37  59  85 117 159 195 247 300 347
#     4  10  21  38  61  85 118 155 195 248 298 352
#
# _framework density 24.463857000000001
#
# number of rings (size 3 to 8) (size 9 to 14) (size 15 to 20)
#    0.750    1.000    2.500    2.250    0.000    1.000 
#    2.250    1.250    0.000    0.000    0.000    0.000 
#    0.000    0.000    0.000    0.000    0.000    0.000 
#
# Total GULP energy -89128.925655 kJ/mol
# GULP energy per Si atom -5570.557853 kJ/mol
# Density = 2.440818 g / cm^3
# Si number density = 24.463857 Si / 1000 Ang^3
#
#
#
# Elastic Constant Matrix: (Units=GPa)
#
#
# Indices 1 2 3 4 5 6 
#
# 1 43.9859 -0.5131 10.7632 -5.6575 -5.3120 3.2821
# 2 -0.5131 51.6688 -2.2653 19.7550 -5.9936 -5.4773
# 3 10.7632 -2.2653 56.0523 -0.3499 6.4610 -4.7378
# 4 -5.6575 19.7550 -0.3499 17.6673 -2.5555 -10.6930
# 5 -5.3120 -5.9936 6.4610 -2.5555 27.7313 3.2852
# 6 3.2821 -5.4773 -4.7378 -10.6930 3.2852 20.4293
#
#
#
# Elastic Compliance Matrix: (Units=1/GPa)
#
#
# Indices 1 2 3 4 5 6 
#
# 1 0.026931 -0.004830 -0.006120 0.014594 0.006947 -0.000519
# 2 -0.004830 0.039389 0.000037 -0.056357 0.004624 -0.018897
# 3 -0.006120 0.000037 0.020478 0.002289 -0.006674 0.008013
# 4 0.014594 -0.056357 0.002289 0.166795 -0.002941 0.070852
# 5 0.006947 0.004624 -0.006674 -0.002941 0.040803 -0.009525
# 6 -0.000519 -0.018897 0.008013 0.070852 -0.009525 0.084441
#
#
# Mechanical properties :
#
#
# Convention : Reuss Voigt Hill
#
# Bulk Modulus (GPa) = 15.39127 18.63073 17.01100
# Shear Modulus (GPa) = 11.83940 22.74706 17.29323
#
# Velocity S-wave (km/s) = 2.20228 3.05261 2.66162
# Velocity P-wave (km/s) = 3.57377 4.47847 4.05145
#
# Compressibility (1/GPa) = 0.06497189
#
# Stress axis : x y z
#
# Youngs Moduli (GPa) = 37.13252 25.38804 48.83277
#
# Poissons Ratio (x) = 0.12262 0.29886
# Poissons Ratio (y) = 0.17935 -0.00182
# Poissons Ratio (z) = 0.22725 -0.00095
#
# Static dielectric constant tensor:
#      x y z
#    x 2.166070 0.020650 -0.066100 
#    y 0.020650 1.950100 -0.004720 
#    z -0.066100 -0.004720 2.008660 
# 
# From -- ./inp_files/270582.got.cif
#   From: 2010.05.17/outbox.cif.g08.bks.cpg/sg2_136_cif.got.tgz:270582.got - 2010.06.03 11:33:40.
