data_PCOD9104048
_publ_section_title
;
Structure prediction by ZEFSAII (Michael W. Deem and Ramdas Pophale) SiO2 
 PCOD9104048
Probable space group: P -1
;
_chemical_formula_sum "Si O2"
_cell_formula_units_Z 15
_cell_length_a 6.953401
_cell_length_b 14.229677
_cell_length_c 15.333743
_cell_angle_alpha 149.282664
_cell_angle_beta 121.245639
_cell_angle_gamma 49.097834
_cell_volume 581.906315
_symmetry_space_group_name_H-M "P -1"
_symmetry_group_IT_number 2
_symmetry_cell_setting 'triclinic'
loop_
_space_group_symop_operation_xyz
x,y,z
-x,-y,-z
loop_
_atom_site_type_symbol
_atom_site_label
_atom_site_fract_x
_atom_site_fract_y
_atom_site_fract_z
Si Si1 0.676093 0.135889 0.303786
Si Si2 0.828864 0.276535 0.936970
Si Si3 0.237886 0.330006 0.475376
Si Si4 0.665593 0.733518 0.222739
Si Si5 0.000000 0.500000 0.000000
Si Si6 0.556480 0.763667 0.842191
Si Si7 0.479545 0.571118 0.834566
Si Si8 0.010599 0.312734 0.578084
O O1 0.425514 0.167866 0.320038
O O2 0.586847 0.271129 0.301830
O O3 0.812245 0.227018 0.471950
O O4 0.889713 0.907865 0.145051
O O5 0.622002 0.222120 0.800286
O O6 0.829273 0.471143 0.039745
O O7 0.703178 0.349184 0.060030
O O8 0.384710 0.427489 0.645169
O O9 0.000000 0.500000 0.500000
O O10 0.132523 0.239928 0.453750
O O11 0.773570 0.776073 0.368787
O O12 0.777560 0.757233 0.177648
O O13 0.769493 0.477361 0.863313
O O14 0.446096 0.743230 0.891982
O O15 0.844652 0.566872 0.747474
O O16 0.500000 0.000000 0.000000
#
# Coordination Sequence:
#
# PCOD9104048 Si02
#       8
#     2   2   2   2   1   2   2   2
#     4  12  26  44  67 104 144 184 234 295 352 426
#     4  10  24  43  70 101 138 180 241 293 345 421
#     4  12  24  43  71  98 139 193 229 284 363 427
#     4  10  20  43  71  97 135 182 233 295 352 411
#     4  10  20  38  76  98 130 178 238 294 346 414
#     4  12  25  42  70 102 142 183 236 292 348 422
#     4  11  23  44  71 105 135 189 239 288 361 414
#     4  12  23  45  69  99 144 187 230 291 364 417
#
# _framework density 25.777343999999999
#
# number of rings (size 3 to 8) (size 9 to 14) (size 15 to 20)
#    0.000    0.800    5.333    2.000    0.000    2.133 
#    2.400    0.667    0.000    0.000    0.000    0.000 
#    0.000    0.000    0.000    0.000    0.000    0.000 
#
# Total GULP energy -83786.660762 kJ/mol
# GULP energy per Si atom -5585.777384 kJ/mol
# Density = 2.571867 g / cm^3
# Si number density = 25.777344 Si / 1000 Ang^3
#
#
#
# Elastic Constant Matrix: (Units=GPa)
#
#
# Indices 1 2 3 4 5 6 
#
# 1 146.8944 43.2129 25.6520 7.7059 -37.2969 -10.2552
# 2 43.2129 123.5988 42.8422 -17.4611 -13.1815 -16.8789
# 3 25.6520 42.8422 77.6117 -7.7528 -7.6154 -8.8988
# 4 7.7059 -17.4611 -7.7528 57.8266 1.4603 -1.3209
# 5 -37.2969 -13.1815 -7.6154 1.4603 40.9677 -4.6034
# 6 -10.2552 -16.8789 -8.8988 -1.3209 -4.6034 50.0011
#
#
#
# Elastic Compliance Matrix: (Units=1/GPa)
#
#
# Indices 1 2 3 4 5 6 
#
# 1 0.010116 -0.002273 -0.001283 -0.002381 0.008527 0.001801
# 2 -0.002273 0.011489 -0.004875 0.003157 0.000913 0.002712
# 3 -0.001283 -0.004875 0.016244 0.000891 0.000368 0.001040
# 4 -0.002381 0.003157 0.000891 0.018747 -0.001531 0.001090
# 5 0.008527 0.000913 0.000368 -0.001531 0.033166 0.005136
# 6 0.001801 0.002712 0.001040 0.001090 0.005136 0.021971
#
#
# Mechanical properties :
#
#
# Convention : Reuss Voigt Hill
#
# Bulk Modulus (GPa) = 47.64895 63.50211 55.57553
# Shear Modulus (GPa) = 36.87562 45.51894 41.19728
#
# Velocity S-wave (km/s) = 3.78636 4.20676 4.00208
# Velocity P-wave (km/s) = 6.13517 6.94868 6.55456
#
# Compressibility (1/GPa) = 0.02098682
#
# Stress axis : x y z
#
# Youngs Moduli (GPa) = 98.85311 87.04089 61.56090
#
# Poissons Ratio (x) = 0.19783 0.07901
# Poissons Ratio (y) = 0.22468 0.30009
# Poissons Ratio (z) = 0.12688 0.42430
#
# Static dielectric constant tensor:
#      x y z
#    x 2.207480 0.052250 -0.059640 
#    y 0.052250 2.022040 -0.017090 
#    z -0.059640 -0.017090 2.170300 
# 
# From -- ./inp_files/561638.got.cif
#   From: 2010.05.17/outbox.cif.g08.bks.cpg/sg2_281_cif.got.tgz:561638.got - 2010.06.03 11:33:40.
