data_PCOD9104936
_publ_section_title
;
Structure prediction by ZEFSAII (Michael W. Deem and Ramdas Pophale) SiO2 
 PCOD9104936
Probable space group: P -1
;
_chemical_formula_sum "Si O2"
_cell_formula_units_Z 14
_cell_length_a 14.097256
_cell_length_b 6.899365
_cell_length_c 11.814001
_cell_angle_alpha 40.500292
_cell_angle_beta 124.943686
_cell_angle_gamma 118.195278
_cell_volume 610.242837
_symmetry_space_group_name_H-M "P -1"
_symmetry_group_IT_number 2
_symmetry_cell_setting 'triclinic'
loop_
_space_group_symop_operation_xyz
x,y,z
-x,-y,-z
loop_
_atom_site_type_symbol
_atom_site_label
_atom_site_fract_x
_atom_site_fract_y
_atom_site_fract_z
Si Si1 0.025488 0.651304 0.173578
Si Si2 0.205718 0.452759 0.564377
Si Si3 0.601424 0.637335 0.426750
Si Si4 0.209090 0.736009 0.865526
Si Si5 0.344561 0.662177 0.761251
Si Si6 0.563204 0.962054 0.856293
Si Si7 0.760974 0.449213 0.783035
O O1 0.098594 0.568535 0.370957
O O2 0.110076 0.584781 0.156314
O O3 0.910225 0.435693 0.179826
O O4 0.000000 0.000000 0.000000
O O5 0.324218 0.525365 0.541538
O O6 0.232982 0.629779 0.619263
O O7 0.194841 0.088495 0.726358
O O8 0.500000 0.500000 0.500000
O O9 0.705102 0.714791 0.556554
O O10 0.518863 0.847276 0.206614
O O11 0.299349 0.713076 0.835083
O O12 0.245891 0.566895 0.079748
O O13 0.463471 0.873515 0.733203
O O14 0.393939 0.336153 0.932241
O O15 0.678783 0.159934 0.814597
#
# Coordination Sequence:
#
# PCOD9104936 Si02
#       7
#     2   2   2   2   2   2   2
#     4  11  26  47  69  99 131 178 229 280 337 394
#     4  11  24  46  69  98 137 173 227 279 330 402
#     4   9  20  39  66  93 133 181 211 265 334 398
#     4  12  24  45  72  96 135 180 224 279 333 395
#     4  11  24  38  68 105 128 173 221 273 333 390
#     4  10  20  39  62  98 135 165 219 265 324 399
#     4  10  22  43  67  94 136 176 220 272 336 395
#
# _framework density 22.941686000000001
#
# number of rings (size 3 to 8) (size 9 to 14) (size 15 to 20)
#    0.000    1.429    2.857    1.714    0.000    7.429 
#    2.571    7.143    0.000    0.000    0.000    0.000 
#    0.000    0.000    0.000    0.000    0.000    0.000 
#
# Total GULP energy -77952.247380 kJ/mol
# GULP energy per Si atom -5568.017670 kJ/mol
# Density = 2.288947 g / cm^3
# Si number density = 22.941686 Si / 1000 Ang^3
#
#
#
# Elastic Constant Matrix: (Units=GPa)
#
#
# Indices 1 2 3 4 5 6 
#
# 1 98.0778 26.4217 6.3561 5.8393 0.2944 24.5492
# 2 26.4217 89.8578 9.3242 11.2135 -6.7193 23.0875
# 3 6.3561 9.3242 77.1640 11.6082 -1.1512 -9.7438
# 4 5.8393 11.2135 11.6082 27.2653 -10.8594 -1.9359
# 5 0.2944 -6.7193 -1.1512 -10.8594 31.9135 8.1799
# 6 24.5492 23.0875 -9.7438 -1.9359 8.1799 34.9933
#
#
#
# Elastic Compliance Matrix: (Units=1/GPa)
#
#
# Indices 1 2 3 4 5 6 
#
# 1 0.013039 -0.000856 -0.001897 -0.001715 0.001497 -0.009555
# 2 -0.000856 0.015521 -0.002611 -0.003999 0.004824 -0.011716
# 3 -0.001897 -0.002611 0.015288 -0.006093 -0.004086 0.007928
# 4 -0.001715 -0.003999 -0.006093 0.047226 0.014684 0.001325
# 5 0.001497 0.004824 -0.004086 0.014684 0.040799 -0.014095
# 6 -0.009555 -0.011716 0.007928 0.001325 -0.014095 0.048586
#
#
# Mechanical properties :
#
#
# Convention : Reuss Voigt Hill
#
# Bulk Modulus (GPa) = 30.19260 38.81151 34.50206
# Shear Modulus (GPa) = 24.72485 33.70091 29.21288
#
# Velocity S-wave (km/s) = 3.28644 3.83689 3.57228
# Velocity P-wave (km/s) = 5.25262 6.04840 5.66450
#
# Compressibility (1/GPa) = 0.03312069
#
# Stress axis : x y z
#
# Youngs Moduli (GPa) = 76.69354 64.42783 65.41082
#
# Poissons Ratio (x) = 0.05515 0.12407
# Poissons Ratio (y) = 0.06565 0.17078
# Poissons Ratio (z) = 0.14548 0.16821
#
# Static dielectric constant tensor:
#      x y z
#    x 1.800120 0.009600 -0.042420 
#    y 0.009600 2.057160 -0.154050 
#    z -0.042420 -0.154050 2.077720 
# 
# From -- ./inp_files/49378.got.cif
#   From: 2010.05.17/outbox.cif.g08.bks.cpg/sg2_25_cif.got.tgz:49378.got - 2010.06.03 11:33:40.
