data_PCOD9104985
_publ_section_title
;
Structure prediction by ZEFSAII (Michael W. Deem and Ramdas Pophale) SiO2 
 PCOD9104985
Probable space group: P -1
;
_chemical_formula_sum "Si O2"
_cell_formula_units_Z 16
_cell_length_a 17.269599
_cell_length_b 9.338709
_cell_length_c 5.886396
_cell_angle_alpha 56.516029
_cell_angle_beta 95.070286
_cell_angle_gamma 119.598602
_cell_volume 665.901638
_symmetry_space_group_name_H-M "P -1"
_symmetry_group_IT_number 2
_symmetry_cell_setting 'triclinic'
loop_
_space_group_symop_operation_xyz
x,y,z
-x,-y,-z
loop_
_atom_site_type_symbol
_atom_site_label
_atom_site_fract_x
_atom_site_fract_y
_atom_site_fract_z
Si Si1 0.693411 0.791695 0.786852
Si Si2 0.955534 0.904134 0.326499
Si Si3 0.035078 0.664550 0.559921
Si Si4 0.180267 0.003084 0.981579
Si Si5 0.482290 0.222405 0.238890
Si Si6 0.317474 0.574349 0.118986
Si Si7 0.798743 0.232064 0.187512
Si Si8 0.428935 0.837369 0.301439
O O1 0.585453 0.699165 0.867606
O O2 0.716732 0.654268 0.761038
O O3 0.738146 0.015949 0.492222
O O4 0.732325 0.817153 0.027932
O O5 0.866907 0.918837 0.267265
O O6 0.949157 0.691907 0.545939
O O7 0.000000 0.000000 0.500000
O O8 0.000000 0.000000 0.000000
O O9 0.096614 0.648086 0.786337
O O10 0.000000 0.500000 0.500000
O O11 0.110288 0.878791 0.277073
O O12 0.197027 0.844938 0.995125
O O13 0.514453 0.242980 0.487784
O O14 0.421036 0.984165 0.350787
O O15 0.578402 0.316896 0.049331
O O16 0.338677 0.659349 0.309007
O O17 0.252728 0.646208 0.933287
O O18 0.500000 0.000000 0.000000
#
# Coordination Sequence:
#
# PCOD9104985 Si02
#       8
#     2   2   2   2   2   2   2   2
#     4  11  24  40  62  93 128 172 217 274 332 398
#     4  10  20  42  70  97 133 178 225 273 343 417
#     4  10  23  42  66  97 126 170 222 273 337 413
#     4  10  23  43  63  91 133 172 211 275 338 404
#     4  10  20  39  63  86 127 171 216 273 330 390
#     4  11  24  39  63  94 124 168 226 268 329 401
#     4  11  23  43  61  92 135 165 214 272 338 398
#     4   9  18  34  59  87 114 159 208 263 324 385
#
# _framework density 24.027570999999998
#
# number of rings (size 3 to 8) (size 9 to 14) (size 15 to 20)
#    0.000    1.750    1.250    3.375    1.750    4.000 
#    2.250    0.000    0.000    0.000    0.000    0.000 
#    0.000    0.000    0.000    0.000    0.000    0.000 
#
# Total GULP energy -89182.533161 kJ/mol
# GULP energy per Si atom -5573.908323 kJ/mol
# Density = 2.397288 g / cm^3
# Si number density = 24.027571 Si / 1000 Ang^3
#
#
#
# Elastic Constant Matrix: (Units=GPa)
#
#
# Indices 1 2 3 4 5 6 
#
# 1 134.6256 50.9252 49.8204 -13.6710 41.4770 -10.9986
# 2 50.9252 129.8338 33.5226 14.4137 40.0528 -5.1565
# 3 49.8204 33.5226 75.2409 16.4668 23.3426 12.8515
# 4 -13.6710 14.4137 16.4668 33.8042 2.6989 9.8235
# 5 41.4770 40.0528 23.3426 2.6989 50.1213 -2.9629
# 6 -10.9986 -5.1565 12.8515 9.8235 -2.9629 40.5920
#
#
#
# Elastic Compliance Matrix: (Units=1/GPa)
#
#
# Indices 1 2 3 4 5 6 
#
# 1 0.015970 -0.002691 -0.010700 0.012190 -0.006505 0.003948
# 2 -0.002691 0.011557 -0.000418 -0.005830 -0.006392 0.001816
# 3 -0.010700 -0.000418 0.025803 -0.014232 -0.002527 -0.007862
# 4 0.012190 -0.005830 -0.014232 0.045204 -0.001471 -0.003979
# 5 -0.006505 -0.006392 -0.002527 -0.001471 0.031752 0.000899
# 6 0.003948 0.001816 -0.007862 -0.003979 0.000899 0.029453
#
#
# Mechanical properties :
#
#
# Convention : Reuss Voigt Hill
#
# Bulk Modulus (GPa) = 38.89177 67.58185 53.23681
# Shear Modulus (GPa) = 25.51944 38.59898 32.05921
#
# Velocity S-wave (km/s) = 3.26251 4.01240 3.65673
# Velocity P-wave (km/s) = 5.51483 7.04653 6.32720
#
# Compressibility (1/GPa) = 0.02571238
#
# Stress axis : x y z
#
# Youngs Moduli (GPa) = 62.61642 86.52780 38.75483
#
# Poissons Ratio (x) = 0.23286 0.41466
# Poissons Ratio (y) = 0.16851 0.01621
# Poissons Ratio (z) = 0.66997 0.03619
#
# Static dielectric constant tensor:
#      x y z
#    x 1.988360 -0.031350 -0.026820 
#    y -0.031350 2.214790 -0.050700 
#    z -0.026820 -0.050700 2.007280 
# 
# From -- ./inp_files/106305.got.cif
#   From: 2010.05.17/outbox.cif.g08.bks.cpg/sg2_54_cif.got.tgz:106305.got - 2010.06.03 11:33:40.
