data_PCOD9104455
_publ_section_title
;
Structure prediction by ZEFSAII (Michael W. Deem and Ramdas Pophale) SiO2 
 PCOD9104455
Probable space group: P -1
;
_chemical_formula_sum "Si O2"
_cell_formula_units_Z 16
_cell_length_a 12.109836
_cell_length_b 7.707473
_cell_length_c 29.753767
_cell_angle_alpha 64.711765
_cell_angle_beta 19.062823
_cell_angle_gamma 73.869108
_cell_volume 741.811752
_symmetry_space_group_name_H-M "P -1"
_symmetry_group_IT_number 2
_symmetry_cell_setting 'triclinic'
loop_
_space_group_symop_operation_xyz
x,y,z
-x,-y,-z
loop_
_atom_site_type_symbol
_atom_site_label
_atom_site_fract_x
_atom_site_fract_y
_atom_site_fract_z
Si Si1 0.473338 0.062161 0.271620
Si Si2 0.605727 0.480133 0.910011
Si Si3 0.038758 0.779731 0.011044
Si Si4 0.839544 0.165240 0.210980
Si Si5 0.260933 0.083424 0.207102
Si Si6 0.189590 0.156007 0.513580
Si Si7 0.177262 0.833202 0.095684
Si Si8 0.531965 0.615131 0.299252
O O1 0.463021 0.826339 0.304265
O O2 0.112375 0.017695 0.384720
O O3 0.826962 0.232098 0.089169
O O4 0.558791 0.142791 0.280425
O O5 0.852394 0.720295 0.774284
O O6 0.768802 0.306141 0.869765
O O7 0.500000 0.500000 0.000000
O O8 0.219236 0.379321 0.042267
O O9 0.383368 0.832263 0.905903
O O10 0.674110 0.609941 0.194373
O O11 0.000000 0.000000 0.000000
O O12 0.588059 0.150571 0.352665
O O13 0.996689 0.987718 0.164617
O O14 0.439450 0.055589 0.093955
O O15 0.954712 0.893376 0.374310
O O16 0.232715 0.388501 0.455824
O O17 0.877447 0.671809 0.194320
#
# Coordination Sequence:
#
# PCOD9104455 Si02
#       8
#     2   2   2   2   2   2   2   2
#     4   9  19  33  52  80 114 145 177 218 264 318
#     4  10  20  39  61  78 100 142 190 229 265 318
#     4   8  14  29  52  76 103 139 182 216 249 309
#     4  11  21  35  56  83 110 139 176 226 279 319
#     4   9  19  35  55  79 107 142 185 219 257 324
#     4  11  20  34  53  83 118 146 172 215 269 327
#     4   9  19  38  59  80 104 139 186 231 265 309
#     4   9  17  33  57  81 107 148 186 212 258 326
#
# _framework density 21.568814
#
# number of rings (size 3 to 8) (size 9 to 14) (size 15 to 20)
#    0.000    2.500    0.000    4.125    0.000    0.000 
#    0.000   15.625    0.000    0.000    0.000    0.000 
#    0.000    0.000    0.000    0.000    0.000    0.000 
#
# Total GULP energy -89091.803284 kJ/mol
# GULP energy per Si atom -5568.237705 kJ/mol
# Density = 2.151972 g / cm^3
# Si number density = 21.568814 Si / 1000 Ang^3
#
#
#
# Elastic Constant Matrix: (Units=GPa)
#
#
# Indices 1 2 3 4 5 6 
#
# 1 44.8717 8.9185 13.7796 -8.1347 1.8711 -6.5665
# 2 8.9185 99.5181 20.9622 -4.2592 13.5906 -14.7093
# 3 13.7796 20.9622 71.4892 -16.5155 17.7838 -7.5859
# 4 -8.1347 -4.2592 -16.5155 32.7878 -6.6870 2.7244
# 5 1.8711 13.5906 17.7838 -6.6870 33.2507 -11.0088
# 6 -6.5665 -14.7093 -7.5859 2.7244 -11.0088 23.5446
#
#
#
# Elastic Compliance Matrix: (Units=1/GPa)
#
#
# Indices 1 2 3 4 5 6 
#
# 1 0.025268 -0.000824 -0.003910 0.004477 0.004118 0.006680
# 2 -0.000824 0.011655 -0.002403 -0.000717 -0.001740 0.005547
# 3 -0.003910 -0.002403 0.018842 0.006688 -0.007850 -0.000965
# 4 0.004477 -0.000717 0.006688 0.035615 0.003834 0.000628
# 5 0.004118 -0.001740 -0.007850 0.003834 0.040890 0.016208
# 6 0.006680 0.005547 -0.000965 0.000628 0.016208 0.054996
#
#
# Mechanical properties :
#
#
# Convention : Reuss Voigt Hill
#
# Bulk Modulus (GPa) = 24.10191 33.68884 28.89537
# Shear Modulus (GPa) = 23.21591 29.39785 26.30688
#
# Velocity S-wave (km/s) = 3.28436 3.69586 3.49617
# Velocity P-wave (km/s) = 5.05780 5.81942 5.45193
#
# Compressibility (1/GPa) = 0.04149050
#
# Stress axis : x y z
#
# Youngs Moduli (GPa) = 39.57610 85.79854 53.07392
#
# Poissons Ratio (x) = 0.07072 0.20752
# Poissons Ratio (y) = 0.03262 0.12753
# Poissons Ratio (z) = 0.15474 0.20616
#
# Static dielectric constant tensor:
#      x y z
#    x 1.785600 0.069320 0.010910 
#    y 0.069320 1.377400 -0.036230 
#    z 0.010910 -0.036230 1.834750 
# 
# From -- ./inp_files/200321.got.cif
#   From: 2010.05.17/outbox.cif.g08.bks.cpg/sg2_101_cif.got.tgz:200321.got - 2010.06.03 11:33:40.
