data_PCOD9104403
_publ_section_title
;
Structure prediction by ZEFSAII (Michael W. Deem and Ramdas Pophale) SiO2 
 PCOD9104403
Probable space group: P -1
;
_chemical_formula_sum "Si O2"
_cell_formula_units_Z 16
_cell_length_a 14.427665
_cell_length_b 14.084503
_cell_length_c 10.893973
_cell_angle_alpha 149.756074
_cell_angle_beta 130.944654
_cell_angle_gamma 63.841275
_cell_volume 795.252240
_symmetry_space_group_name_H-M "P -1"
_symmetry_group_IT_number 2
_symmetry_cell_setting 'triclinic'
loop_
_space_group_symop_operation_xyz
x,y,z
-x,-y,-z
loop_
_atom_site_type_symbol
_atom_site_label
_atom_site_fract_x
_atom_site_fract_y
_atom_site_fract_z
Si Si1 0.573502 0.901116 0.858923
Si Si2 0.296023 0.890686 0.265762
Si Si3 0.565396 0.151335 0.907034
Si Si4 0.072777 0.082483 0.281199
Si Si5 0.064905 0.513611 0.707824
Si Si6 0.547424 0.540295 0.727559
Si Si7 0.998967 0.188487 0.854874
Si Si8 0.215318 0.144973 0.823943
O O1 0.479579 0.681231 0.491928
O O2 0.615010 0.048090 0.945412
O O3 0.693194 0.877427 0.011706
O O4 0.500000 0.000000 0.000000
O O5 0.341900 0.832433 0.109693
O O6 0.423943 0.002090 0.577931
O O7 0.207723 0.034085 0.339038
O O8 0.203440 0.686400 0.013868
O O9 0.539085 0.349572 0.153047
O O10 0.081543 0.311160 0.543100
O O11 0.994852 0.960174 0.194053
O O12 0.000000 0.000000 0.000000
O O13 0.000000 0.500000 0.500000
O O14 0.986960 0.602686 0.836214
O O15 0.500000 0.500000 0.500000
O O16 0.693812 0.694165 0.012536
O O17 0.103254 0.211054 0.864021
O O18 0.857749 0.067418 0.539853
#
# Coordination Sequence:
#
# PCOD9104403 Si02
#       8
#     2   2   2   2   2   2   2   2
#     4  11  23  39  64  90 122 166 207 245 307 362
#     4  10  25  41  64  91 129 159 202 258 305 365
#     4  11  23  43  62  93 126 164 201 253 309 362
#     4  11  22  42  61  91 121 162 205 250 306 360
#     4  11  22  40  66  92 121 163 206 252 309 361
#     4  10  20  39  60  92 120 161 204 248 299 360
#     4  10  23  43  62  92 129 158 205 256 305 364
#     4  10  22  43  62  91 129 163 199 258 304 361
#
# _framework density 20.119402999999998
#
# number of rings (size 3 to 8) (size 9 to 14) (size 15 to 20)
#    0.000    1.500    5.000    1.500    1.750    5.000 
#    2.250    3.750    0.000    0.000    0.000    0.000 
#    0.000    0.000    0.000    0.000    0.000    0.000 
#
# Total GULP energy -89331.853717 kJ/mol
# GULP energy per Si atom -5583.240857 kJ/mol
# Density = 2.007361 g / cm^3
# Si number density = 20.119403 Si / 1000 Ang^3
#
#
#
# Elastic Constant Matrix: (Units=GPa)
#
#
# Indices 1 2 3 4 5 6 
#
# 1 66.8565 13.7630 27.7642 16.4442 -18.8518 -12.3235
# 2 13.7630 83.3338 34.9646 29.8088 -1.0497 -4.1704
# 3 27.7642 34.9646 76.3381 20.5251 -20.5710 -15.5258
# 4 16.4442 29.8088 20.5251 46.0690 -7.5876 -9.3908
# 5 -18.8518 -1.0497 -20.5710 -7.5876 33.1515 -1.6624
# 6 -12.3235 -4.1704 -15.5258 -9.3908 -1.6624 20.8297
#
#
#
# Elastic Compliance Matrix: (Units=1/GPa)
#
#
# Indices 1 2 3 4 5 6 
#
# 1 0.021712 -0.001799 -0.000974 -0.001768 0.011877 0.011910
# 2 -0.001799 0.020116 -0.010315 -0.011616 -0.009984 -0.010759
# 3 -0.000974 -0.010315 0.025973 0.002062 0.016659 0.018977
# 4 -0.001768 -0.011616 0.002062 0.033078 0.008166 0.013730
# 5 0.011877 -0.009984 0.016659 0.008166 0.050069 0.025123
# 6 0.011910 -0.010759 0.018977 0.013730 0.025123 0.075240
#
#
# Mechanical properties :
#
#
# Convention : Reuss Voigt Hill
#
# Bulk Modulus (GPa) = 24.02475 42.16800 33.09637
# Shear Modulus (GPa) = 18.78019 30.01248 24.39634
#
# Velocity S-wave (km/s) = 3.05853 3.86647 3.48599
# Velocity P-wave (km/s) = 4.94367 6.39821 5.71738
#
# Compressibility (1/GPa) = 0.04162375
#
# Stress axis : x y z
#
# Youngs Moduli (GPa) = 46.05826 49.71273 38.50213
#
# Poissons Ratio (x) = 0.08943 0.03752
# Poissons Ratio (y) = 0.08286 0.39714
# Poissons Ratio (z) = 0.04488 0.51277
#
# Static dielectric constant tensor:
#      x y z
#    x 1.750450 -0.023690 0.000070 
#    y -0.023690 1.675290 0.020690 
#    z 0.000070 0.020690 1.734770 
# 
# From -- ./inp_files/456071.got.cif
#   From: 2010.05.17/outbox.cif.g08.bks.cpg/sg2_229_cif.got.tgz:456071.got - 2010.06.03 11:33:40.
