data_PCOD9104038
_publ_section_title
;
Structure prediction by ZEFSAII (Michael W. Deem and Ramdas Pophale) SiO2 
 PCOD9104038
Probable space group: P -1
;
_chemical_formula_sum "Si O2"
_cell_formula_units_Z 16
_cell_length_a 13.228029
_cell_length_b 11.869491
_cell_length_c 10.175698
_cell_angle_alpha 143.204167
_cell_angle_beta 127.195919
_cell_angle_gamma 78.947772
_cell_volume 602.363990
_symmetry_space_group_name_H-M "P -1"
_symmetry_group_IT_number 2
_symmetry_cell_setting 'triclinic'
loop_
_space_group_symop_operation_xyz
x,y,z
-x,-y,-z
loop_
_atom_site_type_symbol
_atom_site_label
_atom_site_fract_x
_atom_site_fract_y
_atom_site_fract_z
Si Si1 0.583341 0.889753 0.603111
Si Si2 0.293036 0.543575 0.210603
Si Si3 0.959095 0.182641 0.124930
Si Si4 0.105132 0.909029 0.292152
Si Si5 0.511495 0.760917 0.147371
Si Si6 0.559324 0.666161 0.828786
Si Si7 0.794085 0.191610 0.463072
Si Si8 0.948684 0.694481 0.418433
O O1 0.480225 0.734242 0.501231
O O2 0.499527 0.702842 0.238664
O O3 0.553775 0.086625 0.762086
O O4 0.772040 0.028466 0.873921
O O5 0.277528 0.307432 0.992919
O O6 0.242261 0.624667 0.366428
O O7 0.192859 0.516302 0.979545
O O8 0.065841 0.368328 0.498309
O O9 0.977667 0.258067 0.058432
O O10 0.000000 0.000000 0.000000
O O11 0.094755 0.792245 0.314445
O O12 0.295805 0.066536 0.559576
O O13 0.054232 0.081822 0.400525
O O14 0.457353 0.599567 0.822203
O O15 0.500000 0.500000 0.500000
O O16 0.624909 0.931034 0.094532
O O17 0.885308 0.228380 0.437234
#
# Coordination Sequence:
#
# PCOD9104038 Si02
#       8
#     2   2   2   2   2   2   2   2
#     4  10  20  38  74  92 128 177 215 273 340 382
#     4  12  24  41  69  98 129 179 226 268 333 404
#     4   9  21  39  64  99 132 168 218 277 332 393
#     4   9  17  40  65  87 129 172 219 271 327 384
#     4   9  18  41  64  95 127 171 217 274 330 393
#     4  11  25  42  62  98 136 167 226 278 328 395
#     4  11  23  43  67  92 136 180 219 277 331 393
#     4  11  22  40  65  97 135 179 223 266 335 403
#
# _framework density 26.562013
#
# number of rings (size 3 to 8) (size 9 to 14) (size 15 to 20)
#    0.000    1.750    5.000    0.750    1.750    2.000 
#    0.000    0.625    0.000    0.000    0.000    0.000 
#    0.000    0.000    0.000    0.000    0.000    0.000 
#
# Total GULP energy -89427.730393 kJ/mol
# GULP energy per Si atom -5589.233150 kJ/mol
# Density = 2.650156 g / cm^3
# Si number density = 26.562013 Si / 1000 Ang^3
#
#
#
# Elastic Constant Matrix: (Units=GPa)
#
#
# Indices 1 2 3 4 5 6 
#
# 1 146.3564 38.0087 34.9394 2.8185 -28.4381 -26.5625
# 2 38.0087 73.7530 8.5290 -9.1521 -19.7722 -0.8000
# 3 34.9394 8.5290 73.6669 -22.2971 -37.7256 4.5671
# 4 2.8185 -9.1521 -22.2971 39.4017 15.5575 -17.8266
# 5 -28.4381 -19.7722 -37.7256 15.5575 48.7371 0.2414
# 6 -26.5625 -0.8000 4.5671 -17.8266 0.2414 55.0745
#
#
#
# Elastic Compliance Matrix: (Units=1/GPa)
#
#
# Indices 1 2 3 4 5 6 
#
# 1 0.010334 -0.004762 -0.004927 -0.003204 0.001286 0.004281
# 2 -0.004762 0.017825 0.005158 0.004032 0.007164 -0.001192
# 3 -0.004927 0.005158 0.027035 0.009351 0.017167 -0.001592
# 4 -0.003204 0.004032 0.009351 0.038595 -0.005367 0.010254
# 5 0.001286 0.007164 0.017167 -0.005367 0.039190 -0.002608
# 6 0.004281 -0.001192 -0.001592 0.010254 -0.002608 0.023667
#
#
# Mechanical properties :
#
#
# Convention : Reuss Voigt Hill
#
# Bulk Modulus (GPa) = 21.67737 50.74781 36.21259
# Shear Modulus (GPa) = 27.61156 42.79596 35.20376
#
# Velocity S-wave (km/s) = 3.22765 4.01829 3.64447
# Velocity P-wave (km/s) = 4.69777 6.37776 5.60111
#
# Compressibility (1/GPa) = 0.04613105
#
# Stress axis : x y z
#
# Youngs Moduli (GPa) = 96.76762 56.10251 36.98973
#
# Poissons Ratio (x) = 0.26718 0.18224
# Poissons Ratio (y) = 0.46084 -0.19079
# Poissons Ratio (z) = 0.47674 -0.28938
#
# Static dielectric constant tensor:
#      x y z
#    x 2.027570 0.002980 -0.074750 
#    y 0.002980 2.218740 -0.049670 
#    z -0.074750 -0.049670 2.194790 
# 
# From -- ./inp_files/455278.got.cif
#   From: 2010.05.17/outbox.cif.g08.bks.cpg/sg2_228_cif.got.tgz:455278.got - 2010.06.03 11:33:40.
