data_PCOD9104037
_publ_section_title
;
Structure prediction by ZEFSAII (Michael W. Deem and Ramdas Pophale) SiO2 
 PCOD9104037
Probable space group: P -1
;
_chemical_formula_sum "Si O2"
_cell_formula_units_Z 12
_cell_length_a 5.153738
_cell_length_b 16.243051
_cell_length_c 8.563182
_cell_angle_alpha 122.196848
_cell_angle_beta 123.675025
_cell_angle_gamma 85.788217
_cell_volume 479.078353
_symmetry_space_group_name_H-M "P -1"
_symmetry_group_IT_number 2
_symmetry_cell_setting 'triclinic'
loop_
_space_group_symop_operation_xyz
x,y,z
-x,-y,-z
loop_
_atom_site_type_symbol
_atom_site_label
_atom_site_fract_x
_atom_site_fract_y
_atom_site_fract_z
Si Si1 0.871585 0.590026 0.107210
Si Si2 0.352748 0.729147 0.635103
Si Si3 0.889285 0.029618 0.662884
Si Si4 0.268961 0.600446 0.757351
Si Si5 0.834780 0.839457 0.626902
Si Si6 0.814963 0.242240 0.873288
O O1 0.046171 0.636408 0.370296
O O2 0.021564 0.687003 0.143467
O O3 0.487401 0.564479 0.921179
O O4 0.000000 0.500000 0.000000
O O5 0.466384 0.666252 0.743967
O O6 0.614485 0.788695 0.652101
O O7 0.160144 0.806124 0.704192
O O8 0.972867 0.150321 0.844193
O O9 0.500000 0.000000 0.500000
O O10 0.961549 0.961335 0.757043
O O11 0.000000 0.000000 0.500000
O O12 0.000000 0.500000 0.500000
O O13 0.149644 0.684993 0.892573
O O14 0.575682 0.798728 0.352748
#
# Coordination Sequence:
#
# PCOD9104037 Si02
#       6
#     2   2   2   2   2   2
#     4  11  25  45  71  98 139 194 246 299 362 433
#     4  11  25  44  71 101 149 182 240 297 360 426
#     4  10  20  38  74 110 139 184 241 292 357 432
#     4  12  28  44  70 105 146 191 247 304 364 424
#     4  10  21  44  69 105 139 188 234 294 357 434
#     4  10  23  41  70 102 143 185 240 297 356 433
#
# _framework density 25.048093999999999
#
# number of rings (size 3 to 8) (size 9 to 14) (size 15 to 20)
#    0.000    1.333    1.667    4.000    9.333    2.667 
#    0.000    1.667    0.000    0.000    0.000    0.000 
#    0.000    0.000    0.000    0.000    0.000    0.000 
#
# Total GULP energy -67068.887050 kJ/mol
# GULP energy per Si atom -5589.073921 kJ/mol
# Density = 2.499108 g / cm^3
# Si number density = 25.048094 Si / 1000 Ang^3
#
#
#
# Elastic Constant Matrix: (Units=GPa)
#
#
# Indices 1 2 3 4 5 6 
#
# 1 137.7259 55.7891 14.6443 4.1233 -12.2430 -0.7878
# 2 55.7891 185.0877 47.1021 10.6045 -14.7590 -7.5097
# 3 14.6443 47.1021 92.2425 8.4868 -10.1707 -0.7730
# 4 4.1233 10.6045 8.4868 49.5684 -1.9237 2.2489
# 5 -12.2430 -14.7590 -10.1707 -1.9237 30.5250 1.1887
# 6 -0.7878 -7.5097 -0.7730 2.2489 1.1887 52.7738
#
#
#
# Elastic Compliance Matrix: (Units=1/GPa)
#
#
# Indices 1 2 3 4 5 6 
#
# 1 0.008420 -0.002398 0.000146 -0.000113 0.002269 -0.000260
# 2 -0.002398 0.007083 -0.003004 -0.000790 0.001376 0.000931
# 3 0.000146 -0.003004 0.012789 -0.001440 0.002786 -0.000239
# 4 -0.000113 -0.000790 -0.001440 0.020663 0.000435 -0.001026
# 5 0.002269 0.001376 0.002786 0.000435 0.035312 -0.000543
# 6 -0.000260 0.000931 -0.000239 -0.001026 -0.000543 0.019130
#
#
# Mechanical properties :
#
#
# Convention : Reuss Voigt Hill
#
# Bulk Modulus (GPa) = 56.24042 72.23634 64.23838
# Shear Modulus (GPa) = 41.72359 46.40814 44.06586
#
# Velocity S-wave (km/s) = 4.08577 4.30904 4.19889
# Velocity P-wave (km/s) = 6.69028 7.32522 7.01493
#
# Compressibility (1/GPa) = 0.01778080
#
# Stress axis : x y z
#
# Youngs Moduli (GPa) = 118.75911 141.18389 78.19027
#
# Poissons Ratio (x) = 0.33862 -0.01144
# Poissons Ratio (y) = 0.28484 0.23487
# Poissons Ratio (z) = -0.01738 0.42409
#
# Static dielectric constant tensor:
#      x y z
#    x 2.187430 0.254760 0.091550 
#    y 0.254760 2.100190 -0.043870 
#    z 0.091550 -0.043870 2.030910 
# 
# From -- ./inp_files/134168.got.cif
#   From: 2010.05.17/outbox.cif.g08.bks.cpg/sg2_68_cif.got.tgz:134168.got - 2010.06.03 11:33:40.
