data_PCOD9104597
_publ_section_title
;
Structure prediction by ZEFSAII (Michael W. Deem and Ramdas Pophale) SiO2 
 PCOD9104597
Probable space group: P -1
;
_chemical_formula_sum "Si O2"
_cell_formula_units_Z 16
_cell_length_a 30.714875
_cell_length_b 9.407535
_cell_length_c 11.592403
_cell_angle_alpha 135.767344
_cell_angle_beta 24.953908
_cell_angle_gamma 150.687522
_cell_volume 645.860348
_symmetry_space_group_name_H-M "P -1"
_symmetry_group_IT_number 2
_symmetry_cell_setting 'triclinic'
loop_
_space_group_symop_operation_xyz
x,y,z
-x,-y,-z
loop_
_atom_site_type_symbol
_atom_site_label
_atom_site_fract_x
_atom_site_fract_y
_atom_site_fract_z
Si Si1 0.767317 0.874657 0.397669
Si Si2 0.030771 0.193376 0.429630
Si Si3 0.263571 0.778686 0.542621
Si Si4 0.292973 0.851864 0.111608
Si Si5 0.490343 0.440134 0.352591
Si Si6 0.752268 0.891840 0.805408
Si Si7 0.003015 0.472086 0.825238
Si Si8 0.648822 0.427493 0.608282
O O1 0.647173 0.667664 0.459786
O O2 0.755818 0.661910 0.382227
O O3 0.722021 0.005424 0.663561
O O4 0.935601 0.204975 0.140965
O O5 0.206854 0.511087 0.152374
O O6 0.974820 0.334376 0.689811
O O7 0.000000 0.000000 0.500000
O O8 0.907981 0.985242 0.500286
O O9 0.148426 0.563471 0.587142
O O10 0.287098 0.649790 0.508156
O O11 0.431748 0.117396 0.298546
O O12 0.152977 0.783023 0.873445
O O13 0.218114 0.848922 0.177248
O O14 0.477210 0.103200 0.790869
O O15 0.500000 0.500000 0.500000
O O16 0.652012 0.733990 0.071679
O O17 0.638244 0.607417 0.822398
#
# Coordination Sequence:
#
# PCOD9104597 Si02
#       8
#     2   2   2   2   2   2   2   2
#     4   9  18  38  63  86 114 160 199 246 297 361
#     4  11  23  36  60  93 122 155 199 251 300 355
#     4  10  22  36  59  85 116 163 201 245 293 361
#     4  10  20  39  61  90 125 156 195 251 303 357
#     4  11  21  36  58  82 118 164 197 238 308 355
#     4  11  21  38  62  89 122 159 198 249 304 354
#     4   9  20  41  56  81 126 159 197 240 304 357
#     4  11  20  37  65  93 116 150 211 250 294 352
#
# _framework density 24.773157999999999
#
# number of rings (size 3 to 8) (size 9 to 14) (size 15 to 20)
#    0.000    1.750    2.500    2.625    1.750    1.000 
#    0.000    0.625    0.000    0.000    0.000    0.000 
#    0.000    0.000    0.000    0.000    0.000    0.000 
#
# Total GULP energy -89254.490642 kJ/mol
# GULP energy per Si atom -5578.405665 kJ/mol
# Density = 2.471677 g / cm^3
# Si number density = 24.773158 Si / 1000 Ang^3
#
#
#
# Elastic Constant Matrix: (Units=GPa)
#
#
# Indices 1 2 3 4 5 6 
#
# 1 165.3721 47.9434 15.2621 -13.6907 3.7578 -37.5748
# 2 47.9434 84.2377 22.8088 -36.9789 -6.5753 -20.6438
# 3 15.2621 22.8088 35.2089 -23.4098 6.2219 -7.2879
# 4 -13.6907 -36.9789 -23.4098 34.6363 3.5626 11.3302
# 5 3.7578 -6.5753 6.2219 3.5626 35.0311 -1.9396
# 6 -37.5748 -20.6438 -7.2879 11.3302 -1.9396 52.6827
#
#
#
# Elastic Compliance Matrix: (Units=1/GPa)
#
#
# Indices 1 2 3 4 5 6 
#
# 1 0.008551 -0.005639 -0.003149 -0.006281 -0.000513 0.004786
# 2 -0.005639 0.027055 0.003822 0.028686 0.002143 0.001018
# 3 -0.003149 0.003822 0.059390 0.045364 -0.014262 -0.002813
# 4 -0.006281 0.028686 0.045364 0.091164 -0.011658 -0.006999
# 5 -0.000513 0.002143 -0.014262 -0.011658 0.032845 0.002218
# 6 0.004786 0.001018 -0.002813 -0.006999 0.002218 0.023992
#
#
# Mechanical properties :
#
#
# Convention : Reuss Voigt Hill
#
# Bulk Modulus (GPa) = 11.75558 50.76080 31.25819
# Shear Modulus (GPa) = 17.77573 37.72367 27.74970
#
# Velocity S-wave (km/s) = 2.68160 3.90649 3.35050
# Velocity P-wave (km/s) = 3.78729 6.39393 5.25480
#
# Compressibility (1/GPa) = 0.08506602
#
# Stress axis : x y z
#
# Youngs Moduli (GPa) = 116.93960 36.96192 16.83777
#
# Poissons Ratio (x) = 0.20842 0.05302
# Poissons Ratio (y) = 0.65941 -0.06436
# Poissons Ratio (z) = 0.36823 -0.14129
#
# Static dielectric constant tensor:
#      x y z
#    x 2.015350 0.010780 0.006250 
#    y 0.010780 2.065030 0.010480 
#    z 0.006250 0.010480 2.003240 
# 
# From -- ./inp_files/298999.got.cif
#   From: 2010.05.17/outbox.cif.g08.bks.cpg/sg2_150_cif.got.tgz:298999.got - 2010.06.03 11:33:40.
