data_PCOD9104148
_publ_section_title
;
Structure prediction by ZEFSAII (Michael W. Deem and Ramdas Pophale) SiO2 
 PCOD9104148
Probable space group: P -1
;
_chemical_formula_sum "Si O2"
_cell_formula_units_Z 16
_cell_length_a 11.010512
_cell_length_b 19.166277
_cell_length_c 14.501162
_cell_angle_alpha 151.453944
_cell_angle_beta 150.010356
_cell_angle_gamma 39.004652
_cell_volume 729.251761
_symmetry_space_group_name_H-M "P -1"
_symmetry_group_IT_number 2
_symmetry_cell_setting 'triclinic'
loop_
_space_group_symop_operation_xyz
x,y,z
-x,-y,-z
loop_
_atom_site_type_symbol
_atom_site_label
_atom_site_fract_x
_atom_site_fract_y
_atom_site_fract_z
Si Si1 0.432022 0.662613 0.382320
Si Si2 0.912568 0.893193 0.490552
Si Si3 0.176737 0.664085 0.908771
Si Si4 0.804004 0.597400 0.043492
Si Si5 0.456877 0.830522 0.784340
Si Si6 0.721996 0.749633 0.348903
Si Si7 0.018171 0.214296 0.885569
Si Si8 0.876494 0.676675 0.554434
O O1 0.456553 0.758035 0.599462
O O2 0.633629 0.693713 0.476594
O O3 0.172570 0.698940 0.205087
O O4 0.435893 0.493165 0.220369
O O5 0.812161 0.765907 0.212850
O O6 0.730407 0.894801 0.459804
O O7 0.177110 0.831382 0.632496
O O8 0.953962 0.043913 0.643063
O O9 0.118654 0.493449 0.671276
O O10 0.084664 0.715364 0.806886
O O11 0.458671 0.695519 0.137932
O O12 0.037969 0.738341 0.990417
O O13 0.836995 0.626495 0.209412
O O14 0.000000 0.500000 0.000000
O O15 0.696192 0.764913 0.918812
O O16 0.500000 0.000000 0.000000
O O17 0.861487 0.765638 0.553945
#
# Coordination Sequence:
#
# PCOD9104148 Si02
#       8
#     2   2   2   2   2   2   2   2
#     4  12  20  39  68  90 118 161 211 243 306 358
#     4   9  22  41  61  85 131 159 196 253 306 354
#     4  11  21  35  61  91 123 155 205 247 304 358
#     4  10  20  39  65  86 121 167 195 250 307 353
#     4  10  22  42  61  88 128 157 200 256 297 361
#     4  10  20  39  58  86 123 157 195 247 304 355
#     4  11  23  38  66  94 115 165 206 247 303 365
#     4  11  21  36  60  93 121 158 199 257 295 360
#
# _framework density 21.940297000000001
#
# number of rings (size 3 to 8) (size 9 to 14) (size 15 to 20)
#    0.750    0.750    5.000    1.125    0.000    2.500 
#    0.000    6.250    0.000    0.000    0.000    0.000 
#    0.000    0.000    0.000    0.000    0.000    0.000 
#
# Total GULP energy -89150.830742 kJ/mol
# GULP energy per Si atom -5571.926921 kJ/mol
# Density = 2.189036 g / cm^3
# Si number density = 21.940297 Si / 1000 Ang^3
#
#
#
# Elastic Constant Matrix: (Units=GPa)
#
#
# Indices 1 2 3 4 5 6 
#
# 1 49.6586 -8.0016 7.6092 -0.0037 0.9180 1.4939
# 2 -8.0016 36.9351 24.5944 -11.5513 1.5056 -4.2321
# 3 7.6092 24.5944 94.4692 3.2032 -10.9710 7.6694
# 4 -0.0037 -11.5513 3.2032 31.7880 10.2638 -0.0584
# 5 0.9180 1.5056 -10.9710 10.2638 23.7014 -3.7988
# 6 1.4939 -4.2321 7.6694 -0.0584 -3.7988 18.0921
#
#
#
# Elastic Compliance Matrix: (Units=1/GPa)
#
#
# Indices 1 2 3 4 5 6 
#
# 1 0.023120 0.012053 -0.006283 0.007428 -0.007461 0.002031
# 2 0.012053 0.055490 -0.020492 0.029990 -0.023941 0.015742
# 3 -0.006283 -0.020492 0.019445 -0.014352 0.015261 -0.009360
# 4 0.007428 0.029990 -0.014352 0.053886 -0.031192 0.006110
# 5 -0.007461 -0.023941 0.015261 -0.031192 0.064905 0.002074
# 6 0.002031 0.015742 -0.009360 0.006110 0.002074 0.063210
#
#
# Mechanical properties :
#
#
# Convention : Reuss Voigt Hill
#
# Bulk Modulus (GPa) = 14.57539 25.49632 20.03585
# Shear Modulus (GPa) = 15.04338 25.17370 20.10854
#
# Velocity S-wave (km/s) = 2.62133 3.39096 3.03068
# Velocity P-wave (km/s) = 3.97737 5.19399 4.62585
#
# Compressibility (1/GPa) = 0.06860879
#
# Stress axis : x y z
#
# Youngs Moduli (GPa) = 43.25314 18.02128 51.42602
#
# Poissons Ratio (x) = -0.21720 0.32312
# Poissons Ratio (y) = -0.52131 1.05385
# Poissons Ratio (z) = 0.27177 0.36930
#
# Static dielectric constant tensor:
#      x y z
#    x 1.822610 -0.035310 0.036180 
#    y -0.035310 1.891020 0.004420 
#    z 0.036180 0.004420 1.813560 
# 
# From -- ./inp_files/472906.got.cif
#   From: 2010.05.17/outbox.cif.g08.bks.cpg/sg2_237_cif.got.tgz:472906.got - 2010.06.03 11:33:40.
