data_PCOD9104262
_publ_section_title
;
Structure prediction by ZEFSAII (Michael W. Deem and Ramdas Pophale) SiO2 
 PCOD9104262
Probable space group: P -1
;
_chemical_formula_sum "Si O2"
_cell_formula_units_Z 16
_cell_length_a 16.390523
_cell_length_b 7.041170
_cell_length_c 10.183086
_cell_angle_alpha 114.096176
_cell_angle_beta 113.523360
_cell_angle_gamma 117.005903
_cell_volume 664.636361
_symmetry_space_group_name_H-M "P -1"
_symmetry_group_IT_number 2
_symmetry_cell_setting 'triclinic'
loop_
_space_group_symop_operation_xyz
x,y,z
-x,-y,-z
loop_
_atom_site_type_symbol
_atom_site_label
_atom_site_fract_x
_atom_site_fract_y
_atom_site_fract_z
Si Si1 0.271974 0.358178 0.183765
Si Si2 0.390400 0.932966 0.828193
Si Si3 0.452377 0.524053 0.133172
Si Si4 0.294488 0.217379 0.691804
Si Si5 0.162110 0.441224 0.688309
Si Si6 0.944623 0.199338 0.949457
Si Si7 0.203794 0.607733 0.388746
Si Si8 0.953444 0.917745 0.234913
O O1 0.403076 0.513741 0.238141
O O2 0.275990 0.592741 0.319959
O O3 0.169831 0.205470 0.955651
O O4 0.200397 0.075894 0.159225
O O5 0.285092 0.801793 0.842975
O O6 0.272096 0.640777 0.574852
O O7 0.475775 0.182027 0.831767
O O8 0.500000 0.000000 0.000000
O O9 0.563805 0.538477 0.222247
O O10 0.339772 0.254119 0.882651
O O11 0.216656 0.296720 0.666056
O O12 0.224704 0.893665 0.497035
O O13 0.103543 0.343431 0.768985
O O14 0.035576 0.234472 0.454021
O O15 0.051567 0.330308 0.168628
O O16 0.000000 0.500000 0.000000
O O17 0.957013 0.050853 0.801118
#
# Coordination Sequence:
#
# PCOD9104262 Si02
#       8
#     2   2   2   2   2   2   2   2
#     4  11  21  44  66  90 128 169 210 257 326 385
#     4  11  20  37  60  94 127 167 210 256 314 370
#     4  10  22  40  63  90 128 174 209 261 314 378
#     4  10  20  39  59  91 129 163 212 259 305 364
#     4  11  20  37  65  96 130 165 212 265 314 380
#     4  11  23  43  64  93 128 163 212 269 320 378
#     4  10  23  38  67  93 126 171 209 260 320 381
#     4  10  21  38  64  95 127 168 208 260 325 380
#
# _framework density 24.073315999999998
#
# number of rings (size 3 to 8) (size 9 to 14) (size 15 to 20)
#    0.000    1.500    2.500    3.750    0.000    2.000 
#    6.750    1.875    0.000    6.750    0.000    0.000 
#    0.000    0.000    0.000    0.000    0.000    0.000 
#
# Total GULP energy -89076.928048 kJ/mol
# GULP energy per Si atom -5567.308003 kJ/mol
# Density = 2.401852 g / cm^3
# Si number density = 24.073316 Si / 1000 Ang^3
#
#
#
# Elastic Constant Matrix: (Units=GPa)
#
#
# Indices 1 2 3 4 5 6 
#
# 1 66.8177 31.9296 7.9022 -1.4440 -15.1951 11.9659
# 2 31.9296 172.1003 24.1015 4.5146 -15.9882 9.3889
# 3 7.9022 24.1015 54.5176 -7.2818 7.9823 -4.4269
# 4 -1.4440 4.5146 -7.2818 28.2557 -6.5959 -5.3421
# 5 -15.1951 -15.9882 7.9823 -6.5959 31.6045 -4.1384
# 6 11.9659 9.3889 -4.4269 -5.3421 -4.1384 41.9742
#
#
#
# Elastic Compliance Matrix: (Units=1/GPa)
#
#
# Indices 1 2 3 4 5 6 
#
# 1 0.019143 -0.002096 -0.003247 0.001720 0.008766 -0.004248
# 2 -0.002096 0.007095 -0.003602 -0.001723 0.002962 -0.001297
# 3 -0.003247 -0.003602 0.022524 0.005239 -0.007450 0.004039
# 4 0.001720 -0.001723 0.005239 0.040130 0.007836 0.006328
# 5 0.008766 0.002962 -0.007450 0.007836 0.041014 0.001094
# 6 -0.004248 -0.001297 0.004039 0.006328 0.001094 0.026664
#
#
# Mechanical properties :
#
#
# Convention : Reuss Voigt Hill
#
# Bulk Modulus (GPa) = 32.39095 46.81136 39.60115
# Shear Modulus (GPa) = 27.06350 35.66703 31.36527
#
# Velocity S-wave (km/s) = 3.35656 3.85333 3.61349
# Velocity P-wave (km/s) = 5.33914 6.26778 5.82200
#
# Compressibility (1/GPa) = 0.03087282
#
# Stress axis : x y z
#
# Youngs Moduli (GPa) = 52.23837 140.94595 44.39673
#
# Poissons Ratio (x) = 0.29540 0.14415
# Poissons Ratio (y) = 0.10948 0.15991
# Poissons Ratio (z) = 0.16961 0.50766
#
# Static dielectric constant tensor:
#      x y z
#    x 2.083740 -0.211350 -0.046020 
#    y -0.211350 2.385850 0.113640 
#    z -0.046020 0.113640 1.979630 
# 
# From -- ./inp_files/329320.got.cif
#   From: 2010.05.17/outbox.cif.g08.bks.cpg/sg2_165_cif.got.tgz:329320.got - 2010.06.03 11:33:40.
