data_PCOD9104869
_publ_section_title
;
Structure prediction by ZEFSAII (Michael W. Deem and Ramdas Pophale) SiO2 
 PCOD9104869
Probable space group: P -1
;
_chemical_formula_sum "Si O2"
_cell_formula_units_Z 16
_cell_length_a 11.726608
_cell_length_b 12.054214
_cell_length_c 9.025165
_cell_angle_alpha 122.017049
_cell_angle_beta 130.946234
_cell_angle_gamma 48.767407
_cell_volume 713.756372
_symmetry_space_group_name_H-M "P -1"
_symmetry_group_IT_number 2
_symmetry_cell_setting 'triclinic'
loop_
_space_group_symop_operation_xyz
x,y,z
-x,-y,-z
loop_
_atom_site_type_symbol
_atom_site_label
_atom_site_fract_x
_atom_site_fract_y
_atom_site_fract_z
Si Si1 0.928681 0.951838 0.265011
Si Si2 0.451912 0.324872 0.766818
Si Si3 0.464608 0.888844 0.047179
Si Si4 0.995464 0.440567 0.116815
Si Si5 0.915892 0.910585 0.705757
Si Si6 0.314977 0.152244 0.322270
Si Si7 0.148923 0.234637 0.741595
Si Si8 0.768604 0.362936 0.056139
O O1 0.027879 0.968238 0.217757
O O2 0.946238 0.794876 0.222014
O O3 0.720759 0.056839 0.148549
O O4 0.000000 0.000000 0.500000
O O5 0.506371 0.245346 0.915462
O O6 0.398247 0.223225 0.552229
O O7 0.306494 0.494368 0.795911
O O8 0.616443 0.332625 0.852549
O O9 0.651226 0.824830 0.083096
O O10 0.438532 0.030470 0.224020
O O11 0.944186 0.594696 0.270826
O O12 0.847892 0.401803 0.009876
O O13 0.168905 0.297548 0.216878
O O14 0.000000 0.500000 0.000000
O O15 0.087652 0.776324 0.828608
O O16 0.770938 0.932269 0.718310
O O17 0.858857 0.857926 0.471519
#
# Coordination Sequence:
#
# PCOD9104869 Si02
#       8
#     2   2   2   2   2   2   2   2
#     4  10  23  40  60  94 125 169 211 256 310 375
#     4  11  21  39  66  97 127 162 213 266 313 373
#     4  12  22  41  63  94 131 165 207 265 313 377
#     4  11  23  43  62  90 125 170 211 257 316 377
#     4  10  20  39  62  93 123 166 208 260 309 376
#     4  11  24  40  65  96 129 164 209 261 323 371
#     4  11  22  40  65  89 127 169 214 252 315 378
#     4  10  21  40  66  93 125 166 214 262 314 366
#
# _framework density 22.416612000000001
#
# number of rings (size 3 to 8) (size 9 to 14) (size 15 to 20)
#    0.000    1.250    3.750    2.250    0.000    2.500 
#    2.250    1.875    0.000    0.000    0.000    0.000 
#    0.000    0.000    0.000    0.000    0.000    0.000 
#
# Total GULP energy -89386.673906 kJ/mol
# GULP energy per Si atom -5586.667119 kJ/mol
# Density = 2.236559 g / cm^3
# Si number density = 22.416612 Si / 1000 Ang^3
#
#
#
# Elastic Constant Matrix: (Units=GPa)
#
#
# Indices 1 2 3 4 5 6 
#
# 1 143.5689 61.9962 30.6694 -5.4273 14.5513 35.3720
# 2 61.9962 91.4903 4.3805 1.3368 1.3346 16.7266
# 3 30.6694 4.3805 92.4438 -7.0780 8.5646 1.6024
# 4 -5.4273 1.3368 -7.0780 26.1287 8.8198 -1.0877
# 5 14.5513 1.3346 8.5646 8.8198 20.7993 0.7759
# 6 35.3720 16.7266 1.6024 -1.0877 0.7759 45.6590
#
#
#
# Elastic Compliance Matrix: (Units=1/GPa)
#
#
# Indices 1 2 3 4 5 6 
#
# 1 0.014176 -0.008010 -0.002780 0.005807 -0.010437 -0.007635
# 2 -0.008010 0.016284 0.001012 -0.004225 0.005934 0.000003
# 3 -0.002780 0.001012 0.012507 0.004605 -0.005281 0.001543
# 4 0.005807 -0.004225 0.004605 0.049929 -0.026805 -0.001467
# 5 -0.010437 0.005934 -0.005281 -0.026805 0.068380 0.004296
# 6 -0.007635 0.000003 0.001543 -0.001467 0.004296 0.027653
#
#
# Mechanical properties :
#
#
# Convention : Reuss Voigt Hill
#
# Bulk Modulus (GPa) = 42.71203 57.95506 50.33355
# Shear Modulus (GPa) = 23.11732 33.88117 28.49924
#
# Velocity S-wave (km/s) = 3.21480 3.89193 3.56946
# Velocity P-wave (km/s) = 5.73368 6.79013 6.28415
#
# Compressibility (1/GPa) = 0.02341261
#
# Stress axis : x y z
#
# Youngs Moduli (GPa) = 70.54016 61.40981 79.95689
#
# Poissons Ratio (x) = 0.49189 0.22226
# Poissons Ratio (y) = 0.56502 -0.08095
# Poissons Ratio (z) = 0.19609 -0.06217
#
# Static dielectric constant tensor:
#      x y z
#    x 1.884280 -0.013590 -0.025450 
#    y -0.013590 1.843690 0.040710 
#    z -0.025450 0.040710 1.847100 
# 
# From -- ./inp_files/224051.got.cif
#   From: 2010.05.17/outbox.cif.g08.bks.cpg/sg2_113_cif.got.tgz:224051.got - 2010.06.03 11:33:40.
