data_PCOD9104968
_publ_section_title
;
Structure prediction by ZEFSAII (Michael W. Deem and Ramdas Pophale) SiO2 
 PCOD9104968
Probable space group: P -1
;
_chemical_formula_sum "Si O2"
_cell_formula_units_Z 16
_cell_length_a 10.467922
_cell_length_b 21.276547
_cell_length_c 8.224392
_cell_angle_alpha 122.355544
_cell_angle_beta 41.018145
_cell_angle_gamma 141.876847
_cell_volume 734.419575
_symmetry_space_group_name_H-M "P -1"
_symmetry_group_IT_number 2
_symmetry_cell_setting 'triclinic'
loop_
_space_group_symop_operation_xyz
x,y,z
-x,-y,-z
loop_
_atom_site_type_symbol
_atom_site_label
_atom_site_fract_x
_atom_site_fract_y
_atom_site_fract_z
Si Si1 0.692320 0.633666 0.856361
Si Si2 0.731116 0.810521 0.095476
Si Si3 0.756719 0.078686 0.477291
Si Si4 0.122386 0.397730 0.062379
Si Si5 0.022083 0.998405 0.665266
Si Si6 0.428899 0.810597 0.119671
Si Si7 0.311665 0.377550 0.530231
Si Si8 0.220590 0.612560 0.858895
O O1 0.637092 0.702290 0.068898
O O2 0.405444 0.516345 0.964693
O O3 0.790196 0.658428 0.608523
O O4 0.891397 0.647033 0.813167
O O5 0.978757 0.861025 0.803445
O O6 0.503257 0.799629 0.211814
O O7 0.855970 0.893788 0.230431
O O8 0.720547 0.150131 0.688175
O O9 0.787375 0.020055 0.493758
O O10 0.500000 0.000000 0.500000
O O11 0.148089 0.349359 0.814617
O O12 0.890457 0.392928 0.218883
O O13 0.723374 0.903625 0.888955
O O14 0.000000 0.000000 0.500000
O O15 0.275233 0.702181 0.031400
O O16 0.500000 0.500000 0.500000
O O17 0.501266 0.357903 0.360679
O O18 0.000000 0.500000 0.000000
#
# Coordination Sequence:
#
# PCOD9104968 Si02
#       8
#     2   2   2   2   2   2   2   2
#     4  10  21  41  64  93 129 172 217 260 327 381
#     4  11  21  41  66  91 128 165 215 267 321 389
#     4  11  21  42  67  89 119 165 216 259 315 389
#     4  10  23  41  62  93 135 169 214 273 312 383
#     4  11  25  43  64  92 134 163 207 276 331 374
#     4  11  23  40  67  95 123 173 215 262 322 390
#     4  10  20  39  63  85 128 172 209 256 323 372
#     4  12  22  39  65  97 129 165 221 264 314 393
#
# _framework density 21.785910999999999
#
# number of rings (size 3 to 8) (size 9 to 14) (size 15 to 20)
#    0.000    1.250    6.250    0.750    1.750    2.500 
#    2.250    8.125    0.000    0.000    0.000    0.000 
#    0.000    0.000    0.000    0.000    0.000    0.000 
#
# Total GULP energy -89339.640875 kJ/mol
# GULP energy per Si atom -5583.727555 kJ/mol
# Density = 2.173633 g / cm^3
# Si number density = 21.785911 Si / 1000 Ang^3
#
#
#
# Elastic Constant Matrix: (Units=GPa)
#
#
# Indices 1 2 3 4 5 6 
#
# 1 202.4997 35.0268 64.4737 24.5736 8.6504 6.5695
# 2 35.0268 104.9867 39.1124 46.4052 13.7751 10.2448
# 3 64.4737 39.1124 78.6988 27.3667 -13.0442 -4.8608
# 4 24.5736 46.4052 27.3667 39.6537 -1.7807 -5.9763
# 5 8.6504 13.7751 -13.0442 -1.7807 25.4188 13.5634
# 6 6.5695 10.2448 -4.8608 -5.9763 13.5634 23.8187
#
#
#
# Elastic Compliance Matrix: (Units=1/GPa)
#
#
# Indices 1 2 3 4 5 6 
#
# 1 0.007814 0.003212 -0.008196 -0.003535 -0.008045 -0.001515
# 2 0.003212 0.031371 -0.009918 -0.034935 -0.017526 -0.015188
# 3 -0.008196 -0.009918 0.029096 -0.002591 0.023859 -0.001773
# 4 -0.003535 -0.034935 -0.002591 0.074905 0.008286 0.029548
# 5 -0.008045 -0.017526 0.023859 0.008286 0.079706 -0.028683
# 6 -0.001515 -0.015188 -0.001773 0.029548 -0.028683 0.072320
#
#
# Mechanical properties :
#
#
# Convention : Reuss Voigt Hill
#
# Bulk Modulus (GPa) = 25.98824 73.71234 49.85029
# Shear Modulus (GPa) = 14.79986 34.28305 24.54146
#
# Velocity S-wave (km/s) = 2.60923 3.97121 3.35995
# Velocity P-wave (km/s) = 4.58609 7.41186 6.16311
#
# Compressibility (1/GPa) = 0.03847894
#
# Stress axis : x y z
#
# Youngs Moduli (GPa) = 127.97789 31.87620 34.36893
#
# Poissons Ratio (x) = -0.10239 0.28168
# Poissons Ratio (y) = -0.41108 0.34086
# Poissons Ratio (z) = 1.04887 0.31613
#
# Static dielectric constant tensor:
#      x y z
#    x 1.793960 0.087330 0.009340 
#    y 0.087330 1.519830 -0.124660 
#    z 0.009340 -0.124660 1.767950 
# 
# From -- ./inp_files/222296.got.cif
#   From: 2010.05.17/outbox.cif.g08.bks.cpg/sg2_112_cif.got.tgz:222296.got - 2010.06.03 11:33:40.
