data_PCOD9104628
_publ_section_title
;
Structure prediction by ZEFSAII (Michael W. Deem and Ramdas Pophale) SiO2 
 PCOD9104628
Probable space group: P -1
;
_chemical_formula_sum "Si O2"
_cell_formula_units_Z 14
_cell_length_a 15.148281
_cell_length_b 6.789033
_cell_length_c 15.074916
_cell_angle_alpha 111.237940
_cell_angle_beta 152.333039
_cell_angle_gamma 68.301107
_cell_volume 666.682175
_symmetry_space_group_name_H-M "P -1"
_symmetry_group_IT_number 2
_symmetry_cell_setting 'triclinic'
loop_
_space_group_symop_operation_xyz
x,y,z
-x,-y,-z
loop_
_atom_site_type_symbol
_atom_site_label
_atom_site_fract_x
_atom_site_fract_y
_atom_site_fract_z
Si Si1 0.138339 0.792083 0.117489
Si Si2 0.943638 0.107713 0.599009
Si Si3 0.170685 0.342317 0.582589
Si Si4 0.053160 0.556850 0.186037
Si Si5 0.534469 0.606921 0.453136
Si Si6 0.660261 0.801698 0.112671
Si Si7 0.416614 0.605360 0.724047
O O1 0.076287 0.697597 0.141264
O O2 0.367202 0.801613 0.326013
O O3 0.111086 0.594369 0.996067
O O4 0.000000 0.000000 0.000000
O O5 0.963004 0.272237 0.722705
O O6 0.741188 0.188722 0.386852
O O7 0.130613 0.128608 0.710579
O O8 0.923341 0.865790 0.565940
O O9 0.320547 0.295882 0.788641
O O10 0.288298 0.433633 0.622928
O O11 0.000000 0.500000 0.500000
O O12 0.239172 0.383655 0.338637
O O13 0.500000 0.500000 0.500000
O O14 0.521751 0.456405 0.331157
O O15 0.589472 0.645329 0.949357
O O16 0.500000 0.000000 0.000000
#
# Coordination Sequence:
#
# PCOD9104628 Si02
#       7
#     2   2   2   2   2   2   2
#     4  10  20  39  61  92 125 154 209 268 319 375
#     4  11  23  43  64  92 132 173 217 268 329 387
#     4  12  24  43  66  96 136 172 220 274 329 386
#     4   9  21  39  62  86 122 168 207 257 320 386
#     4   9  20  41  66  90 126 170 210 261 325 387
#     4  12  23  42  67  92 132 177 217 270 331 389
#     4  11  23  42  67  97 130 172 224 269 326 392
#
# _framework density 20.999510000000001
#
# number of rings (size 3 to 8) (size 9 to 14) (size 15 to 20)
#    0.000    1.429    2.857    2.571    0.000    2.857 
#    5.143    5.714    0.000    0.000    0.000    0.000 
#    0.000    0.000    0.000    0.000    0.000    0.000 
#
# Total GULP energy -78068.712659 kJ/mol
# GULP energy per Si atom -5576.336619 kJ/mol
# Density = 2.095171 g / cm^3
# Si number density = 20.999510 Si / 1000 Ang^3
#
#
#
# Elastic Constant Matrix: (Units=GPa)
#
#
# Indices 1 2 3 4 5 6 
#
# 1 90.8319 36.5097 36.4546 0.8330 -6.9394 -15.2192
# 2 36.5097 104.1134 38.5095 -12.0544 4.2873 -6.3059
# 3 36.4546 38.5095 96.8127 -10.8840 2.3731 -5.3438
# 4 0.8330 -12.0544 -10.8840 53.8000 -7.5817 4.8216
# 5 -6.9394 4.2873 2.3731 -7.5817 40.4737 -1.5215
# 6 -15.2192 -6.3059 -5.3438 4.8216 -1.5215 16.9410
#
#
#
# Elastic Compliance Matrix: (Units=1/GPa)
#
#
# Indices 1 2 3 4 5 6 
#
# 1 0.016935 -0.003938 -0.004465 -0.002749 0.003573 0.013443
# 2 -0.003938 0.012440 -0.003235 0.002048 -0.001444 -0.000640
# 3 -0.004465 -0.003235 0.013463 0.002091 -0.000882 -0.001643
# 4 -0.002749 0.002048 0.002091 0.020498 0.002780 -0.006632
# 5 0.003573 -0.001444 -0.000882 0.002780 0.026194 0.003955
# 6 0.013443 -0.000640 -0.001643 -0.006632 0.003955 0.072591
#
#
# Mechanical properties :
#
#
# Convention : Reuss Voigt Hill
#
# Bulk Modulus (GPa) = 51.12023 57.18950 54.15486
# Shear Modulus (GPa) = 26.05266 34.26190 30.15728
#
# Velocity S-wave (km/s) = 3.52608 4.04364 3.79369
# Velocity P-wave (km/s) = 6.40110 7.00672 6.71075
#
# Compressibility (1/GPa) = 0.01956173
#
# Stress axis : x y z
#
# Youngs Moduli (GPa) = 59.04987 80.38338 74.27571
#
# Poissons Ratio (x) = 0.31658 0.33163
# Poissons Ratio (y) = 0.23256 0.24030
# Poissons Ratio (z) = 0.26365 0.26006
#
# Static dielectric constant tensor:
#      x y z
#    x 1.755970 -0.032520 -0.011110 
#    y -0.032520 1.751680 -0.003960 
#    z -0.011110 -0.003960 1.772170 
# 
# From -- ./inp_files/89618.got.cif
#   From: 2010.05.17/outbox.cif.g08.bks.cpg/sg2_45_cif.got.tgz:89618.got - 2010.06.03 11:33:40.
