data_PCOD9104690
_publ_section_title
;
Structure prediction by ZEFSAII (Michael W. Deem and Ramdas Pophale) SiO2 
 PCOD9104690
Probable space group: P -1
;
_chemical_formula_sum "Si O2"
_cell_formula_units_Z 14
_cell_length_a 12.379837
_cell_length_b 12.458487
_cell_length_c 9.689014
_cell_angle_alpha 48.084644
_cell_angle_beta 38.589201
_cell_angle_gamma 60.512331
_cell_volume 692.155870
_symmetry_space_group_name_H-M "P -1"
_symmetry_group_IT_number 2
_symmetry_cell_setting 'triclinic'
loop_
_space_group_symop_operation_xyz
x,y,z
-x,-y,-z
loop_
_atom_site_type_symbol
_atom_site_label
_atom_site_fract_x
_atom_site_fract_y
_atom_site_fract_z
Si Si1 0.347311 0.745622 0.342938
Si Si2 0.666028 0.733588 0.838352
Si Si3 0.115823 0.497367 0.754213
Si Si4 0.797555 0.947563 0.752409
Si Si5 0.600889 0.712508 0.346774
Si Si6 0.481551 0.664805 0.817410
Si Si7 0.877893 0.456550 0.787633
O O1 0.175839 0.662974 0.523979
O O2 0.415080 0.707915 0.460260
O O3 0.313607 0.913163 0.239480
O O4 0.501282 0.700052 0.130184
O O5 0.761990 0.863869 0.714865
O O6 0.578765 0.762836 0.752625
O O7 0.783797 0.597426 0.817708
O O8 0.292583 0.425504 0.672922
O O9 0.008779 0.415233 0.811907
O O10 0.000000 0.500000 0.000000
O O11 0.723745 0.840904 0.041491
O O12 0.000000 0.000000 0.500000
O O13 0.569822 0.703926 0.549147
O O14 0.500000 0.500000 0.000000
O O15 0.274470 0.660832 0.003573
O O16 0.000000 0.500000 0.500000
#
# Coordination Sequence:
#
# PCOD9104690 Si02
#       7
#     2   2   2   2   2   2   2
#     4  11  22  41  62  88 124 168 206 250 305 373
#     4  10  20  39  62  84 119 169 206 242 305 374
#     4  12  21  33  59  94 121 152 202 260 307 353
#     4  11  24  43  65  92 125 161 207 261 308 360
#     4  11  22  39  62  90 123 165 208 251 307 373
#     4  10  21  38  59  87 124 162 200 248 306 369
#     4  11  21  35  57  91 126 157 197 256 309 352
#
# _framework density 20.226658
#
# number of rings (size 3 to 8) (size 9 to 14) (size 15 to 20)
#    0.000    1.143    0.000   10.714    0.000    1.143 
#    0.000    3.571    0.000    0.000    0.000    0.000 
#    0.000    0.000    0.000    0.000    0.000    0.000 
#
# Total GULP energy -78062.450152 kJ/mol
# GULP energy per Si atom -5575.889297 kJ/mol
# Density = 2.018062 g / cm^3
# Si number density = 20.226658 Si / 1000 Ang^3
#
#
#
# Elastic Constant Matrix: (Units=GPa)
#
#
# Indices 1 2 3 4 5 6 
#
# 1 119.8088 14.3544 64.1051 -7.3346 2.5362 19.1231
# 2 14.3544 83.9730 30.0888 6.5802 3.5258 -0.1504
# 3 64.1051 30.0888 107.9425 14.3594 -5.7977 16.4080
# 4 -7.3346 6.5802 14.3594 29.7881 7.2532 0.7241
# 5 2.5362 3.5258 -5.7977 7.2532 46.0110 0.6960
# 6 19.1231 -0.1504 16.4080 0.7241 0.6960 26.1149
#
#
#
# Elastic Compliance Matrix: (Units=1/GPa)
#
#
# Indices 1 2 3 4 5 6 
#
# 1 0.014848 0.000295 -0.009532 0.009138 -0.003406 -0.005045
# 2 0.000295 0.013534 -0.004371 -0.000493 -0.001567 0.002664
# 3 -0.009532 -0.004371 0.018642 -0.011496 0.005091 -0.004575
# 4 0.009138 -0.000493 -0.011496 0.043621 -0.008784 -0.000446
# 5 -0.003406 -0.001567 0.005091 -0.008784 0.024085 -0.001112
# 6 -0.005045 0.002664 -0.004575 -0.000446 -0.001112 0.044918
#
#
# Mechanical properties :
#
#
# Convention : Reuss Voigt Hill
#
# Bulk Modulus (GPa) = 50.48641 58.75787 54.62214
# Shear Modulus (GPa) = 25.84432 33.92786 29.88609
#
# Velocity S-wave (km/s) = 3.57842 4.10003 3.84807
# Velocity P-wave (km/s) = 6.48752 7.17819 6.84158
#
# Compressibility (1/GPa) = 0.01980731
#
# Stress axis : x y z
#
# Youngs Moduli (GPa) = 67.34794 73.89021 53.64293
#
# Poissons Ratio (x) = -0.02182 0.51133
# Poissons Ratio (y) = -0.01989 0.23449
# Poissons Ratio (z) = 0.64197 0.32300
#
# Static dielectric constant tensor:
#      x y z
#    x 1.763610 -0.000460 -0.015540 
#    y -0.000460 1.718890 -0.014670 
#    z -0.015540 -0.014670 1.731740 
# 
# From -- ./inp_files/154612.got.cif
#   From: 2010.05.17/outbox.cif.g08.bks.cpg/sg2_78_cif.got.tgz:154612.got - 2010.06.03 11:33:40.
