data_PCOD9104009
_publ_section_title
;
Structure prediction by ZEFSAII (Michael W. Deem and Ramdas Pophale) SiO2 
 PCOD9104009
Probable space group: P -1
;
_chemical_formula_sum "Si O2"
_cell_formula_units_Z 16
_cell_length_a 5.396768
_cell_length_b 20.499417
_cell_length_c 8.042067
_cell_angle_alpha 125.332293
_cell_angle_beta 62.757312
_cell_angle_gamma 121.745955
_cell_volume 601.941926
_symmetry_space_group_name_H-M "P -1"
_symmetry_group_IT_number 2
_symmetry_cell_setting 'triclinic'
loop_
_space_group_symop_operation_xyz
x,y,z
-x,-y,-z
loop_
_atom_site_type_symbol
_atom_site_label
_atom_site_fract_x
_atom_site_fract_y
_atom_site_fract_z
Si Si1 0.830225 0.799575 0.582773
Si Si2 0.639444 0.457202 0.533011
Si Si3 0.149643 0.228577 0.078230
Si Si4 0.759657 0.313806 0.425788
Si Si5 0.654639 0.058994 0.883564
Si Si6 0.185619 0.992369 0.666777
Si Si7 0.394932 0.654166 0.110963
Si Si8 0.191681 0.380483 0.841357
O O1 0.843586 0.802796 0.782522
O O2 0.487213 0.780406 0.610285
O O3 0.887954 0.717773 0.356934
O O4 0.034325 0.891085 0.591883
O O5 0.500000 0.500000 0.500000
O O6 0.623320 0.358006 0.393217
O O7 0.427019 0.446293 0.744183
O O8 0.000000 0.500000 0.500000
O O9 0.066739 0.312024 0.266444
O O10 0.433647 0.257569 0.911417
O O11 0.862954 0.158713 0.976863
O O12 0.760541 0.350387 0.664339
O O13 0.350276 0.047627 0.857998
O O14 0.930924 0.023580 0.714179
O O15 0.500000 0.000000 0.000000
O O16 0.500000 0.000000 0.500000
O O17 0.655286 0.622340 0.036464
O O18 0.109639 0.601618 0.014835
#
# Coordination Sequence:
#
# PCOD9104009 Si02
#       8
#     2   2   2   2   2   2   2   2
#     4  10  23  41  68  88 135 175 226 273 336 398
#     4  10  20  38  72 102 131 175 219 264 333 402
#     4  12  25  40  72  92 135 178 229 279 337 400
#     4  10  24  43  66 101 134 174 225 275 331 403
#     4  12  27  45  64  96 133 177 230 287 347 403
#     4  12  28  45  68  95 138 179 230 289 355 397
#     4  10  23  39  65  94 132 166 225 268 330 381
#     4  10  22  42  64  98 133 168 221 272 319 401
#
# _framework density 26.580634
#
# number of rings (size 3 to 8) (size 9 to 14) (size 15 to 20)
#    0.000    1.500    2.500    3.000   10.500    0.000 
#    0.000    0.000    0.000   10.500    0.000    0.000 
#    0.000    0.000    0.000    0.000    0.000    0.000 
#
# Total GULP energy -89143.545933 kJ/mol
# GULP energy per Si atom -5571.471621 kJ/mol
# Density = 2.652014 g / cm^3
# Si number density = 26.580634 Si / 1000 Ang^3
#
#
#
# Elastic Constant Matrix: (Units=GPa)
#
#
# Indices 1 2 3 4 5 6 
#
# 1 160.3034 26.8708 19.6172 4.1424 -16.2176 15.1098
# 2 26.8708 141.1519 31.0892 1.2646 -9.8808 26.2967
# 3 19.6172 31.0892 65.8170 -3.5186 -15.6299 -7.7537
# 4 4.1424 1.2646 -3.5186 43.1209 10.4982 -0.7053
# 5 -16.2176 -9.8808 -15.6299 10.4982 21.7791 6.7298
# 6 15.1098 26.2967 -7.7537 -0.7053 6.7298 51.1069
#
#
#
# Elastic Compliance Matrix: (Units=1/GPa)
#
#
# Indices 1 2 3 4 5 6 
#
# 1 0.007466 -0.000060 -0.001052 -0.002568 0.007034 -0.003298
# 2 -0.000060 0.009456 -0.004349 -0.001645 0.003780 -0.006028
# 3 -0.001052 -0.004349 0.020659 -0.000723 0.011117 0.004210
# 4 -0.002568 -0.001645 -0.000723 0.027858 -0.017916 0.004240
# 5 0.007034 0.003780 0.011117 -0.017916 0.073262 -0.012233
# 6 -0.003298 -0.006028 0.004210 0.004240 -0.012233 0.025952
#
#
# Mechanical properties :
#
#
# Convention : Reuss Voigt Hill
#
# Bulk Modulus (GPa) = 37.51214 58.04742 47.77978
# Shear Modulus (GPa) = 27.10582 42.51438 34.81010
#
# Velocity S-wave (km/s) = 3.19683 4.00365 3.62277
# Velocity P-wave (km/s) = 5.26968 6.57708 5.95934
#
# Compressibility (1/GPa) = 0.02665804
#
# Stress axis : x y z
#
# Youngs Moduli (GPa) = 133.94476 105.74869 48.40485
#
# Poissons Ratio (x) = 0.00631 0.05095
# Poissons Ratio (y) = 0.00799 0.21053
# Poissons Ratio (z) = 0.14098 0.45995
#
# Static dielectric constant tensor:
#      x y z
#    x 2.197230 -0.020970 -0.054050 
#    y -0.020970 2.071280 0.047080 
#    z -0.054050 0.047080 2.049060 
# 
# From -- ./inp_files/142612.got.cif
#   From: 2010.05.17/outbox.cif.g08.bks.cpg/sg2_72_cif.got.tgz:142612.got - 2010.06.03 11:33:40.
