data_PCOD9104831
_publ_section_title
;
Structure prediction by ZEFSAII (Michael W. Deem and Ramdas Pophale) SiO2 
 PCOD9104831
Probable space group: P -1
;
_chemical_formula_sum "Si O2"
_cell_formula_units_Z 16
_cell_length_a 5.412628
_cell_length_b 15.846112
_cell_length_c 8.772683
_cell_angle_alpha 66.225084
_cell_angle_beta 58.581413
_cell_angle_gamma 71.872892
_cell_volume 582.682284
_symmetry_space_group_name_H-M "P -1"
_symmetry_group_IT_number 2
_symmetry_cell_setting 'triclinic'
loop_
_space_group_symop_operation_xyz
x,y,z
-x,-y,-z
loop_
_atom_site_type_symbol
_atom_site_label
_atom_site_fract_x
_atom_site_fract_y
_atom_site_fract_z
Si Si1 0.099953 0.190250 0.690778
Si Si2 0.922598 0.608894 0.536701
Si Si3 0.874875 0.553838 0.249667
Si Si4 0.135751 0.065681 0.031564
Si Si5 0.373421 0.610859 0.877347
Si Si6 0.866584 0.068641 0.623402
Si Si7 0.472335 0.281370 0.950701
Si Si8 0.921222 0.193613 0.258968
O O1 0.100781 0.108193 0.628600
O O2 0.768248 0.225393 0.829690
O O3 0.157680 0.280524 0.511277
O O4 0.252226 0.145630 0.829036
O O5 0.168120 0.551490 0.607485
O O6 0.627395 0.570746 0.713436
O O7 0.972005 0.590476 0.356179
O O8 0.657311 0.640504 0.189441
O O9 0.141083 0.545025 0.050572
O O10 0.890044 0.127546 0.171413
O O11 0.289632 0.995875 0.164364
O O12 0.000000 0.000000 0.000000
O O13 0.198988 0.699724 0.791377
O O14 0.487039 0.656156 0.960337
O O15 0.768000 0.156292 0.482901
O O16 0.000000 0.000000 0.500000
O O17 0.266030 0.204769 0.125395
#
# Coordination Sequence:
#
# PCOD9104831 Si02
#       8
#     2   2   2   2   2   2   2   2
#     4  11  20  39  65  93 125 174 213 257 325 380
#     4  11  23  42  68  93 130 173 216 263 317 379
#     4  10  24  44  61  99 133 167 216 266 314 375
#     4   9  18  38  65  83 127 164 201 273 319 371
#     4  11  22  42  65  93 130 171 213 265 314 376
#     4   9  20  37  62  90 125 162 213 268 310 382
#     4  11  22  39  66  93 132 172 210 264 318 383
#     4  10  20  39  62  91 126 164 213 261 315 382
#
# _framework density 27.459216999999999
#
# number of rings (size 3 to 8) (size 9 to 14) (size 15 to 20)
#    0.000    1.750    2.500    1.875    1.750    1.000 
#    0.000    6.250   11.000    0.000    0.000    0.000 
#    0.000    0.000    0.000    0.000    0.000    0.000 
#
# Total GULP energy -89301.196076 kJ/mol
# GULP energy per Si atom -5581.324755 kJ/mol
# Density = 2.739672 g / cm^3
# Si number density = 27.459217 Si / 1000 Ang^3
#
#
#
# Elastic Constant Matrix: (Units=GPa)
#
#
# Indices 1 2 3 4 5 6 
#
# 1 51.9389 28.0158 40.1524 0.2111 13.8829 -5.2112
# 2 28.0158 95.0830 36.2483 -26.6460 15.4553 6.8765
# 3 40.1524 36.2483 226.2669 -30.4972 19.0923 -8.1683
# 4 0.2111 -26.6460 -30.4972 72.9840 -16.8080 22.7132
# 5 13.8829 15.4553 19.0923 -16.8080 41.0595 -1.6074
# 6 -5.2112 6.8765 -8.1683 22.7132 -1.6074 43.5836
#
#
#
# Elastic Compliance Matrix: (Units=1/GPa)
#
#
# Indices 1 2 3 4 5 6 
#
# 1 0.031177 -0.009742 -0.004293 -0.010444 -0.008778 0.009579
# 2 -0.009742 0.016363 -0.000059 0.008628 0.000371 -0.008240
# 3 -0.004293 -0.000059 0.005509 0.002518 -0.000088 -0.000787
# 4 -0.010444 0.008628 0.002518 0.024431 0.008544 -0.014555
# 5 -0.008778 0.000371 -0.000088 0.008544 0.030548 -0.004451
# 6 0.009579 -0.008240 -0.000787 -0.014555 -0.004451 0.032663
#
#
# Mechanical properties :
#
#
# Convention : Reuss Voigt Hill
#
# Bulk Modulus (GPa) = 40.22165 64.68020 52.45092
# Shear Modulus (GPa) = 28.22205 49.45026 38.83615
#
# Velocity S-wave (km/s) = 3.20938 4.24826 3.76483
# Velocity P-wave (km/s) = 5.33039 6.90433 6.16777
#
# Compressibility (1/GPa) = 0.02486223
#
# Stress axis : x y z
#
# Youngs Moduli (GPa) = 32.07496 61.11210 181.51693
#
# Poissons Ratio (x) = 0.59536 0.77924
# Poissons Ratio (y) = 0.31248 0.01063
# Poissons Ratio (z) = 0.13770 0.00358
#
# Static dielectric constant tensor:
#      x y z
#    x 2.322830 -0.026310 -0.066080 
#    y -0.026310 2.185950 -0.079890 
#    z -0.066080 -0.079890 2.189990 
# 
# From -- ./inp_files/106351.got.cif
#   From: 2010.05.17/outbox.cif.g08.bks.cpg/sg2_54_cif.got.tgz:106351.got - 2010.06.03 11:33:40.
