data_PCOD9104771
_publ_section_title
;
Structure prediction by ZEFSAII (Michael W. Deem and Ramdas Pophale) SiO2 
 PCOD9104771
Probable space group: P -1
;
_chemical_formula_sum "Si O2"
_cell_formula_units_Z 16
_cell_length_a 19.448506
_cell_length_b 5.492510
_cell_length_c 8.307839
_cell_angle_alpha 87.681687
_cell_angle_beta 137.531011
_cell_angle_gamma 98.101778
_cell_volume 590.536374
_symmetry_space_group_name_H-M "P -1"
_symmetry_group_IT_number 2
_symmetry_cell_setting 'triclinic'
loop_
_space_group_symop_operation_xyz
x,y,z
-x,-y,-z
loop_
_atom_site_type_symbol
_atom_site_label
_atom_site_fract_x
_atom_site_fract_y
_atom_site_fract_z
Si Si1 0.583307 0.835669 0.784940
Si Si2 0.299331 0.418331 0.778257
Si Si3 0.629183 0.562424 0.555689
Si Si4 0.149532 0.577468 0.751503
Si Si5 0.175348 0.540404 0.273521
Si Si6 0.491317 0.807229 0.131531
Si Si7 0.035691 0.740084 0.235041
Si Si8 0.914051 0.970168 0.218281
O O1 0.634506 0.739637 0.716383
O O2 0.475203 0.641281 0.614176
O O3 0.545767 0.090606 0.763358
O O4 0.667709 0.814374 0.070556
O O5 0.252796 0.577154 0.830754
O O6 0.216451 0.386119 0.494869
O O7 0.408005 0.586570 0.926574
O O8 0.727947 0.439865 0.681604
O O9 0.602534 0.739111 0.362004
O O10 0.137510 0.312505 0.827875
O O11 0.068115 0.609620 0.462567
O O12 0.148665 0.809821 0.862313
O O13 0.137027 0.766139 0.297905
O O14 0.067365 0.419185 0.013185
O O15 0.500000 0.000000 0.000000
O O16 0.986868 0.983589 0.186926
O O17 0.000000 0.000000 0.500000
#
# Coordination Sequence:
#
# PCOD9104771 Si02
#       8
#     2   2   2   2   2   2   2   2
#     4  10  22  41  66  94 133 166 227 281 344 419
#     4  10  23  39  64 100 128 184 223 283 341 428
#     4  10  22  40  64  97 126 175 216 289 342 417
#     4  10  22  39  71 101 139 180 236 288 349 414
#     4  10  20  39  62  88 136 172 229 273 349 407
#     4  11  22  39  67  95 134 175 223 282 355 414
#     4   9  20  37  63  90 129 180 217 287 333 414
#     4  10  20  40  68  99 132 182 234 291 349 405
#
# _framework density 27.094013
#
# number of rings (size 3 to 8) (size 9 to 14) (size 15 to 20)
#    0.000    2.000    0.000    3.375    3.500    2.000 
#    0.000    0.000   22.000   17.250    0.000    0.000 
#    0.000    0.000    0.000    0.000    0.000    0.000 
#
# Total GULP energy -89282.075603 kJ/mol
# GULP energy per Si atom -5580.129725 kJ/mol
# Density = 2.703235 g / cm^3
# Si number density = 27.094013 Si / 1000 Ang^3
#
#
#
# Elastic Constant Matrix: (Units=GPa)
#
#
# Indices 1 2 3 4 5 6 
#
# 1 181.4471 46.5757 41.2292 -8.5252 20.4075 -54.1183
# 2 46.5757 106.8138 37.9325 -12.6979 3.1025 -28.2370
# 3 41.2292 37.9325 145.0671 -28.0732 7.3612 -5.1888
# 4 -8.5252 -12.6979 -28.0732 43.2959 -12.1745 0.0421
# 5 20.4075 3.1025 7.3612 -12.1745 39.2208 -5.4823
# 6 -54.1183 -28.2370 -5.1888 0.0421 -5.4823 50.6054
#
#
#
# Elastic Compliance Matrix: (Units=1/GPa)
#
#
# Indices 1 2 3 4 5 6 
#
# 1 0.009141 -0.000972 -0.002006 -0.000727 -0.003317 0.008669
# 2 -0.000972 0.012396 -0.002386 0.002313 0.001501 0.005794
# 3 -0.002006 -0.002386 0.008907 0.004889 0.000730 -0.002489
# 4 -0.000727 0.002313 0.004889 0.029223 0.008618 0.001924
# 5 -0.003317 0.001501 0.000730 0.008618 0.029723 0.000578
# 6 0.008669 0.005794 -0.002489 0.001924 0.000578 0.032070
#
#
# Mechanical properties :
#
#
# Convention : Reuss Voigt Hill
#
# Bulk Modulus (GPa) = 50.72062 76.08920 63.40491
# Shear Modulus (GPa) = 36.03301 47.13046 41.58173
#
# Velocity S-wave (km/s) = 3.65077 4.17527 3.92180
# Velocity P-wave (km/s) = 6.04415 7.16856 6.63023
#
# Compressibility (1/GPa) = 0.01971585
#
# Stress axis : x y z
#
# Youngs Moduli (GPa) = 109.39713 80.66878 112.26503
#
# Poissons Ratio (x) = 0.07840 0.22522
# Poissons Ratio (y) = 0.10632 0.26792
# Poissons Ratio (z) = 0.21947 0.19252
#
# Static dielectric constant tensor:
#      x y z
#    x 2.153950 -0.035030 -0.099320 
#    y -0.035030 2.174990 0.008370 
#    z -0.099320 0.008370 2.099520 
# 
# From -- ./inp_files/340430.got.cif
#   From: 2010.05.17/outbox.cif.g08.bks.cpg/sg2_171_cif.got.tgz:340430.got - 2010.06.03 11:33:40.
