data_PCOD9104982
_publ_section_title
;
Structure prediction by ZEFSAII (Michael W. Deem and Ramdas Pophale) SiO2 
 PCOD9104982
Probable space group: P -1
;
_chemical_formula_sum "Si O2"
_cell_formula_units_Z 14
_cell_length_a 14.949763
_cell_length_b 15.416321
_cell_length_c 6.250575
_cell_angle_alpha 105.705913
_cell_angle_beta 82.831874
_cell_angle_gamma 153.229794
_cell_volume 601.495834
_symmetry_space_group_name_H-M "P -1"
_symmetry_group_IT_number 2
_symmetry_cell_setting 'triclinic'
loop_
_space_group_symop_operation_xyz
x,y,z
-x,-y,-z
loop_
_atom_site_type_symbol
_atom_site_label
_atom_site_fract_x
_atom_site_fract_y
_atom_site_fract_z
Si Si1 0.104051 0.043262 0.294009
Si Si2 0.703693 0.449346 0.704263
Si Si3 0.800755 0.411697 0.014574
Si Si4 0.686641 0.640447 0.882824
Si Si5 0.917160 0.262926 0.467195
Si Si6 0.324614 0.051766 0.325433
Si Si7 0.221722 0.781940 0.907843
O O1 0.266896 0.255341 0.267139
O O2 0.219750 0.052428 0.302192
O O3 0.000000 0.000000 0.500000
O O4 0.905083 0.841969 0.074641
O O5 0.640513 0.495731 0.748776
O O6 0.565005 0.276071 0.452479
O O7 0.939129 0.656179 0.695162
O O8 0.681942 0.382359 0.898575
O O9 0.931135 0.564588 0.279234
O O10 0.979195 0.545644 0.880763
O O11 0.676998 0.212512 0.998451
O O12 0.500000 0.500000 0.000000
O O13 0.771080 0.062792 0.495734
O O14 0.782579 0.214700 0.344441
O O15 0.279473 0.929280 0.095466
#
# Coordination Sequence:
#
# PCOD9104982 Si02
#       7
#     2   2   2   2   2   2   2
#     4  11  24  43  66  94 126 165 211 262 318 375
#     4  11  24  40  61  92 124 161 207 253 307 374
#     4   9  19  37  62  89 121 161 207 253 305 368
#     4  11  25  43  66  94 126 164 212 263 316 377
#     4  10  20  39  63  86 123 165 204 254 310 363
#     4  11  24  39  61  92 127 162 204 254 308 373
#     4   9  19  37  61  90 122 161 205 253 308 367
#
# _framework density 23.275306
#
# number of rings (size 3 to 8) (size 9 to 14) (size 15 to 20)
#    0.000    1.714    0.000    4.714    0.000   10.857 
#    0.000    1.429    0.000    0.000    0.000    0.000 
#    0.000    0.000    0.000    0.000    0.000    0.000 
#
# Total GULP energy -78203.689948 kJ/mol
# GULP energy per Si atom -5585.977853 kJ/mol
# Density = 2.322233 g / cm^3
# Si number density = 23.275306 Si / 1000 Ang^3
#
#
#
# Elastic Constant Matrix: (Units=GPa)
#
#
# Indices 1 2 3 4 5 6 
#
# 1 98.0158 68.1168 19.8892 -24.7559 11.2963 -24.2591
# 2 68.1168 115.8404 38.1974 -14.0928 13.7654 -14.5110
# 3 19.8892 38.1974 77.2616 -3.8413 17.6459 -16.5177
# 4 -24.7559 -14.0928 -3.8413 45.3918 -6.0945 3.9512
# 5 11.2963 13.7654 17.6459 -6.0945 33.7743 -5.7158
# 6 -24.2591 -14.5110 -16.5177 3.9512 -5.7158 44.4678
#
#
#
# Elastic Compliance Matrix: (Units=1/GPa)
#
#
# Indices 1 2 3 4 5 6 
#
# 1 0.021839 -0.011567 0.002494 0.007663 -0.001116 0.008242
# 2 -0.011567 0.016935 -0.005940 -0.001387 -0.000680 -0.002955
# 3 0.002494 -0.005940 0.017925 -0.000355 -0.006960 0.005218
# 4 0.007663 -0.001387 -0.000355 0.026027 0.003171 0.001691
# 5 -0.001116 -0.000680 -0.006960 0.003171 0.034594 0.000749
# 6 0.008242 -0.002955 0.005218 0.001691 0.000749 0.027904
#
#
# Mechanical properties :
#
#
# Convention : Reuss Voigt Hill
#
# Bulk Modulus (GPa) = 37.49044 60.39164 48.94104
# Shear Modulus (GPa) = 27.15325 35.72108 31.43717
#
# Velocity S-wave (km/s) = 3.41928 3.92180 3.67913
# Velocity P-wave (km/s) = 5.63302 6.81985 6.25465
#
# Compressibility (1/GPa) = 0.02667347
#
# Stress axis : x y z
#
# Youngs Moduli (GPa) = 45.79044 59.05014 55.78822
#
# Poissons Ratio (x) = 0.68303 -0.13916
# Poissons Ratio (y) = 0.52965 0.33138
# Poissons Ratio (z) = -0.11422 0.35076
#
# Static dielectric constant tensor:
#      x y z
#    x 1.936020 0.014880 0.029860 
#    y 0.014880 1.901170 -0.028070 
#    z 0.029860 -0.028070 1.888080 
# 
# From -- ./inp_files/57040.got.cif
#   From: 2010.05.17/outbox.cif.g08.bks.cpg/sg2_29_cif.got.tgz:57040.got - 2010.06.03 11:33:40.
