data_PCOD9104599
_publ_section_title
;
Structure prediction by ZEFSAII (Michael W. Deem and Ramdas Pophale) SiO2 
 PCOD9104599
Probable space group: P -1
;
_chemical_formula_sum "Si O2"
_cell_formula_units_Z 16
_cell_length_a 12.099374
_cell_length_b 8.971530
_cell_length_c 9.016365
_cell_angle_alpha 57.810052
_cell_angle_beta 57.796972
_cell_angle_gamma 71.713572
_cell_volume 700.253694
_symmetry_space_group_name_H-M "P -1"
_symmetry_group_IT_number 2
_symmetry_cell_setting 'triclinic'
loop_
_space_group_symop_operation_xyz
x,y,z
-x,-y,-z
loop_
_atom_site_type_symbol
_atom_site_label
_atom_site_fract_x
_atom_site_fract_y
_atom_site_fract_z
Si Si1 0.014985 0.265933 0.982031
Si Si2 0.777100 0.535499 0.097345
Si Si3 0.015533 0.293067 0.621071
Si Si4 0.629516 0.615792 0.864337
Si Si5 0.480241 0.964185 0.854397
Si Si6 0.725536 0.294955 0.787825
Si Si7 0.644037 0.258477 0.540609
Si Si8 0.103127 0.992835 0.562921
O O1 0.149556 0.326956 0.925744
O O2 0.033375 0.244726 0.805516
O O3 0.899278 0.416807 0.006997
O O4 0.961135 0.105780 0.199550
O O5 0.682170 0.413778 0.323163
O O6 0.692453 0.613479 0.983403
O O7 0.875042 0.232629 0.697067
O O8 0.000000 0.500000 0.500000
O O9 0.122499 0.191345 0.497554
O O10 0.577194 0.818145 0.782741
O O11 0.721808 0.485347 0.768172
O O12 0.500000 0.500000 0.000000
O O13 0.512707 0.153572 0.662402
O O14 0.344912 0.864260 0.994268
O O15 0.500000 0.000000 0.000000
O O16 0.651762 0.322436 0.670268
O O17 0.765052 0.114367 0.516877
O O18 0.000000 0.000000 0.500000
#
# Coordination Sequence:
#
# PCOD9104599 Si02
#       8
#     2   2   2   2   2   2   2   2
#     4  10  23  39  60  92 135 170 210 257 325 381
#     4  10  21  39  64  91 128 167 204 265 319 379
#     4  12  24  38  64  95 133 168 214 265 317 384
#     4  10  21  39  66  89 116 167 212 255 317 372
#     4   9  21  39  63  88 117 164 210 257 310 371
#     4  10  20  39  61  90 125 162 213 257 314 374
#     4  10  21  40  62  92 129 161 215 259 315 385
#     4  11  24  38  62  95 130 173 211 262 322 380
#
# _framework density 22.848859999999998
#
# number of rings (size 3 to 8) (size 9 to 14) (size 15 to 20)
#    0.000    1.750    2.500    1.125    7.000    0.000 
#    0.000    8.125    0.000    1.500    0.000    0.000 
#    0.000    0.000    0.000    0.000    0.000    0.000 
#
# Total GULP energy -89313.307375 kJ/mol
# GULP energy per Si atom -5582.081711 kJ/mol
# Density = 2.279686 g / cm^3
# Si number density = 22.848860 Si / 1000 Ang^3
#
#
#
# Elastic Constant Matrix: (Units=GPa)
#
#
# Indices 1 2 3 4 5 6 
#
# 1 45.3557 3.1694 11.2647 -7.9969 -3.0655 12.7960
# 2 3.1694 88.8365 15.7505 0.4442 -2.9769 20.9733
# 3 11.2647 15.7505 72.5704 -6.5667 -11.7674 16.5516
# 4 -7.9969 0.4442 -6.5667 32.5360 9.7169 -6.7087
# 5 -3.0655 -2.9769 -11.7674 9.7169 36.0698 1.3533
# 6 12.7960 20.9733 16.5516 -6.7087 1.3533 30.7515
#
#
#
# Elastic Compliance Matrix: (Units=1/GPa)
#
#
# Indices 1 2 3 4 5 6 
#
# 1 0.025976 0.001862 -0.001493 0.003479 0.001334 -0.010575
# 2 0.001862 0.013900 -0.000803 -0.002708 0.002167 -0.010509
# 3 -0.001493 -0.000803 0.016980 -0.000360 0.005755 -0.008302
# 4 0.003479 -0.002708 -0.000360 0.036457 -0.010204 0.008996
# 5 0.001334 0.002167 0.005755 -0.010204 0.032973 -0.008808
# 6 -0.010575 -0.010509 -0.008302 0.008996 -0.008808 0.050905
#
#
# Mechanical properties :
#
#
# Convention : Reuss Voigt Hill
#
# Bulk Modulus (GPa) = 17.86117 29.68128 23.77123
# Shear Modulus (GPa) = 25.41681 31.64333 28.53007
#
# Velocity S-wave (km/s) = 3.33887 3.72546 3.53745
# Velocity P-wave (km/s) = 4.76425 5.61461 5.20682
#
# Compressibility (1/GPa) = 0.05598737
#
# Stress axis : x y z
#
# Youngs Moduli (GPa) = 38.49764 71.94383 58.89345
#
# Poissons Ratio (x) = -0.13395 0.08794
# Poissons Ratio (y) = -0.07168 0.04726
# Poissons Ratio (z) = 0.05749 0.05774
#
# Static dielectric constant tensor:
#      x y z
#    x 1.828890 -0.034300 -0.056560 
#    y -0.034300 1.898490 0.013950 
#    z -0.056560 0.013950 1.905570 
# 
# From -- ./inp_files/214336.got.cif
#   From: 2010.05.17/outbox.cif.g08.bks.cpg/sg2_108_cif.got.tgz:214336.got - 2010.06.03 11:33:40.
