data_PCOD9104639
_publ_section_title
;
Structure prediction by ZEFSAII (Michael W. Deem and Ramdas Pophale) SiO2 
 PCOD9104639
Probable space group: P -1
;
_chemical_formula_sum "Si O2"
_cell_formula_units_Z 16
_cell_length_a 12.368276
_cell_length_b 18.216324
_cell_length_c 6.680280
_cell_angle_alpha 55.900861
_cell_angle_beta 138.448834
_cell_angle_gamma 134.577257
_cell_volume 709.107956
_symmetry_space_group_name_H-M "P -1"
_symmetry_group_IT_number 2
_symmetry_cell_setting 'triclinic'
loop_
_space_group_symop_operation_xyz
x,y,z
-x,-y,-z
loop_
_atom_site_type_symbol
_atom_site_label
_atom_site_fract_x
_atom_site_fract_y
_atom_site_fract_z
Si Si1 0.105189 0.710358 0.567606
Si Si2 0.745375 0.927530 0.188854
Si Si3 0.948534 0.920404 0.869354
Si Si4 0.376818 0.884639 0.917683
Si Si5 0.335397 0.439798 0.698653
Si Si6 0.299486 0.231677 0.931560
Si Si7 0.314552 0.737763 0.422678
Si Si8 0.780168 0.416522 0.816410
O O1 0.177985 0.819610 0.618894
O O2 0.161535 0.724435 0.393436
O O3 0.882893 0.625903 0.419281
O O4 0.231017 0.665322 0.912044
O O5 0.815882 0.933190 0.504365
O O6 0.525650 0.886352 0.962634
O O7 0.786422 0.847161 0.252054
O O8 0.859763 0.035857 0.062531
O O9 0.832483 0.810507 0.986579
O O10 0.000000 0.000000 0.000000
O O11 0.338704 0.817493 0.164852
O O12 0.500000 0.000000 0.000000
O O13 0.335851 0.524473 0.420848
O O14 0.500000 0.500000 0.000000
O O15 0.355145 0.346918 0.778897
O O16 0.484289 0.227369 0.253893
O O17 0.260805 0.635102 0.380043
O O18 0.000000 0.500000 0.000000
#
# Coordination Sequence:
#
# PCOD9104639 Si02
#       8
#     2   2   2   2   2   2   2   2
#     4  10  24  44  70  96 136 178 219 274 340 397
#     4  10  20  39  61  93 128 179 218 263 334 391
#     4   9  20  36  62  90 127 173 210 267 329 392
#     4  11  24  40  68  97 134 176 228 268 318 406
#     4  11  23  43  69 103 130 170 227 287 330 400
#     4  11  21  39  66  95 133 170 219 275 332 390
#     4  11  21  42  69  94 132 180 217 268 341 395
#     4   9  21  43  69  91 133 171 221 270 337 394
#
# _framework density 22.563559000000001
#
# number of rings (size 3 to 8) (size 9 to 14) (size 15 to 20)
#    0.000    1.750    3.750    0.000    0.000    6.500 
#    0.000    4.375    0.000    0.000    0.000    0.000 
#    0.000    0.000    0.000    0.000    0.000    0.000 
#
# Total GULP energy -89203.744207 kJ/mol
# GULP energy per Si atom -5575.234013 kJ/mol
# Density = 2.251220 g / cm^3
# Si number density = 22.563559 Si / 1000 Ang^3
#
#
#
# Elastic Constant Matrix: (Units=GPa)
#
#
# Indices 1 2 3 4 5 6 
#
# 1 78.6052 26.0037 27.0619 -0.2489 -11.0534 13.0096
# 2 26.0037 121.3986 21.7651 14.1591 -10.5753 -4.1366
# 3 27.0619 21.7651 75.1635 18.3488 -3.6115 0.5677
# 4 -0.2489 14.1591 18.3488 30.1322 2.8487 6.5621
# 5 -11.0534 -10.5753 -3.6115 2.8487 25.0165 11.1519
# 6 13.0096 -4.1366 0.5677 6.5621 11.1519 34.5291
#
#
#
# Elastic Compliance Matrix: (Units=1/GPa)
#
#
# Indices 1 2 3 4 5 6 
#
# 1 0.020288 -0.003387 -0.007689 0.008233 0.011348 -0.013153
# 2 -0.003387 0.009903 -0.000275 -0.005319 0.001992 0.002835
# 3 -0.007689 -0.000275 0.019101 -0.012599 -0.001782 0.005520
# 4 0.008233 -0.005319 -0.012599 0.046110 -0.000233 -0.012220
# 5 0.011348 0.001992 -0.001782 -0.000233 0.055333 -0.021834
# 6 -0.013153 0.002835 0.005520 -0.012220 -0.021834 0.043540
#
#
# Mechanical properties :
#
#
# Convention : Reuss Voigt Hill
#
# Bulk Modulus (GPa) = 37.60936 47.20320 42.40628
# Shear Modulus (GPa) = 22.13960 31.29133 26.71547
#
# Velocity S-wave (km/s) = 3.13583 3.72803 3.44468
# Velocity P-wave (km/s) = 5.46036 6.28462 5.88694
#
# Compressibility (1/GPa) = 0.02658912
#
# Stress axis : x y z
#
# Youngs Moduli (GPa) = 49.28965 100.98241 52.35412
#
# Poissons Ratio (x) = 0.34204 0.40255
# Poissons Ratio (y) = 0.16695 0.01441
# Poissons Ratio (z) = 0.37899 0.02779
#
# Static dielectric constant tensor:
#      x y z
#    x 1.857800 -0.049890 0.005230 
#    y -0.049890 1.886050 -0.067320 
#    z 0.005230 -0.067320 1.776140 
# 
# From -- ./inp_files/81268.got.cif
#   From: 2010.05.17/outbox.cif.g08.bks.cpg/sg2_41_cif.got.tgz:81268.got - 2010.06.03 11:33:40.
