data_PCOD9104685
_publ_section_title
;
Structure prediction by ZEFSAII (Michael W. Deem and Ramdas Pophale) SiO2 
 PCOD9104685
Probable space group: P -1
;
_chemical_formula_sum "Si O2"
_cell_formula_units_Z 16
_cell_length_a 21.945537
_cell_length_b 9.225175
_cell_length_c 9.758584
_cell_angle_alpha 102.803882
_cell_angle_beta 132.985055
_cell_angle_gamma 38.691374
_cell_volume 663.176588
_symmetry_space_group_name_H-M "P -1"
_symmetry_group_IT_number 2
_symmetry_cell_setting 'triclinic'
loop_
_space_group_symop_operation_xyz
x,y,z
-x,-y,-z
loop_
_atom_site_type_symbol
_atom_site_label
_atom_site_fract_x
_atom_site_fract_y
_atom_site_fract_z
Si Si1 0.215366 0.158666 0.017966
Si Si2 0.898708 0.835517 0.426088
Si Si3 0.713972 0.643304 0.751810
Si Si4 0.716200 0.025819 0.432074
Si Si5 0.608995 0.549064 0.166489
Si Si6 0.092638 0.522772 0.246585
Si Si7 0.124726 0.668366 0.578281
Si Si8 0.387517 0.497349 0.518658
O O1 0.181785 0.127000 0.817238
O O2 0.078632 0.314669 0.958066
O O3 0.224959 0.321865 0.045993
O O4 0.414024 0.801223 0.296545
O O5 0.086930 0.600587 0.616206
O O6 0.882177 0.774810 0.529892
O O7 0.768344 0.179600 0.323843
O O8 0.832871 0.511517 0.778491
O O9 0.726408 0.443810 0.729221
O O10 0.500000 0.000000 0.500000
O O11 0.696886 0.207292 0.526972
O O12 0.746271 0.834407 0.528586
O O13 0.552749 0.263060 0.127246
O O14 0.679265 0.583240 0.202212
O O15 0.585560 0.608332 0.305607
O O16 0.057618 0.707815 0.341128
O O17 0.000000 0.000000 0.500000
#
# Coordination Sequence:
#
# PCOD9104685 Si02
#       8
#     2   2   2   2   2   2   2   2
#     4  10  19  36  61  82 112 154 201 228 276 348
#     4   9  17  33  56  86 113 156 187 224 287 356
#     4  10  22  40  64  81 108 159 207 233 269 345
#     4  11  21  34  60  90 122 144 183 248 297 332
#     4  10  16  33  58  80 118 154 191 219 283 355
#     4  11  23  38  57  93 117 142 195 248 289 326
#     4   9  19  32  54  84 118 150 186 229 279 351
#     4  10  18  38  60  85 108 159 198 225 280 350
#
# _framework density 24.126301999999999
#
# number of rings (size 3 to 8) (size 9 to 14) (size 15 to 20)
#    0.000    2.000    3.750    1.125    0.000    2.500 
#    0.000    4.375    0.000    0.000    0.000    0.000 
#    0.000    0.000    0.000    0.000    0.000    0.000 
#
# Total GULP energy -89285.128400 kJ/mol
# GULP energy per Si atom -5580.320525 kJ/mol
# Density = 2.407139 g / cm^3
# Si number density = 24.126302 Si / 1000 Ang^3
#
#
#
# Elastic Constant Matrix: (Units=GPa)
#
#
# Indices 1 2 3 4 5 6 
#
# 1 74.4886 22.6000 33.1431 1.3419 30.6721 -15.2461
# 2 22.6000 95.2917 5.9258 21.1653 6.7489 -3.6498
# 3 33.1431 5.9258 46.6551 10.1085 33.0645 -0.6076
# 4 1.3419 21.1653 10.1085 33.5865 6.4283 9.3772
# 5 30.6721 6.7489 33.0645 6.4283 41.2567 2.5726
# 6 -15.2461 -3.6498 -0.6076 9.3772 2.5726 34.5993
#
#
#
# Elastic Compliance Matrix: (Units=1/GPa)
#
#
# Indices 1 2 3 4 5 6 
#
# 1 0.026948 -0.005597 -0.011151 0.005080 -0.011633 0.010576
# 2 -0.005597 0.013961 0.004860 -0.010491 -0.000506 0.001973
# 3 -0.011151 0.004860 0.058051 -0.013870 -0.037063 0.003133
# 4 0.005080 -0.010491 -0.013870 0.042826 0.003065 -0.010946
# 5 -0.011633 -0.000506 -0.037063 0.003065 0.062903 -0.011338
# 6 0.010576 0.001973 0.003133 -0.010946 -0.011338 0.037636
#
#
# Mechanical properties :
#
#
# Convention : Reuss Voigt Hill
#
# Bulk Modulus (GPa) = 13.30084 37.75257 25.52670
# Shear Modulus (GPa) = 17.17266 32.20626 24.68946
#
# Velocity S-wave (km/s) = 2.67082 3.65760 3.20244
# Velocity P-wave (km/s) = 3.87763 5.78958 4.92723
#
# Compressibility (1/GPa) = 0.07518322
#
# Stress axis : x y z
#
# Youngs Moduli (GPa) = 37.10852 71.62904 17.22637
#
# Poissons Ratio (x) = 0.40092 0.19210
# Poissons Ratio (y) = 0.20770 -0.08373
# Poissons Ratio (z) = 0.41381 -0.34814
#
# Static dielectric constant tensor:
#      x y z
#    x 1.974410 0.011170 0.026200 
#    y 0.011170 1.943780 0.015870 
#    z 0.026200 0.015870 1.940580 
# 
# From -- ./inp_files/474422.got.cif
#   From: 2010.05.17/outbox.cif.g08.bks.cpg/sg2_238_cif.got.tgz:474422.got - 2010.06.03 11:33:40.
