data_PCOD9104901
_publ_section_title
;
Structure prediction by ZEFSAII (Michael W. Deem and Ramdas Pophale) SiO2 
 PCOD9104901
Probable space group: P -1
;
_chemical_formula_sum "Si O2"
_cell_formula_units_Z 14
_cell_length_a 20.676297
_cell_length_b 9.031326
_cell_length_c 17.685734
_cell_angle_alpha 43.893739
_cell_angle_beta 19.316401
_cell_angle_gamma 34.462563
_cell_volume 588.327246
_symmetry_space_group_name_H-M "P -1"
_symmetry_group_IT_number 2
_symmetry_cell_setting 'triclinic'
loop_
_space_group_symop_operation_xyz
x,y,z
-x,-y,-z
loop_
_atom_site_type_symbol
_atom_site_label
_atom_site_fract_x
_atom_site_fract_y
_atom_site_fract_z
Si Si1 0.290674 0.102348 0.472808
Si Si2 0.764080 0.898215 0.959517
Si Si3 0.043288 0.691177 0.982049
Si Si4 0.821265 0.604074 0.733758
Si Si5 0.255386 0.964879 0.234250
Si Si6 0.371274 0.841649 0.639777
Si Si7 0.179496 0.753358 0.643737
O O1 0.004396 0.371529 0.679866
O O2 0.486675 0.133577 0.210378
O O3 0.373440 0.982781 0.509569
O O4 0.310523 0.879353 0.479755
O O5 0.860200 0.610300 0.995347
O O6 0.957507 0.941124 0.760659
O O7 0.765730 0.878566 0.875704
O O8 0.208142 0.748841 0.825913
O O9 0.074163 0.726122 0.847759
O O10 0.763571 0.934436 0.228640
O O11 0.000000 0.500000 0.500000
O O12 0.757690 0.884608 0.731225
O O13 0.545284 0.679280 0.009950
O O14 0.000000 0.000000 0.500000
O O15 0.627423 0.553609 0.487373
#
# Coordination Sequence:
#
# PCOD9104901 Si02
#       7
#     2   2   2   2   2   2   2
#     4  11  22  43  67  96 132 176 222 269 335 396
#     4  12  23  41  68  94 136 173 219 275 337 396
#     4  10  20  39  62  94 132 174 219 263 322 400
#     4  11  25  48  77  95 131 181 226 284 347 401
#     4  11  28  49  70 104 134 172 233 292 338 403
#     4  10  20  39  64  91 136 174 215 267 320 395
#     4  11  23  39  63  98 134 174 211 272 326 395
#
# _framework density 23.796282000000001
#
# number of rings (size 3 to 8) (size 9 to 14) (size 15 to 20)
#    0.000    1.143    4.286    2.143    2.000    2.286 
#   10.286    0.000    0.000    0.000    0.000    0.000 
#    0.000    0.000    0.000    0.000    0.000    0.000 
#
# Total GULP energy -78255.966145 kJ/mol
# GULP energy per Si atom -5589.711868 kJ/mol
# Density = 2.374212 g / cm^3
# Si number density = 23.796282 Si / 1000 Ang^3
#
#
#
# Elastic Constant Matrix: (Units=GPa)
#
#
# Indices 1 2 3 4 5 6 
#
# 1 -14.3583 -20.3892 3.0610 3.3499 -57.2197 -6.5145
# 2 -20.3892 31.1494 17.9988 19.1623 -17.1063 -2.8575
# 3 3.0610 17.9988 146.5792 27.5753 -35.8232 -2.2781
# 4 3.3499 19.1623 27.5753 39.0889 -6.0016 -0.6167
# 5 -57.2197 -17.1063 -35.8232 -6.0016 5.0721 3.9560
# 6 -6.5145 -2.8575 -2.2781 -0.6167 3.9560 29.1115
#
#
#
# Elastic Compliance Matrix: (Units=1/GPa)
#
#
# Indices 1 2 3 4 5 6 
#
# 1 0.002705 -0.006686 -0.003727 0.003249 -0.015998 0.001900
# 2 -0.006686 0.032890 -0.003918 -0.014496 -0.011404 0.002668
# 3 -0.003727 -0.003918 0.008682 -0.003485 0.002703 -0.000980
# 4 0.003249 -0.014496 -0.003485 0.035832 0.006384 -0.001077
# 5 -0.015998 -0.011404 0.002703 0.006384 0.009235 -0.005608
# 6 0.001900 0.002668 -0.000980 -0.001077 -0.005608 0.035700
#
#
# Mechanical properties :
#
#
# Convention : Reuss Voigt Hill
#
# Bulk Modulus (GPa) = 64.03917 18.30130 41.17023
# Shear Modulus (GPa) = 31.46420 25.50114 28.48267
#
# Velocity S-wave (km/s) = 3.64020 3.27715 3.46343
# Velocity P-wave (km/s) = 6.68116 4.69331 5.77343
#
# Compressibility (1/GPa) = 0.01561544
#
# Stress axis : x y z
#
# Youngs Moduli (GPa) = 369.72520 30.40450 115.17754
#
# Poissons Ratio (x) = 0.20329 0.42927
# Poissons Ratio (y) = 2.47200 0.45122
# Poissons Ratio (z) = 1.37797 0.11911
#
# Static dielectric constant tensor:
#      x y z
#    x 1.891780 0.014650 -0.065630 
#    y 0.014650 1.902900 0.012500 
#    z -0.065630 0.012500 2.014790 
# 
# From -- ./inp_files/577227.got.cif
#   From: 2010.05.17/outbox.cif.g08.bks.cpg/sg2_289_cif.got.tgz:577227.got - 2010.06.03 11:33:40.
