data_PCOD9104310
_publ_section_title
;
Structure prediction by ZEFSAII (Michael W. Deem and Ramdas Pophale) SiO2 
 PCOD9104310
Probable space group: P -1
;
_chemical_formula_sum "Si O2"
_cell_formula_units_Z 16
_cell_length_a 13.595484
_cell_length_b 19.006071
_cell_length_c 22.080336
_cell_angle_alpha 18.226003
_cell_angle_beta 151.778703
_cell_angle_gamma 151.832036
_cell_volume 804.478541
_symmetry_space_group_name_H-M "P -1"
_symmetry_group_IT_number 2
_symmetry_cell_setting 'triclinic'
loop_
_space_group_symop_operation_xyz
x,y,z
-x,-y,-z
loop_
_atom_site_type_symbol
_atom_site_label
_atom_site_fract_x
_atom_site_fract_y
_atom_site_fract_z
Si Si1 0.763971 0.642702 0.664156
Si Si2 0.931412 0.980150 0.297354
Si Si3 0.258233 0.520520 0.345530
Si Si4 0.111987 0.956725 0.918206
Si Si5 0.557366 0.808265 0.606105
Si Si6 0.221045 0.866577 0.789833
Si Si7 0.564309 0.607988 0.207264
Si Si8 0.593538 0.750044 0.814442
O O1 0.792690 0.500796 0.736193
O O2 0.560091 0.507089 0.704884
O O3 0.984373 0.704981 0.771862
O O4 0.737466 0.888826 0.423965
O O5 0.900387 0.708829 0.520510
O O6 0.857499 0.988557 0.181669
O O7 0.796052 0.075070 0.196164
O O8 0.184679 0.129634 0.318428
O O9 0.500000 0.500000 0.500000
O O10 0.233305 0.763220 0.157693
O O11 0.855663 0.840599 0.884655
O O12 0.214347 0.194771 0.816280
O O13 0.424893 0.600956 0.660040
O O14 0.525363 0.734358 0.719541
O O15 0.493535 0.047772 0.368865
O O16 0.403696 0.740645 0.981796
O O17 0.500000 0.500000 0.000000
#
# Coordination Sequence:
#
# PCOD9104310 Si02
#       8
#     2   2   2   2   2   2   2   2
#     4  10  21  34  56  85 126 165 201 234 281 343
#     4  10  20  39  60  84 122 161 204 240 282 349
#     4  11  22  36  56  88 128 164 200 238 281 351
#     4  11  24  38  62  88 118 163 194 241 311 349
#     4  10  23  40  64  90 111 150 199 254 297 351
#     4  10  21  35  55  90 125 162 202 237 279 347
#     4  12  23  37  58  91 128 153 193 246 297 353
#     4  10  23  46  67  85 109 149 204 252 301 363
#
# _framework density 19.888660000000002
#
# number of rings (size 3 to 8) (size 9 to 14) (size 15 to 20)
#    0.000    1.500    1.250    4.125    3.500    3.000 
#    0.000    0.625    0.000    0.000    0.000    0.000 
#    0.000    0.000    0.000    0.000    0.000    0.000 
#
# Total GULP energy -89493.289815 kJ/mol
# GULP energy per Si atom -5593.330613 kJ/mol
# Density = 1.984339 g / cm^3
# Si number density = 19.888660 Si / 1000 Ang^3
#
#
#
# Elastic Constant Matrix: (Units=GPa)
#
#
# Indices 1 2 3 4 5 6 
#
# 1 48.3768 37.5281 40.0708 -16.3847 -2.1223 -8.5447
# 2 37.5281 110.9315 37.5299 -25.9572 -5.6095 -17.7762
# 3 40.0708 37.5299 100.2902 -18.2073 1.2714 -8.9845
# 4 -16.3847 -25.9572 -18.2073 34.1470 0.5035 4.8039
# 5 -2.1223 -5.6095 1.2714 0.5035 26.3530 -7.7292
# 6 -8.5447 -17.7762 -8.9845 4.8039 -7.7292 21.4194
#
#
#
# Elastic Compliance Matrix: (Units=1/GPa)
#
#
# Indices 1 2 3 4 5 6 
#
# 1 0.038445 -0.006693 -0.011265 0.006620 0.003507 0.004837
# 2 -0.006693 0.014902 -0.000974 0.006126 0.005463 0.009886
# 3 -0.011265 -0.000974 0.015220 0.002005 -0.001903 -0.000055
# 4 0.006620 0.006126 0.002005 0.038110 0.001138 0.000429
# 5 0.003507 0.005463 -0.001903 0.001138 0.045733 0.021382
# 6 0.004837 0.009886 -0.000055 0.000429 0.021382 0.064417
#
#
# Mechanical properties :
#
#
# Convention : Reuss Voigt Hill
#
# Bulk Modulus (GPa) = 32.57063 54.42847 43.49955
# Shear Modulus (GPa) = 18.87324 26.01519 22.44421
#
# Velocity S-wave (km/s) = 3.08384 3.62061 3.36295
# Velocity P-wave (km/s) = 5.39371 6.70107 6.08262
#
# Compressibility (1/GPa) = 0.03070251
#
# Stress axis : x y z
#
# Youngs Moduli (GPa) = 26.01142 67.10449 65.70404
#
# Poissons Ratio (x) = 0.44913 0.74016
# Poissons Ratio (y) = 0.17410 0.06398
# Poissons Ratio (z) = 0.29302 0.06535
#
# Static dielectric constant tensor:
#      x y z
#    x 1.683920 -0.007790 -0.004940 
#    y -0.007790 1.707180 -0.004280 
#    z -0.004940 -0.004280 1.711470 
# 
# From -- ./inp_files/399098.got.cif
#   From: 2010.05.17/outbox.cif.g08.bks.cpg/sg2_200_cif.got.tgz:399098.got - 2010.06.03 11:33:40.
