data_PCOD9104141
_publ_section_title
;
Structure prediction by ZEFSAII (Michael W. Deem and Ramdas Pophale) SiO2 
 PCOD9104141
Probable space group: P -1
;
_chemical_formula_sum "Si O2"
_cell_formula_units_Z 16
_cell_length_a 8.390826
_cell_length_b 15.198215
_cell_length_c 11.401546
_cell_angle_alpha 52.945089
_cell_angle_beta 37.049399
_cell_angle_gamma 70.980586
_cell_volume 661.784799
_symmetry_space_group_name_H-M "P -1"
_symmetry_group_IT_number 2
_symmetry_cell_setting 'triclinic'
loop_
_space_group_symop_operation_xyz
x,y,z
-x,-y,-z
loop_
_atom_site_type_symbol
_atom_site_label
_atom_site_fract_x
_atom_site_fract_y
_atom_site_fract_z
Si Si1 0.800384 0.065618 0.329589
Si Si2 0.542850 0.058789 0.734763
Si Si3 0.859217 0.112003 0.750815
Si Si4 0.183960 0.565654 0.613582
Si Si5 0.417804 0.269520 0.564533
Si Si6 0.741930 0.532672 0.578687
Si Si7 0.310192 0.354911 0.258823
Si Si8 0.188282 0.689988 0.929924
O O1 0.749805 0.068264 0.497270
O O2 0.903046 0.194970 0.109863
O O3 0.500000 0.000000 0.500000
O O4 0.001279 0.989541 0.255083
O O5 0.702722 0.110930 0.719709
O O6 0.350540 0.135495 0.744405
O O7 0.362567 0.927927 0.981571
O O8 0.100885 0.232455 0.529188
O O9 0.386598 0.652481 0.513187
O O10 0.351216 0.555897 0.403591
O O11 0.916192 0.608057 0.713732
O O12 0.053013 0.432933 0.841263
O O13 0.199144 0.338242 0.613761
O O14 0.617698 0.287659 0.318670
O O15 0.590363 0.544652 0.779268
O O16 0.000000 0.500000 0.500000
O O17 0.592008 0.324510 0.087637
#
# Coordination Sequence:
#
# PCOD9104141 Si02
#       8
#     2   2   2   2   2   2   2   2
#     4  11  23  41  63  95 127 160 212 260 311 374
#     4  10  24  41  65  93 124 168 210 260 313 372
#     4  11  22  43  67  88 128 168 209 259 318 367
#     4  11  20  36  63  84 117 161 200 246 309 361
#     4  10  20  39  58  85 123 154 202 252 302 368
#     4   9  21  36  56  84 119 153 196 250 297 366
#     4  10  20  40  58  85 123 156 200 253 307 367
#     4  10  22  37  57  90 119 156 199 252 306 371
#
# _framework density 24.177042
#
# number of rings (size 3 to 8) (size 9 to 14) (size 15 to 20)
#    0.000    1.750    2.500    1.500    1.750    1.500 
#    0.000    0.000    0.000    0.000    0.000    0.000 
#    0.000    0.000    0.000    0.000    0.000    0.000 
#
# Total GULP energy -89265.572693 kJ/mol
# GULP energy per Si atom -5579.098293 kJ/mol
# Density = 2.412201 g / cm^3
# Si number density = 24.177042 Si / 1000 Ang^3
#
#
#
# Elastic Constant Matrix: (Units=GPa)
#
#
# Indices 1 2 3 4 5 6 
#
# 1 92.8230 23.9746 10.0995 -4.3049 12.0398 -19.2440
# 2 23.9746 86.5931 14.4039 -11.4714 8.2570 -32.0990
# 3 10.0995 14.4039 58.5343 -14.5515 0.5345 -2.6554
# 4 -4.3049 -11.4714 -14.5515 36.6626 -1.5990 -0.5486
# 5 12.0398 8.2570 0.5345 -1.5990 24.8694 -7.0617
# 6 -19.2440 -32.0990 -2.6554 -0.5486 -7.0617 44.5253
#
#
#
# Elastic Compliance Matrix: (Units=1/GPa)
#
#
# Indices 1 2 3 4 5 6 
#
# 1 0.012671 -0.001430 -0.001559 0.000276 -0.004578 0.003630
# 2 -0.001430 0.017357 -0.002386 0.004426 -0.001447 0.011578
# 3 -0.001559 -0.002386 0.019599 0.006892 0.001304 -0.000933
# 4 0.000276 0.004426 0.006892 0.031560 0.001513 0.004350
# 5 -0.004578 -0.001447 0.001304 0.001513 0.044133 0.004074
# 6 0.003630 0.011578 -0.000933 0.004350 0.004074 0.033019
#
#
# Mechanical properties :
#
#
# Convention : Reuss Voigt Hill
#
# Bulk Modulus (GPa) = 25.72182 37.21184 31.46683
# Shear Modulus (GPa) = 27.46525 33.84294 30.65409
#
# Velocity S-wave (km/s) = 3.37412 3.74544 3.56462
# Velocity P-wave (km/s) = 5.08347 5.84203 5.47590
#
# Compressibility (1/GPa) = 0.03887750
#
# Stress axis : x y z
#
# Youngs Moduli (GPa) = 78.91805 57.61335 51.02229
#
# Poissons Ratio (x) = 0.08240 0.07956
# Poissons Ratio (y) = 0.11287 0.12172
# Poissons Ratio (z) = 0.12305 0.13744
#
# Static dielectric constant tensor:
#      x y z
#    x 1.980730 -0.015450 0.081910 
#    y -0.015450 1.951700 0.032880 
#    z 0.081910 0.032880 1.966300 
# 
# From -- ./inp_files/170436.got.cif
#   From: 2010.05.17/outbox.cif.g08.bks.cpg/sg2_86_cif.got.tgz:170436.got - 2010.06.03 11:33:40.
