data_PCOD9104629
_publ_section_title
;
Structure prediction by ZEFSAII (Michael W. Deem and Ramdas Pophale) SiO2 
 PCOD9104629
Probable space group: P -1
;
_chemical_formula_sum "Si O2"
_cell_formula_units_Z 16
_cell_length_a 19.281829
_cell_length_b 9.739402
_cell_length_c 8.226202
_cell_angle_alpha 80.689989
_cell_angle_beta 54.269150
_cell_angle_gamma 40.136569
_cell_volume 678.272982
_symmetry_space_group_name_H-M "P -1"
_symmetry_group_IT_number 2
_symmetry_cell_setting 'triclinic'
loop_
_space_group_symop_operation_xyz
x,y,z
-x,-y,-z
loop_
_atom_site_type_symbol
_atom_site_label
_atom_site_fract_x
_atom_site_fract_y
_atom_site_fract_z
Si Si1 0.598112 0.004396 0.333379
Si Si2 0.027528 0.244535 0.148201
Si Si3 0.305762 0.755126 0.089831
Si Si4 0.866265 0.246582 0.520542
Si Si5 0.811579 0.538332 0.805214
Si Si6 0.593253 0.091912 0.968799
Si Si7 0.557019 0.675765 0.207961
Si Si8 0.027579 0.551623 0.141380
O O1 0.529213 0.151536 0.227216
O O2 0.556006 0.158416 0.515287
O O3 0.500000 0.000000 0.500000
O O4 0.785729 0.721489 0.112738
O O5 0.927607 0.236995 0.277681
O O6 0.059563 0.247694 0.919773
O O7 0.166343 0.013915 0.124426
O O8 0.966170 0.478084 0.255351
O O9 0.260229 0.699951 0.296988
O O10 0.373912 0.789793 0.089836
O O11 0.396085 0.543142 0.869076
O O12 0.821403 0.445756 0.641781
O O13 0.000000 0.000000 0.500000
O O14 0.708167 0.569822 0.046941
O O15 0.969514 0.358945 0.718484
O O16 0.736549 0.790290 0.833681
O O17 0.512581 0.167352 0.894627
#
# Coordination Sequence:
#
# PCOD9104629 Si02
#       8
#     2   2   2   2   2   2   2   2
#     4  11  22  39  65  97 127 163 217 265 320 381
#     4  10  20  41  64  87 129 164 206 267 314 375
#     4  10  21  43  60  93 134 166 211 270 319 387
#     4   9  21  38  62  85 122 170 206 255 318 380
#     4  10  20  39  61  92 125 160 217 263 313 382
#     4  11  22  40  65  92 132 166 215 273 311 380
#     4  11  23  39  66  93 131 173 211 261 337 384
#     4  10  21  38  64  95 124 162 211 273 313 365
#
# _framework density 23.589323
#
# number of rings (size 3 to 8) (size 9 to 14) (size 15 to 20)
#    0.000    1.750    5.000    0.750    1.750    2.000 
#    0.000    5.625    5.500    0.000    0.000    0.000 
#    0.000    0.000    0.000    0.000    0.000    0.000 
#
# Total GULP energy -89128.350184 kJ/mol
# GULP energy per Si atom -5570.521886 kJ/mol
# Density = 2.353563 g / cm^3
# Si number density = 23.589323 Si / 1000 Ang^3
#
#
#
# Elastic Constant Matrix: (Units=GPa)
#
#
# Indices 1 2 3 4 5 6 
#
# 1 81.0649 36.9910 2.4430 -16.8065 5.8751 20.7274
# 2 36.9910 95.8890 33.4822 -30.8779 0.1590 14.2935
# 3 2.4430 33.4822 61.0219 -14.5315 0.3055 10.6443
# 4 -16.8065 -30.8779 -14.5315 35.5626 3.8525 2.8787
# 5 5.8751 0.1590 0.3055 3.8525 28.1002 -12.0295
# 6 20.7274 14.2935 10.6443 2.8787 -12.0295 47.7674
#
#
#
# Elastic Compliance Matrix: (Units=1/GPa)
#
#
# Indices 1 2 3 4 5 6 
#
# 1 0.020460 -0.005104 0.006560 0.010086 -0.010912 -0.012169
# 2 -0.005104 0.019079 -0.006893 0.011802 -0.001935 -0.003157
# 3 0.006560 -0.006893 0.023208 0.007901 -0.006077 -0.007962
# 4 0.010086 0.011802 0.007901 0.049471 -0.016206 -0.016731
# 5 -0.010912 -0.001935 -0.006077 -0.016206 0.048689 0.019907
# 6 -0.012169 -0.003157 -0.007962 -0.016731 0.019907 0.034955
#
#
# Mechanical properties :
#
#
# Convention : Reuss Voigt Hill
#
# Bulk Modulus (GPa) = 19.27767 42.64535 30.96151
# Shear Modulus (GPa) = 22.31864 33.29002 27.80433
#
# Velocity S-wave (km/s) = 3.07926 3.76071 3.43692
# Velocity P-wave (km/s) = 4.56426 6.08069 5.37621
#
# Compressibility (1/GPa) = 0.05187348
#
# Stress axis : x y z
#
# Youngs Moduli (GPa) = 48.87513 52.41413 43.08852
#
# Poissons Ratio (x) = 0.26752 -0.28268
# Poissons Ratio (y) = 0.24946 0.29702
# Poissons Ratio (z) = -0.32064 0.36130
#
# Static dielectric constant tensor:
#      x y z
#    x 1.958850 -0.041260 -0.024280 
#    y -0.041260 1.899060 0.023980 
#    z -0.024280 0.023980 1.985270 
# 
# From -- ./inp_files/180080.got.cif
#   From: 2010.05.17/outbox.cif.g08.bks.cpg/sg2_91_cif.got.tgz:180080.got - 2010.06.03 11:33:40.
