data_PCOD9104459
_publ_section_title
;
Structure prediction by ZEFSAII (Michael W. Deem and Ramdas Pophale) SiO2 
 PCOD9104459
Probable space group: P -1
;
_chemical_formula_sum "Si O2"
_cell_formula_units_Z 16
_cell_length_a 13.720468
_cell_length_b 9.069100
_cell_length_c 13.100611
_cell_angle_alpha 130.434715
_cell_angle_beta 45.865693
_cell_angle_gamma 102.154711
_cell_volume 799.104861
_symmetry_space_group_name_H-M "P -1"
_symmetry_group_IT_number 2
_symmetry_cell_setting 'triclinic'
loop_
_space_group_symop_operation_xyz
x,y,z
-x,-y,-z
loop_
_atom_site_type_symbol
_atom_site_label
_atom_site_fract_x
_atom_site_fract_y
_atom_site_fract_z
Si Si1 0.091026 0.204930 0.392652
Si Si2 0.575958 0.919480 0.209712
Si Si3 0.097273 0.337800 0.226100
Si Si4 0.119179 0.858990 0.767803
Si Si5 0.827920 0.110596 0.467946
Si Si6 0.506641 0.450337 0.806010
Si Si7 0.454593 0.639886 0.493329
Si Si8 0.651272 0.076862 0.770983
O O1 0.135530 0.293590 0.297966
O O2 0.968477 0.410071 0.635581
O O3 0.988594 0.088554 0.379955
O O4 0.240669 0.066371 0.283563
O O5 0.539417 0.736805 0.207746
O O6 0.487621 0.965937 0.186523
O O7 0.522804 0.143265 0.409591
O O8 0.755439 0.813335 0.012026
O O9 0.956473 0.284421 0.287769
O O10 0.145574 0.985406 0.708907
O O11 0.276260 0.722197 0.645470
O O12 0.000000 0.000000 0.000000
O O13 0.687292 0.349442 0.655401
O O14 0.758420 0.026888 0.570694
O O15 0.479258 0.475110 0.714999
O O16 0.417114 0.672890 0.031622
O O17 0.500000 0.500000 0.500000
#
# Coordination Sequence:
#
# PCOD9104459 Si02
#       8
#     2   2   2   2   2   2   2   2
#     4  10  21  35  58  90 120 152 199 251 299 351
#     4  11  22  40  62  89 123 160 200 245 307 361
#     4  10  21  37  58  84 120 159 198 242 302 364
#     4  10  20  39  61  81 114 162 201 237 302 359
#     4   9  19  37  59  84 116 154 194 244 297 355
#     4  10  22  41  64  88 122 163 200 244 306 363
#     4  11  25  40  63  89 123 157 206 253 296 353
#     4  11  22  36  64  92 121 153 205 252 300 350
#
# _framework density 20.022403000000001
#
# number of rings (size 3 to 8) (size 9 to 14) (size 15 to 20)
#    0.000    1.750    1.250    3.750    3.500    1.500 
#    0.000    0.000    0.000    1.500    0.000    0.000 
#    0.000    0.000    0.000    0.000    0.000    0.000 
#
# Total GULP energy -89191.639014 kJ/mol
# GULP energy per Si atom -5574.477438 kJ/mol
# Density = 1.997683 g / cm^3
# Si number density = 20.022403 Si / 1000 Ang^3
#
#
#
# Elastic Constant Matrix: (Units=GPa)
#
#
# Indices 1 2 3 4 5 6 
#
# 1 119.5434 35.3806 22.0044 5.4568 -11.1522 -19.7002
# 2 35.3806 43.7650 16.1113 -0.2457 -3.7828 -17.3042
# 3 22.0044 16.1113 72.0629 -11.9978 7.3265 -4.3639
# 4 5.4568 -0.2457 -11.9978 21.9262 -1.0517 -3.0634
# 5 -11.1522 -3.7828 7.3265 -1.0517 33.8484 -1.6128
# 6 -19.7002 -17.3042 -4.3639 -3.0634 -1.6128 30.7226
#
#
#
# Elastic Compliance Matrix: (Units=1/GPa)
#
#
# Indices 1 2 3 4 5 6 
#
# 1 0.012083 -0.007136 -0.002980 -0.004100 0.003849 0.003098
# 2 -0.007136 0.037224 -0.005269 0.001728 0.003766 0.016012
# 3 -0.002980 -0.005269 0.018085 0.010107 -0.005246 -0.001577
# 4 -0.004100 0.001728 0.010107 0.052801 -0.001468 0.004967
# 5 0.003849 0.003766 -0.005246 -0.001468 0.032580 0.005408
# 6 0.003098 0.016012 -0.001577 0.004967 0.005408 0.044110
#
#
# Mechanical properties :
#
#
# Convention : Reuss Voigt Hill
#
# Bulk Modulus (GPa) = 27.30640 42.48487 34.89563
# Shear Modulus (GPa) = 20.84546 28.09110 24.46828
#
# Velocity S-wave (km/s) = 3.23012 3.74971 3.49957
# Velocity P-wave (km/s) = 5.25158 6.32549 5.81338
#
# Compressibility (1/GPa) = 0.03662145
#
# Stress axis : x y z
#
# Youngs Moduli (GPa) = 82.76399 26.86441 55.29340
#
# Poissons Ratio (x) = 0.19170 0.16479
# Poissons Ratio (y) = 0.59060 0.29133
# Poissons Ratio (z) = 0.24666 0.14155
#
# Static dielectric constant tensor:
#      x y z
#    x 1.746750 0.019440 0.025060 
#    y 0.019440 1.745130 -0.016400 
#    z 0.025060 -0.016400 1.734110 
# 
# From -- ./inp_files/216786.got.cif
#   From: 2010.05.17/outbox.cif.g08.bks.cpg/sg2_109_cif.got.tgz:216786.got - 2010.06.03 11:33:40.
