data_PCOD9104593
_publ_section_title
;
Structure prediction by ZEFSAII (Michael W. Deem and Ramdas Pophale) SiO2 
 PCOD9104593
Probable space group: P -1
;
_chemical_formula_sum "Si O2"
_cell_formula_units_Z 16
_cell_length_a 6.523012
_cell_length_b 13.283640
_cell_length_c 11.329271
_cell_angle_alpha 111.844088
_cell_angle_beta 86.334621
_cell_angle_gamma 57.491361
_cell_volume 723.429634
_symmetry_space_group_name_H-M "P -1"
_symmetry_group_IT_number 2
_symmetry_cell_setting 'triclinic'
loop_
_space_group_symop_operation_xyz
x,y,z
-x,-y,-z
loop_
_atom_site_type_symbol
_atom_site_label
_atom_site_fract_x
_atom_site_fract_y
_atom_site_fract_z
Si Si1 0.479706 0.914939 0.290184
Si Si2 0.899830 0.138196 0.170940
Si Si3 0.672709 0.685050 0.825252
Si Si4 0.661987 0.451176 0.661934
Si Si5 0.145639 0.610213 0.631475
Si Si6 0.832342 0.831425 0.036650
Si Si7 0.889783 0.123298 0.792097
Si Si8 0.889755 0.851247 0.423427
O O1 0.597916 0.935027 0.178922
O O2 0.683054 0.843463 0.357980
O O3 0.243504 0.057961 0.416510
O O4 0.390088 0.825602 0.213679
O O5 0.625286 0.197448 0.146928
O O6 0.855337 0.258528 0.304980
O O7 0.004773 0.005303 0.183859
O O8 0.104418 0.114529 0.054956
O O9 0.680825 0.552938 0.784813
O O10 0.869536 0.653547 0.698784
O O11 0.772628 0.731571 0.945769
O O12 0.367212 0.509196 0.674907
O O13 0.764727 0.452188 0.528277
O O14 0.849153 0.296804 0.629473
O O15 0.073051 0.777871 0.092828
O O16 0.052942 0.076260 0.645290
#
# Coordination Sequence:
#
# PCOD9104593 Si02
#       8
#     2   2   2   2   2   2   2   2
#     4  10  22  40  59  86 123 163 202 243 299 358
#     4  10  21  36  60  92 125 156 196 252 304 355
#     4  10  21  38  62  89 119 158 200 251 307 352
#     4  10  20  39  61  90 124 156 200 252 301 352
#     4   9  20  36  61  92 119 154 200 252 306 358
#     4  10  22  38  59  90 123 159 204 248 296 358
#     4  11  22  37  57  87 125 163 199 242 297 358
#     4  10  23  39  61  91 123 159 201 244 296 367
#
# _framework density 22.116872000000001
#
# number of rings (size 3 to 8) (size 9 to 14) (size 15 to 20)
#    0.000    2.000    0.000    2.625    0.000    9.000 
#    0.000    2.500    0.000   28.500    0.000    0.000 
#    0.000    0.000    0.000    0.000    0.000    0.000 
#
# Total GULP energy -89306.128999 kJ/mol
# GULP energy per Si atom -5581.633062 kJ/mol
# Density = 2.206653 g / cm^3
# Si number density = 22.116872 Si / 1000 Ang^3
#
#
#
# Elastic Constant Matrix: (Units=GPa)
#
#
# Indices 1 2 3 4 5 6 
#
# 1 112.5397 6.3059 58.7354 -8.0965 15.4844 2.9769
# 2 6.3059 51.5753 33.1503 2.6615 7.9866 -1.4180
# 3 58.7354 33.1503 123.0343 -0.6155 -0.9340 8.0115
# 4 -8.0965 2.6615 -0.6155 15.9639 2.2806 4.9156
# 5 15.4844 7.9866 -0.9340 2.2806 49.1016 -2.1611
# 6 2.9769 -1.4180 8.0115 4.9156 -2.1611 13.1385
#
#
#
# Elastic Compliance Matrix: (Units=1/GPa)
#
#
# Indices 1 2 3 4 5 6 
#
# 1 0.013961 0.003520 -0.007489 0.007608 -0.005558 -0.001978
# 2 0.003520 0.026258 -0.009391 -0.004960 -0.004942 0.008806
# 3 -0.007489 -0.009391 0.014769 0.000181 0.003820 -0.007762
# 4 0.007608 -0.004960 0.000181 0.078385 -0.006673 -0.032794
# 5 -0.005558 -0.004942 0.003820 -0.006673 0.023515 0.004761
# 6 -0.001978 0.008806 -0.007762 -0.032794 0.004761 0.095296
#
#
# Mechanical properties :
#
#
# Convention : Reuss Voigt Hill
#
# Bulk Modulus (GPa) = 35.37498 53.72584 44.55041
# Shear Modulus (GPa) = 17.34139 28.23798 22.78969
#
# Velocity S-wave (km/s) = 2.80318 3.57706 3.21350
# Velocity P-wave (km/s) = 5.14844 6.43467 5.82715
#
# Compressibility (1/GPa) = 0.02826856
#
# Stress axis : x y z
#
# Youngs Moduli (GPa) = 71.62559 38.08313 67.71097
#
# Poissons Ratio (x) = -0.13406 0.50708
# Poissons Ratio (y) = -0.25214 0.63589
# Poissons Ratio (z) = 0.53640 0.35765
#
# Static dielectric constant tensor:
#      x y z
#    x 1.889450 -0.009770 0.017200 
#    y -0.009770 1.782030 0.008160 
#    z 0.017200 0.008160 1.846230 
# 
# From -- ./inp_files/367861.got.cif
#   From: 2010.05.17/outbox.cif.g08.bks.cpg/sg2_184_cif.got.tgz:367861.got - 2010.06.03 11:33:40.
