data_PCOD9104288
_publ_section_title
;
Structure prediction by ZEFSAII (Michael W. Deem and Ramdas Pophale) SiO2 
 PCOD9104288
Probable space group: P -1
;
_chemical_formula_sum "Si O2"
_cell_formula_units_Z 14
_cell_length_a 11.046717
_cell_length_b 15.856787
_cell_length_c 11.531666
_cell_angle_alpha 30.155619
_cell_angle_beta 137.458193
_cell_angle_gamma 121.674620
_cell_volume 647.725604
_symmetry_space_group_name_H-M "P -1"
_symmetry_group_IT_number 2
_symmetry_cell_setting 'triclinic'
loop_
_space_group_symop_operation_xyz
x,y,z
-x,-y,-z
loop_
_atom_site_type_symbol
_atom_site_label
_atom_site_fract_x
_atom_site_fract_y
_atom_site_fract_z
Si Si1 0.236156 0.761635 0.765939
Si Si2 0.725608 0.050074 0.845608
Si Si3 0.443725 0.546552 0.771356
Si Si4 0.909217 0.426172 0.651253
Si Si5 0.136893 0.293097 0.531011
Si Si6 0.277624 0.596053 0.224093
Si Si7 0.851699 0.926731 0.831280
O O1 0.042106 0.738041 0.614402
O O2 0.242709 0.939381 0.498051
O O3 0.405689 0.594282 0.035778
O O4 0.235959 0.749779 0.917984
O O5 0.578083 0.247869 0.513982
O O6 0.733695 0.985230 0.795581
O O7 0.937542 0.059974 0.009344
O O8 0.708818 0.895594 0.102490
O O9 0.238758 0.536300 0.602571
O O10 0.500000 0.500000 0.000000
O O11 0.922990 0.602315 0.512566
O O12 0.812588 0.345840 0.782661
O O13 0.101980 0.275692 0.932965
O O14 0.199491 0.433300 0.332719
O O15 0.500000 0.500000 0.500000
#
# Coordination Sequence:
#
# PCOD9104288 Si02
#       7
#     2   2   2   2   2   2   2
#     4  11  19  36  62  83 114 143 194 229 274 327
#     4   9  18  35  55  81 119 142 188 223 283 330
#     4  11  20  36  59  86 110 155 185 223 280 345
#     4   9  21  37  57  83 111 149 188 221 292 322
#     4   9  21  37  57  85 111 148 185 241 270 328
#     4  10  20  39  60  79 114 151 186 231 280 336
#     4   9  18  33  57  84 108 153 180 229 274 340
#
# _framework density 21.614091999999999
#
# number of rings (size 3 to 8) (size 9 to 14) (size 15 to 20)
#    0.857    1.429    2.857    0.429    2.000    1.143 
#    0.000    4.286    0.000    0.000    0.000    0.000 
#    0.000    0.000    0.000    0.000    0.000    0.000 
#
# Total GULP energy -78103.313490 kJ/mol
# GULP energy per Si atom -5578.808106 kJ/mol
# Density = 2.156490 g / cm^3
# Si number density = 21.614092 Si / 1000 Ang^3
#
#
#
# Elastic Constant Matrix: (Units=GPa)
#
#
# Indices 1 2 3 4 5 6 
#
# 1 55.4277 -2.7632 30.0715 -5.1006 -12.0717 -14.9606
# 2 -2.7632 41.1286 21.2239 4.7352 -5.1363 -16.0897
# 3 30.0715 21.2239 143.7438 1.1763 -15.1496 -12.3992
# 4 -5.1006 4.7352 1.1763 20.8805 -12.1588 -4.2916
# 5 -12.0717 -5.1363 -15.1496 -12.1588 29.3646 4.1621
# 6 -14.9606 -16.0897 -12.3992 -4.2916 4.1621 21.9183
#
#
#
# Elastic Compliance Matrix: (Units=1/GPa)
#
#
# Indices 1 2 3 4 5 6 
#
# 1 0.041351 0.022052 -0.006067 0.027576 0.023195 0.041975
# 2 0.022052 0.047348 -0.006422 0.011669 0.012329 0.046119
# 3 -0.006067 -0.006422 0.008962 -0.000601 0.001347 -0.004159
# 4 0.027576 0.011669 -0.000601 0.084305 0.042958 0.035398
# 5 0.023195 0.012329 0.001347 0.042958 0.061045 0.022464
# 6 0.041975 0.046119 -0.004159 0.035398 0.022464 0.108442
#
#
# Mechanical properties :
#
#
# Convention : Reuss Voigt Hill
#
# Bulk Modulus (GPa) = 8.56262 37.48492 23.02377
# Shear Modulus (GPa) = 13.46775 27.21721 20.34248
#
# Velocity S-wave (km/s) = 2.49891 3.55242 3.07117
# Velocity P-wave (km/s) = 3.50660 5.84865 4.82198
#
# Compressibility (1/GPa) = 0.11678673
#
# Stress axis : x y z
#
# Youngs Moduli (GPa) = 24.18302 21.12027 111.57668
#
# Poissons Ratio (x) = -0.46574 0.67694
# Poissons Ratio (y) = -0.53328 0.71656
# Poissons Ratio (z) = 0.14672 0.13564
#
# Static dielectric constant tensor:
#      x y z
#    x 1.839150 0.059620 -0.048350 
#    y 0.059620 1.855000 -0.024400 
#    z -0.048350 -0.024400 1.794820 
# 
# From -- ./inp_files/197844.got.cif
#   From: 2010.05.17/outbox.cif.g08.bks.cpg/sg2_99_cif.got.tgz:197844.got - 2010.06.03 11:33:40.
