data_PCOD9104292
_publ_section_title
;
Structure prediction by ZEFSAII (Michael W. Deem and Ramdas Pophale) SiO2 
 PCOD9104292
Probable space group: P -1
;
_chemical_formula_sum "Si O2"
_cell_formula_units_Z 16
_cell_length_a 15.707760
_cell_length_b 10.268213
_cell_length_c 7.222653
_cell_angle_alpha 91.786683
_cell_angle_beta 94.061167
_cell_angle_gamma 42.054000
_cell_volume 777.957768
_symmetry_space_group_name_H-M "P -1"
_symmetry_group_IT_number 2
_symmetry_cell_setting 'triclinic'
loop_
_space_group_symop_operation_xyz
x,y,z
-x,-y,-z
loop_
_atom_site_type_symbol
_atom_site_label
_atom_site_fract_x
_atom_site_fract_y
_atom_site_fract_z
Si Si1 0.571937 0.226467 0.369939
Si Si2 0.211531 0.353120 0.397659
Si Si3 0.613308 0.448269 0.910191
Si Si4 0.380915 0.942719 0.259875
Si Si5 0.987598 0.374124 0.895955
Si Si6 0.612927 0.877789 0.252203
Si Si7 0.718600 0.601443 0.943159
Si Si8 0.746116 0.073020 0.066946
O O1 0.447024 0.444045 0.291371
O O2 0.589523 0.201244 0.590220
O O3 0.688523 0.155063 0.266892
O O4 0.576037 0.068308 0.299606
O O5 0.264888 0.296920 0.608959
O O6 0.067257 0.541422 0.318241
O O7 0.256158 0.162120 0.319286
O O8 0.288497 0.366852 0.277599
O O9 0.500000 0.500000 0.000000
O O10 0.652823 0.544961 0.998284
O O11 0.733936 0.218456 0.951410
O O12 0.497389 0.911964 0.283021
O O13 0.348565 0.916472 0.058487
O O14 0.116805 0.147904 0.911776
O O15 0.000000 0.500000 0.000000
O O16 0.870827 0.433864 0.984420
O O17 0.654870 0.794708 0.047497
#
# Coordination Sequence:
#
# PCOD9104292 Si02
#       8
#     2   2   2   2   2   2   2   2
#     4  10  21  35  54  88 113 141 187 236 289 337
#     4   9  20  35  55  87 118 138 186 238 280 344
#     4  10  21  37  58  82 114 152 195 229 277 339
#     4  11  20  33  59  86 116 140 186 240 290 345
#     4  10  20  39  60  81 117 148 191 231 276 343
#     4  11  19  33  60  89 112 144 178 239 310 327
#     4  10  21  37  57  83 117 151 186 233 278 333
#     4  11  22  39  55  79 115 157 187 230 277 325
#
# _framework density 20.566668
#
# number of rings (size 3 to 8) (size 9 to 14) (size 15 to 20)
#    0.750    1.000    1.250    6.000    0.000    2.500 
#    2.250    4.375    0.000    0.750    0.000    0.000 
#    0.000    0.000    0.000    0.000    0.000    0.000 
#
# Total GULP energy -89181.535869 kJ/mol
# GULP energy per Si atom -5573.845992 kJ/mol
# Density = 2.051986 g / cm^3
# Si number density = 20.566668 Si / 1000 Ang^3
#
#
#
# Elastic Constant Matrix: (Units=GPa)
#
#
# Indices 1 2 3 4 5 6 
#
# 1 66.9125 18.6765 23.2357 -16.7536 6.0965 4.5784
# 2 18.6765 100.3190 25.6761 -45.7332 6.7768 -6.8587
# 3 23.2357 25.6761 92.7974 -34.2170 -1.3445 -6.5693
# 4 -16.7536 -45.7332 -34.2170 41.1565 -3.1480 5.0168
# 5 6.0965 6.7768 -1.3445 -3.1480 24.4795 -5.3561
# 6 4.5784 -6.8587 -6.5693 5.0168 -5.3561 34.6608
#
#
#
# Elastic Compliance Matrix: (Units=1/GPa)
#
#
# Indices 1 2 3 4 5 6 
#
# 1 0.018025 -0.000607 -0.003194 0.004174 -0.004938 -0.004474
# 2 -0.000607 0.021378 0.004107 0.026662 -0.001908 0.000935
# 3 -0.003194 0.004107 0.017090 0.017429 0.003380 0.002473
# 4 0.004174 0.026662 0.017429 0.070445 0.001161 -0.001989
# 5 -0.004938 -0.001908 0.003380 0.001161 0.044616 0.007642
# 6 -0.004474 0.000935 0.002473 -0.001989 0.007642 0.031565
#
#
# Mechanical properties :
#
#
# Convention : Reuss Voigt Hill
#
# Bulk Modulus (GPa) = 17.51235 43.91173 30.71204
# Shear Modulus (GPa) = 22.56913 32.88875 27.72894
#
# Velocity S-wave (km/s) = 3.31624 4.00325 3.67583
# Velocity P-wave (km/s) = 4.81629 6.53952 5.74291
#
# Compressibility (1/GPa) = 0.05710257
#
# Stress axis : x y z
#
# Youngs Moduli (GPa) = 55.47882 46.77805 58.51313
#
# Poissons Ratio (x) = 0.02841 0.18691
# Poissons Ratio (y) = 0.03370 -0.24029
# Poissons Ratio (z) = 0.17721 -0.19210
#
# Static dielectric constant tensor:
#      x y z
#    x 1.755500 0.007950 -0.004620 
#    y 0.007950 1.759030 -0.018810 
#    z -0.004620 -0.018810 1.771860 
# 
# From -- ./inp_files/295249.got.cif
#   From: 2010.05.17/outbox.cif.g08.bks.cpg/sg2_148_cif.got.tgz:295249.got - 2010.06.03 11:33:40.
