data_PCOD9104956
_publ_section_title
;
Structure prediction by ZEFSAII (Michael W. Deem and Ramdas Pophale) SiO2 
 PCOD9104956
Probable space group: P -1
;
_chemical_formula_sum "Si O2"
_cell_formula_units_Z 16
_cell_length_a 22.268449
_cell_length_b 20.621293
_cell_length_c 9.981102
_cell_angle_alpha 41.946077
_cell_angle_beta 32.547368
_cell_angle_gamma 18.378860
_cell_volume 733.603363
_symmetry_space_group_name_H-M "P -1"
_symmetry_group_IT_number 2
_symmetry_cell_setting 'triclinic'
loop_
_space_group_symop_operation_xyz
x,y,z
-x,-y,-z
loop_
_atom_site_type_symbol
_atom_site_label
_atom_site_fract_x
_atom_site_fract_y
_atom_site_fract_z
Si Si1 0.361667 0.365341 0.259405
Si Si2 0.294902 0.430202 0.979534
Si Si3 0.795538 0.978944 0.437943
Si Si4 0.670170 0.292749 0.413599
Si Si5 0.326443 0.619515 0.013854
Si Si6 0.907805 0.695762 0.801015
Si Si7 0.252246 0.381456 0.861567
Si Si8 0.908764 0.895535 0.046166
O O1 0.365704 0.478064 0.107785
O O2 0.151009 0.489537 0.565192
O O3 0.637482 0.112021 0.159902
O O4 0.293890 0.397459 0.184183
O O5 0.565984 0.268945 0.686756
O O6 0.233026 0.400776 0.027592
O O7 0.090582 0.675550 0.974996
O O8 0.876741 0.891124 0.268651
O O9 0.027795 0.861889 0.235126
O O10 0.790263 0.887461 0.680183
O O11 0.510960 0.235119 0.565713
O O12 0.500000 0.500000 0.500000
O O13 0.625440 0.351702 0.250674
O O14 0.950155 0.109918 0.205728
O O15 0.500000 0.500000 0.000000
O O16 0.019362 0.611363 0.869967
O O17 0.736191 0.736115 0.037975
#
# Coordination Sequence:
#
# PCOD9104956 Si02
#       8
#     2   2   2   2   2   2   2   2
#     4  11  21  40  62  84 119 167 192 239 307 354
#     4  11  23  40  58  90 123 152 199 253 289 347
#     4  10  20  41  63  87 120 160 194 247 297 357
#     4   9  18  38  55  82 123 153 187 243 288 338
#     4  10  21  36  62  91 121 159 198 238 290 356
#     4  10  22  42  64  86 120 155 199 252 304 352
#     4  11  24  39  65  92 114 154 205 254 298 347
#     4  10  20  39  63  83 123 163 193 234 300 359
#
# _framework density 21.810151000000001
#
# number of rings (size 3 to 8) (size 9 to 14) (size 15 to 20)
#    0.000    1.750    6.250    0.375    3.500    3.000 
#    2.250    3.125    0.000    0.000    0.000    0.000 
#    0.000    0.000    0.000    0.000    0.000    0.000 
#
# Total GULP energy -89356.141825 kJ/mol
# GULP energy per Si atom -5584.758864 kJ/mol
# Density = 2.176051 g / cm^3
# Si number density = 21.810151 Si / 1000 Ang^3
#
#
#
# Elastic Constant Matrix: (Units=GPa)
#
#
# Indices 1 2 3 4 5 6 
#
# 1 122.2751 24.3837 17.7838 7.6137 6.9099 -29.5420
# 2 24.3837 69.0040 2.8816 13.6070 -9.5335 -22.4212
# 3 17.7838 2.8816 51.7010 2.7219 0.5686 -11.6595
# 4 7.6137 13.6070 2.7219 31.2483 -3.0398 -5.6754
# 5 6.9099 -9.5335 0.5686 -3.0398 24.1469 -3.7804
# 6 -29.5420 -22.4212 -11.6595 -5.6754 -3.7804 32.4068
#
#
#
# Elastic Compliance Matrix: (Units=1/GPa)
#
#
# Indices 1 2 3 4 5 6 
#
# 1 0.010789 -0.001408 -0.001810 -0.000681 -0.002465 0.007804
# 2 -0.001408 0.022640 0.002950 -0.005852 0.010993 0.015700
# 3 -0.001810 0.002950 0.021698 -0.000999 0.002345 0.008296
# 4 -0.000681 -0.005852 -0.000999 0.035319 0.002583 0.001458
# 5 -0.002465 0.010993 0.002345 0.002583 0.048659 0.012331
# 6 0.007804 0.015700 0.008296 0.001458 0.012331 0.053512
#
#
# Mechanical properties :
#
#
# Convention : Reuss Voigt Hill
#
# Bulk Modulus (GPa) = 18.31772 37.00873 27.66322
# Shear Modulus (GPa) = 23.65745 30.75580 27.20663
#
# Velocity S-wave (km/s) = 3.29705 3.75928 3.53573
# Velocity P-wave (km/s) = 4.78654 5.98735 5.42030
#
# Compressibility (1/GPa) = 0.05459196
#
# Stress axis : x y z
#
# Youngs Moduli (GPa) = 92.68458 44.16955 46.08747
#
# Poissons Ratio (x) = 0.06218 0.08342
# Poissons Ratio (y) = 0.13047 -0.13596
# Poissons Ratio (z) = 0.16776 -0.13030
#
# Static dielectric constant tensor:
#      x y z
#    x 1.806980 0.037000 -0.008950 
#    y 0.037000 1.823750 0.020280 
#    z -0.008950 0.020280 1.809770 
# 
# From -- ./inp_files/217430.got.cif
#   From: 2010.05.17/outbox.cif.g08.bks.cpg/sg2_109_cif.got.tgz:217430.got - 2010.06.03 11:33:40.
