data_PCOD9104423
_publ_section_title
;
Structure prediction by ZEFSAII (Michael W. Deem and Ramdas Pophale) SiO2 
 PCOD9104423
Probable space group: P -1
;
_chemical_formula_sum "Si O2"
_cell_formula_units_Z 14
_cell_length_a 28.804072
_cell_length_b 9.306517
_cell_length_c 5.337984
_cell_angle_alpha 74.399071
_cell_angle_beta 59.741598
_cell_angle_gamma 28.662827
_cell_volume 538.544079
_symmetry_space_group_name_H-M "P -1"
_symmetry_group_IT_number 2
_symmetry_cell_setting 'triclinic'
loop_
_space_group_symop_operation_xyz
x,y,z
-x,-y,-z
loop_
_atom_site_type_symbol
_atom_site_label
_atom_site_fract_x
_atom_site_fract_y
_atom_site_fract_z
Si Si1 0.336051 0.663157 0.815682
Si Si2 0.849121 0.751375 0.291161
Si Si3 0.955608 0.301928 0.564540
Si Si4 0.618869 0.776946 0.153079
Si Si5 0.478987 0.378406 0.055151
Si Si6 0.840471 0.328654 0.054659
Si Si7 0.908869 0.877804 0.350579
O O1 0.314556 0.539095 0.972490
O O2 0.408401 0.502638 0.435961
O O3 0.222069 0.040133 0.865331
O O4 0.409725 0.539626 0.907060
O O5 0.843480 0.618533 0.541677
O O6 0.826805 0.946088 0.450052
O O7 0.984792 0.398810 0.007322
O O8 0.894817 0.358499 0.930239
O O9 0.021763 0.284161 0.502172
O O10 0.066092 0.951914 0.285545
O O11 0.500000 0.000000 0.500000
O O12 0.581418 0.996657 0.952316
O O13 0.707843 0.639238 0.166376
O O14 0.500000 0.500000 0.000000
O O15 0.853253 0.178179 0.311299
#
# Coordination Sequence:
#
# PCOD9104423 Si02
#       7
#     2   2   2   2   2   2   2
#     4  11  24  45  70  98 137 181 230 284 349 417
#     4  10  22  36  61  94 129 170 223 265 335 409
#     4  10  22  37  63  97 132 174 210 281 336 409
#     4  10  23  46  68  95 135 183 234 282 345 411
#     4  11  26  46  70 101 133 174 236 295 348 406
#     4  10  21  41  61  94 132 166 227 267 342 404
#     4  10  20  39  60  93 133 169 218 266 335 407
#
# _framework density 25.996015
#
# number of rings (size 3 to 8) (size 9 to 14) (size 15 to 20)
#    0.000    1.714    1.429    1.714    4.000    1.143 
#    5.143    0.000    0.000    0.000    0.000    0.000 
#    0.000    0.000    0.000    0.000    0.000    0.000 
#
# Total GULP energy -78127.541636 kJ/mol
# GULP energy per Si atom -5580.538688 kJ/mol
# Density = 2.593685 g / cm^3
# Si number density = 25.996015 Si / 1000 Ang^3
#
#
#
# Elastic Constant Matrix: (Units=GPa)
#
#
# Indices 1 2 3 4 5 6 
#
# 1 98.0088 33.0389 14.2111 -9.0756 9.2466 -28.9952
# 2 33.0389 156.5172 27.6875 -28.8021 -8.3695 -31.3904
# 3 14.2111 27.6875 73.0339 -16.2858 0.2442 -10.3808
# 4 -9.0756 -28.8021 -16.2858 29.3121 -8.3669 10.8297
# 5 9.2466 -8.3695 0.2442 -8.3669 38.5043 -11.8493
# 6 -28.9952 -31.3904 -10.3808 10.8297 -11.8493 46.0414
#
#
#
# Elastic Compliance Matrix: (Units=1/GPa)
#
#
# Indices 1 2 3 4 5 6 
#
# 1 0.012902 -0.001430 -0.001237 -0.001022 -0.001558 0.006711
# 2 -0.001430 0.009720 -0.000822 0.008453 0.005855 0.005059
# 3 -0.001237 -0.000822 0.016161 0.008025 0.002050 0.000944
# 4 -0.001022 0.008453 0.008025 0.050802 0.012517 -0.001799
# 5 -0.001558 0.005855 0.002050 0.012517 0.033110 0.009050
# 6 0.006711 0.005059 0.000944 -0.001799 0.009050 0.032360
#
#
# Mechanical properties :
#
#
# Convention : Reuss Voigt Hill
#
# Bulk Modulus (GPa) = 31.44193 53.04831 42.24512
# Shear Modulus (GPa) = 28.96270 39.61306 34.28788
#
# Velocity S-wave (km/s) = 3.34147 3.90784 3.63570
# Velocity P-wave (km/s) = 5.19696 6.38845 5.82325
#
# Compressibility (1/GPa) = 0.03180466
#
# Stress axis : x y z
#
# Youngs Moduli (GPa) = 77.50499 102.88404 61.87553
#
# Poissons Ratio (x) = 0.14715 0.07655
# Poissons Ratio (y) = 0.11085 0.05086
# Poissons Ratio (z) = 0.09589 0.08457
#
# Static dielectric constant tensor:
#      x y z
#    x 2.098270 0.173100 -0.036470 
#    y 0.173100 2.313580 0.053830 
#    z -0.036470 0.053830 2.107490 
# 
# From -- ./inp_files/52411.got.cif
#   From: 2010.05.17/outbox.cif.g08.bks.cpg/sg2_27_cif.got.tgz:52411.got - 2010.06.03 11:33:40.
