data_PCOD9104489
_publ_section_title
;
Structure prediction by ZEFSAII (Michael W. Deem and Ramdas Pophale) SiO2 
 PCOD9104489
Probable space group: P -1
;
_chemical_formula_sum "Si O2"
_cell_formula_units_Z 14
_cell_length_a 8.451806
_cell_length_b 11.227615
_cell_length_c 9.322945
_cell_angle_alpha 78.091821
_cell_angle_beta 50.888006
_cell_angle_gamma 97.116719
_cell_volume 632.946302
_symmetry_space_group_name_H-M "P -1"
_symmetry_group_IT_number 2
_symmetry_cell_setting 'triclinic'
loop_
_space_group_symop_operation_xyz
x,y,z
-x,-y,-z
loop_
_atom_site_type_symbol
_atom_site_label
_atom_site_fract_x
_atom_site_fract_y
_atom_site_fract_z
Si Si1 0.878900 0.110913 0.694310
Si Si2 0.316568 0.044180 0.407694
Si Si3 0.896701 0.603685 0.595303
Si Si4 0.691476 0.614261 0.432705
Si Si5 0.038511 0.538345 0.804167
Si Si6 0.011340 0.143982 0.918359
Si Si7 0.281022 0.805800 0.692973
O O1 0.856373 0.126480 0.872417
O O2 0.097823 0.074208 0.559423
O O3 0.934228 0.251505 0.555590
O O4 0.697822 0.002018 0.737245
O O5 0.522050 0.159772 0.316229
O O6 0.317427 0.921665 0.532028
O O7 0.699904 0.604769 0.603101
O O8 0.000000 0.500000 0.500000
O O9 0.866086 0.570129 0.790290
O O10 0.500000 0.500000 0.500000
O O11 0.899555 0.575899 0.275310
O O12 0.756251 0.757952 0.293707
O O13 0.237835 0.672839 0.667473
O O14 0.000000 0.500000 0.000000
O O15 0.927180 0.199427 0.091045
O O16 0.000000 0.000000 0.000000
#
# Coordination Sequence:
#
# PCOD9104489 Si02
#       7
#     2   2   2   2   2   2   2
#     4  10  20  39  61  85 121 159 198 249 307 358
#     4  10  22  37  63  89 116 159 199 248 302 374
#     4   9  20  38  59  83 117 159 201 242 303 368
#     4  10  23  40  64  89 117 165 205 245 308 372
#     4  11  21  39  62  83 120 157 200 254 302 356
#     4  11  22  39  61  89 125 157 198 258 304 353
#     4  11  22  38  60  91 119 156 203 244 309 357
#
# _framework density 22.118780000000001
#
# number of rings (size 3 to 8) (size 9 to 14) (size 15 to 20)
#    0.000    1.714    4.286    0.000    4.000    0.571 
#    0.000    2.143    0.000    0.000    0.000    0.000 
#    0.000    0.000    0.000    0.000    0.000    0.000 
#
# Total GULP energy -78050.434029 kJ/mol
# GULP energy per Si atom -5575.031002 kJ/mol
# Density = 2.206844 g / cm^3
# Si number density = 22.118780 Si / 1000 Ang^3
#
#
#
# Elastic Constant Matrix: (Units=GPa)
#
#
# Indices 1 2 3 4 5 6 
#
# 1 90.8484 20.2751 34.4931 -19.1144 21.4639 27.7225
# 2 20.2751 100.8613 -0.8574 -18.8690 4.8753 3.1404
# 3 34.4931 -0.8574 58.5262 -11.2023 31.9637 1.9731
# 4 -19.1144 -18.8690 -11.2023 39.0135 3.1298 5.6891
# 5 21.4639 4.8753 31.9637 3.1298 38.5099 1.0883
# 6 27.7225 3.1404 1.9731 5.6891 1.0883 43.2892
#
#
#
# Elastic Compliance Matrix: (Units=1/GPa)
#
#
# Indices 1 2 3 4 5 6 
#
# 1 0.022758 -0.001697 -0.006765 0.011225 -0.007331 -0.015434
# 2 -0.001697 0.011981 0.005880 0.007259 -0.006017 -0.000853
# 3 -0.006765 0.005880 0.041677 0.013978 -0.032730 0.000992
# 4 0.011225 0.007259 0.013978 0.042358 -0.021842 -0.013370
# 5 -0.007331 -0.006017 -0.032730 -0.021842 0.059530 0.007997
# 6 -0.015434 -0.000853 0.000992 -0.013370 0.007997 0.034557
#
#
# Mechanical properties :
#
#
# Convention : Reuss Voigt Hill
#
# Bulk Modulus (GPa) = 14.03474 39.78415 26.90944
# Shear Modulus (GPa) = 20.68023 37.25086 28.96555
#
# Velocity S-wave (km/s) = 3.06103 4.10827 3.62269
# Velocity P-wave (km/s) = 4.34191 6.36627 5.44893
#
# Compressibility (1/GPa) = 0.07125176
#
# Stress axis : x y z
#
# Youngs Moduli (GPa) = 43.94042 83.46433 23.99408
#
# Poissons Ratio (x) = 0.14167 0.16232
# Poissons Ratio (y) = 0.07459 -0.14109
# Poissons Ratio (z) = 0.29726 -0.49080
#
# Static dielectric constant tensor:
#      x y z
#    x 1.882410 -0.007460 0.009040 
#    y -0.007460 1.849680 0.026140 
#    z 0.009040 0.026140 1.845360 
# 
# From -- ./inp_files/169188.got.cif
#   From: 2010.05.17/outbox.cif.g08.bks.cpg/sg2_85_cif.got.tgz:169188.got - 2010.06.03 11:33:40.
