data_PCOD9104294
_publ_section_title
;
Structure prediction by ZEFSAII (Michael W. Deem and Ramdas Pophale) SiO2 
 PCOD9104294
Probable space group: P -1
;
_chemical_formula_sum "Si O2"
_cell_formula_units_Z 16
_cell_length_a 18.229061
_cell_length_b 8.570048
_cell_length_c 8.259264
_cell_angle_alpha 47.935956
_cell_angle_beta 64.625454
_cell_angle_gamma 51.578445
_cell_volume 750.319130
_symmetry_space_group_name_H-M "P -1"
_symmetry_group_IT_number 2
_symmetry_cell_setting 'triclinic'
loop_
_space_group_symop_operation_xyz
x,y,z
-x,-y,-z
loop_
_atom_site_type_symbol
_atom_site_label
_atom_site_fract_x
_atom_site_fract_y
_atom_site_fract_z
Si Si1 0.369970 0.048066 0.169188
Si Si2 0.079950 0.029757 0.522818
Si Si3 0.409365 0.582346 0.262293
Si Si4 0.434504 0.117568 0.727064
Si Si5 0.932312 0.556743 0.372369
Si Si6 0.029269 0.226402 0.110623
Si Si7 0.608650 0.248826 0.172288
Si Si8 0.229573 0.119599 0.501483
O O1 0.380763 0.794418 0.271482
O O2 0.458918 0.991641 0.235742
O O3 0.277369 0.188693 0.264652
O O4 0.375619 0.165633 0.914222
O O5 0.054942 0.834871 0.755961
O O6 0.064358 0.241709 0.886928
O O7 0.102154 0.036616 0.305575
O O8 0.157624 0.048135 0.539683
O O9 0.401157 0.365161 0.494563
O O10 0.519487 0.470433 0.188594
O O11 0.359547 0.668784 0.075672
O O12 0.424523 0.931282 0.748172
O O13 0.828592 0.668425 0.462308
O O14 0.000000 0.500000 0.500000
O O15 0.980690 0.286507 0.442665
O O16 0.000000 0.500000 0.000000
O O17 0.688639 0.104825 0.325254
#
# Coordination Sequence:
#
# PCOD9104294 Si02
#       8
#     2   2   2   2   2   2   2   2
#     4  10  22  37  61  87 121 163 212 259 299 374
#     4   9  20  40  67  87 121 167 198 248 318 369
#     4  10  20  39  60  81 118 167 208 246 322 368
#     4  10  20  39  62  82 119 174 204 250 318 364
#     4   9  20  38  62  87 124 160 193 251 312 371
#     4   9  18  39  69  89 117 166 200 239 312 393
#     4  10  22  37  61  86 122 160 208 263 303 376
#     4  11  22  38  58  93 126 151 216 265 299 363
#
# _framework density 21.324259000000001
#
# number of rings (size 3 to 8) (size 9 to 14) (size 15 to 20)
#    0.000    2.250    1.250    0.750    0.000    4.000 
#    0.000   13.750    0.000    0.000    0.000    0.000 
#    0.000    0.000    0.000    0.000    0.000    0.000 
#
# Total GULP energy -89205.421201 kJ/mol
# GULP energy per Si atom -5575.338825 kJ/mol
# Density = 2.127572 g / cm^3
# Si number density = 21.324259 Si / 1000 Ang^3
#
#
#
# Elastic Constant Matrix: (Units=GPa)
#
#
# Indices 1 2 3 4 5 6 
#
# 1 57.0717 7.6931 24.3975 7.4007 1.5072 1.4225
# 2 7.6931 39.2244 44.2182 19.2781 -4.4733 -10.3259
# 3 24.3975 44.2182 140.7909 2.4780 -19.0240 8.5160
# 4 7.4007 19.2781 2.4780 31.9380 1.5197 -5.6268
# 5 1.5072 -4.4733 -19.0240 1.5197 31.0557 0.6627
# 6 1.4225 -10.3259 8.5160 -5.6268 0.6627 19.3817
#
#
#
# Elastic Compliance Matrix: (Units=1/GPa)
#
#
# Indices 1 2 3 4 5 6 
#
# 1 0.020325 0.007872 -0.006526 -0.008205 -0.003519 0.003308
# 2 0.007872 0.110681 -0.039819 -0.054565 -0.007448 0.060298
# 3 -0.006526 -0.039819 0.023091 0.018830 0.008353 -0.025700
# 4 -0.008205 -0.054565 0.018830 0.061268 0.001481 -0.019005
# 5 -0.003519 -0.007448 0.008353 0.001481 0.036518 -0.008199
# 6 0.003308 0.060298 -0.025700 -0.019005 -0.008199 0.089532
#
#
# Mechanical properties :
#
#
# Convention : Reuss Voigt Hill
#
# Bulk Modulus (GPa) = 12.96145 43.30047 28.13096
# Shear Modulus (GPa) = 11.25933 27.19362 19.22648
#
# Velocity S-wave (km/s) = 2.30033 3.57493 3.00596
# Velocity P-wave (km/s) = 3.62585 6.11473 5.02677
#
# Compressibility (1/GPa) = 0.07715186
#
# Stress axis : x y z
#
# Youngs Moduli (GPa) = 49.20108 9.03500 43.30638
#
# Poissons Ratio (x) = -0.07112 0.28260
# Poissons Ratio (y) = -0.38732 1.72441
# Poissons Ratio (z) = 0.32107 0.35976
#
# Static dielectric constant tensor:
#      x y z
#    x 1.761590 0.028390 0.007980 
#    y 0.028390 1.862960 0.061550 
#    z 0.007980 0.061550 1.836780 
# 
# From -- ./inp_files/327066.got.cif
#   From: 2010.05.17/outbox.cif.g08.bks.cpg/sg2_164_cif.got.tgz:327066.got - 2010.06.03 11:33:40.
