data_PCOD9104237
_publ_section_title
;
Structure prediction by ZEFSAII (Michael W. Deem and Ramdas Pophale) SiO2 
 PCOD9104237
Probable space group: P -1
;
_chemical_formula_sum "Si O2"
_cell_formula_units_Z 14
_cell_length_a 13.186319
_cell_length_b 11.587416
_cell_length_c 7.138817
_cell_angle_alpha 81.216828
_cell_angle_beta 40.432635
_cell_angle_gamma 66.149074
_cell_volume 624.507325
_symmetry_space_group_name_H-M "P -1"
_symmetry_group_IT_number 2
_symmetry_cell_setting 'triclinic'
loop_
_space_group_symop_operation_xyz
x,y,z
-x,-y,-z
loop_
_atom_site_type_symbol
_atom_site_label
_atom_site_fract_x
_atom_site_fract_y
_atom_site_fract_z
Si Si1 0.244357 0.414621 0.736328
Si Si2 0.876486 0.300954 0.288184
Si Si3 0.744123 0.839920 0.324310
Si Si4 0.367200 0.704800 0.664744
Si Si5 0.499241 0.894862 0.306678
Si Si6 0.775484 0.650565 0.800871
Si Si7 0.136239 0.636510 0.292519
O O1 0.133496 0.558244 0.782591
O O2 0.265047 0.297063 0.599664
O O3 0.436844 0.397130 0.527344
O O4 0.175484 0.389311 0.037660
O O5 0.705250 0.303631 0.435253
O O6 0.878615 0.291257 0.509560
O O7 0.054365 0.193208 0.973614
O O8 0.649124 0.887664 0.242574
O O9 0.630052 0.956470 0.595340
O O10 0.384592 0.839077 0.599706
O O11 0.236965 0.683152 0.992958
O O12 0.600850 0.786581 0.032079
O O13 0.764971 0.521422 0.773902
O O14 0.942735 0.664640 0.487097
#
# Coordination Sequence:
#
# PCOD9104237 Si02
#       7
#     2   2   2   2   2   2   2
#     4  10  20  39  59  88 119 153 195 242 296 342
#     4  12  21  35  65  92 116 149 201 241 294 352
#     4   9  19  35  66  85 107 167 205 227 284 361
#     4  10  23  38  59  87 126 152 186 249 299 340
#     4   9  19  41  60  81 122 161 195 236 293 347
#     4   9  19  36  59  85 123 153 189 244 296 336
#     4  11  21  35  59  96 117 150 193 248 295 338
#
# _framework density 22.417670999999999
#
# number of rings (size 3 to 8) (size 9 to 14) (size 15 to 20)
#    0.000    2.286    4.286    0.857    2.000    1.143 
#    0.000    0.714    0.000    3.429    0.000    1.000 
#    0.000    0.000    0.000    0.000    0.000    0.000 
#
# Total GULP energy -78152.594401 kJ/mol
# GULP energy per Si atom -5582.328171 kJ/mol
# Density = 2.236665 g / cm^3
# Si number density = 22.417671 Si / 1000 Ang^3
#
#
#
# Elastic Constant Matrix: (Units=GPa)
#
#
# Indices 1 2 3 4 5 6 
#
# 1 70.6039 4.4295 28.3431 -0.9558 -13.2558 4.3606
# 2 4.4295 85.4172 45.0244 24.5570 -5.9288 2.4020
# 3 28.3431 45.0244 132.2257 1.9327 -14.4616 5.3688
# 4 -0.9558 24.5570 1.9327 50.0661 1.1090 3.3964
# 5 -13.2558 -5.9288 -14.4616 1.1090 27.1446 -2.1234
# 6 4.3606 2.4020 5.3688 3.3964 -2.1234 21.3742
#
#
#
# Elastic Compliance Matrix: (Units=1/GPa)
#
#
# Indices 1 2 3 4 5 6 
#
# 1 0.016750 0.001452 -0.003275 -0.000273 0.006602 -0.002059
# 2 0.001452 0.017218 -0.005894 -0.008278 0.001725 0.000736
# 3 -0.003275 -0.005894 0.010572 0.002464 0.002530 -0.001465
# 4 -0.000273 -0.008278 0.002464 0.024225 -0.001906 -0.003672
# 5 0.006602 0.001725 0.002530 -0.001906 0.042047 0.002303
# 6 -0.002059 0.000736 -0.001465 -0.003672 0.002303 0.048303
#
#
# Mechanical properties :
#
#
# Convention : Reuss Voigt Hill
#
# Bulk Modulus (GPa) = 34.35758 49.31565 41.83662
# Shear Modulus (GPa) = 27.13680 33.74697 30.44189
#
# Velocity S-wave (km/s) = 3.48301 3.88412 3.68902
# Velocity P-wave (km/s) = 5.61556 6.49319 6.07026
#
# Compressibility (1/GPa) = 0.02910565
#
# Stress axis : x y z
#
# Youngs Moduli (GPa) = 59.70057 58.07902 94.58721
#
# Poissons Ratio (x) = -0.08436 0.30981
# Poissons Ratio (y) = -0.08671 0.55754
# Poissons Ratio (z) = 0.19554 0.34234
#
# Static dielectric constant tensor:
#      x y z
#    x 1.870000 0.024410 0.005970 
#    y 0.024410 1.878470 0.025570 
#    z 0.005970 0.025570 1.854850 
# 
# From -- ./inp_files/307230.got.cif
#   From: 2010.05.17/outbox.cif.g08.bks.cpg/sg2_154_cif.got.tgz:307230.got - 2010.06.03 11:33:40.
