data_PCOD9104519
_publ_section_title
;
Structure prediction by ZEFSAII (Michael W. Deem and Ramdas Pophale) SiO2 
 PCOD9104519
Probable space group: P -1
;
_chemical_formula_sum "Si O2"
_cell_formula_units_Z 14
_cell_length_a 11.962668
_cell_length_b 9.739214
_cell_length_c 10.964665
_cell_angle_alpha 58.930773
_cell_angle_beta 119.391740
_cell_angle_gamma 145.412574
_cell_volume 615.403674
_symmetry_space_group_name_H-M "P -1"
_symmetry_group_IT_number 2
_symmetry_cell_setting 'triclinic'
loop_
_space_group_symop_operation_xyz
x,y,z
-x,-y,-z
loop_
_atom_site_type_symbol
_atom_site_label
_atom_site_fract_x
_atom_site_fract_y
_atom_site_fract_z
Si Si1 0.742615 0.170608 0.886589
Si Si2 0.088996 0.040863 0.188606
Si Si3 0.132915 0.427452 0.100554
Si Si4 0.291688 0.979859 0.494760
Si Si5 0.962718 0.154551 0.393678
Si Si6 0.732265 0.325200 0.551110
Si Si7 0.689833 0.777898 0.019520
O O1 0.710362 0.188865 0.720733
O O2 0.706985 0.291079 0.897549
O O3 0.635093 0.901420 0.982675
O O4 0.975933 0.357036 0.955819
O O5 0.165369 0.047018 0.098344
O O6 0.192245 0.313488 0.130517
O O7 0.171960 0.002581 0.350771
O O8 0.849997 0.835427 0.161489
O O9 0.016057 0.261653 0.237411
O O10 0.229027 0.746405 0.514505
O O11 0.250330 0.982190 0.612456
O O12 0.521411 0.209742 0.477312
O O13 0.107212 0.392887 0.451377
O O14 0.000000 0.000000 0.500000
O O15 0.500000 0.500000 0.000000
#
# Coordination Sequence:
#
# PCOD9104519 Si02
#       7
#     2   2   2   2   2   2   2
#     4   9  18  40  60  83 119 158 194 248 304 350
#     4  10  20  39  61  87 122 161 195 253 311 346
#     4   9  19  38  64  85 122 159 198 248 303 361
#     4  11  22  41  61  90 123 165 204 247 305 361
#     4  11  22  40  61  93 121 161 207 250 302 365
#     4  10  23  41  62  87 125 162 206 254 297 363
#     4  10  21  38  62  90 118 156 207 254 296 361
#
# _framework density 22.749296999999999
#
# number of rings (size 3 to 8) (size 9 to 14) (size 15 to 20)
#    0.000    2.000    2.857    0.429    0.000    1.714 
#    2.571    1.429    0.000    0.000    0.000    0.000 
#    0.000    0.000    0.000    0.000    0.000    0.000 
#
# Total GULP energy -78118.550893 kJ/mol
# GULP energy per Si atom -5579.896492 kJ/mol
# Density = 2.269752 g / cm^3
# Si number density = 22.749297 Si / 1000 Ang^3
#
#
#
# Elastic Constant Matrix: (Units=GPa)
#
#
# Indices 1 2 3 4 5 6 
#
# 1 105.6992 31.6757 16.5803 -1.3254 9.2741 -23.0918
# 2 31.6757 106.9262 3.5895 -5.4736 24.9353 -19.4355
# 3 16.5803 3.5895 80.4339 9.4959 21.9225 7.7662
# 4 -1.3254 -5.4736 9.4959 18.2278 -9.6685 -0.6554
# 5 9.2741 24.9353 21.9225 -9.6685 33.7464 1.3867
# 6 -23.0918 -19.4355 7.7662 -0.6554 1.3867 34.6628
#
#
#
# Elastic Compliance Matrix: (Units=1/GPa)
#
#
# Indices 1 2 3 4 5 6 
#
# 1 0.012415 -0.002301 -0.004060 0.003455 0.001592 0.007892
# 2 -0.002301 0.013912 0.003555 -0.004835 -0.013585 0.005923
# 3 -0.004060 0.003555 0.022477 -0.023064 -0.022504 -0.005283
# 4 0.003455 -0.004835 -0.023064 0.088536 0.042778 0.004721
# 5 0.001592 -0.013585 -0.022504 0.042778 0.066246 -0.003356
# 6 0.007892 0.005923 -0.005283 0.004721 -0.003356 0.038835
#
#
# Mechanical properties :
#
#
# Convention : Reuss Voigt Hill
#
# Bulk Modulus (GPa) = 23.15290 44.08333 33.61812
# Shear Modulus (GPa) = 19.05260 33.40832 26.23046
#
# Velocity S-wave (km/s) = 2.89710 3.83631 3.39930
# Velocity P-wave (km/s) = 4.62498 6.24844 5.49698
#
# Compressibility (1/GPa) = 0.04319113
#
# Stress axis : x y z
#
# Youngs Moduli (GPa) = 80.54685 71.88152 44.48931
#
# Poissons Ratio (x) = 0.16543 0.18064
# Poissons Ratio (y) = 0.18538 -0.15817
# Poissons Ratio (z) = 0.32704 -0.25555
#
# Static dielectric constant tensor:
#      x y z
#    x 1.893810 -0.009170 -0.025870 
#    y -0.009170 1.873300 0.007600 
#    z -0.025870 0.007600 1.875820 
# 
# From -- ./inp_files/65525.got.cif
#   From: 2010.05.17/outbox.cif.g08.bks.cpg/sg2_33_cif.got.tgz:65525.got - 2010.06.03 11:33:40.
