data_PCOD9104602
_publ_section_title
;
Structure prediction by ZEFSAII (Michael W. Deem and Ramdas Pophale) SiO2 
 PCOD9104602
Probable space group: P -1
;
_chemical_formula_sum "Si O2"
_cell_formula_units_Z 16
_cell_length_a 19.814397
_cell_length_b 6.335453
_cell_length_c 20.774370
_cell_angle_alpha 77.273937
_cell_angle_beta 19.425586
_cell_angle_gamma 65.917851
_cell_volume 665.517165
_symmetry_space_group_name_H-M "P -1"
_symmetry_group_IT_number 2
_symmetry_cell_setting 'triclinic'
loop_
_space_group_symop_operation_xyz
x,y,z
-x,-y,-z
loop_
_atom_site_type_symbol
_atom_site_label
_atom_site_fract_x
_atom_site_fract_y
_atom_site_fract_z
Si Si1 0.211959 0.166523 0.324739
Si Si2 0.323590 0.174413 0.760754
Si Si3 0.098039 0.045531 0.627304
Si Si4 0.074980 0.302905 0.739703
Si Si5 0.936981 0.854494 0.882837
Si Si6 0.415252 0.198681 0.262588
Si Si7 0.022568 0.763268 0.032647
Si Si8 0.995971 0.139016 0.401018
O O1 0.428998 0.118599 0.180616
O O2 0.000000 0.500000 0.500000
O O3 0.224177 0.087728 0.244045
O O4 0.109855 0.009997 0.459035
O O5 0.224066 0.206748 0.775398
O O6 0.613927 0.907903 0.527891
O O7 0.134108 0.162557 0.979259
O O8 0.265918 0.459486 0.812993
O O9 0.970572 0.977828 0.693026
O O10 0.152385 0.863413 0.654164
O O11 0.952798 0.331664 0.778108
O O12 0.322210 0.037484 0.392469
O O13 0.991030 0.589233 0.819725
O O14 0.984624 0.209805 0.886074
O O15 0.671730 0.108395 0.072243
O O16 0.211960 0.528610 0.433165
O O17 0.000000 0.000000 0.000000
#
# Coordination Sequence:
#
# PCOD9104602 Si02
#       8
#     2   2   2   2   2   2   2   2
#     4   8  16  33  62  92 121 166 210 254 317 364
#     4  10  22  42  62  89 127 159 207 260 306 366
#     4  11  22  36  60  90 124 165 203 252 313 368
#     4  11  23  41  61  92 127 164 208 257 310 374
#     4  11  24  40  61  92 126 163 210 255 311 374
#     4  10  20  39  61  90 127 164 207 261 312 366
#     4  10  22  40  64  91 121 164 208 254 311 371
#     4   9  18  35  62  91 124 166 206 259 313 365
#
# _framework density 24.041454000000002
#
# number of rings (size 3 to 8) (size 9 to 14) (size 15 to 20)
#    0.000    2.000    1.250    1.875    0.000    3.500 
#    0.000    0.625    0.000   26.250    0.000    0.000 
#    0.000    0.000    0.000    0.000    0.000    0.000 
#
# Total GULP energy -89104.592364 kJ/mol
# GULP energy per Si atom -5569.037023 kJ/mol
# Density = 2.398673 g / cm^3
# Si number density = 24.041454 Si / 1000 Ang^3
#
#
#
# Elastic Constant Matrix: (Units=GPa)
#
#
# Indices 1 2 3 4 5 6 
#
# 1 153.8357 -12.6332 28.1789 10.6197 15.3052 24.2229
# 2 -12.6332 98.0137 32.6651 -10.5339 3.1050 -12.5541
# 3 28.1789 32.6651 56.5788 -7.3987 -0.4448 0.3716
# 4 10.6197 -10.5339 -7.3987 23.2040 2.5075 3.5304
# 5 15.3052 3.1050 -0.4448 2.5075 42.8869 3.5754
# 6 24.2229 -12.5541 0.3716 3.5304 3.5754 40.1999
#
#
#
# Elastic Compliance Matrix: (Units=1/GPa)
#
#
# Indices 1 2 3 4 5 6 
#
# 1 0.009109 0.002468 -0.006507 -0.004195 -0.002916 -0.004030
# 2 0.002468 0.014309 -0.009241 0.002210 -0.002399 0.003086
# 3 -0.006507 -0.009241 0.027210 0.007165 0.002863 -0.000100
# 4 -0.004195 0.002210 0.007165 0.048601 -0.001347 -0.000997
# 5 -0.002916 -0.002399 0.002863 -0.001347 0.024732 -0.001100
# 6 -0.004030 0.003086 -0.000100 -0.000997 -0.001100 0.028454
#
#
# Mechanical properties :
#
#
# Convention : Reuss Voigt Hill
#
# Bulk Modulus (GPa) = 41.54563 44.98331 43.26447
# Shear Modulus (GPa) = 26.73834 38.60597 32.67216
#
# Velocity S-wave (km/s) = 3.33855 4.01160 3.69045
# Velocity P-wave (km/s) = 5.67270 6.34103 6.01615
#
# Compressibility (1/GPa) = 0.02406992
#
# Stress axis : x y z
#
# Youngs Moduli (GPa) = 109.77819 69.88542 36.75102
#
# Poissons Ratio (x) = -0.17247 0.23913
# Poissons Ratio (y) = -0.27092 0.33960
# Poissons Ratio (z) = 0.71429 0.64578
#
# Static dielectric constant tensor:
#      x y z
#    x 1.996040 0.041020 0.020670 
#    y 0.041020 2.024130 -0.061070 
#    z 0.020670 -0.061070 1.906180 
# 
# From -- ./inp_files/600769.got.cif
#   From: 2010.05.17/outbox.cif.g08.bks.cpg/sg2_301_cif.got.tgz:600769.got - 2010.06.03 11:33:40.
