data_PCOD9104030
_publ_section_title
;
Structure prediction by ZEFSAII (Michael W. Deem and Ramdas Pophale) SiO2 
 PCOD9104030
Probable space group: P -1
;
_chemical_formula_sum "Si O2"
_cell_formula_units_Z 10
_cell_length_a 6.936515
_cell_length_b 9.798737
_cell_length_c 7.522283
_cell_angle_alpha 62.224124
_cell_angle_beta 122.222062
_cell_angle_gamma 94.130581
_cell_volume 371.915192
_symmetry_space_group_name_H-M "P -1"
_symmetry_group_IT_number 2
_symmetry_cell_setting 'triclinic'
loop_
_space_group_symop_operation_xyz
x,y,z
-x,-y,-z
loop_
_atom_site_type_symbol
_atom_site_label
_atom_site_fract_x
_atom_site_fract_y
_atom_site_fract_z
Si Si1 0.787550 0.397931 0.166120
Si Si2 0.164991 0.148245 0.627135
Si Si3 0.530640 0.408208 0.381778
Si Si4 0.449344 0.159831 0.097006
Si Si5 0.797010 0.045925 0.725731
O O1 0.727753 0.442767 0.317219
O O2 0.611820 0.281595 0.115659
O O3 0.051989 0.294922 0.357063
O O4 0.701354 0.531212 0.893787
O O5 0.947899 0.069937 0.615586
O O6 0.379309 0.008919 0.762217
O O7 0.259490 0.209253 0.818711
O O8 0.500000 0.500000 0.500000
O O9 0.627775 0.219140 0.578246
O O10 0.320451 0.103726 0.237046
O O11 0.000000 0.000000 0.000000
#
# Coordination Sequence:
#
# PCOD9104030 Si02
#       5
#     2   2   2   2   2
#     4  10  22  43  67  96 133 181 220 272 338 399
#     4   9  20  37  65 101 131 171 217 282 331 382
#     4  10  23  41  67  94 141 175 214 281 340 387
#     4  10  20  38  73  96 132 174 228 273 329 398
#     4   9  20  40  66  97 127 174 220 272 328 391
#
# _framework density 26.887851999999999
#
# number of rings (size 3 to 8) (size 9 to 14) (size 15 to 20)
#    0.000    2.400    0.000    0.600    8.400    3.200 
#    0.000   17.000    0.000    0.000    0.000    0.000 
#    0.000    0.000    0.000    0.000    0.000    0.000 
#
# Total GULP energy -55856.733806 kJ/mol
# GULP energy per Si atom -5585.673381 kJ/mol
# Density = 2.682665 g / cm^3
# Si number density = 26.887852 Si / 1000 Ang^3
#
#
#
# Elastic Constant Matrix: (Units=GPa)
#
#
# Indices 1 2 3 4 5 6 
#
# 1 102.9684 59.8808 40.9841 -11.0967 -17.5151 9.0705
# 2 59.8808 117.3254 74.7242 -10.8212 -12.9688 -1.7125
# 3 40.9841 74.7242 270.7406 -32.1479 3.2480 -0.4703
# 4 -11.0967 -10.8212 -32.1479 55.6200 -6.0973 -2.2778
# 5 -17.5151 -12.9688 3.2480 -6.0973 37.1375 -3.4756
# 6 9.0705 -1.7125 -0.4703 -2.2778 -3.4756 44.3410
#
#
#
# Elastic Compliance Matrix: (Units=1/GPa)
#
#
# Indices 1 2 3 4 5 6 
#
# 1 0.015083 -0.006899 -0.000210 0.001951 0.004774 -0.002880
# 2 -0.006899 0.014148 -0.002879 0.000033 0.002140 0.002097
# 3 -0.000210 -0.002879 0.004775 0.002027 -0.001190 -0.000007
# 4 0.001951 0.000033 0.002027 0.020040 0.004136 0.000977
# 5 0.004774 0.002140 -0.001190 0.004136 0.030870 0.001726
# 6 -0.002880 0.002097 -0.000007 0.000977 0.001726 0.023408
#
#
# Mechanical properties :
#
#
# Convention : Reuss Voigt Hill
#
# Bulk Modulus (GPa) = 71.26930 93.57918 82.42424
# Shear Modulus (GPa) = 37.60069 48.44938 43.02503
#
# Velocity S-wave (km/s) = 3.74361 4.24949 4.00455
# Velocity P-wave (km/s) = 6.72680 7.67832 7.21826
#
# Compressibility (1/GPa) = 0.01403129
#
# Stress axis : x y z
#
# Youngs Moduli (GPa) = 66.29857 70.68114 209.43349
#
# Poissons Ratio (x) = 0.48763 0.04392
# Poissons Ratio (y) = 0.45740 0.60288
# Poissons Ratio (z) = 0.01390 0.20346
#
# Static dielectric constant tensor:
#      x y z
#    x 2.172090 -0.052430 -0.052760 
#    y -0.052430 2.177700 -0.013790 
#    z -0.052760 -0.013790 2.150330 
# 
# From -- ./inp_files/176895.got.cif
#   From: 2010.05.17/outbox.cif.g08.bks.cpg/sg2_89_cif.got.tgz:176895.got - 2010.06.03 11:33:40.
