data_PCOD9104265
_publ_section_title
;
Structure prediction by ZEFSAII (Michael W. Deem and Ramdas Pophale) SiO2 
 PCOD9104265
Probable space group: P -1
;
_chemical_formula_sum "Si O2"
_cell_formula_units_Z 16
_cell_length_a 9.901550
_cell_length_b 9.944916
_cell_length_c 14.788534
_cell_angle_alpha 38.258739
_cell_angle_beta 92.691184
_cell_angle_gamma 116.497623
_cell_volume 675.319654
_symmetry_space_group_name_H-M "P -1"
_symmetry_group_IT_number 2
_symmetry_cell_setting 'triclinic'
loop_
_space_group_symop_operation_xyz
x,y,z
-x,-y,-z
loop_
_atom_site_type_symbol
_atom_site_label
_atom_site_fract_x
_atom_site_fract_y
_atom_site_fract_z
Si Si1 0.416855 0.869994 0.429129
Si Si2 0.754183 0.099413 0.424276
Si Si3 0.306606 0.517082 0.991898
Si Si4 0.584369 0.866975 0.117313
Si Si5 0.833328 0.447793 0.564055
Si Si6 0.352257 0.187216 0.040976
Si Si7 0.200031 0.333607 0.390806
Si Si8 0.895660 0.445412 0.892982
O O1 0.557330 0.889649 0.483957
O O2 0.550262 0.180892 0.217874
O O3 0.278861 0.843223 0.507308
O O4 0.299590 0.617530 0.485382
O O5 0.898918 0.388560 0.215787
O O6 0.825430 0.930785 0.509539
O O7 0.438026 0.575375 0.046947
O O8 0.255721 0.263875 0.059145
O O9 0.142907 0.467359 0.061589
O O10 0.406755 0.569780 0.307518
O O11 0.656612 0.796090 0.075083
O O12 0.500000 0.000000 0.000000
O O13 0.746645 0.097501 0.067158
O O14 0.900511 0.697029 0.505921
O O15 0.000000 0.500000 0.500000
O O16 0.723612 0.134518 0.774417
O O17 0.164453 0.467274 0.239881
#
# Coordination Sequence:
#
# PCOD9104265 Si02
#       8
#     2   2   2   2   2   2   2   2
#     4  10  24  44  58  82 123 168 194 236 308 365
#     4  11  25  41  61  82 125 167 200 240 295 363
#     4  10  20  34  61  87 117 151 201 243 299 353
#     4  10  16  33  55  83 116 145 185 240 302 338
#     4  11  22  35  60  89 120 148 195 250 299 352
#     4  10  18  32  55  87 116 149 180 247 304 345
#     4  11  21  37  62  92 118 154 196 248 303 353
#     4  11  21  36  62  95 117 148 204 258 289 345
#
# _framework density 23.692481999999998
#
# number of rings (size 3 to 8) (size 9 to 14) (size 15 to 20)
#    0.000    1.500    5.000    2.625    5.250    1.000 
#    0.000    0.000    2.750    2.250    0.000    0.000 
#    0.000    0.000    0.000    0.000    0.000    0.000 
#
# Total GULP energy -89354.772459 kJ/mol
# GULP energy per Si atom -5584.673279 kJ/mol
# Density = 2.363856 g / cm^3
# Si number density = 23.692482 Si / 1000 Ang^3
#
#
#
# Elastic Constant Matrix: (Units=GPa)
#
#
# Indices 1 2 3 4 5 6 
#
# 1 53.0159 28.7678 8.8299 8.6168 -25.2056 -6.4944
# 2 28.7678 110.9181 19.1910 27.5904 -12.7829 -28.8704
# 3 8.8299 19.1910 54.4160 10.5711 -32.8163 -8.7247
# 4 8.6168 27.5904 10.5711 41.4514 -6.4516 -12.7266
# 5 -25.2056 -12.7829 -32.8163 -6.4516 38.0382 7.2081
# 6 -6.4944 -28.8704 -8.7247 -12.7266 7.2081 32.4967
#
#
#
# Elastic Compliance Matrix: (Units=1/GPa)
#
#
# Indices 1 2 3 4 5 6 
#
# 1 0.042108 -0.010706 0.024093 -0.002405 0.045766 -0.005721
# 2 -0.010706 0.015768 -0.008313 -0.004795 -0.011745 0.010364
# 3 0.024093 -0.008313 0.053457 -0.004910 0.059072 -0.003244
# 4 -0.002405 -0.004795 -0.004910 0.030576 -0.003524 0.006697
# 5 0.045766 -0.011745 0.059072 -0.003524 0.104945 -0.010086
# 6 -0.005721 0.010364 -0.003244 0.006697 -0.010086 0.042825
#
#
# Mechanical properties :
#
#
# Convention : Reuss Voigt Hill
#
# Bulk Modulus (GPa) = 8.23182 36.88082 22.55632
# Shear Modulus (GPa) = 15.62376 33.16800 24.39588
#
# Velocity S-wave (km/s) = 2.57074 3.74563 3.21236
# Velocity P-wave (km/s) = 3.50622 5.85718 4.82702
#
# Compressibility (1/GPa) = 0.12147978
#
# Stress axis : x y z
#
# Youngs Moduli (GPa) = 23.74849 63.42117 18.70662
#
# Poissons Ratio (x) = 0.67900 -0.45070
# Poissons Ratio (y) = 0.25426 0.15551
# Poissons Ratio (z) = -0.57217 0.52723
#
# Static dielectric constant tensor:
#      x y z
#    x 1.971120 -0.007310 -0.018400 
#    y -0.007310 1.936520 0.008850 
#    z -0.018400 0.008850 1.977740 
# 
# From -- ./inp_files/354574.got.cif
#   From: 2010.05.17/outbox.cif.g08.bks.cpg/sg2_178_cif.got.tgz:354574.got - 2010.06.03 11:33:40.
