data_PCOD9104413
_publ_section_title
;
Structure prediction by ZEFSAII (Michael W. Deem and Ramdas Pophale) SiO2 
 PCOD9104413
Probable space group: P -1
;
_chemical_formula_sum "Si O2"
_cell_formula_units_Z 16
_cell_length_a 14.651986
_cell_length_b 21.952157
_cell_length_c 13.836826
_cell_angle_alpha 21.682374
_cell_angle_beta 28.091102
_cell_angle_gamma 30.148433
_cell_volume 747.969229
_symmetry_space_group_name_H-M "P -1"
_symmetry_group_IT_number 2
_symmetry_cell_setting 'triclinic'
loop_
_space_group_symop_operation_xyz
x,y,z
-x,-y,-z
loop_
_atom_site_type_symbol
_atom_site_label
_atom_site_fract_x
_atom_site_fract_y
_atom_site_fract_z
Si Si1 0.998493 0.613280 0.740899
Si Si2 0.272051 0.825266 0.224388
Si Si3 0.987363 0.996954 0.631234
Si Si4 0.222484 0.412332 0.198863
Si Si5 0.002581 0.148141 0.886274
Si Si6 0.673195 0.921596 0.678969
Si Si7 0.592532 0.138519 0.258758
Si Si8 0.083103 0.646957 0.154117
O O1 0.923162 0.526888 0.846166
O O2 0.830467 0.791291 0.654871
O O3 0.208487 0.667040 0.467133
O O4 0.000000 0.500000 0.000000
O O5 0.181715 0.858031 0.369224
O O6 0.501878 0.830167 0.002452
O O7 0.147545 0.990321 0.037486
O O8 0.196037 0.024873 0.437696
O O9 0.000000 0.000000 0.500000
O O10 0.957041 0.814853 0.966002
O O11 0.451128 0.321316 0.093550
O O12 0.220945 0.546440 0.087971
O O13 0.126332 0.263832 0.549296
O O14 0.866209 0.263676 0.928253
O O15 0.821718 0.107260 0.056283
O O16 0.578074 0.088524 0.458336
O O17 0.500000 0.000000 0.500000
O O18 0.000000 0.500000 0.500000
#
# Coordination Sequence:
#
# PCOD9104413 Si02
#       8
#     2   2   2   2   2   2   2   2
#     4  11  25  41  59  89 128 170 204 254 313 371
#     4  10  21  40  66  88 123 158 205 265 308 363
#     4  10  22  42  68  91 122 170 217 252 311 387
#     4  11  23  35  64  89 122 162 204 255 316 369
#     4  10  20  39  60  93 119 158 201 260 314 362
#     4  11  22  41  65  92 122 161 209 266 305 368
#     4  12  21  36  61  94 120 150 209 253 310 371
#     4   9  20  39  59  90 124 159 205 258 319 360
#
# _framework density 21.391254
#
# number of rings (size 3 to 8) (size 9 to 14) (size 15 to 20)
#    0.000    1.500    6.250    0.000    5.250    2.500 
#    0.000    0.000    0.000    0.000    0.000    0.000 
#    0.000    0.000    0.000    0.000    0.000    0.000 
#
# Total GULP energy -89155.863621 kJ/mol
# GULP energy per Si atom -5572.241476 kJ/mol
# Density = 2.134257 g / cm^3
# Si number density = 21.391254 Si / 1000 Ang^3
#
#
#
# Elastic Constant Matrix: (Units=GPa)
#
#
# Indices 1 2 3 4 5 6 
#
# 1 103.8876 11.5426 11.4216 19.3331 7.0078 5.8173
# 2 11.5426 38.5830 -2.6637 14.4923 -12.2138 5.1996
# 3 11.4216 -2.6637 72.6458 14.9226 1.5719 -13.4991
# 4 19.3331 14.4923 14.9226 34.2648 -4.5943 -7.3585
# 5 7.0078 -12.2138 1.5719 -4.5943 33.2188 8.7439
# 6 5.8173 5.1996 -13.4991 -7.3585 8.7439 24.0458
#
#
#
# Elastic Compliance Matrix: (Units=1/GPa)
#
#
# Indices 1 2 3 4 5 6 
#
# 1 0.011577 -0.001273 -0.001226 -0.006741 -0.002649 -0.004313
# 2 -0.001273 0.042624 0.001583 -0.019994 0.018603 -0.020903
# 3 -0.001226 0.001583 0.016921 -0.005875 -0.003083 0.008776
# 4 -0.006741 -0.019994 -0.005875 0.047469 -0.003991 0.018633
# 5 -0.002649 0.018603 -0.003083 -0.003991 0.042866 -0.021921
# 6 -0.004313 -0.020903 0.008776 0.018633 -0.021921 0.065751
#
#
# Mechanical properties :
#
#
# Convention : Reuss Voigt Hill
#
# Bulk Modulus (GPa) = 14.43236 28.41305 21.42270
# Shear Modulus (GPa) = 19.83046 31.29361 25.56203
#
# Velocity S-wave (km/s) = 3.04803 3.82896 3.46059
# Velocity P-wave (km/s) = 4.37594 5.73230 5.09942
#
# Compressibility (1/GPa) = 0.06928872
#
# Stress axis : x y z
#
# Youngs Moduli (GPa) = 86.37987 23.46091 59.09905
#
# Poissons Ratio (x) = 0.02988 0.07248
# Poissons Ratio (y) = 0.11000 -0.09358
# Poissons Ratio (z) = 0.10593 -0.03715
#
# Static dielectric constant tensor:
#      x y z
#    x 1.848080 0.031010 -0.019810 
#    y 0.031010 1.827670 -0.012250 
#    z -0.019810 -0.012250 1.816810 
# 
# From -- ./inp_files/535370.got.cif
#   From: 2010.05.17/outbox.cif.g08.bks.cpg/sg2_268_cif.got.tgz:535370.got - 2010.06.03 11:33:40.
