data_PCOD9104661
_publ_section_title
;
Structure prediction by ZEFSAII (Michael W. Deem and Ramdas Pophale) SiO2 
 PCOD9104661
Probable space group: P -1
;
_chemical_formula_sum "Si O2"
_cell_formula_units_Z 14
_cell_length_a 12.932346
_cell_length_b 12.417143
_cell_length_c 5.388002
_cell_angle_alpha 96.220872
_cell_angle_beta 119.497341
_cell_angle_gamma 54.589631
_cell_volume 594.369432
_symmetry_space_group_name_H-M "P -1"
_symmetry_group_IT_number 2
_symmetry_cell_setting 'triclinic'
loop_
_space_group_symop_operation_xyz
x,y,z
-x,-y,-z
loop_
_atom_site_type_symbol
_atom_site_label
_atom_site_fract_x
_atom_site_fract_y
_atom_site_fract_z
Si Si1 0.182814 0.116544 0.202834
Si Si2 0.397301 0.448061 0.355918
Si Si3 0.876507 0.697227 0.433168
Si Si4 0.045046 0.912194 0.282629
Si Si5 0.341560 0.834733 0.614547
Si Si6 0.626876 0.988809 0.999605
Si Si7 0.781065 0.509668 0.333236
O O1 0.109320 0.264625 0.262901
O O2 0.239589 0.983308 0.402387
O O3 0.343669 0.054141 0.259636
O O4 0.056235 0.136171 0.881286
O O5 0.500000 0.500000 0.500000
O O6 0.514781 0.285458 0.392710
O O7 0.305798 0.474601 0.510773
O O8 0.290927 0.508713 0.999134
O O9 0.773719 0.847392 0.240569
O O10 0.783653 0.637659 0.312113
O O11 0.038870 0.606058 0.478415
O O12 0.223970 0.801124 0.489366
O O13 0.000000 0.000000 0.500000
O O14 0.000000 0.000000 0.000000
O O15 0.381011 0.877762 0.924499
O O16 0.500000 0.000000 0.000000
#
# Coordination Sequence:
#
# PCOD9104661 Si02
#       7
#     2   2   2   2   2   2   2
#     4  10  23  41  69 105 139 184 230 292 365 423
#     4  12  29  50  75 105 142 197 243 299 358 426
#     4  10  26  44  74 106 141 196 237 302 357 429
#     4  10  20  39  61  96 135 177 223 274 341 420
#     4  10  24  41  66 102 141 181 228 293 357 411
#     4  11  23  39  69 109 141 181 232 294 364 429
#     4  11  28  51  73 104 145 192 250 295 352 431
#
# _framework density 23.554375
#
# number of rings (size 3 to 8) (size 9 to 14) (size 15 to 20)
#    0.000    1.429    1.429    1.286   12.000    2.286 
#    0.000    0.000    0.000    0.000    0.000    0.000 
#    0.000    0.000    0.000    0.000    0.000    0.000 
#
# Total GULP energy -77974.484922 kJ/mol
# GULP energy per Si atom -5569.606066 kJ/mol
# Density = 2.350076 g / cm^3
# Si number density = 23.554375 Si / 1000 Ang^3
#
#
#
# Elastic Constant Matrix: (Units=GPa)
#
#
# Indices 1 2 3 4 5 6 
#
# 1 176.4128 38.9467 37.8491 6.3617 2.0467 -30.3637
# 2 38.9467 75.2443 5.8899 14.0274 3.9243 -3.5113
# 3 37.8491 5.8899 67.4281 12.8030 1.9933 -1.6810
# 4 6.3617 14.0274 12.8030 26.8649 -4.5051 -0.3174
# 5 2.0467 3.9243 1.9933 -4.5051 36.4840 5.2245
# 6 -30.3637 -3.5113 -1.6810 -0.3174 5.2245 36.5009
#
#
#
# Elastic Compliance Matrix: (Units=1/GPa)
#
#
# Indices 1 2 3 4 5 6 
#
# 1 0.008707 -0.004254 -0.004803 0.002456 -0.000424 0.006694
# 2 -0.004254 0.017171 0.002788 -0.009767 -0.002759 -0.001449
# 3 -0.004803 0.002788 0.019131 -0.009786 -0.001903 -0.002659
# 4 0.002456 -0.009767 -0.009786 0.047634 0.007327 0.000019
# 5 -0.000424 -0.002759 -0.001903 0.007327 0.029434 -0.004855
# 6 0.006694 -0.001449 -0.002659 0.000019 -0.004855 0.033399
#
#
# Mechanical properties :
#
#
# Convention : Reuss Voigt Hill
#
# Bulk Modulus (GPa) = 30.79660 53.82851 42.31256
# Shear Modulus (GPa) = 27.95852 35.72992 31.84422
#
# Velocity S-wave (km/s) = 3.44899 3.89898 3.68087
# Velocity P-wave (km/s) = 5.38180 6.57053 6.00565
#
# Compressibility (1/GPa) = 0.03247112
#
# Stress axis : x y z
#
# Youngs Moduli (GPa) = 114.85484 58.23837 52.27079
#
# Poissons Ratio (x) = 0.24775 0.25104
# Poissons Ratio (y) = 0.48860 -0.14573
# Poissons Ratio (z) = 0.55161 -0.16237
#
# Static dielectric constant tensor:
#      x y z
#    x 2.282350 -0.108340 -0.556520 
#    y -0.108340 1.926880 0.155160 
#    z -0.556520 0.155160 2.957860 
# 
# From -- ./inp_files/71454.got.cif
#   From: 2010.05.17/outbox.cif.g08.bks.cpg/sg2_36_cif.got.tgz:71454.got - 2010.06.03 11:33:40.
