data_PCOD9104681
_publ_section_title
;
Structure prediction by ZEFSAII (Michael W. Deem and Ramdas Pophale) SiO2 
 PCOD9104681
Probable space group: P -1
;
_chemical_formula_sum "Si O2"
_cell_formula_units_Z 14
_cell_length_a 10.241490
_cell_length_b 12.871965
_cell_length_c 7.786422
_cell_angle_alpha 98.134613
_cell_angle_beta 44.396258
_cell_angle_gamma 122.617410
_cell_volume 550.753074
_symmetry_space_group_name_H-M "P -1"
_symmetry_group_IT_number 2
_symmetry_cell_setting 'triclinic'
loop_
_space_group_symop_operation_xyz
x,y,z
-x,-y,-z
loop_
_atom_site_type_symbol
_atom_site_label
_atom_site_fract_x
_atom_site_fract_y
_atom_site_fract_z
Si Si1 0.590128 0.374264 0.819841
Si Si2 0.330215 0.719211 0.730930
Si Si3 0.146393 0.438763 0.662029
Si Si4 0.349094 0.839386 0.388323
Si Si5 0.678795 0.711062 0.598021
Si Si6 0.919357 0.827312 0.889266
Si Si7 0.877664 0.055599 0.894942
O O1 0.806110 0.519230 0.573163
O O2 0.660962 0.276991 0.722584
O O3 0.492253 0.365660 0.096833
O O4 0.355185 0.309742 0.904061
O O5 0.231637 0.575790 0.705435
O O6 0.382818 0.817845 0.552261
O O7 0.569136 0.769737 0.613449
O O8 0.122623 0.678902 0.048129
O O9 0.302501 0.391852 0.542153
O O10 0.109985 0.823013 0.609745
O O11 0.595595 0.981863 0.130714
O O12 0.957815 0.841329 0.387783
O O13 0.900117 0.937650 0.857376
O O14 0.011869 0.866974 0.007889
#
# Coordination Sequence:
#
# PCOD9104681 Si02
#       7
#     2   2   2   2   2   2   2
#     4  10  24  39  57  86 117 154 191 226 287 348
#     4  10  22  38  63  90 108 145 199 238 282 335
#     4  10  22  40  59  84 114 151 193 236 283 332
#     4  10  21  40  61  85 116 149 190 240 282 332
#     4  12  23  38  58  86 122 151 185 235 284 342
#     4  10  20  39  62  83 115 151 189 239 284 331
#     4  10  21  36  60  89 112 148 196 233 281 337
#
# _framework density 25.419740000000001
#
# number of rings (size 3 to 8) (size 9 to 14) (size 15 to 20)
#    0.000    1.714    0.000    5.571    0.000    8.571 
#    0.000    1.429    0.000    0.000    0.000    0.000 
#    0.000    0.000    0.000    0.000    0.000    0.000 
#
# Total GULP energy -78386.325489 kJ/mol
# GULP energy per Si atom -5599.023249 kJ/mol
# Density = 2.536188 g / cm^3
# Si number density = 25.419740 Si / 1000 Ang^3
#
#
#
# Elastic Constant Matrix: (Units=GPa)
#
#
# Indices 1 2 3 4 5 6 
#
# 1 62.1814 15.8999 43.5565 10.0650 -12.7093 0.6886
# 2 15.8999 47.6100 42.0956 2.2309 -8.5364 -9.9946
# 3 43.5565 42.0956 213.4932 -1.5366 -22.8368 -12.0212
# 4 10.0650 2.2309 -1.5366 47.8613 -19.1356 -12.3083
# 5 -12.7093 -8.5364 -22.8368 -19.1356 37.4446 -6.8969
# 6 0.6886 -9.9946 -12.0212 -12.3083 -6.8969 17.5862
#
#
#
# Elastic Compliance Matrix: (Units=1/GPa)
#
#
# Indices 1 2 3 4 5 6 
#
# 1 0.022584 -0.008445 -0.005170 -0.013508 -0.008359 -0.021950
# 2 -0.008445 0.037481 -0.000026 0.022733 0.026075 0.047751
# 3 -0.005170 -0.000026 0.008120 0.010781 0.012016 0.017996
# 4 -0.013508 0.022733 0.010781 0.072292 0.061729 0.095622
# 5 -0.008359 0.026075 0.012016 0.061729 0.087250 0.100780
# 6 -0.021950 0.047751 0.017996 0.095622 0.100780 0.203609
#
#
# Mechanical properties :
#
#
# Convention : Reuss Voigt Hill
#
# Bulk Modulus (GPa) = 24.44739 58.48763 41.46751
# Shear Modulus (GPa) = 10.58757 35.36061 22.97409
#
# Velocity S-wave (km/s) = 2.04307 3.73375 3.00957
# Velocity P-wave (km/s) = 3.89922 6.45341 5.33153
#
# Compressibility (1/GPa) = 0.04090415
#
# Stress axis : x y z
#
# Youngs Moduli (GPa) = 44.27984 26.67991 123.15245
#
# Poissons Ratio (x) = 0.22531 0.63666
# Poissons Ratio (y) = 0.37393 0.00320
# Poissons Ratio (z) = 0.22891 0.00069
#
# Static dielectric constant tensor:
#      x y z
#    x 1.992690 0.025600 0.039290 
#    y 0.025600 2.017700 0.018360 
#    z 0.039290 0.018360 1.994570 
# 
# From -- ./inp_files/267993.got.cif
#   From: 2010.05.17/outbox.cif.g08.bks.cpg/sg2_134_cif.got.tgz:267993.got - 2010.06.03 11:33:40.
