data_PCOD9104158
_publ_section_title
;
Structure prediction by ZEFSAII (Michael W. Deem and Ramdas Pophale) SiO2 
 PCOD9104158
Probable space group: P -1
;
_chemical_formula_sum "Si O2"
_cell_formula_units_Z 14
_cell_length_a 11.480039
_cell_length_b 13.456924
_cell_length_c 13.825443
_cell_angle_alpha 21.223169
_cell_angle_beta 112.313412
_cell_angle_gamma 113.458255
_cell_volume 709.036370
_symmetry_space_group_name_H-M "P -1"
_symmetry_group_IT_number 2
_symmetry_cell_setting 'triclinic'
loop_
_space_group_symop_operation_xyz
x,y,z
-x,-y,-z
loop_
_atom_site_type_symbol
_atom_site_label
_atom_site_fract_x
_atom_site_fract_y
_atom_site_fract_z
Si Si1 0.925880 0.580039 0.053672
Si Si2 0.902358 0.845828 0.452812
Si Si3 0.350550 0.119652 0.771968
Si Si4 0.674663 0.783122 0.790626
Si Si5 0.496543 0.610932 0.257271
Si Si6 0.222937 0.915078 0.637357
Si Si7 0.529891 0.300918 0.048775
O O1 0.873818 0.366387 0.145792
O O2 0.018179 0.409675 0.298189
O O3 0.793783 0.652849 0.990958
O O4 0.003749 0.868656 0.785194
O O5 0.789526 0.854500 0.333142
O O6 0.838914 0.855986 0.530230
O O7 0.448178 0.313302 0.557381
O O8 0.383359 0.246458 0.773370
O O9 0.387229 0.809725 0.062041
O O10 0.581018 0.859790 0.774588
O O11 0.735418 0.008700 0.528241
O O12 0.591700 0.561640 0.895752
O O13 0.516239 0.607662 0.152009
O O14 0.351161 0.866499 0.775947
#
# Coordination Sequence:
#
# PCOD9104158 Si02
#       7
#     2   2   2   2   2   2   2
#     4  11  24  36  54  81 117 153 188 225 276 339
#     4  12  22  35  58  83 115 149 184 233 283 335
#     4  10  21  36  61  86 115 141 185 235 293 335
#     4  10  22  38  54  86 116 158 191 226 274 342
#     4  10  20  39  58  88 113 143 183 240 288 333
#     4  11  21  35  57  83 116 149 190 232 281 335
#     4  10  21  36  60  84 116 151 190 236 280 334
#
# _framework density 19.745107000000001
#
# number of rings (size 3 to 8) (size 9 to 14) (size 15 to 20)
#    0.000    1.429    2.857    3.000    4.000    0.000 
#    0.000    0.000    0.000    1.714    0.000    0.000 
#    0.000    0.000    0.000    0.000    0.000    0.000 
#
# Total GULP energy -78179.429644 kJ/mol
# GULP energy per Si atom -5584.244975 kJ/mol
# Density = 1.970017 g / cm^3
# Si number density = 19.745107 Si / 1000 Ang^3
#
#
#
# Elastic Constant Matrix: (Units=GPa)
#
#
# Indices 1 2 3 4 5 6 
#
# 1 69.0716 44.6178 15.1736 13.6670 -8.1123 14.5376
# 2 44.6178 68.9384 2.9751 25.2153 -2.2421 7.0819
# 3 15.1736 2.9751 75.0927 9.4631 -8.1063 0.4440
# 4 13.6670 25.2153 9.4631 28.8117 5.5735 5.7376
# 5 -8.1123 -2.2421 -8.1063 5.5735 24.6999 4.9465
# 6 14.5376 7.0819 0.4440 5.7376 4.9465 14.9848
#
#
#
# Elastic Compliance Matrix: (Units=1/GPa)
#
#
# Indices 1 2 3 4 5 6 
#
# 1 0.037810 -0.023656 -0.006247 0.008904 0.012811 -0.032955
# 2 -0.023656 0.038103 0.006776 -0.027541 0.001142 0.014910
# 3 -0.006247 0.006776 0.016134 -0.010187 0.005246 0.004549
# 4 0.008904 -0.027541 -0.010187 0.063682 -0.014287 -0.014988
# 5 0.012811 0.001142 0.005246 -0.014287 0.054905 -0.025777
# 6 -0.032955 0.014910 0.004549 -0.014988 -0.025777 0.105772
#
#
# Mechanical properties :
#
#
# Convention : Reuss Voigt Hill
#
# Bulk Modulus (GPa) = 21.83770 37.62619 29.73195
# Shear Modulus (GPa) = 13.23016 23.72169 18.47592
#
# Velocity S-wave (km/s) = 2.59134 3.46988 3.06228
# Velocity P-wave (km/s) = 4.47629 5.92880 5.25299
#
# Compressibility (1/GPa) = 0.04579236
#
# Stress axis : x y z
#
# Youngs Moduli (GPa) = 26.44801 26.24459 61.98121
#
# Poissons Ratio (x) = 0.62086 0.38721
# Poissons Ratio (y) = 0.62567 -0.42001
# Poissons Ratio (z) = 0.16523 -0.17784
#
# Static dielectric constant tensor:
#      x y z
#    x 1.711880 0.025890 0.005140 
#    y 0.025890 1.696620 0.002220 
#    z 0.005140 0.002220 1.744970 
# 
# From -- ./inp_files/83977.got.cif
#   From: 2010.05.17/outbox.cif.g08.bks.cpg/sg2_42_cif.got.tgz:83977.got - 2010.06.03 11:33:40.
