data_PCOD9104650
_publ_section_title
;
Structure prediction by ZEFSAII (Michael W. Deem and Ramdas Pophale) SiO2 
 PCOD9104650
Probable space group: P -1
;
_chemical_formula_sum "Si O2"
_cell_formula_units_Z 16
_cell_length_a 10.514252
_cell_length_b 8.988487
_cell_length_c 9.717704
_cell_angle_alpha 120.463470
_cell_angle_beta 80.159255
_cell_angle_gamma 113.061506
_cell_volume 727.905649
_symmetry_space_group_name_H-M "P -1"
_symmetry_group_IT_number 2
_symmetry_cell_setting 'triclinic'
loop_
_space_group_symop_operation_xyz
x,y,z
-x,-y,-z
loop_
_atom_site_type_symbol
_atom_site_label
_atom_site_fract_x
_atom_site_fract_y
_atom_site_fract_z
Si Si1 0.071705 0.973786 0.616603
Si Si2 0.391805 0.363838 0.264993
Si Si3 0.857503 0.442225 0.834489
Si Si4 0.094005 0.176922 0.154724
Si Si5 0.333410 0.594843 0.635501
Si Si6 0.665148 0.090635 0.378624
Si Si7 0.551399 0.271725 0.713128
Si Si8 0.121555 0.374978 0.796234
O O1 0.124038 0.183349 0.762263
O O2 0.207033 0.919174 0.561348
O O3 0.000000 0.000000 0.500000
O O4 0.968578 0.848635 0.691424
O O5 0.256999 0.206937 0.154648
O O6 0.339285 0.466477 0.445094
O O7 0.513169 0.311399 0.285201
O O8 0.460872 0.531058 0.222081
O O9 0.901004 0.631578 0.826678
O O10 0.701758 0.318219 0.770627
O O11 0.972418 0.351797 0.749914
O O12 0.856652 0.489127 0.016648
O O13 0.000000 0.000000 0.000000
O O14 0.279194 0.757446 0.679091
O O15 0.235918 0.460212 0.701384
O O16 0.565376 0.175055 0.520205
O O17 0.571738 0.882239 0.257602
#
# Coordination Sequence:
#
# PCOD9104650 Si02
#       8
#     2   2   2   2   2   2   2   2
#     4  12  24  38  63  95 120 160 209 257 303 360
#     4   9  20  37  64  87 123 160 203 254 313 367
#     4  10  22  41  60  85 122 169 199 244 307 369
#     4  11  22  42  60  89 125 164 202 252 308 367
#     4  10  20  39  61  95 121 159 204 258 310 361
#     4  10  21  38  62  90 124 153 203 258 302 361
#     4   9  19  38  60  85 118 160 199 247 306 360
#     4  11  22  38  60  87 125 159 205 249 300 368
#
# _framework density 21.980871
#
# number of rings (size 3 to 8) (size 9 to 14) (size 15 to 20)
#    0.000    1.750    1.250    3.000    0.000    5.000 
#    2.250    7.500    0.000    0.000    0.000    0.000 
#    0.000    0.000    0.000    0.000    0.000    0.000 
#
# Total GULP energy -89321.669964 kJ/mol
# GULP energy per Si atom -5582.604373 kJ/mol
# Density = 2.193084 g / cm^3
# Si number density = 21.980871 Si / 1000 Ang^3
#
#
#
# Elastic Constant Matrix: (Units=GPa)
#
#
# Indices 1 2 3 4 5 6 
#
# 1 115.7413 39.3865 16.6171 13.1291 27.0370 -11.4104
# 2 39.3865 75.6969 9.8445 -6.8163 11.0545 7.6608
# 3 16.6171 9.8445 26.6766 0.0610 13.3139 4.2894
# 4 13.1291 -6.8163 0.0610 28.0820 6.2728 5.4562
# 5 27.0370 11.0545 13.3139 6.2728 30.0389 6.7688
# 6 -11.4104 7.6608 4.2894 5.4562 6.7688 32.4156
#
#
#
# Elastic Compliance Matrix: (Units=1/GPa)
#
#
# Indices 1 2 3 4 5 6 
#
# 1 0.017384 -0.009121 -0.003855 -0.010305 -0.011333 0.012886
# 2 -0.009121 0.019834 -0.000670 0.010731 0.001189 -0.009864
# 3 -0.003855 -0.000670 0.050347 0.006726 -0.018864 -0.005054
# 4 -0.010305 0.010731 0.006726 0.046691 -0.004244 -0.014026
# 5 -0.011333 0.001189 -0.018864 -0.004244 0.055134 -0.012572
# 6 0.012886 -0.009864 -0.005054 -0.014026 -0.012572 0.043372
#
#
# Mechanical properties :
#
#
# Convention : Reuss Voigt Hill
#
# Bulk Modulus (GPa) = 16.59097 38.86791 27.72944
# Shear Modulus (GPa) = 17.84794 28.25842 23.05318
#
# Velocity S-wave (km/s) = 2.85261 3.58940 3.24201
# Velocity P-wave (km/s) = 4.29117 5.90757 5.16302
#
# Compressibility (1/GPa) = 0.06027375
#
# Stress axis : x y z
#
# Youngs Moduli (GPa) = 57.52405 50.41742 19.86229
#
# Poissons Ratio (x) = 0.45985 0.07657
# Poissons Ratio (y) = 0.52467 0.01331
# Poissons Ratio (z) = 0.22175 0.03378
#
# Static dielectric constant tensor:
#      x y z
#    x 1.795000 0.001860 0.017060 
#    y 0.001860 1.812410 0.005760 
#    z 0.017060 0.005760 1.841700 
# 
# From -- ./inp_files/379935.got.cif
#   From: 2010.05.17/outbox.cif.g08.bks.cpg/sg2_190_cif.got.tgz:379935.got - 2010.06.03 11:33:40.
