data_PCOD9104874
_publ_section_title
;
Structure prediction by ZEFSAII (Michael W. Deem and Ramdas Pophale) SiO2 
 PCOD9104874
Probable space group: P -1
;
_chemical_formula_sum "Si O2"
_cell_formula_units_Z 14
_cell_length_a 7.714189
_cell_length_b 17.854561
_cell_length_c 14.514662
_cell_angle_alpha 23.764363
_cell_angle_beta 53.395647
_cell_angle_gamma 44.483889
_cell_volume 553.014108
_symmetry_space_group_name_H-M "P -1"
_symmetry_group_IT_number 2
_symmetry_cell_setting 'triclinic'
loop_
_space_group_symop_operation_xyz
x,y,z
-x,-y,-z
loop_
_atom_site_type_symbol
_atom_site_label
_atom_site_fract_x
_atom_site_fract_y
_atom_site_fract_z
Si Si1 0.869504 0.298122 0.633180
Si Si2 0.122605 0.634291 0.024771
Si Si3 0.368806 0.985421 0.230641
Si Si4 0.560975 0.752277 0.268386
Si Si5 0.165962 0.503647 0.860020
Si Si6 0.323489 0.852658 0.975426
Si Si7 0.653661 0.271903 0.333055
O O1 0.812494 0.541222 0.388754
O O2 0.658674 0.290702 0.645926
O O3 0.830564 0.235000 0.821183
O O4 0.128083 0.102191 0.731585
O O5 0.218449 0.717619 0.813796
O O6 0.365818 0.466087 0.193617
O O7 0.914319 0.852034 0.897349
O O8 0.980728 0.515937 0.159251
O O9 0.541567 0.760977 0.376327
O O10 0.346941 0.941107 0.395519
O O11 0.506662 0.121983 0.029323
O O12 0.500000 0.000000 0.000000
O O13 0.460320 0.309356 0.980043
O O14 0.195335 0.703505 0.656457
O O15 0.000000 0.500000 0.000000
#
# Coordination Sequence:
#
# PCOD9104874 Si02
#       7
#     2   2   2   2   2   2   2
#     4  10  23  42  63  90 133 171 220 277 328 400
#     4   9  21  39  62  89 130 167 217 275 329 400
#     4  11  22  38  62  93 123 169 220 273 330 396
#     4  11  23  42  63  93 127 173 223 274 335 396
#     4   9  19  38  64  93 128 166 216 273 326 398
#     4  10  21  41  61  92 130 170 218 274 332 394
#     4  10  20  39  62  93 125 172 219 270 334 394
#
# _framework density 25.315811
#
# number of rings (size 3 to 8) (size 9 to 14) (size 15 to 20)
#    0.000    2.000    1.429    1.286    2.000    1.714 
#    5.143    0.000    0.000    9.429    0.000    0.000 
#    0.000    0.000    0.000    0.000    0.000    0.000 
#
# Total GULP energy -78035.781444 kJ/mol
# GULP energy per Si atom -5573.984389 kJ/mol
# Density = 2.525819 g / cm^3
# Si number density = 25.315811 Si / 1000 Ang^3
#
#
#
# Elastic Constant Matrix: (Units=GPa)
#
#
# Indices 1 2 3 4 5 6 
#
# 1 62.3537 17.7771 12.3352 -16.7140 -7.3233 -4.2384
# 2 17.7771 101.6834 33.0858 -23.7468 4.1244 -10.7319
# 3 12.3352 33.0858 121.1683 -4.8277 -2.5058 -2.5240
# 4 -16.7140 -23.7468 -4.8277 48.5917 -4.5957 1.9926
# 5 -7.3233 4.1244 -2.5058 -4.5957 32.7002 -8.5784
# 6 -4.2384 -10.7319 -2.5240 1.9926 -8.5784 36.3105
#
#
#
# Elastic Compliance Matrix: (Units=1/GPa)
#
#
# Indices 1 2 3 4 5 6 
#
# 1 0.019256 -0.001493 -0.001121 0.006237 0.006029 0.002811
# 2 -0.001493 0.012627 -0.003043 0.005173 -0.000672 0.002904
# 3 -0.001121 -0.003043 0.009172 -0.000891 0.000661 -0.000188
# 4 0.006237 0.005173 -0.000891 0.025537 0.004769 0.001920
# 5 0.006029 -0.000672 0.000661 0.004769 0.034981 0.008554
# 6 0.002811 0.002904 -0.000188 0.001920 0.008554 0.030629
#
#
# Mechanical properties :
#
#
# Convention : Reuss Voigt Hill
#
# Bulk Modulus (GPa) = 33.62328 45.73348 39.67838
# Shear Modulus (GPa) = 32.58817 38.32098 35.45458
#
# Velocity S-wave (km/s) = 3.59174 3.89487 3.74637
# Velocity P-wave (km/s) = 5.52369 6.19121 5.86695
#
# Compressibility (1/GPa) = 0.02974130
#
# Stress axis : x y z
#
# Youngs Moduli (GPa) = 51.93192 79.19294 109.02343
#
# Poissons Ratio (x) = 0.11824 0.12220
# Poissons Ratio (y) = 0.07754 0.33179
# Poissons Ratio (z) = 0.05821 0.24101
#
# Static dielectric constant tensor:
#      x y z
#    x 2.073700 0.008770 0.014400 
#    y 0.008770 2.185740 0.098670 
#    z 0.014400 0.098670 2.065140 
# 
# From -- ./inp_files/562492.got.cif
#   From: 2010.05.17/outbox.cif.g08.bks.cpg/sg2_282_cif.got.tgz:562492.got - 2010.06.03 11:33:40.
