data_PCOD9104160
_publ_section_title
;
Structure prediction by ZEFSAII (Michael W. Deem and Ramdas Pophale) SiO2 
 PCOD9104160
Probable space group: P -1
;
_chemical_formula_sum "Si O2"
_cell_formula_units_Z 14
_cell_length_a 13.701873
_cell_length_b 35.054843
_cell_length_c 17.234607
_cell_angle_alpha 163.377865
_cell_angle_beta 155.801252
_cell_angle_gamma 15.664004
_cell_volume 633.421400
_symmetry_space_group_name_H-M "P -1"
_symmetry_group_IT_number 2
_symmetry_cell_setting 'triclinic'
loop_
_space_group_symop_operation_xyz
x,y,z
-x,-y,-z
loop_
_atom_site_type_symbol
_atom_site_label
_atom_site_fract_x
_atom_site_fract_y
_atom_site_fract_z
Si Si1 0.103739 0.386208 0.932057
Si Si2 0.349735 0.759686 0.303099
Si Si3 0.793484 0.176924 0.092609
Si Si4 0.045653 0.182620 0.727094
Si Si5 0.451177 0.286907 0.222326
Si Si6 0.228318 0.238180 0.478818
Si Si7 0.617749 0.400867 0.692757
O O1 0.530452 0.199319 0.892924
O O2 0.944906 0.561905 0.217310
O O3 0.000000 0.500000 0.000000
O O4 0.899819 0.338326 0.711393
O O5 0.654830 0.746405 0.488468
O O6 0.258055 0.727593 0.254705
O O7 0.417275 0.610125 0.998903
O O8 0.000000 0.000000 0.500000
O O9 0.571866 0.297833 0.248006
O O10 0.930539 0.248830 0.286651
O O11 0.166844 0.944824 0.929635
O O12 0.859759 0.227064 0.596366
O O13 0.419977 0.956740 0.592886
O O14 0.157551 0.291454 0.011080
O O15 0.362237 0.417547 0.486362
#
# Coordination Sequence:
#
# PCOD9104160 Si02
#       7
#     2   2   2   2   2   2   2
#     4  11  22  35  57  91 122 161 198 241 301 358
#     4   9  20  40  63  85 118 155 200 251 303 349
#     4  10  20  39  58  88 128 158 194 249 294 354
#     4  10  20  40  63  84 121 156 201 253 294 350
#     4  10  22  37  61  94 120 155 203 245 296 352
#     4   9  20  36  60  84 117 161 195 242 303 345
#     4  11  22  37  63  91 114 160 204 244 300 357
#
# _framework density 22.102188000000002
#
# number of rings (size 3 to 8) (size 9 to 14) (size 15 to 20)
#    0.000    2.000    1.429    1.714    2.000    1.143 
#    0.000    0.000    3.143    4.286    0.000    0.000 
#    0.000    0.000    0.000    0.000    0.000    0.000 
#
# Total GULP energy -77985.952023 kJ/mol
# GULP energy per Si atom -5570.425145 kJ/mol
# Density = 2.205188 g / cm^3
# Si number density = 22.102188 Si / 1000 Ang^3
#
#
#
# Elastic Constant Matrix: (Units=GPa)
#
#
# Indices 1 2 3 4 5 6 
#
# 1 151.3069 39.6951 20.3297 -5.5030 14.2137 -10.9389
# 2 39.6951 62.5619 10.7535 -0.8378 0.0165 14.4199
# 3 20.3297 10.7535 62.5603 6.6796 1.1544 -2.0999
# 4 -5.5030 -0.8378 6.6796 29.9079 4.4589 8.6757
# 5 14.2137 0.0165 1.1544 4.4589 29.9030 -6.9542
# 6 -10.9389 14.4199 -2.0999 8.6757 -6.9542 33.6100
#
#
#
# Elastic Compliance Matrix: (Units=1/GPa)
#
#
# Indices 1 2 3 4 5 6 
#
# 1 0.009308 -0.006703 -0.001757 0.001019 -0.003381 0.004833
# 2 -0.006703 0.023970 -0.002841 0.004169 -0.000556 -0.013834
# 3 -0.001757 -0.002841 0.017738 -0.005683 0.001837 0.003603
# 4 0.001019 0.004169 -0.005683 0.040591 -0.009642 -0.014284
# 5 -0.003381 -0.000556 0.001837 -0.009642 0.038682 0.009746
# 6 0.004833 -0.013834 0.003603 -0.014284 0.009746 0.043190
#
#
# Mechanical properties :
#
#
# Convention : Reuss Voigt Hill
#
# Bulk Modulus (GPa) = 35.19437 46.44287 40.81862
# Shear Modulus (GPa) = 24.32479 32.39422 28.35951
#
# Velocity S-wave (km/s) = 3.32107 3.83254 3.58594
# Velocity P-wave (km/s) = 5.53751 6.37518 5.97105
#
# Compressibility (1/GPa) = 0.02841364
#
# Stress axis : x y z
#
# Youngs Moduli (GPa) = 107.43771 41.71840 56.37735
#
# Poissons Ratio (x) = 0.27964 0.09904
# Poissons Ratio (y) = 0.72017 0.16018
# Poissons Ratio (z) = 0.18873 0.11853
#
# Static dielectric constant tensor:
#      x y z
#    x 1.153860 0.151800 0.019050 
#    y 0.151800 1.840870 0.010290 
#    z 0.019050 0.010290 1.828140 
# 
# From -- ./inp_files/27726.got.cif
#   From: 2010.05.17/outbox.cif.g08.bks.cpg/sg2_14_cif.got.tgz:27726.got - 2010.06.03 11:33:40.
