data_PCOD9104412
_publ_section_title
;
Structure prediction by ZEFSAII (Michael W. Deem and Ramdas Pophale) SiO2 
 PCOD9104412
Probable space group: P -1
;
_chemical_formula_sum "Si O2"
_cell_formula_units_Z 16
_cell_length_a 16.894494
_cell_length_b 19.664190
_cell_length_c 8.227610
_cell_angle_alpha 137.909212
_cell_angle_beta 33.625847
_cell_angle_gamma 149.306781
_cell_volume 769.333209
_symmetry_space_group_name_H-M "P -1"
_symmetry_group_IT_number 2
_symmetry_cell_setting 'triclinic'
loop_
_space_group_symop_operation_xyz
x,y,z
-x,-y,-z
loop_
_atom_site_type_symbol
_atom_site_label
_atom_site_fract_x
_atom_site_fract_y
_atom_site_fract_z
Si Si1 0.594382 0.617524 0.755577
Si Si2 0.508032 0.305642 0.645960
Si Si3 0.096617 0.599619 0.850328
Si Si4 0.168278 0.006184 0.784295
Si Si5 0.465667 0.769928 0.886540
Si Si6 0.254821 0.495371 0.900537
Si Si7 0.706499 0.133793 0.830338
Si Si8 0.804434 0.916258 0.777361
O O1 0.378717 0.506539 0.857352
O O2 0.701005 0.564884 0.426637
O O3 0.715009 0.767466 0.733294
O O4 0.574643 0.636589 0.013228
O O5 0.369889 0.150941 0.661333
O O6 0.506309 0.288358 0.424157
O O7 0.723156 0.386275 0.475944
O O8 0.187461 0.748531 0.012334
O O9 0.957001 0.564722 0.880459
O O10 0.000000 0.500000 0.000000
O O11 0.167969 0.900485 0.504637
O O12 0.162390 0.996835 0.971063
O O13 0.000000 0.000000 0.000000
O O14 0.361667 0.650839 0.977927
O O15 0.659952 0.892360 0.849994
O O16 0.339349 0.806859 0.126181
O O17 0.500000 0.000000 0.000000
O O18 0.000000 0.000000 0.500000
#
# Coordination Sequence:
#
# PCOD9104412 Si02
#       8
#     2   2   2   2   2   2   2   2
#     4   9  22  38  62  89 123 164 208 257 317 365
#     4  10  20  39  60  93 117 162 210 254 310 368
#     4  11  21  38  62  91 123 163 204 250 312 364
#     4  11  23  40  63  95 125 162 212 258 316 382
#     4  10  20  39  63  84 129 159 207 260 306 363
#     4  10  20  40  59  88 125 165 203 255 313 370
#     4  11  22  39  65  94 123 167 209 257 316 369
#     4  10  22  39  61  90 128 162 207 263 315 364
#
# _framework density 20.797231
#
# number of rings (size 3 to 8) (size 9 to 14) (size 15 to 20)
#    0.000    1.750    5.000    0.750    3.500    1.500 
#    0.000    2.500    0.000    0.000    0.000    0.000 
#    0.000    0.000    0.000    0.000    0.000    0.000 
#
# Total GULP energy -89084.007055 kJ/mol
# GULP energy per Si atom -5567.750441 kJ/mol
# Density = 2.074990 g / cm^3
# Si number density = 20.797231 Si / 1000 Ang^3
#
#
#
# Elastic Constant Matrix: (Units=GPa)
#
#
# Indices 1 2 3 4 5 6 
#
# 1 53.2740 -5.1706 7.6243 -8.4793 -10.4042 21.9022
# 2 -5.1706 62.2422 18.2717 -5.7163 0.5602 8.4552
# 3 7.6243 18.2717 70.9590 6.4318 -1.1580 5.9311
# 4 -8.4793 -5.7163 6.4318 37.5768 5.8283 -8.0106
# 5 -10.4042 0.5602 -1.1580 5.8283 17.4262 1.1305
# 6 21.9022 8.4552 5.9311 -8.0106 1.1305 33.2437
#
#
#
# Elastic Compliance Matrix: (Units=1/GPa)
#
#
# Indices 1 2 3 4 5 6 
#
# 1 0.034128 0.006937 -0.003160 0.000845 0.021231 -0.024204
# 2 0.006937 0.019584 -0.005399 0.003403 0.002525 -0.007854
# 3 -0.003160 -0.005399 0.016304 -0.004599 0.000947 -0.000594
# 4 0.000845 0.003403 -0.004599 0.031355 -0.010873 0.007324
# 5 0.021231 0.002525 0.000947 -0.010873 0.074974 -0.019968
# 6 -0.024204 -0.007854 -0.000594 0.007324 -0.019968 0.050575
#
#
# Mechanical properties :
#
#
# Convention : Reuss Voigt Hill
#
# Bulk Modulus (GPa) = 14.97623 25.32511 20.15067
# Shear Modulus (GPa) = 19.80810 28.69931 24.25370
#
# Velocity S-wave (km/s) = 3.08951 3.71881 3.41867
# Velocity P-wave (km/s) = 4.46581 5.53561 5.02924
#
# Compressibility (1/GPa) = 0.06677246
#
# Stress axis : x y z
#
# Youngs Moduli (GPa) = 29.30154 51.06152 61.33335
#
# Poissons Ratio (x) = -0.35423 0.19383
# Poissons Ratio (y) = -0.20327 0.33114
# Poissons Ratio (z) = 0.09260 0.27568
#
# Static dielectric constant tensor:
#      x y z
#    x 1.670390 -0.001540 -0.037780 
#    y -0.001540 1.779270 -0.028500 
#    z -0.037780 -0.028500 1.797530 
# 
# From -- ./inp_files/214504.got.cif
#   From: 2010.05.17/outbox.cif.g08.bks.cpg/sg2_108_cif.got.tgz:214504.got - 2010.06.03 11:33:40.
