data_PCOD9104127
_publ_section_title
;
Structure prediction by ZEFSAII (Michael W. Deem and Ramdas Pophale) SiO2 
 PCOD9104127
Probable space group: P -1
;
_chemical_formula_sum "Si O2"
_cell_formula_units_Z 16
_cell_length_a 19.762757
_cell_length_b 19.705983
_cell_length_c 6.794356
_cell_angle_alpha 65.141160
_cell_angle_beta 74.307277
_cell_angle_gamma 19.786234
_cell_volume 742.268792
_symmetry_space_group_name_H-M "P -1"
_symmetry_group_IT_number 2
_symmetry_cell_setting 'triclinic'
loop_
_space_group_symop_operation_xyz
x,y,z
-x,-y,-z
loop_
_atom_site_type_symbol
_atom_site_label
_atom_site_fract_x
_atom_site_fract_y
_atom_site_fract_z
Si Si1 0.754567 0.259875 0.128683
Si Si2 0.763635 0.367994 0.279306
Si Si3 0.044227 0.835901 0.233679
Si Si4 0.200083 0.144215 0.817096
Si Si5 0.727085 0.802048 0.991569
Si Si6 0.363661 0.857832 0.798545
Si Si7 0.134365 0.109285 0.283013
Si Si8 0.023250 0.360412 0.295518
O O1 0.771700 0.273909 0.319014
O O2 0.500000 0.500000 0.000000
O O3 0.848650 0.232835 0.953918
O O4 0.894480 0.047974 0.208175
O O5 0.763099 0.377504 0.503698
O O6 0.988387 0.183818 0.273857
O O7 0.559603 0.611234 0.031119
O O8 0.872078 0.942552 0.201636
O O9 0.205624 0.213378 0.858670
O O10 0.022776 0.340865 0.548939
O O11 0.380617 0.923724 0.799261
O O12 0.187336 0.093812 0.055141
O O13 0.859321 0.592857 0.103730
O O14 0.754707 0.827292 0.746926
O O15 0.500000 0.000000 0.000000
O O16 0.333942 0.893203 0.541777
O O17 0.988518 0.318834 0.256262
#
# Coordination Sequence:
#
# PCOD9104127 Si02
#       8
#     2   2   2   2   2   2   2   2
#     4  11  22  41  62  89 120 155 196 243 293 352
#     4  11  22  39  63  88 116 162 192 240 302 343
#     4  10  23  42  61  88 122 150 198 248 287 350
#     4  10  20  39  58  83 117 159 187 244 298 335
#     4  10  21  36  59  88 115 154 195 238 289 350
#     4  10  21  39  59  88 120 151 202 242 287 359
#     4   9  21  39  59  84 120 153 197 247 290 346
#     4   9  20  40  58  83 122 148 195 245 285 346
#
# _framework density 21.555534999999999
#
# number of rings (size 3 to 8) (size 9 to 14) (size 15 to 20)
#    0.000    2.000    1.250    1.500    1.750    2.000 
#    9.000    0.000    0.000    0.000    0.000    0.000 
#    0.000    0.000    0.000    0.000    0.000    0.000 
#
# Total GULP energy -89073.533633 kJ/mol
# GULP energy per Si atom -5567.095852 kJ/mol
# Density = 2.150647 g / cm^3
# Si number density = 21.555535 Si / 1000 Ang^3
#
#
#
# Elastic Constant Matrix: (Units=GPa)
#
#
# Indices 1 2 3 4 5 6 
#
# 1 47.9808 0.1172 9.9227 -5.8746 8.3729 18.6632
# 2 0.1172 42.0014 16.4771 -2.7276 1.2138 -2.1463
# 3 9.9227 16.4771 118.0842 3.8211 5.5581 -2.8257
# 4 -5.8746 -2.7276 3.8211 24.3734 3.1951 -6.9067
# 5 8.3729 1.2138 5.5581 3.1951 35.2955 5.8811
# 6 18.6632 -2.1463 -2.8257 -6.9067 5.8811 32.6438
#
#
#
# Elastic Compliance Matrix: (Units=1/GPa)
#
#
# Indices 1 2 3 4 5 6 
#
# 1 0.028379 0.000595 -0.002747 0.003662 -0.004169 -0.014897
# 2 0.000595 0.025674 -0.003665 0.004364 -0.001204 0.002171
# 3 -0.002747 -0.003665 0.009357 -0.001893 -0.000839 0.001890
# 4 0.003662 0.004364 -0.001893 0.046061 -0.006377 0.008924
# 5 -0.004169 -0.001204 -0.000839 -0.006377 0.030851 -0.004676
# 6 -0.014897 0.002171 0.001890 0.008924 -0.004676 0.042188
#
#
# Mechanical properties :
#
#
# Convention : Reuss Voigt Hill
#
# Bulk Modulus (GPa) = 19.31362 29.01117 24.16239
# Shear Modulus (GPa) = 23.65173 30.56582 27.10878
#
# Velocity S-wave (km/s) = 3.31606 3.76972 3.55015
# Velocity P-wave (km/s) = 4.86221 5.69524 5.29513
#
# Compressibility (1/GPa) = 0.05177694
#
# Stress axis : x y z
#
# Youngs Moduli (GPa) = 35.23750 38.94993 106.87485
#
# Poissons Ratio (x) = -0.02319 0.29353
# Poissons Ratio (y) = -0.02098 0.39171
# Poissons Ratio (z) = 0.09678 0.14276
#
# Static dielectric constant tensor:
#      x y z
#    x 1.724570 -0.039770 -0.115410 
#    y -0.039770 1.773650 -0.064460 
#    z -0.115410 -0.064460 1.698730 
# 
# From -- ./inp_files/12829.got.cif
#   From: 2010.05.17/outbox.cif.g08.bks.cpg/sg2_7_cif.got.tgz:12829.got - 2010.06.03 11:33:40.
