data_PCOD9104290
_publ_section_title
;
Structure prediction by ZEFSAII (Michael W. Deem and Ramdas Pophale) SiO2 
 PCOD9104290
Probable space group: P -1
;
_chemical_formula_sum "Si O2"
_cell_formula_units_Z 14
_cell_length_a 16.971457
_cell_length_b 8.394228
_cell_length_c 14.599263
_cell_angle_alpha 51.434529
_cell_angle_beta 25.440443
_cell_angle_gamma 53.773134
_cell_volume 696.144656
_symmetry_space_group_name_H-M "P -1"
_symmetry_group_IT_number 2
_symmetry_cell_setting 'triclinic'
loop_
_space_group_symop_operation_xyz
x,y,z
-x,-y,-z
loop_
_atom_site_type_symbol
_atom_site_label
_atom_site_fract_x
_atom_site_fract_y
_atom_site_fract_z
Si Si1 0.359290 0.781909 0.304225
Si Si2 0.662517 0.682484 0.468056
Si Si3 0.359525 0.887669 0.059795
Si Si4 0.981094 0.986949 0.313125
Si Si5 0.003315 0.708715 0.977958
Si Si6 0.580416 0.277844 0.457409
Si Si7 0.646474 0.847862 0.629350
O O1 0.377481 0.554677 0.405380
O O2 0.170365 0.888780 0.507381
O O3 0.339505 0.776230 0.217205
O O4 0.535082 0.909864 0.096046
O O5 0.532009 0.782885 0.490580
O O6 0.638889 0.759418 0.567964
O O7 0.863910 0.711877 0.206741
O O8 0.163421 0.927555 0.201244
O O9 0.500972 0.773543 0.880436
O O10 0.036206 0.117067 0.120028
O O11 0.852484 0.821323 0.464182
O O12 0.209384 0.714008 0.794529
O O13 0.000000 0.500000 0.000000
O O14 0.500000 0.500000 0.500000
O O15 0.589093 0.092987 0.587504
#
# Coordination Sequence:
#
# PCOD9104290 Si02
#       7
#     2   2   2   2   2   2   2
#     4  10  22  37  60  88 106 149 200 238 281 334
#     4  12  23  37  57  86 123 147 187 237 286 345
#     4  10  21  40  61  80 113 150 196 242 281 328
#     4  10  20  39  60  81 115 148 191 237 283 336
#     4  11  21  34  58  87 112 148 185 232 284 340
#     4  11  21  37  60  85 115 153 190 228 284 341
#     4  10  24  38  55  88 118 151 189 231 286 348
#
# _framework density 20.110762999999999
#
# number of rings (size 3 to 8) (size 9 to 14) (size 15 to 20)
#    0.000    1.429    2.857    3.429    2.000    4.000 
#    0.000    0.714    0.000    0.000    0.000    0.000 
#    0.000    0.000    0.000    0.000    0.000    0.000 
#
# Total GULP energy -78133.842694 kJ/mol
# GULP energy per Si atom -5580.988764 kJ/mol
# Density = 2.006499 g / cm^3
# Si number density = 20.110763 Si / 1000 Ang^3
#
#
#
# Elastic Constant Matrix: (Units=GPa)
#
#
# Indices 1 2 3 4 5 6 
#
# 1 131.8953 13.0415 50.4997 23.3890 -4.2789 -4.9387
# 2 13.0415 13.1504 12.4893 1.2722 -2.9295 0.2047
# 3 50.4997 12.4893 96.5774 3.3279 17.9450 -7.0300
# 4 23.3890 1.2722 3.3279 16.0159 2.6403 9.0988
# 5 -4.2789 -2.9295 17.9450 2.6403 43.2257 11.5944
# 6 -4.9387 0.2047 -7.0300 9.0988 11.5944 26.5361
#
#
#
# Elastic Compliance Matrix: (Units=1/GPa)
#
#
# Indices 1 2 3 4 5 6 
#
# 1 0.015987 -0.006594 -0.006430 -0.027312 0.002953 0.009397
# 2 -0.006594 0.098116 -0.013654 0.011341 0.015313 -0.016181
# 3 -0.006430 -0.013654 0.017893 0.004665 -0.011129 0.006912
# 4 -0.027312 0.011341 0.004665 0.127663 0.001277 -0.048266
# 5 0.002953 0.015313 -0.011129 0.001277 0.033755 -0.017703
# 6 0.009397 -0.016181 0.006912 -0.048266 -0.017703 0.065674
#
#
# Mechanical properties :
#
#
# Convention : Reuss Voigt Hill
#
# Bulk Modulus (GPa) = 12.71633 43.74269 28.22951
# Shear Modulus (GPa) = 11.39844 28.19504 19.79674
#
# Velocity S-wave (km/s) = 2.38330 3.74837 3.14090
# Velocity P-wave (km/s) = 3.72966 6.36646 5.21739
#
# Compressibility (1/GPa) = 0.07863902
#
# Stress axis : x y z
#
# Youngs Moduli (GPa) = 62.55265 10.19201 55.88915
#
# Poissons Ratio (x) = 0.06720 0.35937
# Poissons Ratio (y) = 0.41246 0.76313
# Poissons Ratio (z) = 0.40221 0.13916
#
# Static dielectric constant tensor:
#      x y z
#    x 1.708270 0.019990 -0.015050 
#    y 0.019990 1.740090 0.017290 
#    z -0.015050 0.017290 1.719470 
# 
# From -- ./inp_files/178560.got.cif
#   From: 2010.05.17/outbox.cif.g08.bks.cpg/sg2_90_cif.got.tgz:178560.got - 2010.06.03 11:33:40.
