data_PCOD9104295
_publ_section_title
;
Structure prediction by ZEFSAII (Michael W. Deem and Ramdas Pophale) SiO2 
 PCOD9104295
Probable space group: P -1
;
_chemical_formula_sum "Si O2"
_cell_formula_units_Z 14
_cell_length_a 7.891417
_cell_length_b 16.285634
_cell_length_c 7.568986
_cell_angle_alpha 128.818378
_cell_angle_beta 91.450872
_cell_angle_gamma 112.311192
_cell_volume 652.707304
_symmetry_space_group_name_H-M "P -1"
_symmetry_group_IT_number 2
_symmetry_cell_setting 'triclinic'
loop_
_space_group_symop_operation_xyz
x,y,z
-x,-y,-z
loop_
_atom_site_type_symbol
_atom_site_label
_atom_site_fract_x
_atom_site_fract_y
_atom_site_fract_z
Si Si1 0.731493 0.572795 0.557155
Si Si2 0.319549 0.217453 0.098738
Si Si3 0.117995 0.111869 0.285174
Si Si4 0.980662 0.301125 0.552390
Si Si5 0.218676 0.644148 0.695508
Si Si6 0.763746 0.205953 0.770520
Si Si7 0.288723 0.058844 0.562943
O O1 0.500000 0.500000 0.500000
O O2 0.790782 0.704984 0.819787
O O3 0.833024 0.496812 0.520713
O O4 0.803919 0.598184 0.386918
O O5 0.306011 0.191783 0.272851
O O6 0.549569 0.297899 0.180493
O O7 0.247220 0.105679 0.810324
O O8 0.184006 0.086120 0.437118
O O9 0.994173 0.179305 0.385599
O O10 0.000000 0.000000 0.000000
O O11 0.835109 0.308426 0.417369
O O12 0.894345 0.294355 0.733827
O O13 0.170864 0.707134 0.940729
O O14 0.525849 0.140507 0.647819
O O15 0.781939 0.084764 0.628507
#
# Coordination Sequence:
#
# PCOD9104295 Si02
#       7
#     2   2   2   2   2   2   2
#     4   9  20  39  60  83 113 152 192 233 286 336
#     4   9  20  38  60  81 111 154 193 234 282 335
#     4  11  22  35  56  86 118 153 190 231 282 342
#     4  11  22  35  58  87 113 148 191 236 285 338
#     4  10  20  39  60  82 115 149 190 241 284 332
#     4  10  22  37  59  87 114 151 192 234 285 336
#     4  10  21  39  58  83 120 153 187 233 284 339
#
# _framework density 21.449124000000001
#
# number of rings (size 3 to 8) (size 9 to 14) (size 15 to 20)
#    0.000    2.000    0.000    3.000    0.000    5.143 
#    0.000    8.571    0.000   15.429    0.000    0.000 
#    0.000    0.000    0.000    0.000    0.000    0.000 
#
# Total GULP energy -77936.228554 kJ/mol
# GULP energy per Si atom -5566.873468 kJ/mol
# Density = 2.140031 g / cm^3
# Si number density = 21.449124 Si / 1000 Ang^3
#
#
#
# Elastic Constant Matrix: (Units=GPa)
#
#
# Indices 1 2 3 4 5 6 
#
# 1 99.1732 54.6802 31.3736 -3.0601 -22.3050 -20.2283
# 2 54.6802 110.5051 58.1581 -11.2022 -11.3670 -24.9950
# 3 31.3736 58.1581 102.9035 -6.9397 -18.7178 -15.0349
# 4 -3.0601 -11.2022 -6.9397 28.3033 8.8177 5.4119
# 5 -22.3050 -11.3670 -18.7178 8.8177 31.3691 -5.4138
# 6 -20.2283 -24.9950 -15.0349 5.4119 -5.4138 47.3207
#
#
#
# Elastic Compliance Matrix: (Units=1/GPa)
#
#
# Indices 1 2 3 4 5 6 
#
# 1 0.017988 -0.007599 0.001915 -0.006242 0.014075 0.006608
# 2 -0.007599 0.017444 -0.007704 0.005213 -0.004734 0.002380
# 3 0.001915 -0.007704 0.015378 -0.002415 0.008932 0.002934
# 4 -0.006242 0.005213 -0.002415 0.042995 -0.017385 -0.007588
# 5 0.014075 -0.004734 0.008932 -0.017385 0.052871 0.014391
# 6 0.006608 0.002380 0.002934 -0.007588 0.014391 0.028661
#
#
# Mechanical properties :
#
#
# Convention : Reuss Voigt Hill
#
# Bulk Modulus (GPa) = 41.60604 66.77841 54.19223
# Shear Modulus (GPa) = 23.79554 32.62329 28.20941
#
# Velocity S-wave (km/s) = 3.33437 3.90418 3.63047
# Velocity P-wave (km/s) = 5.85352 7.17806 6.54936
#
# Compressibility (1/GPa) = 0.02403497
#
# Stress axis : x y z
#
# Youngs Moduli (GPa) = 55.59227 57.32685 65.02720
#
# Poissons Ratio (x) = 0.43564 -0.12454
# Poissons Ratio (y) = 0.42245 0.50095
# Poissons Ratio (z) = -0.10647 0.44163
#
# Static dielectric constant tensor:
#      x y z
#    x 1.844180 0.119640 -0.015750 
#    y 0.119640 1.957080 0.056400 
#    z -0.015750 0.056400 1.745880 
# 
# From -- ./inp_files/40272.got.cif
#   From: 2010.05.17/outbox.cif.g08.bks.cpg/sg2_21_cif.got.tgz:40272.got - 2010.06.03 11:33:40.
