data_PCOD9104361
_publ_section_title
;
Structure prediction by ZEFSAII (Michael W. Deem and Ramdas Pophale) SiO2 
 PCOD9104361
Probable space group: P -1
;
_chemical_formula_sum "Si O2"
_cell_formula_units_Z 16
_cell_length_a 13.194488
_cell_length_b 13.749756
_cell_length_c 8.115403
_cell_angle_alpha 44.129769
_cell_angle_beta 113.939562
_cell_angle_gamma 136.686503
_cell_volume 682.007469
_symmetry_space_group_name_H-M "P -1"
_symmetry_group_IT_number 2
_symmetry_cell_setting 'triclinic'
loop_
_space_group_symop_operation_xyz
x,y,z
-x,-y,-z
loop_
_atom_site_type_symbol
_atom_site_label
_atom_site_fract_x
_atom_site_fract_y
_atom_site_fract_z
Si Si1 0.005032 0.043733 0.191442
Si Si2 0.835754 0.467189 0.546911
Si Si3 0.904206 0.730477 0.738718
Si Si4 0.514543 0.880633 0.772611
Si Si5 0.785181 0.332779 0.021786
Si Si6 0.740823 0.696670 0.228653
Si Si7 0.174456 0.754025 0.482260
Si Si8 0.436499 0.514731 0.104742
O O1 0.013722 0.190414 0.127866
O O2 0.013294 0.914935 0.470473
O O3 0.842993 0.869960 0.214663
O O4 0.154478 0.180986 0.011023
O O5 0.827294 0.349857 0.837379
O O6 0.743937 0.529927 0.449061
O O7 0.801380 0.362281 0.477878
O O8 0.010873 0.667755 0.425987
O O9 0.867968 0.548787 0.864221
O O10 0.737345 0.658955 0.743801
O O11 0.500000 0.000000 0.500000
O O12 0.692292 0.024543 0.747660
O O13 0.397525 0.805081 0.934122
O O14 0.449320 0.690604 0.869756
O O15 0.818073 0.268964 0.286389
O O16 0.566322 0.592022 0.230071
O O17 0.500000 0.500000 0.000000
#
# Coordination Sequence:
#
# PCOD9104361 Si02
#       8
#     2   2   2   2   2   2   2   2
#     4  10  21  36  59  89 123 164 198 262 318 378
#     4  11  23  40  64  94 123 168 211 267 322 378
#     4  10  20  39  60  88 126 161 212 255 323 381
#     4   9  22  41  64  88 126 167 213 261 312 382
#     4  10  20  42  64  89 123 167 212 268 314 381
#     4  11  23  38  61  91 130 160 211 265 323 376
#     4  10  23  40  65  89 126 165 216 258 319 382
#     4  11  23  39  66  94 128 173 212 260 328 387
#
# _framework density 23.460152999999998
#
# number of rings (size 3 to 8) (size 9 to 14) (size 15 to 20)
#    0.000    1.750    2.500    1.125    7.000    1.000 
#    0.000    0.000    5.500    0.000    0.000    0.000 
#    0.000    0.000    0.000    0.000    0.000    0.000 
#
# Total GULP energy -89251.057471 kJ/mol
# GULP energy per Si atom -5578.191092 kJ/mol
# Density = 2.340676 g / cm^3
# Si number density = 23.460153 Si / 1000 Ang^3
#
#
#
# Elastic Constant Matrix: (Units=GPa)
#
#
# Indices 1 2 3 4 5 6 
#
# 1 55.9493 19.4446 22.1163 7.4338 -1.4124 10.5894
# 2 19.4446 69.9491 22.7813 7.4446 -16.2935 6.6962
# 3 22.1163 22.7813 83.2729 -6.5743 -13.5040 -1.5652
# 4 7.4338 7.4446 -6.5743 33.0196 1.7421 -7.3850
# 5 -1.4124 -16.2935 -13.5040 1.7421 32.3348 -2.3639
# 6 10.5894 6.6962 -1.5652 -7.3850 -2.3639 22.8219
#
#
#
# Elastic Compliance Matrix: (Units=1/GPa)
#
#
# Indices 1 2 3 4 5 6 
#
# 1 0.026242 -0.003200 -0.007878 -0.009983 -0.004348 -0.015459
# 2 -0.003200 0.019466 -0.003763 -0.006100 0.008015 -0.005629
# 3 -0.007878 -0.003763 0.016711 0.007679 0.004976 0.008906
# 4 -0.009983 -0.006100 0.007679 0.039909 -0.001009 0.019758
# 5 -0.004348 0.008015 0.004976 -0.001009 0.037166 0.003531
# 6 -0.015459 -0.005629 0.008906 0.019758 0.003531 0.060012
#
#
# Mechanical properties :
#
#
# Convention : Reuss Voigt Hill
#
# Bulk Modulus (GPa) = 30.54628 37.53952 34.04290
# Shear Modulus (GPa) = 20.82466 27.29054 24.05760
#
# Velocity S-wave (km/s) = 2.98260 3.41438 3.20576
# Velocity P-wave (km/s) = 4.99098 5.61962 5.31460
#
# Compressibility (1/GPa) = 0.03273722
#
# Stress axis : x y z
#
# Youngs Moduli (GPa) = 38.10700 51.37149 59.84036
#
# Poissons Ratio (x) = 0.16436 0.47143
# Poissons Ratio (y) = 0.12192 0.22520
# Poissons Ratio (z) = 0.30021 0.19333
#
# Static dielectric constant tensor:
#      x y z
#    x 1.959550 0.010120 0.001480 
#    y 0.010120 1.998600 0.063140 
#    z 0.001480 0.063140 1.927720 
# 
# From -- ./inp_files/312408.got.cif
#   From: 2010.05.17/outbox.cif.g08.bks.cpg/sg2_157_cif.got.tgz:312408.got - 2010.06.03 11:33:40.
