data_PCOD9104780
_publ_section_title
;
Structure prediction by ZEFSAII (Michael W. Deem and Ramdas Pophale) SiO2 
 PCOD9104780
Probable space group: P -1
;
_chemical_formula_sum "Si O2"
_cell_formula_units_Z 16
_cell_length_a 9.733764
_cell_length_b 9.128745
_cell_length_c 9.681074
_cell_angle_alpha 82.010989
_cell_angle_beta 88.589906
_cell_angle_gamma 48.559221
_cell_volume 635.970011
_symmetry_space_group_name_H-M "P -1"
_symmetry_group_IT_number 2
_symmetry_cell_setting 'triclinic'
loop_
_space_group_symop_operation_xyz
x,y,z
-x,-y,-z
loop_
_atom_site_type_symbol
_atom_site_label
_atom_site_fract_x
_atom_site_fract_y
_atom_site_fract_z
Si Si1 0.829326 0.599445 0.272918
Si Si2 0.716566 0.865563 0.984531
Si Si3 0.350560 0.577264 0.782230
Si Si4 0.651834 0.981379 0.383805
Si Si5 0.233205 0.322523 0.285822
Si Si6 0.756936 0.328167 0.779935
Si Si7 0.782021 0.148968 0.512439
Si Si8 0.169031 0.957915 0.886304
O O1 0.718376 0.536203 0.235429
O O2 0.035891 0.416772 0.338895
O O3 0.727937 0.765949 0.371379
O O4 0.831529 0.700060 0.122546
O O5 0.763019 0.758284 0.853277
O O6 0.758776 0.008593 0.984588
O O7 0.500000 0.000000 0.000000
O O8 0.561288 0.437252 0.840833
O O9 0.324276 0.683559 0.624646
O O10 0.224421 0.751725 0.873950
O O11 0.432139 0.141810 0.366238
O O12 0.723041 0.021584 0.508707
O O13 0.731301 0.022426 0.245764
O O14 0.229377 0.504142 0.257970
O O15 0.742941 0.252274 0.644773
O O16 0.951271 0.136899 0.860886
O O17 0.000000 0.000000 0.500000
#
# Coordination Sequence:
#
# PCOD9104780 Si02
#       8
#     2   2   2   2   2   2   2   2
#     4  11  24  41  62  94 129 155 200 263 309 347
#     4  11  20  40  68  88 119 166 208 245 296 371
#     4  11  24  41  62  94 129 155 200 263 309 347
#     4  10  20  39  62  89 124 156 210 246 293 368
#     4  12  21  39  70  89 117 168 212 241 298 372
#     4  12  21  39  70  89 117 168 212 241 298 372
#     4  11  20  40  68  88 119 166 208 245 296 371
#     4  10  20  39  62  89 124 156 210 246 293 368
#
# _framework density 25.158418000000001
#
# number of rings (size 3 to 8) (size 9 to 14) (size 15 to 20)
#    0.000    1.000   10.000    0.750    0.000    1.000 
#    0.000    6.250    0.000    0.000    0.000    0.000 
#    0.000    0.000    0.000    0.000    0.000    0.000 
#
# Total GULP energy -89678.776359 kJ/mol
# GULP energy per Si atom -5604.923522 kJ/mol
# Density = 2.510116 g / cm^3
# Si number density = 25.158418 Si / 1000 Ang^3
#
#
#
# Elastic Constant Matrix: (Units=GPa)
#
#
# Indices 1 2 3 4 5 6 
#
# 1 124.0942 22.9200 18.2563 6.0376 27.8447 -7.1066
# 2 22.9200 130.5678 49.4671 19.2424 21.8032 -18.1194
# 3 18.2563 49.4671 102.5399 25.8082 31.1660 0.5917
# 4 6.0376 19.2424 25.8082 56.5651 5.6901 14.7708
# 5 27.8447 21.8032 31.1660 5.6901 48.5486 8.5321
# 6 -7.1066 -18.1194 0.5917 14.7708 8.5321 71.2778
#
#
#
# Elastic Compliance Matrix: (Units=1/GPa)
#
#
# Indices 1 2 3 4 5 6 
#
# 1 0.009511 -0.000542 0.000542 -0.000941 -0.005745 0.001689
# 2 -0.000542 0.010336 -0.003573 -0.002479 -0.002344 0.003397
# 3 0.000542 -0.003573 0.015110 -0.005209 -0.007981 0.001055
# 4 -0.000941 -0.002479 -0.005209 0.022139 0.003400 -0.005676
# 5 -0.005745 -0.002344 -0.007981 0.003400 0.030633 -0.005474
# 6 0.001689 0.003397 0.001055 -0.005676 -0.005474 0.016884
#
#
# Mechanical properties :
#
#
# Convention : Reuss Voigt Hill
#
# Bulk Modulus (GPa) = 35.95894 59.83208 47.89551
# Shear Modulus (GPa) = 41.31204 53.04886 47.18045
#
# Velocity S-wave (km/s) = 4.05665 4.59692 4.33521
# Velocity P-wave (km/s) = 6.02212 7.21175 6.64362
#
# Compressibility (1/GPa) = 0.02780950
#
# Stress axis : x y z
#
# Youngs Moduli (GPa) = 105.14694 96.74977 66.18008
#
# Poissons Ratio (x) = 0.05247 -0.03584
# Poissons Ratio (y) = 0.05702 0.23646
# Poissons Ratio (z) = -0.05695 0.34568
#
# Static dielectric constant tensor:
#      x y z
#    x 1.993430 0.057850 -0.111640 
#    y 0.057850 2.004020 -0.096660 
#    z -0.111640 -0.096660 2.150100 
# 
# From -- ./inp_files/343355.got.cif
#   From: 2010.05.17/outbox.cif.g08.bks.cpg/sg2_172_cif.got.tgz:343355.got - 2010.06.03 11:33:40.
