data_PCOD9104500
_publ_section_title
;
Structure prediction by ZEFSAII (Michael W. Deem and Ramdas Pophale) SiO2 
 PCOD9104500
Probable space group: P -1
;
_chemical_formula_sum "Si O2"
_cell_formula_units_Z 12
_cell_length_a 7.305160
_cell_length_b 8.311840
_cell_length_c 12.782107
_cell_angle_alpha 68.507870
_cell_angle_beta 130.274918
_cell_angle_gamma 119.941851
_cell_volume 511.987784
_symmetry_space_group_name_H-M "P -1"
_symmetry_group_IT_number 2
_symmetry_cell_setting 'triclinic'
loop_
_space_group_symop_operation_xyz
x,y,z
-x,-y,-z
loop_
_atom_site_type_symbol
_atom_site_label
_atom_site_fract_x
_atom_site_fract_y
_atom_site_fract_z
Si Si1 0.497504 0.403987 0.752599
Si Si2 0.265911 0.571731 0.371561
Si Si3 0.760114 0.206597 0.275154
Si Si4 0.578643 0.831179 0.028423
Si Si5 0.539801 0.210248 0.410412
Si Si6 0.018417 0.076087 0.688952
O O1 0.659932 0.348405 0.736447
O O2 0.557772 0.345041 0.903386
O O3 0.535475 0.617387 0.701311
O O4 0.193159 0.276199 0.655729
O O5 0.500000 0.500000 0.500000
O O6 0.284275 0.707534 0.442127
O O7 0.992412 0.405539 0.309116
O O8 0.676572 0.159765 0.374372
O O9 0.863946 0.058699 0.297069
O O10 0.520908 0.208755 0.115859
O O11 0.876130 0.892767 0.158897
O O12 0.500000 0.000000 0.000000
O O13 0.718931 0.953198 0.610991
#
# Coordination Sequence:
#
# PCOD9104500 Si02
#       6
#     2   2   2   2   2   2
#     4   9  20  40  61  87 119 161 192 240 301 346
#     4  10  20  39  61  86 120 160 194 243 295 346
#     4  11  20  39  64  86 121 156 196 247 292 348
#     4   8  19  38  60  90 116 154 201 237 295 354
#     4  11  22  39  62  90 121 155 196 246 291 350
#     4   9  20  42  57  87 120 155 191 242 296 343
#
# _framework density 23.438056
#
# number of rings (size 3 to 8) (size 9 to 14) (size 15 to 20)
#    1.000    1.333    3.333    0.500    0.000    2.667 
#    3.000    0.833    0.000    0.000    0.000    0.000 
#    0.000    0.000    0.000    0.000    0.000    0.000 
#
# Total GULP energy -66990.422949 kJ/mol
# GULP energy per Si atom -5582.535246 kJ/mol
# Density = 2.338471 g / cm^3
# Si number density = 23.438056 Si / 1000 Ang^3
#
#
#
# Elastic Constant Matrix: (Units=GPa)
#
#
# Indices 1 2 3 4 5 6 
#
# 1 119.6766 31.7524 47.7291 18.2961 -26.0641 29.2233
# 2 31.7524 123.9349 45.3075 4.6646 -14.7116 19.0388
# 3 47.7291 45.3075 100.1844 17.8911 -9.2750 19.0436
# 4 18.2961 4.6646 17.8911 40.6331 0.2847 4.8700
# 5 -26.0641 -14.7116 -9.2750 0.2847 26.0207 3.0018
# 6 29.2233 19.0388 19.0436 4.8700 3.0018 38.3192
#
#
#
# Elastic Compliance Matrix: (Units=1/GPa)
#
#
# Indices 1 2 3 4 5 6 
#
# 1 0.017433 0.001281 -0.003879 -0.004881 0.018336 -0.012820
# 2 0.001281 0.010705 -0.004018 0.000501 0.006460 -0.004869
# 3 -0.003879 -0.004018 0.014633 -0.004021 -0.000694 -0.001753
# 4 -0.004881 0.000501 -0.004021 0.028280 -0.006624 0.002396
# 5 0.018336 0.006460 -0.000694 -0.006624 0.062688 -0.020917
# 6 -0.012820 -0.004869 -0.001753 0.002396 -0.020917 0.040498
#
#
# Mechanical properties :
#
#
# Convention : Reuss Voigt Hill
#
# Bulk Modulus (GPa) = 33.85110 65.93043 49.89077
# Shear Modulus (GPa) = 25.34033 35.59507 30.46770
#
# Velocity S-wave (km/s) = 3.29167 3.90126 3.60936
# Velocity P-wave (km/s) = 5.37782 6.96303 6.22112
#
# Compressibility (1/GPa) = 0.02954114
#
# Stress axis : x y z
#
# Youngs Moduli (GPa) = 57.36345 93.41253 68.33741
#
# Poissons Ratio (x) = -0.11969 0.26505
# Poissons Ratio (y) = -0.07350 0.27456
# Poissons Ratio (z) = 0.22249 0.37530
#
# Static dielectric constant tensor:
#      x y z
#    x 1.965460 -0.059200 0.042400 
#    y -0.059200 1.884070 -0.023850 
#    z 0.042400 -0.023850 1.924750 
# 
# From -- ./inp_files/378446.got.cif
#   From: 2010.05.17/outbox.cif.g08.bks.cpg/sg2_190_cif.got.tgz:378446.got - 2010.06.03 11:33:40.
