data_PCOD9104763
_publ_section_title
;
Structure prediction by ZEFSAII (Michael W. Deem and Ramdas Pophale) SiO2 
 PCOD9104763
Probable space group: P -1
;
_chemical_formula_sum "Si O2"
_cell_formula_units_Z 16
_cell_length_a 7.898180
_cell_length_b 15.210394
_cell_length_c 10.390354
_cell_angle_alpha 119.438210
_cell_angle_beta 143.410489
_cell_angle_gamma 63.077496
_cell_volume 643.901539
_symmetry_space_group_name_H-M "P -1"
_symmetry_group_IT_number 2
_symmetry_cell_setting 'triclinic'
loop_
_space_group_symop_operation_xyz
x,y,z
-x,-y,-z
loop_
_atom_site_type_symbol
_atom_site_label
_atom_site_fract_x
_atom_site_fract_y
_atom_site_fract_z
Si Si1 0.074690 0.073032 0.212902
Si Si2 0.206133 0.898978 0.690495
Si Si3 0.322922 0.345016 0.370358
Si Si4 0.221771 0.225093 0.987939
Si Si5 0.745439 0.290023 0.087470
Si Si6 0.785004 0.453320 0.434410
Si Si7 0.335340 0.857779 0.450344
Si Si8 0.865416 0.709917 0.310188
O O1 0.408801 0.090530 0.422869
O O2 0.973212 0.034476 0.262318
O O3 0.885559 0.180670 0.143402
O O4 0.000000 0.000000 0.000000
O O5 0.238004 0.916937 0.568925
O O6 0.036819 0.800122 0.525037
O O7 0.524790 0.867240 0.915559
O O8 0.404768 0.451228 0.549520
O O9 0.504968 0.250271 0.479729
O O10 0.991998 0.338200 0.197485
O O11 0.326703 0.314513 0.202284
O O12 0.162515 0.267726 0.841137
O O13 0.930904 0.178836 0.816629
O O14 0.663090 0.368413 0.210976
O O15 0.456640 0.281153 0.827001
O O16 0.000000 0.500000 0.500000
O O17 0.966642 0.394398 0.616398
#
# Coordination Sequence:
#
# PCOD9104763 Si02
#       8
#     2   2   2   2   2   2   2   2
#     4  11  22  42  70  95 123 163 213 264 315 381
#     4  10  21  42  64  89 133 165 204 265 318 370
#     4   9  21  35  58  91 124 161 212 260 300 372
#     4  10  20  39  62  88 125 173 205 253 316 368
#     4  10  21  39  61  87 127 164 208 258 319 374
#     4  10  21  36  56  92 129 163 209 258 308 368
#     4   9  22  40  64  92 129 169 202 258 320 369
#     4  11  20  36  65  83 122 179 199 252 324 366
#
# _framework density 24.848520000000001
#
# number of rings (size 3 to 8) (size 9 to 14) (size 15 to 20)
#    0.000    2.000    2.500    0.000    1.750    4.000 
#    0.000   10.000    0.000    0.000    0.000    0.000 
#    0.000    0.000    0.000    0.000    0.000    0.000 
#
# Total GULP energy -89455.909460 kJ/mol
# GULP energy per Si atom -5590.994341 kJ/mol
# Density = 2.479196 g / cm^3
# Si number density = 24.848520 Si / 1000 Ang^3
#
#
#
# Elastic Constant Matrix: (Units=GPa)
#
#
# Indices 1 2 3 4 5 6 
#
# 1 100.2532 28.7999 33.7475 10.3004 0.6461 -25.7736
# 2 28.7999 97.2833 26.6156 21.7693 -10.7997 -3.9018
# 3 33.7475 26.6156 113.5907 6.2512 24.7410 -11.3939
# 4 10.3004 21.7693 6.2512 31.7272 -7.8475 -4.2040
# 5 0.6461 -10.7997 24.7410 -7.8475 53.6160 -8.8253
# 6 -25.7736 -3.9018 -11.3939 -4.2040 -8.8253 35.1012
#
#
#
# Elastic Compliance Matrix: (Units=1/GPa)
#
#
# Indices 1 2 3 4 5 6 
#
# 1 0.014317 -0.002658 -0.003134 -0.000351 0.002289 0.009733
# 2 -0.002658 0.013754 -0.002763 -0.007562 0.002717 -0.001542
# 3 -0.003134 -0.002763 0.011729 -0.000981 -0.006151 -0.000465
# 4 -0.000351 -0.007562 -0.000981 0.038959 0.005394 0.004605
# 5 0.002289 0.002717 -0.006151 0.005394 0.023891 0.006639
# 6 0.009733 -0.001542 -0.000465 0.004605 0.006639 0.037534
#
#
# Mechanical properties :
#
#
# Convention : Reuss Voigt Hill
#
# Bulk Modulus (GPa) = 44.07210 54.38369 49.22790
# Shear Modulus (GPa) = 30.32916 38.88649 34.60782
#
# Velocity S-wave (km/s) = 3.49744 3.96023 3.73601
# Velocity P-wave (km/s) = 5.83818 6.54559 6.20198
#
# Compressibility (1/GPa) = 0.02269009
#
# Stress axis : x y z
#
# Youngs Moduli (GPa) = 69.84856 72.70537 85.25773
#
# Poissons Ratio (x) = 0.19325 0.26716
# Poissons Ratio (y) = 0.18566 0.23560
# Poissons Ratio (z) = 0.21887 0.20091
#
# Static dielectric constant tensor:
#      x y z
#    x 2.055300 -0.044880 -0.007290 
#    y -0.044880 1.981250 0.011720 
#    z -0.007290 0.011720 1.932890 
# 
# From -- ./inp_files/403297.got.cif
#   From: 2010.05.17/outbox.cif.g08.bks.cpg/sg2_202_cif.got.tgz:403297.got - 2010.06.03 11:33:40.
