data_PCOD9104783
_publ_section_title
;
Structure prediction by ZEFSAII (Michael W. Deem and Ramdas Pophale) SiO2 
 PCOD9104783
Probable space group: P -1
;
_chemical_formula_sum "Si O2"
_cell_formula_units_Z 15
_cell_length_a 16.173999
_cell_length_b 9.072921
_cell_length_c 12.175867
_cell_angle_alpha 103.083541
_cell_angle_beta 55.573945
_cell_angle_gamma 56.305061
_cell_volume 756.742270
_symmetry_space_group_name_H-M "P -1"
_symmetry_group_IT_number 2
_symmetry_cell_setting 'triclinic'
loop_
_space_group_symop_operation_xyz
x,y,z
-x,-y,-z
loop_
_atom_site_type_symbol
_atom_site_label
_atom_site_fract_x
_atom_site_fract_y
_atom_site_fract_z
Si Si1 0.047896 0.832643 0.681957
Si Si2 0.078703 0.716947 0.285885
Si Si3 0.879266 0.811586 0.650707
Si Si4 0.499793 0.858000 0.059008
Si Si5 0.835322 0.679015 0.000010
Si Si6 0.165612 0.465786 0.789823
Si Si7 0.000000 0.000000 0.000000
Si Si8 0.421785 0.195887 0.349927
O O1 0.269114 0.498843 0.456582
O O2 0.932792 0.836407 0.722919
O O3 0.005461 0.926694 0.855731
O O4 0.000552 0.036150 0.675605
O O5 0.945248 0.830460 0.502875
O O6 0.288898 0.475250 0.137797
O O7 0.102809 0.545440 0.155034
O O8 0.000000 0.500000 0.500000
O O9 0.658631 0.054006 0.847963
O O10 0.432680 0.020982 0.250994
O O11 0.500000 0.000000 0.000000
O O12 0.793294 0.683287 0.157580
O O13 0.633369 0.992087 0.156945
O O14 0.004656 0.581286 0.862565
O O15 0.342256 0.269689 0.544199
O O16 0.082343 0.732066 0.935851
#
# Coordination Sequence:
#
# PCOD9104783 Si02
#       8
#     2   2   2   2   2   2   1   2
#     4  11  23  42  64  91 138 169 209 269 321 375
#     4  11  23  41  65  98 131 165 208 270 327 376
#     4  12  23  41  68  97 123 171 214 265 321 388
#     4  11  22  39  64  97 123 161 217 261 323 387
#     4  10  21  37  66  91 120 167 219 256 307 380
#     4  10  20  39  62  89 125 168 216 257 313 368
#     4  10  22  40  62  92 130 172 206 256 324 362
#     4  10  21  37  63  89 124 164 209 262 311 376
#
# _framework density 19.821807
#
# number of rings (size 3 to 8) (size 9 to 14) (size 15 to 20)
#    0.000    1.333    4.000    1.600    1.867    0.533 
#    0.000    5.333    2.933    0.000    0.000    0.000 
#    0.000    0.000    0.000    0.000    0.000    0.000 
#
# Total GULP energy -83565.418273 kJ/mol
# GULP energy per Si atom -5571.027885 kJ/mol
# Density = 1.977669 g / cm^3
# Si number density = 19.821807 Si / 1000 Ang^3
#
#
#
# Elastic Constant Matrix: (Units=GPa)
#
#
# Indices 1 2 3 4 5 6 
#
# 1 122.8272 18.6291 59.6794 9.6530 -0.1694 -7.8799
# 2 18.6291 101.6730 31.9609 3.7074 -7.1318 -10.3846
# 3 59.6794 31.9609 68.6373 2.1187 -11.3690 -1.2785
# 4 9.6530 3.7074 2.1187 28.5566 -10.6885 3.9458
# 5 -0.1694 -7.1318 -11.3690 -10.6885 34.1925 5.1441
# 6 -7.8799 -10.3846 -1.2785 3.9458 5.1441 26.6460
#
#
#
# Elastic Compliance Matrix: (Units=1/GPa)
#
#
# Indices 1 2 3 4 5 6 
#
# 1 0.017750 0.002982 -0.017956 -0.009912 -0.009697 0.008889
# 2 0.002982 0.012627 -0.008628 -0.003777 -0.002365 0.006405
# 3 -0.017956 -0.008628 0.036205 0.011987 0.015662 -0.011734
# 4 -0.009912 -0.003777 0.011987 0.047592 0.020250 -0.014785
# 5 -0.009697 -0.002365 0.015662 0.020250 0.042382 -0.014218
# 6 0.008889 0.006405 -0.011734 -0.014785 -0.014218 0.047025
#
#
# Mechanical properties :
#
#
# Convention : Reuss Voigt Hill
#
# Bulk Modulus (GPa) = 51.60734 57.07513 54.34123
# Shear Modulus (GPa) = 19.43661 30.07025 24.75343
#
# Velocity S-wave (km/s) = 3.13480 3.89913 3.53767
# Velocity P-wave (km/s) = 6.26057 7.00911 6.64539
#
# Compressibility (1/GPa) = 0.01937709
#
# Stress axis : x y z
#
# Youngs Moduli (GPa) = 56.33865 79.19271 27.62023
#
# Poissons Ratio (x) = -0.23611 0.49595
# Poissons Ratio (y) = -0.16797 0.23831
# Poissons Ratio (z) = 1.01163 0.68328
#
# Static dielectric constant tensor:
#      x y z
#    x 1.701040 -0.030330 0.011370 
#    y -0.030330 1.708230 -0.008780 
#    z 0.011370 -0.008780 1.695680 
# 
# From -- ./inp_files/447130.got.cif
#   From: 2010.05.17/outbox.cif.g08.bks.cpg/sg2_224_cif.got.tgz:447130.got - 2010.06.03 11:33:40.
