data_PCOD9104488
_publ_section_title
;
Structure prediction by ZEFSAII (Michael W. Deem and Ramdas Pophale) SiO2 
 PCOD9104488
Probable space group: P -1
;
_chemical_formula_sum "Si O2"
_cell_formula_units_Z 16
_cell_length_a 19.977029
_cell_length_b 15.076336
_cell_length_c 12.274102
_cell_angle_alpha 28.010682
_cell_angle_beta 30.983407
_cell_angle_gamma 27.159686
_cell_volume 746.713183
_symmetry_space_group_name_H-M "P -1"
_symmetry_group_IT_number 2
_symmetry_cell_setting 'triclinic'
loop_
_space_group_symop_operation_xyz
x,y,z
-x,-y,-z
loop_
_atom_site_type_symbol
_atom_site_label
_atom_site_fract_x
_atom_site_fract_y
_atom_site_fract_z
Si Si1 0.434731 0.160810 0.248894
Si Si2 0.173772 0.796539 0.949538
Si Si3 0.245881 0.219809 0.663791
Si Si4 0.336191 0.739678 0.452475
Si Si5 0.814023 0.309604 0.714312
Si Si6 0.946947 0.192694 0.102794
Si Si7 0.597297 0.390421 0.730162
Si Si8 0.396711 0.898184 0.404049
O O1 0.306900 0.199961 0.474989
O O2 0.601493 0.966144 0.280022
O O3 0.415950 0.077108 0.247999
O O4 0.451150 0.372788 0.980576
O O5 0.134316 0.679508 0.035621
O O6 0.264866 0.891896 0.661678
O O7 0.244694 0.699188 0.073927
O O8 0.000000 0.000000 0.000000
O O9 0.186451 0.465828 0.526223
O O10 0.099043 0.198156 0.901832
O O11 0.500000 0.500000 0.500000
O O12 0.193939 0.720848 0.710497
O O13 0.320727 0.777966 0.303520
O O14 0.351152 0.909209 0.328415
O O15 0.700051 0.327671 0.761008
O O16 0.978183 0.077170 0.717986
O O17 0.544580 0.642041 0.495570
#
# Coordination Sequence:
#
# PCOD9104488 Si02
#       8
#     2   2   2   2   2   2   2   2
#     4  11  22  35  60  93 126 158 195 246 300 362
#     4   9  19  34  57  82 116 159 190 238 301 351
#     4  11  23  36  59  95 126 156 196 245 304 363
#     4   9  22  44  67  85 116 164 206 251 295 353
#     4  11  21  37  59  91 126 159 195 244 304 360
#     4  10  21  43  61  85 124 159 201 249 300 352
#     4  11  22  38  61  90 120 161 204 244 297 355
#     4  10  20  39  61  85 121 156 201 250 296 353
#
# _framework density 21.427236000000001
#
# number of rings (size 3 to 8) (size 9 to 14) (size 15 to 20)
#    0.000    1.750    2.500    2.250    1.750    2.500 
#    0.000   14.375    0.000    0.000    0.000    0.000 
#    0.000    0.000    0.000    0.000    0.000    0.000 
#
# Total GULP energy -89216.586650 kJ/mol
# GULP energy per Si atom -5576.036666 kJ/mol
# Density = 2.137847 g / cm^3
# Si number density = 21.427236 Si / 1000 Ang^3
#
#
#
# Elastic Constant Matrix: (Units=GPa)
#
#
# Indices 1 2 3 4 5 6 
#
# 1 163.0907 38.9652 36.7234 11.1369 -3.9807 15.0466
# 2 38.9652 85.7446 36.5125 15.8137 -8.6163 5.0792
# 3 36.7234 36.5125 55.3276 16.7915 -12.8904 7.7840
# 4 11.1369 15.8137 16.7915 42.9934 1.2634 -1.2964
# 5 -3.9807 -8.6163 -12.8904 1.2634 22.1405 6.7778
# 6 15.0466 5.0792 7.7840 -1.2964 6.7778 32.5206
#
#
#
# Elastic Compliance Matrix: (Units=1/GPa)
#
#
# Indices 1 2 3 4 5 6 
#
# 1 0.007584 -0.001827 -0.003788 0.000150 -0.000912 -0.002121
# 2 -0.001827 0.016832 -0.008954 -0.002253 0.001127 0.000035
# 3 -0.003788 -0.008954 0.035928 -0.010665 0.020465 -0.010139
# 4 0.000150 -0.002253 -0.010665 0.028712 -0.010591 0.006187
# 5 -0.000912 0.001127 0.020465 -0.010591 0.063569 -0.018323
# 6 -0.002121 0.000035 -0.010139 0.006187 -0.018323 0.038218
#
#
# Mechanical properties :
#
#
# Convention : Reuss Voigt Hill
#
# Bulk Modulus (GPa) = 32.04414 58.72944 45.38679
# Shear Modulus (GPa) = 21.70285 32.32836 27.01561
#
# Velocity S-wave (km/s) = 3.18600 3.88848 3.55464
# Velocity P-wave (km/s) = 5.34055 6.90135 6.17050
#
# Compressibility (1/GPa) = 0.03120696
#
# Stress axis : x y z
#
# Youngs Moduli (GPa) = 131.85349 59.40897 27.83324
#
# Poissons Ratio (x) = 0.10855 0.10542
# Poissons Ratio (y) = 0.24093 0.24922
# Poissons Ratio (z) = 0.49940 0.53196
#
# Static dielectric constant tensor:
#      x y z
#    x 1.838030 0.003620 0.027060 
#    y 0.003620 1.868100 -0.010320 
#    z 0.027060 -0.010320 1.805190 
# 
# From -- ./inp_files/471849.got.cif
#   From: 2010.05.17/outbox.cif.g08.bks.cpg/sg2_236_cif.got.tgz:471849.got - 2010.06.03 11:33:40.
