data_PCOD9104385
_publ_section_title
;
Structure prediction by ZEFSAII (Michael W. Deem and Ramdas Pophale) SiO2 
 PCOD9104385
Probable space group: P -1
;
_chemical_formula_sum "Si O2"
_cell_formula_units_Z 16
_cell_length_a 8.995180
_cell_length_b 23.354679
_cell_length_c 5.087889
_cell_angle_alpha 77.952734
_cell_angle_beta 102.914969
_cell_angle_gamma 50.664185
_cell_volume 713.467169
_symmetry_space_group_name_H-M "P -1"
_symmetry_group_IT_number 2
_symmetry_cell_setting 'triclinic'
loop_
_space_group_symop_operation_xyz
x,y,z
-x,-y,-z
loop_
_atom_site_type_symbol
_atom_site_label
_atom_site_fract_x
_atom_site_fract_y
_atom_site_fract_z
Si Si1 0.621102 0.787292 0.529976
Si Si2 0.572442 0.214335 0.040983
Si Si3 0.580354 0.441566 0.337915
Si Si4 0.484326 0.936052 0.618012
Si Si5 0.967171 0.950824 0.858219
Si Si6 0.069190 0.700595 0.706392
Si Si7 0.909241 0.843300 0.179530
Si Si8 0.644942 0.318573 0.767240
O O1 0.578459 0.780425 0.223040
O O2 0.540202 0.874937 0.470692
O O3 0.878548 0.716377 0.749545
O O4 0.682795 0.877087 0.958768
O O5 0.539271 0.291222 0.883467
O O6 0.513731 0.215576 0.315932
O O7 0.814608 0.127580 0.134895
O O8 0.500000 0.500000 0.500000
O O9 0.837318 0.359182 0.453312
O O10 0.513930 0.392098 0.429134
O O11 0.500000 0.500000 0.000000
O O12 0.500000 0.000000 0.500000
O O13 0.227691 0.992334 0.489330
O O14 0.900852 0.915457 0.065247
O O15 0.000000 0.000000 0.000000
O O16 0.967550 0.792994 0.516727
O O17 0.276630 0.657590 0.004889
O O18 0.125939 0.766948 0.177319
#
# Coordination Sequence:
#
# PCOD9104385 Si02
#       8
#     2   2   2   2   2   2   2   2
#     4  12  25  44  64  95 134 183 231 278 336 403
#     4  11  27  42  65  96 138 179 233 278 340 401
#     4  11  23  41  74 115 139 161 213 277 332 396
#     4  10  20  39  60  90 129 176 233 297 343 378
#     4  10  20  40  60  91 130 182 230 295 348 395
#     4  11  23  42  73  98 133 176 229 269 331 406
#     4   9  20  38  62  93 126 175 233 287 331 398
#     4  10  22  41  70 101 132 178 220 275 326 406
#
# _framework density 22.425697
#
# number of rings (size 3 to 8) (size 9 to 14) (size 15 to 20)
#    0.000    1.500    3.750    0.750    7.000    0.500 
#    2.250    1.875    0.000    4.500    0.000    0.000 
#    0.000    0.000    0.000    0.000    0.000    0.000 
#
# Total GULP energy -89202.461285 kJ/mol
# GULP energy per Si atom -5575.153830 kJ/mol
# Density = 2.237465 g / cm^3
# Si number density = 22.425697 Si / 1000 Ang^3
#
#
#
# Elastic Constant Matrix: (Units=GPa)
#
#
# Indices 1 2 3 4 5 6 
#
# 1 97.5572 35.7266 11.8221 -9.0764 -9.4412 9.1685
# 2 35.7266 93.5468 9.2212 -18.6027 -2.8691 7.9292
# 3 11.8221 9.2212 51.8500 -11.8094 0.7671 9.1895
# 4 -9.0764 -18.6027 -11.8094 29.4803 4.5250 -7.9178
# 5 -9.4412 -2.8691 0.7671 4.5250 28.5186 14.1986
# 6 9.1685 7.9292 9.1895 -7.9178 14.1986 22.5596
#
#
#
# Elastic Compliance Matrix: (Units=1/GPa)
#
#
# Indices 1 2 3 4 5 6 
#
# 1 0.013825 -0.004632 -0.001349 -0.003850 0.010403 -0.011340
# 2 -0.004632 0.013887 0.000278 0.007946 -0.001811 0.000817
# 3 -0.001349 0.000278 0.022302 0.006453 0.001643 -0.007403
# 4 -0.003850 0.007946 0.006453 0.051662 -0.023233 0.028897
# 5 0.010403 -0.001811 0.001643 -0.023233 0.070123 -0.056549
# 6 -0.011340 0.000817 -0.007403 0.028897 -0.056549 0.097397
#
#
# Mechanical properties :
#
#
# Convention : Reuss Voigt Hill
#
# Bulk Modulus (GPa) = 25.90187 39.61041 32.75614
# Shear Modulus (GPa) = 17.03743 28.52398 22.78070
#
# Velocity S-wave (km/s) = 2.75931 3.57029 3.19067
# Velocity P-wave (km/s) = 4.66121 5.89043 5.31150
#
# Compressibility (1/GPa) = 0.03860725
#
# Stress axis : x y z
#
# Youngs Moduli (GPa) = 72.33493 72.01140 44.83855
#
# Poissons Ratio (x) = 0.33356 0.06050
# Poissons Ratio (y) = 0.33506 -0.01247
# Poissons Ratio (z) = 0.09760 -0.02003
#
# Static dielectric constant tensor:
#      x y z
#    x 1.881050 -0.008710 -0.020840 
#    y -0.008710 1.901800 0.007960 
#    z -0.020840 0.007960 1.948420 
# 
# From -- ./inp_files/52775.got.cif
#   From: 2010.05.17/outbox.cif.g08.bks.cpg/sg2_27_cif.got.tgz:52775.got - 2010.06.03 11:33:40.
