data_PCOD9104659
_publ_section_title
;
Structure prediction by ZEFSAII (Michael W. Deem and Ramdas Pophale) SiO2 
 PCOD9104659
Probable space group: P -1
;
_chemical_formula_sum "Si O2"
_cell_formula_units_Z 16
_cell_length_a 17.297536
_cell_length_b 9.610503
_cell_length_c 20.100130
_cell_angle_alpha 143.809397
_cell_angle_beta 20.057187
_cell_angle_gamma 143.009868
_cell_volume 662.901001
_symmetry_space_group_name_H-M "P -1"
_symmetry_group_IT_number 2
_symmetry_cell_setting 'triclinic'
loop_
_space_group_symop_operation_xyz
x,y,z
-x,-y,-z
loop_
_atom_site_type_symbol
_atom_site_label
_atom_site_fract_x
_atom_site_fract_y
_atom_site_fract_z
Si Si1 0.343055 0.903490 0.312924
Si Si2 0.048531 0.817949 0.265678
Si Si3 0.297307 0.686874 0.659955
Si Si4 0.309284 0.725483 0.506188
Si Si5 0.733923 0.264551 0.063794
Si Si6 0.653069 0.805725 0.144030
Si Si7 0.132326 0.610350 0.252242
Si Si8 0.211160 0.223392 0.727882
O O1 0.454154 0.811564 0.252482
O O2 0.305024 0.711275 0.209912
O O3 0.099849 0.981031 0.550681
O O4 0.519362 0.134352 0.230130
O O5 0.879387 0.561734 0.285150
O O6 0.110852 0.801719 0.286207
O O7 0.268288 0.831171 0.046180
O O8 0.332298 0.724562 0.566638
O O9 0.562870 0.707945 0.475995
O O10 0.216319 0.916691 0.845779
O O11 0.533200 0.730961 0.282716
O O12 0.117976 0.491583 0.554152
O O13 0.221257 0.966142 0.650542
O O14 0.761071 0.549760 0.157916
O O15 0.967363 0.205592 0.882992
O O16 0.798928 0.616955 0.928399
#
# Coordination Sequence:
#
# PCOD9104659 Si02
#       8
#     2   2   2   2   2   2   2   2
#     4  12  26  47  61  95 136 172 220 264 308 386
#     4  11  25  41  68  95 127 178 208 266 332 370
#     4  10  22  40  68  98 136 155 213 270 331 385
#     4  10  23  42  66  98 130 163 209 274 322 381
#     4  11  25  37  66  93 129 171 211 260 317 390
#     4  11  24  40  70  94 128 176 208 266 333 371
#     4  11  27  43  67  95 129 173 226 260 307 388
#     4  10  20  39  61  96 132 157 203 268 321 379
#
# _framework density 24.136334999999999
#
# number of rings (size 3 to 8) (size 9 to 14) (size 15 to 20)
#    0.000    1.250    1.250    4.500    8.750    4.000 
#    0.000    0.000    0.000    0.000    0.000    0.000 
#    0.000    0.000    0.000    0.000    0.000    0.000 
#
# Total GULP energy -89616.343638 kJ/mol
# GULP energy per Si atom -5601.021477 kJ/mol
# Density = 2.408140 g / cm^3
# Si number density = 24.136335 Si / 1000 Ang^3
#
#
#
# Elastic Constant Matrix: (Units=GPa)
#
#
# Indices 1 2 3 4 5 6 
#
# 1 79.6483 17.9585 -0.6344 -3.6315 -2.5816 6.2475
# 2 17.9585 28.7227 -0.2428 -0.5133 8.8290 1.8698
# 3 -0.6344 -0.2428 68.9565 16.5093 15.2912 -1.5832
# 4 -3.6315 -0.5133 16.5093 30.0990 -4.1511 3.1125
# 5 -2.5816 8.8290 15.2912 -4.1511 36.6193 1.9515
# 6 6.2475 1.8698 -1.5832 3.1125 1.9515 34.1968
#
#
#
# Elastic Compliance Matrix: (Units=1/GPa)
#
#
# Indices 1 2 3 4 5 6 
#
# 1 0.015630 -0.011136 -0.002047 0.003850 0.005238 -0.002991
# 2 -0.011136 0.046089 0.004505 -0.005121 -0.014413 0.001012
# 3 -0.002047 0.004505 0.020215 -0.013119 -0.011314 0.002903
# 4 0.003850 -0.005121 -0.013119 0.043058 0.012166 -0.005644
# 5 0.005238 -0.014413 -0.011314 0.012166 0.037466 -0.003938
# 6 -0.002991 0.001012 0.002903 -0.005644 -0.003938 0.030606
#
#
# Mechanical properties :
#
#
# Convention : Reuss Voigt Hill
#
# Bulk Modulus (GPa) = 15.48517 23.49891 19.49204
# Shear Modulus (GPa) = 21.55668 30.86610 26.21139
#
# Velocity S-wave (km/s) = 2.99176 3.57994 3.29898
# Velocity P-wave (km/s) = 4.28530 5.18122 4.75441
#
# Compressibility (1/GPa) = 0.06457792
#
# Stress axis : x y z
#
# Youngs Moduli (GPa) = 63.98088 21.69698 49.46755
#
# Poissons Ratio (x) = 0.24162 0.10128
# Poissons Ratio (y) = 0.71249 -0.22286
# Poissons Ratio (z) = 0.13099 -0.09775
#
# Static dielectric constant tensor:
#      x y z
#    x 1.944510 0.007530 -0.005180 
#    y 0.007530 1.912000 -0.010070 
#    z -0.005180 -0.010070 1.949960 
# 
# From -- ./inp_files/599767.got.cif
#   From: 2010.05.17/outbox.cif.g08.bks.cpg/sg2_300_cif.got.tgz:599767.got - 2010.06.03 11:33:40.
