data_PCOD9104540
_publ_section_title
;
Structure prediction by ZEFSAII (Michael W. Deem and Ramdas Pophale) SiO2 
 PCOD9104540
Probable space group: P -1
;
_chemical_formula_sum "Si O2"
_cell_formula_units_Z 16
_cell_length_a 6.987360
_cell_length_b 19.093078
_cell_length_c 5.179824
_cell_angle_alpha 90.218720
_cell_angle_beta 70.836047
_cell_angle_gamma 71.072253
_cell_volume 612.728206
_symmetry_space_group_name_H-M "P -1"
_symmetry_group_IT_number 2
_symmetry_cell_setting 'triclinic'
loop_
_space_group_symop_operation_xyz
x,y,z
-x,-y,-z
loop_
_atom_site_type_symbol
_atom_site_label
_atom_site_fract_x
_atom_site_fract_y
_atom_site_fract_z
Si Si1 0.281033 0.809655 0.083302
Si Si2 0.356019 0.058949 0.863664
Si Si3 0.903015 0.833217 0.638561
Si Si4 0.419171 0.326577 0.825292
Si Si5 0.513954 0.435986 0.194070
Si Si6 0.421300 0.907699 0.628263
Si Si7 0.129304 0.457871 0.695118
Si Si8 0.819415 0.303851 0.259467
O O1 0.513971 0.756540 0.092498
O O2 0.100713 0.841035 0.385484
O O3 0.306938 0.865687 0.855827
O O4 0.202657 0.749614 0.960307
O O5 0.525612 0.098561 0.697993
O O6 0.310202 0.997876 0.699228
O O7 0.147257 0.117768 0.078481
O O8 0.500000 0.000000 0.000000
O O9 0.675806 0.870100 0.596909
O O10 0.969529 0.745746 0.680816
O O11 0.209426 0.369545 0.744237
O O12 0.624146 0.315856 0.547828
O O13 0.422571 0.380630 0.064514
O O14 0.361987 0.461717 0.511378
O O15 0.756674 0.385880 0.168838
O O16 0.500000 0.500000 0.000000
O O17 0.000000 0.500000 0.500000
O O18 0.000000 0.500000 0.000000
#
# Coordination Sequence:
#
# PCOD9104540 Si02
#       8
#     2   2   2   2   2   2   2   2
#     4  10  21  39  63  89 122 168 212 263 319 383
#     4   9  20  38  60  88 127 159 203 266 315 382
#     4  10  20  39  61  88 123 163 206 264 319 382
#     4   9  20  40  61  86 128 163 208 262 325 381
#     4  10  21  40  66  92 122 166 214 264 321 388
#     4  10  21  39  61  90 123 163 211 260 320 381
#     4  11  21  39  62  90 126 166 204 264 323 381
#     4   9  20  37  62  86 127 165 207 260 322 383
#
# _framework density 26.112722999999999
#
# number of rings (size 3 to 8) (size 9 to 14) (size 15 to 20)
#    0.000    2.250    1.250    0.750    0.000    6.500 
#    2.250   12.500    0.000    0.000    0.000    0.000 
#    0.000    0.000    0.000    0.000    0.000    0.000 
#
# Total GULP energy -89200.314703 kJ/mol
# GULP energy per Si atom -5575.019669 kJ/mol
# Density = 2.605329 g / cm^3
# Si number density = 26.112723 Si / 1000 Ang^3
#
#
#
# Elastic Constant Matrix: (Units=GPa)
#
#
# Indices 1 2 3 4 5 6 
#
# 1 45.6404 7.1809 21.1380 4.5340 -18.1178 -19.4519
# 2 7.1809 90.9730 42.9200 18.9564 1.5028 -7.1622
# 3 21.1380 42.9200 197.9614 15.2539 -24.4327 7.3739
# 4 4.5340 18.9564 15.2539 46.4376 -13.3160 -3.3588
# 5 -18.1178 1.5028 -24.4327 -13.3160 39.9968 -3.2441
# 6 -19.4519 -7.1622 7.3739 -3.3588 -3.2441 43.9359
#
#
#
# Elastic Compliance Matrix: (Units=1/GPa)
#
#
# Indices 1 2 3 4 5 6 
#
# 1 0.038489 -0.001652 -0.002457 0.004555 0.019049 0.018938
# 2 -0.001652 0.013974 -0.003064 -0.005881 -0.005002 0.001242
# 3 -0.002457 -0.003064 0.006406 -0.000014 0.002710 -0.002463
# 4 0.004555 -0.005881 -0.000014 0.027118 0.011628 0.003992
# 5 0.019049 -0.005002 0.002710 0.011628 0.040240 0.011023
# 6 0.018938 0.001242 -0.002463 0.003992 0.011023 0.032880
#
#
# Mechanical properties :
#
#
# Convention : Reuss Voigt Hill
#
# Bulk Modulus (GPa) = 22.46027 53.00582 37.73305
# Shear Modulus (GPa) = 26.55444 43.62978 35.09211
#
# Velocity S-wave (km/s) = 3.19237 4.09201 3.66986
# Velocity P-wave (km/s) = 4.71256 6.53215 5.69549
#
# Compressibility (1/GPa) = 0.04452306
#
# Stress axis : x y z
#
# Youngs Moduli (GPa) = 25.98155 71.56138 156.11565
#
# Poissons Ratio (x) = 0.11820 0.38359
# Poissons Ratio (y) = 0.04292 0.47830
# Poissons Ratio (z) = 0.06384 0.21925
#
# Static dielectric constant tensor:
#      x y z
#    x 2.285370 0.093100 0.183310 
#    y 0.093100 2.138080 -0.004830 
#    z 0.183310 -0.004830 2.227650 
# 
# From -- ./inp_files/52883.got.cif
#   From: 2010.05.17/outbox.cif.g08.bks.cpg/sg2_27_cif.got.tgz:52883.got - 2010.06.03 11:33:40.
