data_PCOD9104263
_publ_section_title
;
Structure prediction by ZEFSAII (Michael W. Deem and Ramdas Pophale) SiO2 
 PCOD9104263
Probable space group: P -1
;
_chemical_formula_sum "Si O2"
_cell_formula_units_Z 14
_cell_length_a 11.444078
_cell_length_b 7.967120
_cell_length_c 13.309911
_cell_angle_alpha 133.126062
_cell_angle_beta 62.058209
_cell_angle_gamma 140.260119
_cell_volume 561.983455
_symmetry_space_group_name_H-M "P -1"
_symmetry_group_IT_number 2
_symmetry_cell_setting 'triclinic'
loop_
_space_group_symop_operation_xyz
x,y,z
-x,-y,-z
loop_
_atom_site_type_symbol
_atom_site_label
_atom_site_fract_x
_atom_site_fract_y
_atom_site_fract_z
Si Si1 0.757825 0.766804 0.933483
Si Si2 0.693093 0.208114 0.203186
Si Si3 0.321888 0.918005 0.144642
Si Si4 0.863142 0.726154 0.088131
Si Si5 0.539888 0.615727 0.255381
Si Si6 0.941305 0.076940 0.651070
Si Si7 0.413840 0.598606 0.498169
O O1 0.572191 0.452600 0.827500
O O2 0.813210 0.680453 0.970807
O O3 0.921805 0.967753 0.868136
O O4 0.751375 0.016520 0.084337
O O5 0.635257 0.240790 0.349282
O O6 0.860958 0.582729 0.255829
O O7 0.501961 0.999087 0.136878
O O8 0.190742 0.856761 0.261344
O O9 0.418507 0.245349 0.183264
O O10 0.197217 0.605465 0.998639
O O11 0.741088 0.768169 0.209145
O O12 0.543812 0.772193 0.419172
O O13 0.781789 0.707678 0.599812
O O14 0.000000 0.000000 0.500000
O O15 0.500000 0.500000 0.500000
#
# Coordination Sequence:
#
# PCOD9104263 Si02
#       7
#     2   2   2   2   2   2   2
#     4  11  25  41  65  87 124 170 209 249 304 374
#     4  11  20  37  63  88 121 166 202 241 312 364
#     4  11  21  36  63  95 120 155 205 256 300 366
#     4  11  24  43  61  89 127 165 207 255 309 356
#     4  11  23  39  62  96 124 156 203 262 308 360
#     4   9  19  33  55  89 123 156 194 243 301 359
#     4  10  20  39  59  91 131 157 195 253 318 362
#
# _framework density 24.911764000000002
#
# number of rings (size 3 to 8) (size 9 to 14) (size 15 to 20)
#    0.000    1.429    5.714    0.857    0.000    2.857 
#    2.571    0.714    0.000    1.714    0.000    0.000 
#    0.000    0.000    0.000    0.000    0.000    0.000 
#
# Total GULP energy -78033.138996 kJ/mol
# GULP energy per Si atom -5573.795643 kJ/mol
# Density = 2.485506 g / cm^3
# Si number density = 24.911764 Si / 1000 Ang^3
#
#
#
# Elastic Constant Matrix: (Units=GPa)
#
#
# Indices 1 2 3 4 5 6 
#
# 1 76.4852 22.9974 35.5966 -0.6594 -4.3967 20.9091
# 2 22.9974 118.7167 42.2612 -6.1108 -12.1652 42.9910
# 3 35.5966 42.2612 166.6052 -19.2906 -9.2425 21.0112
# 4 -0.6594 -6.1108 -19.2906 45.6424 13.6322 -15.5573
# 5 -4.3967 -12.1652 -9.2425 13.6322 32.1268 -13.7800
# 6 20.9091 42.9910 21.0112 -15.5573 -13.7800 38.6083
#
#
#
# Elastic Compliance Matrix: (Units=1/GPa)
#
#
# Indices 1 2 3 4 5 6 
#
# 1 0.017133 0.001685 -0.003206 -0.004538 -0.000985 -0.011591
# 2 0.001685 0.015679 -0.002551 -0.005378 -0.000588 -0.019360
# 3 -0.003206 -0.002551 0.007493 0.003392 0.000132 0.001913
# 4 -0.004538 -0.005378 0.003392 0.030326 -0.007648 0.016091
# 5 -0.000985 -0.000588 0.000132 -0.007648 0.039213 0.012031
# 6 -0.011591 -0.019360 0.001913 0.016091 0.012031 0.063473
#
#
# Mechanical properties :
#
#
# Convention : Reuss Voigt Hill
#
# Bulk Modulus (GPa) = 31.09382 62.61304 46.85343
# Shear Modulus (GPa) = 26.01712 40.67228 33.34470
#
# Velocity S-wave (km/s) = 3.23518 4.04499 3.66254
# Velocity P-wave (km/s) = 5.14430 6.85598 6.06087
#
# Compressibility (1/GPa) = 0.03216073
#
# Stress axis : x y z
#
# Youngs Moduli (GPa) = 58.36740 63.78015 133.45504
#
# Poissons Ratio (x) = -0.10749 0.42792
# Poissons Ratio (y) = -0.09837 0.34043
# Poissons Ratio (z) = 0.18715 0.16270
#
# Static dielectric constant tensor:
#      x y z
#    x 2.124050 -0.141510 0.082050 
#    y -0.141510 2.066140 -0.090200 
#    z 0.082050 -0.090200 2.022200 
# 
# From -- ./inp_files/512364.got.cif
#   From: 2010.05.17/outbox.cif.g08.bks.cpg/sg2_257_cif.got.tgz:512364.got - 2010.06.03 11:33:40.
