data_PCOD9104135
_publ_section_title
;
Structure prediction by ZEFSAII (Michael W. Deem and Ramdas Pophale) SiO2 
 PCOD9104135
Probable space group: P -1
;
_chemical_formula_sum "Si O2"
_cell_formula_units_Z 14
_cell_length_a 8.214095
_cell_length_b 20.308923
_cell_length_c 17.871194
_cell_angle_alpha 158.678041
_cell_angle_beta 52.617038
_cell_angle_gamma 137.311631
_cell_volume 697.611714
_symmetry_space_group_name_H-M "P -1"
_symmetry_group_IT_number 2
_symmetry_cell_setting 'triclinic'
loop_
_space_group_symop_operation_xyz
x,y,z
-x,-y,-z
loop_
_atom_site_type_symbol
_atom_site_label
_atom_site_fract_x
_atom_site_fract_y
_atom_site_fract_z
Si Si1 0.493845 0.210453 0.238740
Si Si2 0.571349 0.704959 0.482076
Si Si3 0.950927 0.439301 0.537438
Si Si4 0.494060 0.679038 0.971980
Si Si5 0.754730 0.051666 0.670891
Si Si6 0.357396 0.370098 0.825819
Si Si7 0.025914 0.948661 0.853846
O O1 0.456208 0.243401 0.370905
O O2 0.773161 0.407370 0.341529
O O3 0.258328 0.180895 0.233442
O O4 0.500000 0.000000 0.000000
O O5 0.285287 0.561871 0.376655
O O6 0.650182 0.536858 0.272530
O O7 0.729002 0.929386 0.627272
O O8 0.864134 0.193621 0.318514
O O9 0.000000 0.500000 0.500000
O O10 0.467731 0.560179 0.932079
O O11 0.376947 0.820026 0.157592
O O12 0.777364 0.848877 0.040169
O O13 0.052997 0.239143 0.773306
O O14 0.631692 0.838798 0.422389
O O15 0.500000 0.500000 0.000000
O O16 0.000000 0.000000 0.000000
#
# Coordination Sequence:
#
# PCOD9104135 Si02
#       7
#     2   2   2   2   2   2   2
#     4  11  23  38  60  90 130 177 226 271 323 382
#     4  10  21  42  62  94 131 171 217 277 326 393
#     4  10  20  39  58  84 126 169 216 267 315 378
#     4  11  23  42  68  94 133 173 215 266 336 391
#     4  10  22  45  70  97 132 171 212 275 344 390
#     4  10  24  45  72 100 130 166 221 275 334 403
#     4  12  23  39  62  94 131 176 221 266 325 392
#
# _framework density 20.068470000000001
#
# number of rings (size 3 to 8) (size 9 to 14) (size 15 to 20)
#    0.000    1.429    1.429    5.143    2.000    0.571 
#    2.571    0.000    0.000    0.000    0.000    0.000 
#    0.000    0.000    0.000    0.000    0.000    0.000 
#
# Total GULP energy -77998.190430 kJ/mol
# GULP energy per Si atom -5571.299316 kJ/mol
# Density = 2.002279 g / cm^3
# Si number density = 20.068470 Si / 1000 Ang^3
#
#
#
# Elastic Constant Matrix: (Units=GPa)
#
#
# Indices 1 2 3 4 5 6 
#
# 1 85.0605 35.8340 54.1045 -1.2670 -1.1532 6.1446
# 2 35.8340 116.2946 40.0008 19.0315 9.4670 0.5734
# 3 54.1045 40.0008 144.8775 -12.5986 -20.7705 -6.3724
# 4 -1.2670 19.0315 -12.5986 42.7897 -1.7232 -2.9878
# 5 -1.1532 9.4670 -20.7705 -1.7232 41.5850 -5.9943
# 6 6.1446 0.5734 -6.3724 -2.9878 -5.9943 23.4811
#
#
#
# Elastic Compliance Matrix: (Units=1/GPa)
#
#
# Indices 1 2 3 4 5 6 
#
# 1 0.017633 -0.002651 -0.006742 -0.000934 -0.003375 -0.007360
# 2 -0.002651 0.012465 -0.004030 -0.007252 -0.005668 -0.003074
# 3 -0.006742 -0.004030 0.012658 0.006239 0.008502 0.008262
# 4 -0.000934 -0.007252 0.006239 0.029222 0.007053 0.007633
# 5 -0.003375 -0.005668 0.008502 0.007053 0.031553 0.012281
# 6 -0.007360 -0.003074 0.008262 0.007633 0.012281 0.050937
#
#
# Mechanical properties :
#
#
# Convention : Reuss Voigt Hill
#
# Bulk Modulus (GPa) = 62.85102 67.34571 65.09836
# Shear Modulus (GPa) = 26.79272 35.99071 31.39171
#
# Velocity S-wave (km/s) = 3.65782 4.23944 3.95933
# Velocity P-wave (km/s) = 7.01611 7.58912 7.30823
#
# Compressibility (1/GPa) = 0.01591064
#
# Stress axis : x y z
#
# Youngs Moduli (GPa) = 56.71050 80.22347 79.00218
#
# Poissons Ratio (x) = 0.21264 0.53264
# Poissons Ratio (y) = 0.15031 0.31840
# Poissons Ratio (z) = 0.38235 0.32332
#
# Static dielectric constant tensor:
#      x y z
#    x -1.869170 -9.621290 4.732800 
#    y -9.621290 -24.295980 12.788470 
#    z 4.732800 12.788470 -4.461790 
# 
# From -- ./inp_files/562740.got.cif
#   From: 2010.05.17/outbox.cif.g08.bks.cpg/sg2_282_cif.got.tgz:562740.got - 2010.06.03 11:33:40.
