data_PCOD9104674
_publ_section_title
;
Structure prediction by ZEFSAII (Michael W. Deem and Ramdas Pophale) SiO2 
 PCOD9104674
Probable space group: P -1
;
_chemical_formula_sum "Si O2"
_cell_formula_units_Z 16
_cell_length_a 15.625667
_cell_length_b 8.872734
_cell_length_c 9.357285
_cell_angle_alpha 47.264862
_cell_angle_beta 117.864771
_cell_angle_gamma 86.355648
_cell_volume 682.389491
_symmetry_space_group_name_H-M "P -1"
_symmetry_group_IT_number 2
_symmetry_cell_setting 'triclinic'
loop_
_space_group_symop_operation_xyz
x,y,z
-x,-y,-z
loop_
_atom_site_type_symbol
_atom_site_label
_atom_site_fract_x
_atom_site_fract_y
_atom_site_fract_z
Si Si1 0.151159 0.446895 0.806527
Si Si2 0.971216 0.166571 0.011297
Si Si3 0.933139 0.653363 0.700880
Si Si4 0.803103 0.047881 0.958328
Si Si5 0.774850 0.248088 0.497080
Si Si6 0.329648 0.892660 0.719520
Si Si7 0.624222 0.793864 0.650154
Si Si8 0.404475 0.628883 0.217891
O O1 0.264424 0.306449 0.092217
O O2 0.137319 0.237304 0.862848
O O3 0.185980 0.573003 0.634365
O O4 0.032776 0.634428 0.689222
O O5 0.908511 0.456867 0.744504
O O6 0.886685 0.112279 0.059175
O O7 0.103112 0.030561 0.262378
O O8 0.000000 0.000000 0.000000
O O9 0.806123 0.921396 0.444516
O O10 0.000000 0.500000 0.000000
O O11 0.751527 0.224918 0.660225
O O12 0.702065 0.125576 0.941110
O O13 0.675961 0.279138 0.294375
O O14 0.359140 0.066884 0.553887
O O15 0.423310 0.727719 0.022903
O O16 0.625168 0.563342 0.736697
O O17 0.500000 0.000000 0.500000
O O18 0.500000 0.500000 0.500000
#
# Coordination Sequence:
#
# PCOD9104674 Si02
#       8
#     2   2   2   2   2   2   2   2
#     4  12  24  42  72 110 141 198 240 283 357 435
#     4  10  20  39  62 101 146 189 218 288 345 411
#     4  12  21  41  73 105 156 185 235 292 352 439
#     4  11  24  46  67 102 156 183 237 298 353 418
#     4  11  23  42  72 103 144 196 239 275 358 434
#     4  12  26  47  76 110 139 194 241 294 363 429
#     4  12  26  49  79 104 140 187 247 300 355 432
#     4  12  30  49  73 108 141 182 244 314 358 412
#
# _framework density 23.447019000000001
#
# number of rings (size 3 to 8) (size 9 to 14) (size 15 to 20)
#    0.000    0.500    7.500    1.500    1.750    6.000 
#    0.000    0.000    0.000    0.000    0.000    0.000 
#    0.000    0.000    0.000    0.000    0.000    0.000 
#
# Total GULP energy -89379.802028 kJ/mol
# GULP energy per Si atom -5586.237627 kJ/mol
# Density = 2.339365 g / cm^3
# Si number density = 23.447019 Si / 1000 Ang^3
#
#
#
# Elastic Constant Matrix: (Units=GPa)
#
#
# Indices 1 2 3 4 5 6 
#
# 1 48.9542 11.1041 22.9898 -6.5672 -19.3289 -15.5267
# 2 11.1041 76.7355 22.1539 1.4412 -6.5502 -0.5560
# 3 22.9898 22.1539 97.2574 26.8941 -24.4565 -10.7388
# 4 -6.5672 1.4412 26.8941 29.4062 -0.4213 -3.4992
# 5 -19.3289 -6.5502 -24.4565 -0.4213 53.6357 -5.1686
# 6 -15.5267 -0.5560 -10.7388 -3.4992 -5.1686 31.3137
#
#
#
# Elastic Compliance Matrix: (Units=1/GPa)
#
#
# Indices 1 2 3 4 5 6 
#
# 1 0.038767 -0.002278 -0.008811 0.019409 0.011781 0.020274
# 2 -0.002278 0.014304 -0.003729 0.001937 -0.000961 -0.002096
# 3 -0.008811 -0.003729 0.020327 -0.020152 0.005596 0.001208
# 4 0.019409 0.001937 -0.020152 0.057750 -0.000627 0.009097
# 5 0.011781 -0.000961 0.005596 -0.000627 0.026480 0.012044
# 6 0.020274 -0.002096 0.001208 0.009097 0.012044 0.045369
#
#
# Mechanical properties :
#
#
# Convention : Reuss Voigt Hill
#
# Bulk Modulus (GPa) = 22.85018 37.27140 30.06079
# Shear Modulus (GPa) = 20.22485 33.98440 27.10462
#
# Velocity S-wave (km/s) = 2.94015 3.81124 3.40368
# Velocity P-wave (km/s) = 4.61439 5.94121 5.31933
#
# Compressibility (1/GPa) = 0.04376334
#
# Stress axis : x y z
#
# Youngs Moduli (GPa) = 25.79496 69.90905 49.19540
#
# Poissons Ratio (x) = 0.15926 0.43346
# Poissons Ratio (y) = 0.05876 0.18343
# Poissons Ratio (z) = 0.22728 0.26066
#
# Static dielectric constant tensor:
#      x y z
#    x 1.984450 0.031030 0.071220 
#    y 0.031030 1.948710 0.066670 
#    z 0.071220 0.066670 1.963630 
# 
# From -- ./inp_files/297539.got.cif
#   From: 2010.05.17/outbox.cif.g08.bks.cpg/sg2_149_cif.got.tgz:297539.got - 2010.06.03 11:33:40.
