data_PCOD9104947
_publ_section_title
;
Structure prediction by ZEFSAII (Michael W. Deem and Ramdas Pophale) SiO2 
 PCOD9104947
Probable space group: P -1
;
_chemical_formula_sum "Si O2"
_cell_formula_units_Z 14
_cell_length_a 8.320706
_cell_length_b 14.567762
_cell_length_c 8.988313
_cell_angle_alpha 50.550728
_cell_angle_beta 49.418589
_cell_angle_gamma 53.018850
_cell_volume 605.159275
_symmetry_space_group_name_H-M "P -1"
_symmetry_group_IT_number 2
_symmetry_cell_setting 'triclinic'
loop_
_space_group_symop_operation_xyz
x,y,z
-x,-y,-z
loop_
_atom_site_type_symbol
_atom_site_label
_atom_site_fract_x
_atom_site_fract_y
_atom_site_fract_z
Si Si1 0.356990 0.879470 0.250491
Si Si2 0.201428 0.329487 0.897830
Si Si3 0.245000 0.723911 0.714964
Si Si4 0.032117 0.573534 0.548593
Si Si5 0.495110 0.452782 0.721736
Si Si6 0.600879 0.805984 0.604024
Si Si7 0.438268 0.975904 0.810351
O O1 0.603030 0.773068 0.203659
O O2 0.217827 0.804987 0.496116
O O3 0.379363 0.989973 0.229760
O O4 0.296867 0.931370 0.066778
O O5 0.097624 0.464231 0.744082
O O6 0.337440 0.366789 0.912406
O O7 0.998937 0.277408 0.096199
O O8 0.396644 0.579434 0.744122
O O9 0.383706 0.779142 0.691288
O O10 0.244603 0.618456 0.335859
O O11 0.000000 0.500000 0.500000
O O12 0.810346 0.681834 0.611459
O O13 0.500000 0.500000 0.500000
O O14 0.541861 0.872928 0.729128
O O15 0.666441 0.899422 0.352389
#
# Coordination Sequence:
#
# PCOD9104947 Si02
#       7
#     2   2   2   2   2   2   2
#     4  10  20  44  71  95 136 177 233 284 331 400
#     4  11  24  40  69 105 133 177 226 281 341 404
#     4  11  21  41  67 103 139 175 223 281 339 415
#     4  11  20  41  70 101 142 177 214 282 354 413
#     4  10  20  39  63 100 138 173 217 268 342 411
#     4  10  21  41  69 104 139 176 229 280 346 405
#     4   9  21  42  70  95 136 180 232 288 328 399
#
# _framework density 23.134404
#
# number of rings (size 3 to 8) (size 9 to 14) (size 15 to 20)
#    0.000    1.714    4.286    1.286    0.000    4.000 
#    2.571    7.143    6.286    0.000    0.000    0.000 
#    0.000    0.000    0.000    0.000    0.000    0.000 
#
# Total GULP energy -78217.546110 kJ/mol
# GULP energy per Si atom -5586.967579 kJ/mol
# Density = 2.308175 g / cm^3
# Si number density = 23.134404 Si / 1000 Ang^3
#
#
#
# Elastic Constant Matrix: (Units=GPa)
#
#
# Indices 1 2 3 4 5 6 
#
# 1 98.1803 55.6417 64.0874 -0.0265 -12.3873 8.4913
# 2 55.6417 120.9619 41.7344 -1.7741 6.9367 23.2610
# 3 64.0874 41.7344 112.7691 -10.3383 -3.5590 -8.2560
# 4 -0.0265 -1.7741 -10.3383 32.5737 1.7376 15.5663
# 5 -12.3873 6.9367 -3.5590 1.7376 40.5923 3.9534
# 6 8.4913 23.2610 -8.2560 15.5663 3.9534 28.0270
#
#
#
# Elastic Compliance Matrix: (Units=1/GPa)
#
#
# Indices 1 2 3 4 5 6 
#
# 1 0.021633 -0.005874 -0.010400 -0.001681 0.007236 -0.004830
# 2 -0.005874 0.015197 -0.002836 0.007420 -0.003465 -0.015301
# 3 -0.010400 -0.002836 0.016545 0.000132 -0.002279 0.010626
# 4 -0.001681 0.007420 0.000132 0.046033 -0.000713 -0.031076
# 5 0.007236 -0.003465 -0.002279 -0.000713 0.027606 -0.003485
# 6 -0.004830 -0.015301 0.010626 -0.031076 -0.003485 0.070724
#
#
# Mechanical properties :
#
#
# Convention : Reuss Voigt Hill
#
# Bulk Modulus (GPa) = 65.97364 72.75982 69.36673
# Shear Modulus (GPa) = 20.74623 31.60177 26.17400
#
# Velocity S-wave (km/s) = 2.99786 3.69996 3.36726
# Velocity P-wave (km/s) = 6.36886 7.05494 6.72066
#
# Compressibility (1/GPa) = 0.01515757
#
# Stress axis : x y z
#
# Youngs Moduli (GPa) = 46.22651 65.80177 60.44002
#
# Poissons Ratio (x) = 0.38650 0.62855
# Poissons Ratio (y) = 0.27152 0.17138
# Poissons Ratio (z) = 0.48073 0.18659
#
# Static dielectric constant tensor:
#      x y z
#    x 1.853290 0.040540 -0.008230 
#    y 0.040540 1.853480 -0.036140 
#    z -0.008230 -0.036140 1.920600 
# 
# From -- ./inp_files/191755.got.cif
#   From: 2010.05.17/outbox.cif.g08.bks.cpg/sg2_96_cif.got.tgz:191755.got - 2010.06.03 11:33:40.
