data_PCOD9104925
_publ_section_title
;
Structure prediction by ZEFSAII (Michael W. Deem and Ramdas Pophale) SiO2 
 PCOD9104925
Probable space group: P -1
;
_chemical_formula_sum "Si O2"
_cell_formula_units_Z 16
_cell_length_a 10.677804
_cell_length_b 11.637970
_cell_length_c 18.022787
_cell_angle_alpha 135.820805
_cell_angle_beta 149.731052
_cell_angle_gamma 63.175731
_cell_volume 690.776108
_symmetry_space_group_name_H-M "P -1"
_symmetry_group_IT_number 2
_symmetry_cell_setting 'triclinic'
loop_
_space_group_symop_operation_xyz
x,y,z
-x,-y,-z
loop_
_atom_site_type_symbol
_atom_site_label
_atom_site_fract_x
_atom_site_fract_y
_atom_site_fract_z
Si Si1 0.354386 0.950821 0.306748
Si Si2 0.558790 0.055309 0.177723
Si Si3 0.892443 0.343400 0.236688
Si Si4 0.478720 0.706546 0.364233
Si Si5 0.305740 0.051534 0.647166
Si Si6 0.062277 0.211230 0.114213
Si Si7 0.773318 0.677139 0.354865
Si Si8 0.528177 0.604023 0.706217
O O1 0.329032 0.816928 0.300390
O O2 0.647518 0.029299 0.444611
O O3 0.324311 0.129414 0.400913
O O4 0.129996 0.822968 0.072240
O O5 0.438095 0.195848 0.158423
O O6 0.897080 0.165136 0.389149
O O7 0.553967 0.008706 0.242746
O O8 0.348714 0.851245 0.942763
O O9 0.977786 0.298002 0.179284
O O10 0.773247 0.489652 0.242329
O O11 0.198427 0.457963 0.484098
O O12 0.623025 0.664442 0.349169
O O13 0.323008 0.509130 0.235124
O O14 0.388189 0.261681 0.760221
O O15 0.000000 0.000000 0.500000
O O16 0.375841 0.346502 0.307010
O O17 0.000000 0.000000 0.000000
#
# Coordination Sequence:
#
# PCOD9104925 Si02
#       8
#     2   2   2   2   2   2   2   2
#     4  10  21  41  69  89 130 170 209 260 313 381
#     4  10  20  39  62  97 125 162 210 264 325 372
#     4  11  22  39  65  99 127 159 213 269 325 372
#     4  10  23  44  62  91 131 175 218 252 303 385
#     4   9  17  36  65  93 127 154 204 261 323 374
#     4  12  22  40  67  97 127 160 210 267 332 374
#     4   9  22  40  62  94 126 170 211 260 315 377
#     4  11  24  39  64  93 129 170 211 260 317 380
#
# _framework density 23.162353
#
# number of rings (size 3 to 8) (size 9 to 14) (size 15 to 20)
#    0.000    1.750    2.500    1.125    0.000    6.000 
#    2.250    1.250    0.000    0.000    0.000    0.000 
#    0.000    0.000    0.000    0.000    0.000    0.000 
#
# Total GULP energy -89081.391318 kJ/mol
# GULP energy per Si atom -5567.586957 kJ/mol
# Density = 2.310963 g / cm^3
# Si number density = 23.162353 Si / 1000 Ang^3
#
#
#
# Elastic Constant Matrix: (Units=GPa)
#
#
# Indices 1 2 3 4 5 6 
#
# 1 49.3352 34.9956 6.8537 29.2648 -4.4855 -12.8981
# 2 34.9956 157.2974 34.3106 45.7588 -2.3801 -2.7614
# 3 6.8537 34.3106 82.2766 28.1589 8.4687 1.2478
# 4 29.2648 45.7588 28.1589 34.7048 2.4922 -1.7351
# 5 -4.4855 -2.3801 8.4687 2.4922 26.9750 6.6115
# 6 -12.8981 -2.7614 1.2478 -1.7351 6.6115 37.6129
#
#
#
# Elastic Compliance Matrix: (Units=1/GPa)
#
#
# Indices 1 2 3 4 5 6 
#
# 1 0.061747 0.003296 0.016121 -0.069247 0.007900 0.016298
# 2 0.003296 0.010625 0.001128 -0.017864 0.002638 0.000585
# 3 0.016121 0.001128 0.021502 -0.032204 -0.001914 0.003749
# 4 -0.069247 -0.017864 -0.032204 0.136959 -0.011812 -0.015595
# 5 0.007900 0.002638 -0.001914 -0.011812 0.041505 -0.004874
# 6 0.016298 0.000585 0.003749 -0.015595 -0.004874 0.032232
#
#
# Mechanical properties :
#
#
# Convention : Reuss Voigt Hill
#
# Bulk Modulus (GPa) = 7.40929 49.02546 28.21737
# Shear Modulus (GPa) = 16.20914 34.04183 25.12549
#
# Velocity S-wave (km/s) = 2.64825 3.83783 3.29714
# Velocity P-wave (km/s) = 3.54356 6.39145 5.16756
#
# Compressibility (1/GPa) = 0.13496568
#
# Stress axis : x y z
#
# Youngs Moduli (GPa) = 16.19501 94.11768 46.50635
#
# Poissons Ratio (x) = -0.31022 -0.74974
# Poissons Ratio (y) = -0.05338 -0.05247
# Poissons Ratio (z) = -0.26108 -0.10618
#
# Static dielectric constant tensor:
#      x y z
#    x 1.937190 0.026410 0.039750 
#    y 0.026410 1.967040 -0.079670 
#    z 0.039750 -0.079670 1.991450 
# 
# From -- ./inp_files/595137.got.cif
#   From: 2010.05.17/outbox.cif.g08.bks.cpg/sg2_298_cif.got.tgz:595137.got - 2010.06.03 11:33:40.
