data_PCOD9104093
_publ_section_title
;
Structure prediction by ZEFSAII (Michael W. Deem and Ramdas Pophale) SiO2 
 PCOD9104093
Probable space group: P -1
;
_chemical_formula_sum "Si O2"
_cell_formula_units_Z 16
_cell_length_a 7.801764
_cell_length_b 10.665168
_cell_length_c 17.163856
_cell_angle_alpha 116.101438
_cell_angle_beta 143.145182
_cell_angle_gamma 60.961893
_cell_volume 745.285621
_symmetry_space_group_name_H-M "P -1"
_symmetry_group_IT_number 2
_symmetry_cell_setting 'triclinic'
loop_
_space_group_symop_operation_xyz
x,y,z
-x,-y,-z
loop_
_atom_site_type_symbol
_atom_site_label
_atom_site_fract_x
_atom_site_fract_y
_atom_site_fract_z
Si Si1 0.716059 0.600699 0.026487
Si Si2 0.645852 0.624727 0.176391
Si Si3 0.236510 0.928832 0.132482
Si Si4 0.725637 0.900856 0.667307
Si Si5 0.811983 0.856765 0.516492
Si Si6 0.309444 0.367867 0.140734
Si Si7 0.757165 0.572667 0.368604
Si Si8 0.556191 0.159569 0.311527
O O1 0.754407 0.663229 0.142086
O O2 0.993330 0.468823 0.073907
O O3 0.440698 0.527226 0.908693
O O4 0.683336 0.693319 0.961119
O O5 0.362136 0.757540 0.128800
O O6 0.847581 0.597445 0.319139
O O7 0.130471 0.997278 0.197457
O O8 0.521096 0.996750 0.244367
O O9 0.000000 0.000000 0.000000
O O10 0.897489 0.846006 0.636166
O O11 0.634018 0.791706 0.665629
O O12 0.410374 0.994290 0.546568
O O13 0.642168 0.733970 0.403172
O O14 0.107529 0.833583 0.566961
O O15 0.525356 0.475828 0.252437
O O16 0.399866 0.249062 0.206385
O O17 0.000000 0.500000 0.500000
#
# Coordination Sequence:
#
# PCOD9104093 Si02
#       8
#     2   2   2   2   2   2   2   2
#     4   9  21  38  61  83 118 154 191 242 300 356
#     4  10  20  40  61  85 117 155 196 244 301 344
#     4  10  21  39  60  88 118 153 199 248 292 354
#     4   9  23  38  63  86 116 164 192 249 299 343
#     4  11  20  43  60  86 121 157 205 241 295 354
#     4  10  20  39  57  87 116 154 193 243 296 351
#     4  11  21  37  60  85 120 153 199 245 286 354
#     4  10  21  38  63  84 121 155 192 249 296 349
#
# _framework density 21.46828
#
# number of rings (size 3 to 8) (size 9 to 14) (size 15 to 20)
#    0.750    1.250    2.500    1.125    0.000    2.000 
#    6.750    2.500    0.000    0.000    0.000    0.000 
#    0.000    0.000    0.000    0.000    0.000    0.000 
#
# Total GULP energy -89074.811327 kJ/mol
# GULP energy per Si atom -5567.175708 kJ/mol
# Density = 2.141942 g / cm^3
# Si number density = 21.468280 Si / 1000 Ang^3
#
#
#
# Elastic Constant Matrix: (Units=GPa)
#
#
# Indices 1 2 3 4 5 6 
#
# 1 77.1165 10.1638 41.8740 9.4416 -33.2346 6.3006
# 2 10.1638 31.6397 2.1301 4.0930 -12.3629 14.0552
# 3 41.8740 2.1301 98.1752 -3.0531 -39.1529 2.0949
# 4 9.4416 4.0930 -3.0531 30.8372 -0.4297 -7.7375
# 5 -33.2346 -12.3629 -39.1529 -0.4297 48.3361 -0.0658
# 6 6.3006 14.0552 2.0949 -7.7375 -0.0658 22.1324
#
#
#
# Elastic Compliance Matrix: (Units=1/GPa)
#
#
# Indices 1 2 3 4 5 6 
#
# 1 0.023082 0.005783 -0.004675 -0.011575 0.013440 -0.013807
# 2 0.005783 0.065096 0.006859 -0.022252 0.025914 -0.051337
# 3 -0.004675 0.006859 0.017108 0.001350 0.012404 -0.004136
# 4 -0.011575 -0.022252 0.001350 0.047378 -0.012089 0.033826
# 5 0.013440 0.025914 0.012404 -0.012089 0.046463 -0.025545
# 6 -0.013807 -0.051337 -0.004136 0.033826 -0.025545 0.093856
#
#
# Mechanical properties :
#
#
# Convention : Reuss Voigt Hill
#
# Bulk Modulus (GPa) = 8.24954 35.02970 21.63962
# Shear Modulus (GPa) = 15.75020 30.44536 23.09778
#
# Velocity S-wave (km/s) = 2.71154 3.76993 3.28365
# Velocity P-wave (km/s) = 3.69516 5.94156 4.94755
#
# Compressibility (1/GPa) = 0.12121891
#
# Stress axis : x y z
#
# Youngs Moduli (GPa) = 43.32463 15.36192 58.45121
#
# Poissons Ratio (x) = -0.08883 0.27329
# Poissons Ratio (y) = -0.25053 -0.40094
# Poissons Ratio (z) = 0.20256 -0.10537
#
# Static dielectric constant tensor:
#      x y z
#    x 1.832030 0.008340 -0.053560 
#    y 0.008340 1.783610 0.013240 
#    z -0.053560 0.013240 1.815270 
# 
# From -- ./inp_files/559201.got.cif
#   From: 2010.05.17/outbox.cif.g08.bks.cpg/sg2_280_cif.got.tgz:559201.got - 2010.06.03 11:33:40.
