data_PCOD9104716
_publ_section_title
;
Structure prediction by ZEFSAII (Michael W. Deem and Ramdas Pophale) SiO2 
 PCOD9104716
Probable space group: P -1
;
_chemical_formula_sum "Si O2"
_cell_formula_units_Z 16
_cell_length_a 13.543564
_cell_length_b 13.180523
_cell_length_c 14.115506
_cell_angle_alpha 30.593574
_cell_angle_beta 30.794158
_cell_angle_gamma 35.066723
_cell_volume 625.603173
_symmetry_space_group_name_H-M "P -1"
_symmetry_group_IT_number 2
_symmetry_cell_setting 'triclinic'
loop_
_space_group_symop_operation_xyz
x,y,z
-x,-y,-z
loop_
_atom_site_type_symbol
_atom_site_label
_atom_site_fract_x
_atom_site_fract_y
_atom_site_fract_z
Si Si1 0.113534 0.501020 0.214695
Si Si2 0.602966 0.334159 0.388194
Si Si3 0.609705 0.884617 0.798137
Si Si4 0.510656 0.619730 0.768376
Si Si5 0.163592 0.189938 0.660898
Si Si6 0.767024 0.155115 0.954974
Si Si7 0.619927 0.758056 0.094858
Si Si8 0.977723 0.611663 0.033792
O O1 0.967831 0.600337 0.342150
O O2 0.979328 0.538060 0.199740
O O3 0.253934 0.260165 0.280740
O O4 0.278046 0.630849 0.968628
O O5 0.610222 0.121119 0.605040
O O6 0.481062 0.367531 0.363477
O O7 0.538401 0.556349 0.318768
O O8 0.838635 0.292906 0.199927
O O9 0.377885 0.887134 0.972883
O O10 0.704665 0.755457 0.918542
O O11 0.634707 0.773713 0.575586
O O12 0.642973 0.397193 0.879038
O O13 0.225648 0.006978 0.835747
O O14 0.002479 0.140758 0.761216
O O15 0.752768 0.744323 0.089223
O O16 0.500000 0.000000 0.000000
O O17 0.000000 0.500000 0.000000
#
# Coordination Sequence:
#
# PCOD9104716 Si02
#       8
#     2   2   2   2   2   2   2   2
#     4  10  22  41  67  92 129 168 214 265 316 374
#     4  10  20  39  62  86 122 168 202 254 320 370
#     4  11  21  41  61  86 128 169 202 269 316 368
#     4  10  20  42  64  89 132 168 204 268 315 369
#     4  11  23  41  66  98 124 172 215 262 317 383
#     4  10  22  41  65  92 134 163 212 267 317 375
#     4  11  23  39  62  89 123 166 207 261 318 369
#     4   9  18  40  61  85 125 161 207 262 309 373
#
# _framework density 25.575319
#
# number of rings (size 3 to 8) (size 9 to 14) (size 15 to 20)
#    0.000    1.750    6.250    0.375    1.750    3.000 
#    6.750    2.500    0.000    0.750    0.000    0.000 
#    0.000    0.000    0.000    0.000    0.000    0.000 
#
# Total GULP energy -89196.296954 kJ/mol
# GULP energy per Si atom -5574.768560 kJ/mol
# Density = 2.551711 g / cm^3
# Si number density = 25.575319 Si / 1000 Ang^3
#
#
#
# Elastic Constant Matrix: (Units=GPa)
#
#
# Indices 1 2 3 4 5 6 
#
# 1 190.1482 29.3037 35.5110 -3.5242 -1.5881 -27.1725
# 2 29.3037 114.5216 39.2792 -20.1269 -3.5930 16.2092
# 3 35.5110 39.2792 104.9796 -23.8913 -5.6142 3.6600
# 4 -3.5242 -20.1269 -23.8913 41.4743 -2.3516 4.3707
# 5 -1.5881 -3.5930 -5.6142 -2.3516 42.2571 4.6559
# 6 -27.1725 16.2092 3.6600 4.3707 4.6559 32.5064
#
#
#
# Elastic Compliance Matrix: (Units=1/GPa)
#
#
# Indices 1 2 3 4 5 6 
#
# 1 0.007284 -0.002787 -0.002502 -0.003137 -0.001394 0.008381
# 2 -0.002787 0.012552 -0.001989 0.005820 0.002062 -0.009442
# 3 -0.002502 -0.001989 0.012913 0.006787 0.002247 -0.003788
# 4 -0.003137 0.005820 0.006787 0.032004 0.004294 -0.011207
# 5 -0.001394 0.002062 0.002247 0.004294 0.025054 -0.006612
# 6 0.008381 -0.009442 -0.003788 -0.011207 -0.006612 0.045358
#
#
# Mechanical properties :
#
#
# Convention : Reuss Voigt Hill
#
# Bulk Modulus (GPa) = 54.96905 68.64858 61.80882
# Shear Modulus (GPa) = 32.09570 43.61791 37.85681
#
# Velocity S-wave (km/s) = 3.54637 4.13421 3.85152
# Velocity P-wave (km/s) = 6.18940 7.04904 6.63316
#
# Compressibility (1/GPa) = 0.01819205
#
# Stress axis : x y z
#
# Youngs Moduli (GPa) = 137.29307 79.67137 77.44053
#
# Poissons Ratio (x) = 0.22205 0.19373
# Poissons Ratio (y) = 0.38264 0.15407
# Poissons Ratio (z) = 0.34346 0.15850
#
# Static dielectric constant tensor:
#      x y z
#    x -0.650180 1.785210 -1.315080 
#    y 1.785210 1.211940 0.952510 
#    z -1.315080 0.952510 1.611170 
# 
# From -- ./inp_files/533583.got.cif
#   From: 2010.05.17/outbox.cif.g08.bks.cpg/sg2_267_cif.got.tgz:533583.got - 2010.06.03 11:33:40.
