data_PCOD9104228
_publ_section_title
;
Structure prediction by ZEFSAII (Michael W. Deem and Ramdas Pophale) SiO2 
 PCOD9104228
Probable space group: P -1
;
_chemical_formula_sum "Si O2"
_cell_formula_units_Z 16
_cell_length_a 18.928236
_cell_length_b 10.486775
_cell_length_c 4.968670
_cell_angle_alpha 106.060607
_cell_angle_beta 112.735166
_cell_angle_gamma 58.911923
_cell_volume 775.264330
_symmetry_space_group_name_H-M "P -1"
_symmetry_group_IT_number 2
_symmetry_cell_setting 'triclinic'
loop_
_space_group_symop_operation_xyz
x,y,z
-x,-y,-z
loop_
_atom_site_type_symbol
_atom_site_label
_atom_site_fract_x
_atom_site_fract_y
_atom_site_fract_z
Si Si1 0.302721 0.074646 0.416397
Si Si2 0.458626 0.458570 0.666474
Si Si3 0.492903 0.873061 0.596921
Si Si4 0.672321 0.776660 0.980311
Si Si5 0.735681 0.459883 0.602333
Si Si6 0.857884 0.979686 0.954311
Si Si7 0.972632 0.884413 0.537180
Si Si8 0.162880 0.702111 0.839965
O O1 0.317781 0.113973 0.159024
O O2 0.393623 0.942294 0.578557
O O3 0.223957 0.037594 0.272450
O O4 0.286758 0.210091 0.673243
O O5 0.500000 0.500000 0.500000
O O6 0.483662 0.282840 0.607399
O O7 0.354835 0.546113 0.548300
O O8 0.500000 0.500000 0.000000
O O9 0.570129 0.827305 0.899902
O O10 0.500000 0.000000 0.500000
O O11 0.713228 0.617769 0.799886
O O12 0.775533 0.427572 0.345567
O O13 0.806356 0.339883 0.834209
O O14 0.920664 0.949513 0.773607
O O15 0.828362 0.147398 0.115053
O O16 0.910738 0.868847 0.212022
O O17 0.063338 0.744076 0.664371
O O18 0.000000 0.000000 0.500000
#
# Coordination Sequence:
#
# PCOD9104228 Si02
#       8
#     2   2   2   2   2   2   2   2
#     4  11  22  37  64  87 118 153 208 257 288 354
#     4  11  25  41  59  91 134 164 197 272 323 350
#     4   9  22  42  63  88 120 175 219 247 300 378
#     4  10  22  41  58  85 119 164 203 245 294 345
#     4  11  23  38  63  85 121 160 207 236 295 383
#     4  11  22  36  61  94 122 147 192 260 315 347
#     4  10  20  39  59  86 125 155 189 244 313 370
#     4  11  21  38  63  90 115 157 201 239 302 388
#
# _framework density 20.638121999999999
#
# number of rings (size 3 to 8) (size 9 to 14) (size 15 to 20)
#    0.000    1.500    0.000    6.375    3.500    7.000 
#    0.000    0.000    0.000   15.000    0.000    0.000 
#    0.000    0.000    0.000    0.000    0.000    0.000 
#
# Total GULP energy -89358.104871 kJ/mol
# GULP energy per Si atom -5584.881554 kJ/mol
# Density = 2.059115 g / cm^3
# Si number density = 20.638122 Si / 1000 Ang^3
#
#
#
# Elastic Constant Matrix: (Units=GPa)
#
#
# Indices 1 2 3 4 5 6 
#
# 1 78.2433 30.8076 36.1123 3.1137 7.7615 -20.3273
# 2 30.8076 65.6934 24.3376 2.0973 13.6091 -7.5449
# 3 36.1123 24.3376 135.2437 3.9762 9.3464 -4.7748
# 4 3.1137 2.0973 3.9762 20.7845 0.1292 -4.5647
# 5 7.7615 13.6091 9.3464 0.1292 45.9206 -3.2256
# 6 -20.3273 -7.5449 -4.7748 -4.5647 -3.2256 28.3328
#
#
#
# Elastic Compliance Matrix: (Units=1/GPa)
#
#
# Indices 1 2 3 4 5 6 
#
# 1 0.020368 -0.006794 -0.003826 0.001079 0.000215 0.012357
# 2 -0.006794 0.019839 -0.001441 -0.000784 -0.004469 -0.000469
# 3 -0.003826 -0.001441 0.008703 -0.001376 -0.000833 -0.001979
# 4 0.001079 -0.000784 -0.001376 0.050156 0.000786 0.008503
# 5 0.000215 -0.004469 -0.000833 0.000786 0.023345 0.001608
# 6 0.012357 -0.000469 -0.001979 0.008503 0.001608 0.045255
#
#
# Mechanical properties :
#
#
# Convention : Reuss Voigt Hill
#
# Bulk Modulus (GPa) = 40.34179 51.29949 45.82064
# Shear Modulus (GPa) = 24.99375 31.53578 28.26476
#
# Velocity S-wave (km/s) = 3.48379 3.91325 3.70475
# Velocity P-wave (km/s) = 5.98097 6.73266 6.36791
#
# Compressibility (1/GPa) = 0.02478819
#
# Stress axis : x y z
#
# Youngs Moduli (GPa) = 49.09743 50.40608 114.90124
#
# Poissons Ratio (x) = 0.34245 0.43964
# Poissons Ratio (y) = 0.33356 0.16554
# Poissons Ratio (z) = 0.18786 0.07262
#
# Static dielectric constant tensor:
#      x y z
#    x 1.719760 -0.005190 0.005900 
#    y -0.005190 1.798820 -0.015370 
#    z 0.005900 -0.015370 1.736820 
# 
# From -- ./inp_files/109397.got.cif
#   From: 2010.05.17/outbox.cif.g08.bks.cpg/sg2_55_cif.got.tgz:109397.got - 2010.06.03 11:33:40.
