data_PCOD9104761
_publ_section_title
;
Structure prediction by ZEFSAII (Michael W. Deem and Ramdas Pophale) SiO2 
 PCOD9104761
Probable space group: P -1
;
_chemical_formula_sum "Si O2"
_cell_formula_units_Z 16
_cell_length_a 5.504166
_cell_length_b 12.882742
_cell_length_c 16.812804
_cell_angle_alpha 145.282929
_cell_angle_beta 72.018155
_cell_angle_gamma 97.177360
_cell_volume 627.283094
_symmetry_space_group_name_H-M "P -1"
_symmetry_group_IT_number 2
_symmetry_cell_setting 'triclinic'
loop_
_space_group_symop_operation_xyz
x,y,z
-x,-y,-z
loop_
_atom_site_type_symbol
_atom_site_label
_atom_site_fract_x
_atom_site_fract_y
_atom_site_fract_z
Si Si1 0.231965 0.927255 0.552704
Si Si2 0.484264 0.320266 0.198070
Si Si3 0.359993 0.353138 0.554816
Si Si4 0.871500 0.969919 0.909181
Si Si5 0.175928 0.587520 0.264975
Si Si6 0.995015 0.715691 0.149730
Si Si7 0.801289 0.893243 0.701719
Si Si8 0.579166 0.752059 0.083818
O O1 0.451143 0.820744 0.526221
O O2 0.235417 0.793060 0.391883
O O3 0.968668 0.925692 0.628500
O O4 0.175455 0.150222 0.680348
O O5 0.555115 0.451067 0.341425
O O6 0.314053 0.174086 0.146471
O O7 0.336246 0.476956 0.252557
O O8 0.731530 0.188121 0.046369
O O9 0.284764 0.288614 0.435321
O O10 0.118931 0.402438 0.672492
O O11 0.972923 0.890216 0.761985
O O12 0.000000 0.000000 0.000000
O O13 0.277586 0.444606 0.094415
O O14 0.800024 0.799515 0.148468
O O15 0.302083 0.719417 0.124357
O O16 0.000000 0.500000 0.000000
O O17 0.538691 0.063601 0.842438
#
# Coordination Sequence:
#
# PCOD9104761 Si02
#       8
#     2   2   2   2   2   2   2   2
#     4   9  21  38  64  93 124 169 211 267 325 390
#     4  10  22  37  57  89 123 167 211 275 338 369
#     4  10  20  39  62  88 125 165 217 279 317 392
#     4  11  23  38  57  89 130 169 216 282 331 382
#     4  10  21  39  65  91 126 166 223 263 321 389
#     4  11  24  44  68 101 138 168 211 269 330 389
#     4  10  21  40  62  92 122 170 227 266 327 391
#     4  11  23  41  71 100 124 179 220 263 317 400
#
# _framework density 25.506827000000001
#
# number of rings (size 3 to 8) (size 9 to 14) (size 15 to 20)
#    0.000    1.750    2.500    1.125    3.500    4.500 
#    0.000   10.000    0.000    0.000    0.000    0.000 
#    0.000    0.000    0.000    0.000    0.000    0.000 
#
# Total GULP energy -89104.658998 kJ/mol
# GULP energy per Si atom -5569.041187 kJ/mol
# Density = 2.544877 g / cm^3
# Si number density = 25.506827 Si / 1000 Ang^3
#
#
#
# Elastic Constant Matrix: (Units=GPa)
#
#
# Indices 1 2 3 4 5 6 
#
# 1 92.9028 25.4721 65.2092 -1.8928 13.1921 -8.7029
# 2 25.4721 32.8760 27.3117 -4.4902 16.0385 2.7993
# 3 65.2092 27.3117 194.0354 20.3696 12.8639 4.1728
# 4 -1.8928 -4.4902 20.3696 34.6846 -0.3855 7.3287
# 5 13.1921 16.0385 12.8639 -0.3855 42.8105 15.7504
# 6 -8.7029 2.7993 4.1728 7.3287 15.7504 14.3873
#
#
#
# Elastic Compliance Matrix: (Units=1/GPa)
#
#
# Indices 1 2 3 4 5 6 
#
# 1 0.022637 -0.009156 -0.005629 -0.004388 -0.015086 0.035859
# 2 -0.009156 0.048182 -0.003717 0.008837 -0.012201 -0.004979
# 3 -0.005629 -0.003717 0.007937 -0.004124 0.002957 -0.006120
# 4 -0.004388 0.008837 -0.004124 0.040623 0.014113 -0.039320
# 5 -0.015086 -0.012201 0.002957 0.014113 0.062391 -0.083100
# 6 0.035859 -0.004979 -0.006120 -0.039320 -0.083100 0.204943
#
#
# Mechanical properties :
#
#
# Convention : Reuss Voigt Hill
#
# Bulk Modulus (GPa) = 23.95013 61.75558 42.85286
# Shear Modulus (GPa) = 11.42507 31.83121 21.62814
#
# Velocity S-wave (km/s) = 2.11871 3.53646 2.91509
# Velocity P-wave (km/s) = 3.92369 6.39839 5.30729
#
# Compressibility (1/GPa) = 0.04175342
#
# Stress axis : x y z
#
# Youngs Moduli (GPa) = 44.17455 20.75460 125.98917
#
# Poissons Ratio (x) = 0.19002 0.70923
# Poissons Ratio (y) = 0.40444 0.46827
# Poissons Ratio (z) = 0.24867 0.07714
#
# Static dielectric constant tensor:
#      x y z
#    x 2.146470 0.003530 0.092210 
#    y 0.003530 2.229750 -0.058470 
#    z 0.092210 -0.058470 2.184840 
# 
# From -- ./inp_files/52081.got.cif
#   From: 2010.05.17/outbox.cif.g08.bks.cpg/sg2_27_cif.got.tgz:52081.got - 2010.06.03 11:33:40.
