data_PCOD9104416
_publ_section_title
;
Structure prediction by ZEFSAII (Michael W. Deem and Ramdas Pophale) SiO2 
 PCOD9104416
Probable space group: P -1
;
_chemical_formula_sum "Si O2"
_cell_formula_units_Z 16
_cell_length_a 13.803418
_cell_length_b 12.652934
_cell_length_c 14.548379
_cell_angle_alpha 47.686997
_cell_angle_beta 32.434265
_cell_angle_gamma 71.364970
_cell_volume 785.138459
_symmetry_space_group_name_H-M "P -1"
_symmetry_group_IT_number 2
_symmetry_cell_setting 'triclinic'
loop_
_space_group_symop_operation_xyz
x,y,z
-x,-y,-z
loop_
_atom_site_type_symbol
_atom_site_label
_atom_site_fract_x
_atom_site_fract_y
_atom_site_fract_z
Si Si1 0.739622 0.695601 0.964572
Si Si2 0.710483 0.583342 0.852778
Si Si3 0.032089 0.052915 0.646364
Si Si4 0.516414 0.867262 0.476752
Si Si5 0.503831 0.817752 0.716214
Si Si6 0.028432 0.497478 0.086298
Si Si7 0.342099 0.491544 0.550934
Si Si8 0.129996 0.104461 0.929323
O O1 0.678677 0.660784 0.925772
O O2 0.887794 0.622649 0.895385
O O3 0.504602 0.575895 0.282369
O O4 0.889245 0.894639 0.776778
O O5 0.931347 0.765169 0.520929
O O6 0.500000 0.500000 0.000000
O O7 0.689955 0.403115 0.994433
O O8 0.289364 0.111666 0.419288
O O9 0.926083 0.987929 0.871796
O O10 0.619034 0.870409 0.491284
O O11 0.607136 0.811584 0.356755
O O12 0.575607 0.057800 0.289022
O O13 0.246247 0.710057 0.805536
O O14 0.790920 0.428254 0.365429
O O15 0.000000 0.500000 0.000000
O O16 0.500000 0.500000 0.500000
O O17 0.134424 0.276089 0.832546
O O18 0.000000 0.000000 0.000000
#
# Coordination Sequence:
#
# PCOD9104416 Si02
#       8
#     2   2   2   2   2   2   2   2
#     4  12  23  43  67  94 134 169 220 271 326 389
#     4  10  23  43  68  90 124 180 226 263 321 392
#     4  11  23  40  64  92 125 174 222 259 322 392
#     4  11  21  35  63  94 132 166 205 272 334 369
#     4  10  20  39  60  93 122 165 220 260 319 393
#     4  12  22  37  64 100 137 170 202 270 337 393
#     4  12  23  39  62 102 135 164 211 268 337 391
#     4  12  22  36  60  96 133 165 213 268 327 385
#
# _framework density 20.37857
#
# number of rings (size 3 to 8) (size 9 to 14) (size 15 to 20)
#    0.000    0.750    6.250    1.875    3.500    0.000 
#    0.000    0.625    5.500    1.500    0.000    0.000 
#    0.000    0.000    0.000    0.000    0.000    0.000 
#
# Total GULP energy -89159.012664 kJ/mol
# GULP energy per Si atom -5572.438292 kJ/mol
# Density = 2.033219 g / cm^3
# Si number density = 20.378570 Si / 1000 Ang^3
#
#
#
# Elastic Constant Matrix: (Units=GPa)
#
#
# Indices 1 2 3 4 5 6 
#
# 1 98.6239 31.8759 31.7858 -6.9475 5.4706 24.0553
# 2 31.8759 96.6413 46.8161 -7.5883 6.0569 -2.2767
# 3 31.7858 46.8161 92.1684 -7.9030 9.9391 -0.7958
# 4 -6.9475 -7.5883 -7.9030 54.7211 -1.3635 -2.7242
# 5 5.4706 6.0569 9.9391 -1.3635 26.4370 -7.0400
# 6 24.0553 -2.2767 -0.7958 -2.7242 -7.0400 40.6528
#
#
#
# Elastic Compliance Matrix: (Units=1/GPa)
#
#
# Indices 1 2 3 4 5 6 
#
# 1 0.014783 -0.003368 -0.003039 0.000401 -0.003682 -0.009606
# 2 -0.003368 0.014559 -0.006189 0.000850 0.000485 0.002828
# 3 -0.003039 -0.006189 0.015502 0.000971 -0.003404 0.001231
# 4 0.000401 0.000850 0.000971 0.018659 0.000636 0.001190
# 5 -0.003682 0.000485 -0.003404 0.000636 0.042322 0.009511
# 6 -0.009606 0.002828 0.001231 0.001190 0.009511 0.032192
#
#
# Mechanical properties :
#
#
# Convention : Reuss Voigt Hill
#
# Bulk Modulus (GPa) = 50.88168 56.48769 53.68468
# Shear Modulus (GPa) = 29.45330 36.15923 32.80627
#
# Velocity S-wave (km/s) = 3.80584 4.21690 4.01664
# Velocity P-wave (km/s) = 6.65846 7.17559 6.92185
#
# Compressibility (1/GPa) = 0.01965344
#
# Stress axis : x y z
#
# Youngs Moduli (GPa) = 67.64471 68.68376 64.50680
#
# Poissons Ratio (x) = 0.23132 0.19603
# Poissons Ratio (y) = 0.22782 0.39922
# Poissons Ratio (z) = 0.20557 0.42507
#
# Static dielectric constant tensor:
#      x y z
#    x 1.937680 0.083220 -0.172360 
#    y 0.083220 1.824980 -0.080040 
#    z -0.172360 -0.080040 1.936440 
# 
# From -- ./inp_files/532386.got.cif
#   From: 2010.05.17/outbox.cif.g08.bks.cpg/sg2_267_cif.got.tgz:532386.got - 2010.06.03 11:33:40.
