data_PCOD9104891
_publ_section_title
;
Structure prediction by ZEFSAII (Michael W. Deem and Ramdas Pophale) SiO2 
 PCOD9104891
Probable space group: P -1
;
_chemical_formula_sum "Si O2"
_cell_formula_units_Z 16
_cell_length_a 13.990778
_cell_length_b 7.768561
_cell_length_c 11.452249
_cell_angle_alpha 70.563398
_cell_angle_beta 38.453389
_cell_angle_gamma 56.572586
_cell_volume 634.249448
_symmetry_space_group_name_H-M "P -1"
_symmetry_group_IT_number 2
_symmetry_cell_setting 'triclinic'
loop_
_space_group_symop_operation_xyz
x,y,z
-x,-y,-z
loop_
_atom_site_type_symbol
_atom_site_label
_atom_site_fract_x
_atom_site_fract_y
_atom_site_fract_z
Si Si1 0.017265 0.624802 0.345240
Si Si2 0.647332 0.521925 0.092626
Si Si3 0.049941 0.014967 0.318861
Si Si4 0.664116 0.942673 0.553060
Si Si5 0.201518 0.838330 0.807814
Si Si6 0.629417 0.086594 0.824196
Si Si7 0.297380 0.241105 0.808702
Si Si8 0.893261 0.402476 0.236256
O O1 0.185408 0.489398 0.133269
O O2 0.045719 0.826168 0.297128
O O3 0.000000 0.500000 0.500000
O O4 0.831215 0.709086 0.439042
O O5 0.694493 0.295210 0.147937
O O6 0.476221 0.660921 0.147030
O O7 0.620813 0.658694 0.203291
O O8 0.244045 0.976787 0.169678
O O9 0.000000 0.000000 0.500000
O O10 0.912721 0.249900 0.356857
O O11 0.706628 0.066082 0.383206
O O12 0.690872 0.996179 0.652668
O O13 0.461026 0.004548 0.709290
O O14 0.175010 0.683378 0.783872
O O15 0.000000 0.000000 0.000000
O O16 0.500000 0.000000 0.000000
O O17 0.241593 0.350957 0.710183
O O18 0.101098 0.315822 0.028506
#
# Coordination Sequence:
#
# PCOD9104891 Si02
#       8
#     2   2   2   2   2   2   2   2
#     4  12  25  41  62  95 134 172 217 265 329 386
#     4  10  22  39  64  89 126 169 207 262 331 375
#     4  12  23  39  65  95 131 171 216 268 314 389
#     4  11  21  42  65  95 122 172 220 260 321 391
#     4  11  20  39  65  87 126 162 210 269 326 379
#     4  11  23  41  66  98 129 171 218 263 318 389
#     4   9  22  38  68  93 125 165 212 273 316 386
#     4  10  20  39  62  94 125 165 217 258 329 380
#
# _framework density 25.226669000000001
#
# number of rings (size 3 to 8) (size 9 to 14) (size 15 to 20)
#    0.000    1.250    3.750    2.250    1.750    6.000 
#    0.000    1.875    0.000    0.000    0.000    0.000 
#    0.000    0.000    0.000    0.000    0.000    0.000 
#
# Total GULP energy -89194.709239 kJ/mol
# GULP energy per Si atom -5574.669327 kJ/mol
# Density = 2.516925 g / cm^3
# Si number density = 25.226669 Si / 1000 Ang^3
#
#
#
# Elastic Constant Matrix: (Units=GPa)
#
#
# Indices 1 2 3 4 5 6 
#
# 1 92.8746 29.1338 9.3533 1.9888 -3.5196 -16.9588
# 2 29.1338 51.6979 -1.0838 -7.8030 1.1756 -22.6730
# 3 9.3533 -1.0838 77.9508 -9.7011 6.0292 -5.5911
# 4 1.9888 -7.8030 -9.7011 35.8731 -12.6713 -6.5141
# 5 -3.5196 1.1756 6.0292 -12.6713 43.4441 -2.2421
# 6 -16.9588 -22.6730 -5.5911 -6.5141 -2.2421 44.1285
#
#
#
# Elastic Compliance Matrix: (Units=1/GPa)
#
#
# Indices 1 2 3 4 5 6 
#
# 1 0.013652 -0.007902 -0.002102 -0.002631 0.000874 0.000577
# 2 -0.007902 0.032855 0.003939 0.012458 0.002399 0.016304
# 3 -0.002102 0.003939 0.014102 0.005295 -0.000496 0.003759
# 4 -0.002631 0.012458 0.005295 0.038072 0.010450 0.012212
# 5 0.000874 0.002399 -0.000496 0.010450 0.026367 0.004388
# 6 0.000577 0.016304 0.003759 0.012212 0.004388 0.033761
#
#
# Mechanical properties :
#
#
# Convention : Reuss Voigt Hill
#
# Bulk Modulus (GPa) = 20.62651 33.03663 26.83157
# Shear Modulus (GPa) = 26.72387 37.03048 31.87718
#
# Velocity S-wave (km/s) = 3.25830 3.83549 3.55861
# Velocity P-wave (km/s) = 4.72753 5.72180 5.24826
#
# Compressibility (1/GPa) = 0.04848131
#
# Stress axis : x y z
#
# Youngs Moduli (GPa) = 73.24793 30.43699 70.90959
#
# Poissons Ratio (x) = 0.24050 0.14902
# Poissons Ratio (y) = 0.57878 -0.27933
# Poissons Ratio (z) = 0.15394 -0.11990
#
# Static dielectric constant tensor:
#      x y z
#    x 1.806180 0.003630 0.127240 
#    y 0.003630 2.288130 0.084590 
#    z 0.127240 0.084590 1.964080 
# 
# From -- ./inp_files/447070.got.cif
#   From: 2010.05.17/outbox.cif.g08.bks.cpg/sg2_224_cif.got.tgz:447070.got - 2010.06.03 11:33:40.
