data_PCOD9104615
_publ_section_title
;
Structure prediction by ZEFSAII (Michael W. Deem and Ramdas Pophale) SiO2 
 PCOD9104615
Probable space group: P -1
;
_chemical_formula_sum "Si O2"
_cell_formula_units_Z 16
_cell_length_a 19.017004
_cell_length_b 5.589784
_cell_length_c 10.443836
_cell_angle_alpha 92.857646
_cell_angle_beta 134.133652
_cell_angle_gamma 66.348694
_cell_volume 683.961086
_symmetry_space_group_name_H-M "P -1"
_symmetry_group_IT_number 2
_symmetry_cell_setting 'triclinic'
loop_
_space_group_symop_operation_xyz
x,y,z
-x,-y,-z
loop_
_atom_site_type_symbol
_atom_site_label
_atom_site_fract_x
_atom_site_fract_y
_atom_site_fract_z
Si Si1 0.640328 0.586553 0.715477
Si Si2 0.199554 0.530184 0.719237
Si Si3 0.749547 0.162643 0.422549
Si Si4 0.874722 0.304423 0.106602
Si Si5 0.050455 0.466892 0.351472
Si Si6 0.408274 0.933763 0.938627
Si Si7 0.925662 0.181856 0.792645
Si Si8 0.452537 0.784502 0.276953
O O1 0.574823 0.652866 0.499267
O O2 0.602759 0.391505 0.740074
O O3 0.606113 0.886185 0.746343
O O4 0.777167 0.415651 0.880029
O O5 0.182139 0.691780 0.831872
O O6 0.078032 0.596404 0.512112
O O7 0.293390 0.209230 0.849240
O O8 0.249124 0.625057 0.670755
O O9 0.851916 0.853214 0.512469
O O10 0.634260 0.170277 0.239819
O O11 0.802763 0.211556 0.620135
O O12 0.926584 0.506092 0.190941
O O13 0.983821 0.009222 0.208458
O O14 0.082374 0.533354 0.252790
O O15 0.500000 0.000000 0.000000
O O16 0.454905 0.762578 0.125373
O O17 0.000000 0.000000 0.000000
#
# Coordination Sequence:
#
# PCOD9104615 Si02
#       8
#     2   2   2   2   2   2   2   2
#     4  10  22  41  67  94 130 173 222 273 336 381
#     4  10  20  39  61  91 126 156 204 264 318 387
#     4   9  21  41  62  87 125 163 206 262 324 388
#     4  11  21  35  64  94 118 166 206 262 320 386
#     4   9  21  37  61  92 122 157 204 257 322 388
#     4  11  23  40  63  93 127 171 216 267 330 389
#     4  10  23  42  59  88 126 165 208 263 324 395
#     4  10  22  44  64  93 135 172 220 281 324 395
#
# _framework density 23.393143999999999
#
# number of rings (size 3 to 8) (size 9 to 14) (size 15 to 20)
#    0.000    2.000    1.250    1.125    1.750    9.000 
#    9.000    0.000    0.000    0.000    0.000    0.000 
#    0.000    0.000    0.000    0.000    0.000    0.000 
#
# Total GULP energy -89136.845436 kJ/mol
# GULP energy per Si atom -5571.052840 kJ/mol
# Density = 2.333990 g / cm^3
# Si number density = 23.393144 Si / 1000 Ang^3
#
#
#
# Elastic Constant Matrix: (Units=GPa)
#
#
# Indices 1 2 3 4 5 6 
#
# 1 37.6581 9.8997 54.6394 6.0529 5.1351 0.8916
# 2 9.8997 57.4843 35.1189 -9.1572 7.5873 3.4464
# 3 54.6394 35.1189 207.6418 20.1303 0.1473 27.6985
# 4 6.0529 -9.1572 20.1303 28.9361 15.3121 8.9202
# 5 5.1351 7.5873 0.1473 15.3121 41.2170 5.6483
# 6 0.8916 3.4464 27.6985 8.9202 5.6483 29.8178
#
#
#
# Elastic Compliance Matrix: (Units=1/GPa)
#
#
# Indices 1 2 3 4 5 6 
#
# 1 0.048438 0.001110 -0.014805 0.000750 -0.008318 0.013528
# 2 0.001110 0.025633 -0.006367 0.018635 -0.011696 -0.000441
# 3 -0.014805 -0.006367 0.011733 -0.008242 0.007218 -0.008622
# 4 0.000750 0.018635 -0.008242 0.062023 -0.025403 -0.008263
# 5 -0.008318 -0.011696 0.007218 -0.025403 0.037494 -0.004607
# 6 0.013528 -0.000441 -0.008622 -0.008263 -0.004607 0.044537
#
#
# Mechanical properties :
#
#
# Convention : Reuss Voigt Hill
#
# Bulk Modulus (GPa) = 21.89190 55.78891 38.84041
# Shear Modulus (GPa) = 17.53101 33.53591 25.53346
#
# Velocity S-wave (km/s) = 2.74050 3.79037 3.30736
# Velocity P-wave (km/s) = 4.40368 6.56171 5.58786
#
# Compressibility (1/GPa) = 0.04567899
#
# Stress axis : x y z
#
# Youngs Moduli (GPa) = 20.64510 39.01160 85.23193
#
# Poissons Ratio (x) = -0.04328 1.26186
# Poissons Ratio (y) = -0.02291 0.54266
# Poissons Ratio (z) = 0.30565 0.24838
#
# Static dielectric constant tensor:
#      x y z
#    x 1.941070 0.045270 -0.016360 
#    y 0.045270 2.078440 0.068540 
#    z -0.016360 0.068540 1.921450 
# 
# From -- ./inp_files/410557.got.cif
#   From: 2010.05.17/outbox.cif.g08.bks.cpg/sg2_206_cif.got.tgz:410557.got - 2010.06.03 11:33:40.
