data_PCOD9104558
_publ_section_title
;
Structure prediction by ZEFSAII (Michael W. Deem and Ramdas Pophale) SiO2 
 PCOD9104558
Probable space group: P -1
;
_chemical_formula_sum "Si O2"
_cell_formula_units_Z 16
_cell_length_a 9.695438
_cell_length_b 11.455955
_cell_length_c 19.974445
_cell_angle_alpha 146.872763
_cell_angle_beta 141.838437
_cell_angle_gamma 35.719308
_cell_volume 667.365290
_symmetry_space_group_name_H-M "P -1"
_symmetry_group_IT_number 2
_symmetry_cell_setting 'triclinic'
loop_
_space_group_symop_operation_xyz
x,y,z
-x,-y,-z
loop_
_atom_site_type_symbol
_atom_site_label
_atom_site_fract_x
_atom_site_fract_y
_atom_site_fract_z
Si Si1 0.138702 0.506740 0.141858
Si Si2 0.268675 0.472913 0.455725
Si Si3 0.573821 0.043749 0.453388
Si Si4 0.919544 0.822695 0.585075
Si Si5 0.022242 0.841862 0.141569
Si Si6 0.516234 0.659470 0.170943
Si Si7 0.365471 0.322826 0.280688
Si Si8 0.441545 0.231364 0.913693
O O1 0.840020 0.663721 0.115557
O O2 0.192429 0.644582 0.167918
O O3 0.273867 0.462043 0.242908
O O4 0.169185 0.251103 0.002678
O O5 0.491145 0.220035 0.443686
O O6 0.191873 0.440155 0.335989
O O7 0.383667 0.661093 0.593474
O O8 0.065408 0.569698 0.483423
O O9 0.329599 0.140823 0.453994
O O10 0.811987 0.008131 0.570329
O O11 0.626359 0.780908 0.322609
O O12 0.070840 0.907412 0.734926
O O13 0.214792 0.814587 0.142696
O O14 0.580321 0.702890 0.141568
O O15 0.572398 0.384500 0.068559
O O16 0.414567 0.052101 0.159350
#
# Coordination Sequence:
#
# PCOD9104558 Si02
#       8
#     2   2   2   2   2   2   2   2
#     4  10  21  39  64  85 119 161 202 247 304 354
#     4  11  23  38  57  90 126 153 196 249 293 356
#     4  10  20  39  61  89 117 157 200 243 298 361
#     4  10  21  37  63  86 118 161 197 242 303 350
#     4   9  19  40  60  87 120 155 203 255 291 352
#     4   9  19  37  63  84 120 155 195 251 297 345
#     4  11  24  38  60  91 122 159 199 243 301 362
#     4  10  20  40  61  87 121 157 196 251 298 350
#
# _framework density 23.974875000000001
#
# number of rings (size 3 to 8) (size 9 to 14) (size 15 to 20)
#    0.000    2.000    1.250    1.875    1.750    0.000 
#    0.000   27.500    0.000    0.000    0.000    0.000 
#    0.000    0.000    0.000    0.000    0.000    0.000 
#
# Total GULP energy -89346.077945 kJ/mol
# GULP energy per Si atom -5584.129872 kJ/mol
# Density = 2.392031 g / cm^3
# Si number density = 23.974875 Si / 1000 Ang^3
#
#
#
# Elastic Constant Matrix: (Units=GPa)
#
#
# Indices 1 2 3 4 5 6 
#
# 1 88.6049 17.6148 12.9051 4.4969 -24.1373 5.5219
# 2 17.6148 58.1002 29.0203 7.3190 -12.6761 16.4033
# 3 12.9051 29.0203 124.6392 8.8417 -25.2348 -5.7995
# 4 4.4969 7.3190 8.8417 29.6611 7.0874 -6.2863
# 5 -24.1373 -12.6761 -25.2348 7.0874 35.0705 2.9890
# 6 5.5219 16.4033 -5.7995 -6.2863 2.9890 26.3834
#
#
#
# Elastic Compliance Matrix: (Units=1/GPa)
#
#
# Indices 1 2 3 4 5 6 
#
# 1 0.015613 0.000518 0.001331 -0.007662 0.014011 -0.006710
# 2 0.000518 0.031720 -0.004801 -0.015268 0.013675 -0.026072
# 3 0.001331 -0.004801 0.010895 -0.003293 0.007389 0.003479
# 4 -0.007662 -0.015268 -0.003293 0.051157 -0.025670 0.025469
# 5 0.014011 0.013675 0.007389 -0.025670 0.055497 -0.022214
# 6 -0.006710 -0.026072 0.003479 0.025469 -0.022214 0.064867
#
#
# Mechanical properties :
#
#
# Convention : Reuss Voigt Hill
#
# Bulk Modulus (GPa) = 19.11145 43.38050 31.24598
# Shear Modulus (GPa) = 19.75553 32.34327 26.04940
#
# Velocity S-wave (km/s) = 2.87367 3.67692 3.29983
# Velocity P-wave (km/s) = 4.35883 6.01330 5.25163
#
# Compressibility (1/GPa) = 0.05232466
#
# Stress axis : x y z
#
# Youngs Moduli (GPa) = 64.04926 31.52552 91.78906
#
# Poissons Ratio (x) = -0.01634 -0.12214
# Poissons Ratio (y) = -0.03319 0.44064
# Poissons Ratio (z) = -0.08523 0.15134
#
# Static dielectric constant tensor:
#      x y z
#    x 1.954450 0.002380 -0.000540 
#    y 0.002380 1.904960 0.034610 
#    z -0.000540 0.034610 1.947440 
# 
# From -- ./inp_files/70452.got.cif
#   From: 2010.05.17/outbox.cif.g08.bks.cpg/sg2_36_cif.got.tgz:70452.got - 2010.06.03 11:33:40.
