data_PCOD9104088
_publ_section_title
;
Structure prediction by ZEFSAII (Michael W. Deem and Ramdas Pophale) SiO2 
 PCOD9104088
Probable space group: P -1
;
_chemical_formula_sum "Si O2"
_cell_formula_units_Z 16
_cell_length_a 11.576959
_cell_length_b 7.253364
_cell_length_c 16.261134
_cell_angle_alpha 59.623585
_cell_angle_beta 48.970353
_cell_angle_gamma 93.499475
_cell_volume 708.356935
_symmetry_space_group_name_H-M "P -1"
_symmetry_group_IT_number 2
_symmetry_cell_setting 'triclinic'
loop_
_space_group_symop_operation_xyz
x,y,z
-x,-y,-z
loop_
_atom_site_type_symbol
_atom_site_label
_atom_site_fract_x
_atom_site_fract_y
_atom_site_fract_z
Si Si1 0.312358 0.780945 0.337151
Si Si2 0.791283 0.246952 0.188018
Si Si3 0.075235 0.722503 0.317015
Si Si4 0.782766 0.829242 0.973341
Si Si5 0.542453 0.730169 0.730669
Si Si6 0.044596 0.986324 0.576267
Si Si7 0.725211 0.972676 0.127548
Si Si8 0.953278 0.594703 0.835566
O O1 0.228360 0.715049 0.299213
O O2 0.130245 0.566029 0.527503
O O3 0.386722 0.072833 0.268744
O O4 0.497374 0.788562 0.259620
O O5 0.619523 0.262391 0.240961
O O6 0.753792 0.002889 0.205687
O O7 0.832346 0.271090 0.260296
O O8 0.000000 0.500000 0.000000
O O9 0.028846 0.881257 0.364121
O O10 0.159698 0.899875 0.156292
O O11 0.890465 0.735501 0.893882
O O12 0.562091 0.573084 0.123734
O O13 0.814410 0.873088 0.047034
O O14 0.726126 0.841701 0.564194
O O15 0.952609 0.694196 0.723053
O O16 0.000000 0.000000 0.500000
O O17 0.817638 0.276686 0.984927
#
# Coordination Sequence:
#
# PCOD9104088 Si02
#       8
#     2   2   2   2   2   2   2   2
#     4  10  20  39  57  85 124 171 202 256 308 364
#     4   9  18  41  63  89 124 163 199 266 307 358
#     4  10  23  37  59  86 129 164 205 257 305 369
#     4  11  22  37  61  95 118 161 209 256 306 369
#     4  11  21  38  65  89 125 164 205 253 312 365
#     4  11  23  38  61  91 126 166 203 253 312 365
#     4  10  21  37  65  88 122 164 206 254 312 368
#     4  10  22  41  61  93 127 159 209 258 306 366
#
# _framework density 22.587482999999999
#
# number of rings (size 3 to 8) (size 9 to 14) (size 15 to 20)
#    0.000    1.750    5.000    0.750    1.750    3.000 
#    0.000    0.000    0.000    6.750    0.000    0.000 
#    0.000    0.000    0.000    0.000    0.000    0.000 
#
# Total GULP energy -89250.328908 kJ/mol
# GULP energy per Si atom -5578.145557 kJ/mol
# Density = 2.253607 g / cm^3
# Si number density = 22.587483 Si / 1000 Ang^3
#
#
#
# Elastic Constant Matrix: (Units=GPa)
#
#
# Indices 1 2 3 4 5 6 
#
# 1 53.3461 2.6916 24.7507 -5.7025 -7.6876 11.9165
# 2 2.6916 71.5442 6.8003 -4.6549 -1.7609 11.7967
# 3 24.7507 6.8003 66.6540 -25.8586 -5.5616 4.5406
# 4 -5.7025 -4.6549 -25.8586 36.4807 -4.7206 -3.2525
# 5 -7.6876 -1.7609 -5.5616 -4.7206 43.3103 1.1534
# 6 11.9165 11.7967 4.5406 -3.2525 1.1534 23.7933
#
#
#
# Elastic Compliance Matrix: (Units=1/GPa)
#
#
# Indices 1 2 3 4 5 6 
#
# 1 0.026374 0.001954 -0.010221 -0.003581 0.003401 -0.012882
# 2 0.001954 0.015484 -0.001370 0.000708 0.001100 -0.008351
# 3 -0.010221 -0.001370 0.025619 0.017077 0.003199 0.003088
# 4 -0.003581 0.000708 0.017077 0.040107 0.005867 0.003382
# 5 0.003401 0.001100 0.003199 0.005867 0.024875 -0.003263
# 6 -0.012882 -0.008351 0.003088 0.003382 -0.003263 0.052651
#
#
# Mechanical properties :
#
#
# Convention : Reuss Voigt Hill
#
# Bulk Modulus (GPa) = 20.74538 28.89216 24.81877
# Shear Modulus (GPa) = 22.68063 31.20365 26.94214
#
# Velocity S-wave (km/s) = 3.17223 3.72083 3.45743
# Velocity P-wave (km/s) = 4.75624 5.59271 5.19135
#
# Compressibility (1/GPa) = 0.04820350
#
# Stress axis : x y z
#
# Youngs Moduli (GPa) = 37.91644 64.58218 39.03302
#
# Poissons Ratio (x) = -0.12619 0.39895
# Poissons Ratio (y) = -0.07409 0.05348
# Poissons Ratio (z) = 0.38754 0.08848
#
# Static dielectric constant tensor:
#      x y z
#    x 1.927390 0.001690 0.025280 
#    y 0.001690 1.905740 0.013890 
#    z 0.025280 0.013890 1.839080 
# 
# From -- ./inp_files/332431.got.cif
#   From: 2010.05.17/outbox.cif.g08.bks.cpg/sg2_167_cif.got.tgz:332431.got - 2010.06.03 11:33:40.
