data_PCOD9104959
_publ_section_title
;
Structure prediction by ZEFSAII (Michael W. Deem and Ramdas Pophale) SiO2 
 PCOD9104959
Probable space group: P -1
;
_chemical_formula_sum "Si O2"
_cell_formula_units_Z 16
_cell_length_a 14.832822
_cell_length_b 10.729764
_cell_length_c 6.053688
_cell_angle_alpha 103.267807
_cell_angle_beta 49.959532
_cell_angle_gamma 118.905604
_cell_volume 640.934336
_symmetry_space_group_name_H-M "P -1"
_symmetry_group_IT_number 2
_symmetry_cell_setting 'triclinic'
loop_
_space_group_symop_operation_xyz
x,y,z
-x,-y,-z
loop_
_atom_site_type_symbol
_atom_site_label
_atom_site_fract_x
_atom_site_fract_y
_atom_site_fract_z
Si Si1 0.062308 0.147651 0.733622
Si Si2 0.386206 0.902671 0.470328
Si Si3 0.222320 0.611161 0.830921
Si Si4 0.448701 0.589082 0.762625
Si Si5 0.136159 0.916681 0.380520
Si Si6 0.029342 0.347534 0.242332
Si Si7 0.764354 0.587333 0.660109
Si Si8 0.598802 0.883112 0.824186
O O1 0.194064 0.258620 0.445530
O O2 0.943907 0.111296 0.731886
O O3 0.081147 0.004145 0.664549
O O4 0.052236 0.247441 0.983635
O O5 0.267741 0.770707 0.728097
O O6 0.500000 0.000000 0.500000
O O7 0.354530 0.009601 0.415679
O O8 0.460754 0.850865 0.148158
O O9 0.340013 0.621847 0.814144
O O10 0.224567 0.518338 0.579789
O O11 0.078547 0.506653 0.123780
O O12 0.500000 0.500000 0.500000
O O13 0.570092 0.732844 0.706749
O O14 0.376946 0.491602 0.043278
O O15 0.109041 0.764743 0.475084
O O16 0.286928 0.025945 0.148464
O O17 0.132091 0.380853 0.292240
#
# Coordination Sequence:
#
# PCOD9104959 Si02
#       8
#     2   2   2   2   2   2   2   2
#     4   9  19  37  59  84 123 170 197 244 308 373
#     4  11  23  45  63  86 121 170 215 254 302 356
#     4  10  20  39  63  84 116 165 206 243 305 360
#     4  11  23  36  57  96 129 156 197 255 316 373
#     4  10  21  37  55  91 125 157 204 251 306 367
#     4   9  19  35  61  85 117 159 201 247 301 364
#     4   9  19  35  56  86 119 160 198 244 294 366
#     4  11  25  39  63  92 127 163 206 259 303 363
#
# _framework density 24.963556000000001
#
# number of rings (size 3 to 8) (size 9 to 14) (size 15 to 20)
#    0.000    2.000    2.500    0.375    5.250    2.500 
#    0.000    0.625    0.000    7.500    0.000    0.000 
#    0.000    0.000    0.000    0.000    0.000    0.000 
#
# Total GULP energy -89393.820269 kJ/mol
# GULP energy per Si atom -5587.113767 kJ/mol
# Density = 2.490674 g / cm^3
# Si number density = 24.963556 Si / 1000 Ang^3
#
#
#
# Elastic Constant Matrix: (Units=GPa)
#
#
# Indices 1 2 3 4 5 6 
#
# 1 82.9623 38.0953 14.9154 -4.6680 4.4235 28.7632
# 2 38.0953 208.1730 58.8831 -32.8136 3.2020 16.2557
# 3 14.9154 58.8831 55.4846 -15.2233 1.2623 -1.9346
# 4 -4.6680 -32.8136 -15.2233 56.1532 7.3311 13.2411
# 5 4.4235 3.2020 1.2623 7.3311 26.0570 4.3369
# 6 28.7632 16.2557 -1.9346 13.2411 4.3369 34.4216
#
#
#
# Elastic Compliance Matrix: (Units=1/GPa)
#
#
# Indices 1 2 3 4 5 6 
#
# 1 0.019570 -0.000129 -0.004398 0.004841 -0.001423 -0.018222
# 2 -0.000129 0.008062 -0.007581 0.004069 -0.000816 -0.005588
# 3 -0.004398 -0.007581 0.027826 0.000886 -0.001359 0.008650
# 4 0.004841 0.004069 0.000886 0.025103 -0.005960 -0.014823
# 5 -0.001423 -0.000816 -0.001359 -0.005960 0.040684 -0.001335
# 6 -0.018222 -0.005588 0.008650 -0.014823 -0.001335 0.053273
#
#
# Mechanical properties :
#
#
# Convention : Reuss Voigt Hill
#
# Bulk Modulus (GPa) = 32.00905 63.37862 47.69384
# Shear Modulus (GPa) = 23.90653 38.97478 31.44066
#
# Velocity S-wave (km/s) = 3.09796 3.95557 3.55274
# Velocity P-wave (km/s) = 5.06425 6.80483 5.99801
#
# Compressibility (1/GPa) = 0.03124116
#
# Stress axis : x y z
#
# Youngs Moduli (GPa) = 51.09971 124.03912 35.93755
#
# Poissons Ratio (x) = 0.01602 0.15806
# Poissons Ratio (y) = 0.00660 0.27243
# Poissons Ratio (z) = 0.22475 0.94031
#
# Static dielectric constant tensor:
#      x y z
#    x 1.978460 -0.015100 0.009540 
#    y -0.015100 1.970310 -0.026110 
#    z 0.009540 -0.026110 2.007950 
# 
# From -- ./inp_files/70668.got.cif
#   From: 2010.05.17/outbox.cif.g08.bks.cpg/sg2_36_cif.got.tgz:70668.got - 2010.06.03 11:33:40.
