data_PCOD9104529
_publ_section_title
;
Structure prediction by ZEFSAII (Michael W. Deem and Ramdas Pophale) SiO2 
 PCOD9104529
Probable space group: P -1
;
_chemical_formula_sum "Si O2"
_cell_formula_units_Z 16
_cell_length_a 11.266369
_cell_length_b 11.690097
_cell_length_c 13.351973
_cell_angle_alpha 113.077858
_cell_angle_beta 39.759497
_cell_angle_gamma 138.407178
_cell_volume 673.740382
_symmetry_space_group_name_H-M "P -1"
_symmetry_group_IT_number 2
_symmetry_cell_setting 'triclinic'
loop_
_space_group_symop_operation_xyz
x,y,z
-x,-y,-z
loop_
_atom_site_type_symbol
_atom_site_label
_atom_site_fract_x
_atom_site_fract_y
_atom_site_fract_z
Si Si1 0.282243 0.150458 0.433207
Si Si2 0.124852 0.568996 0.105952
Si Si3 0.816536 0.874777 0.274117
Si Si4 0.882879 0.576291 0.634973
Si Si5 0.312789 0.774566 0.587818
Si Si6 0.436408 0.226967 0.927958
Si Si7 0.809216 0.578185 0.173312
Si Si8 0.627109 0.064157 0.657440
O O1 0.197856 0.113972 0.592342
O O2 0.504631 0.371344 0.338815
O O3 0.424611 0.087798 0.300094
O O4 0.000000 0.000000 0.500000
O O5 0.850167 0.405359 0.296804
O O6 0.051135 0.657444 0.123503
O O7 0.391811 0.691273 0.049589
O O8 0.138771 0.468434 0.979495
O O9 0.540260 0.807431 0.391588
O O10 0.803781 0.721839 0.210934
O O11 0.105746 0.076052 0.111147
O O12 0.062428 0.703280 0.660405
O O13 0.029488 0.740159 0.513949
O O14 0.000000 0.500000 0.500000
O O15 0.569745 0.394372 0.820135
O O16 0.473038 0.954535 0.614784
O O17 0.496256 0.120574 0.807831
#
# Coordination Sequence:
#
# PCOD9104529 Si02
#       8
#     2   2   2   2   2   2   2   2
#     4  11  24  38  57  91 127 154 197 242 299 350
#     4  10  21  37  58  83 119 158 206 240 281 359
#     4  11  23  37  58  89 124 155 193 244 305 348
#     4   9  20  39  64  87 112 153 205 246 293 353
#     4  10  20  39  61  88 118 154 196 249 301 352
#     4  10  22  38  60  90 117 151 204 246 296 348
#     4  11  22  37  57  84 122 161 203 235 293 354
#     4  10  20  39  62  87 113 160 202 240 290 358
#
# _framework density 23.748021000000001
#
# number of rings (size 3 to 8) (size 9 to 14) (size 15 to 20)
#    0.000    1.750    2.500    2.250    3.500    2.500 
#    0.000    5.000    0.000    6.000    0.000    0.000 
#    0.000    0.000    0.000    0.000    0.000    0.000 
#
# Total GULP energy -89431.509020 kJ/mol
# GULP energy per Si atom -5589.469314 kJ/mol
# Density = 2.369397 g / cm^3
# Si number density = 23.748021 Si / 1000 Ang^3
#
#
#
# Elastic Constant Matrix: (Units=GPa)
#
#
# Indices 1 2 3 4 5 6 
#
# 1 35.1017 12.2760 8.1146 6.9171 1.8384 -6.8335
# 2 12.2760 73.2464 27.1839 -10.8242 -1.3506 -10.1093
# 3 8.1146 27.1839 140.0538 -35.1594 0.1446 -5.3563
# 4 6.9171 -10.8242 -35.1594 49.4054 -5.4049 5.4003
# 5 1.8384 -1.3506 0.1446 -5.4049 16.8933 8.7777
# 6 -6.8335 -10.1093 -5.3563 5.4003 8.7777 25.6934
#
#
#
# Elastic Compliance Matrix: (Units=1/GPa)
#
#
# Indices 1 2 3 4 5 6 
#
# 1 0.037394 -0.004888 -0.003736 -0.012458 -0.016460 0.015485
# 2 -0.004888 0.016156 -0.002113 0.002351 0.000549 0.003935
# 3 -0.003736 -0.002113 0.009568 0.007621 0.004059 -0.002819
# 4 -0.012458 0.002351 0.007621 0.031483 0.018730 -0.013816
# 5 -0.016460 0.000549 0.004059 0.018730 0.086027 -0.036642
# 6 0.015485 0.003935 -0.002819 -0.013816 -0.036642 0.059421
#
#
# Mechanical properties :
#
#
# Convention : Reuss Voigt Hill
#
# Bulk Modulus (GPa) = 24.01288 38.17233 31.09260
# Shear Modulus (GPa) = 18.15516 31.78691 24.97103
#
# Velocity S-wave (km/s) = 2.76794 3.66253 3.24620
# Velocity P-wave (km/s) = 4.51097 5.83046 5.21264
#
# Compressibility (1/GPa) = 0.04164432
#
# Stress axis : x y z
#
# Youngs Moduli (GPa) = 26.74261 61.89501 104.51552
#
# Poissons Ratio (x) = 0.30253 0.39049
# Poissons Ratio (y) = 0.13071 0.22081
# Poissons Ratio (z) = 0.09992 0.13077
#
# Static dielectric constant tensor:
#      x y z
#    x 1.955860 -0.000060 0.030250 
#    y -0.000060 1.895930 -0.033660 
#    z 0.030250 -0.033660 1.914820 
# 
# From -- ./inp_files/188691.got.cif
#   From: 2010.05.17/outbox.cif.g08.bks.cpg/sg2_95_cif.got.tgz:188691.got - 2010.06.03 11:33:40.
