data_PCOD9104750
_publ_section_title
;
Structure prediction by ZEFSAII (Michael W. Deem and Ramdas Pophale) SiO2 
 PCOD9104750
Probable space group: P -1
;
_chemical_formula_sum "Si O2"
_cell_formula_units_Z 16
_cell_length_a 7.501469
_cell_length_b 9.111661
_cell_length_c 14.671537
_cell_angle_alpha 111.416701
_cell_angle_beta 86.591939
_cell_angle_gamma 128.571130
_cell_volume 710.134107
_symmetry_space_group_name_H-M "P -1"
_symmetry_group_IT_number 2
_symmetry_cell_setting 'triclinic'
loop_
_space_group_symop_operation_xyz
x,y,z
-x,-y,-z
loop_
_atom_site_type_symbol
_atom_site_label
_atom_site_fract_x
_atom_site_fract_y
_atom_site_fract_z
Si Si1 0.638027 0.339039 0.930002
Si Si2 0.839671 0.801252 0.073533
Si Si3 0.967661 0.804288 0.269494
Si Si4 0.090432 0.519979 0.220343
Si Si5 0.793823 0.668768 0.426552
Si Si6 0.776995 0.150071 0.013995
Si Si7 0.433991 0.219704 0.406266
Si Si8 0.826762 0.341038 0.548781
O O1 0.365963 0.190211 0.935308
O O2 0.683385 0.346565 0.822307
O O3 0.214181 0.710454 0.034460
O O4 0.734028 0.568029 0.001578
O O5 0.880280 0.829336 0.185897
O O6 0.092752 0.931478 0.046797
O O7 0.955767 0.607892 0.227445
O O8 0.808492 0.762846 0.350882
O O9 0.241699 0.003698 0.315211
O O10 0.153481 0.549427 0.332372
O O11 0.919982 0.290270 0.130596
O O12 0.617494 0.417179 0.379796
O O13 0.711487 0.729992 0.524711
O O14 0.059846 0.761523 0.453706
O O15 0.500000 0.000000 0.000000
O O16 0.579209 0.210094 0.477093
O O17 0.000000 0.500000 0.500000
#
# Coordination Sequence:
#
# PCOD9104750 Si02
#       8
#     2   2   2   2   2   2   2   2
#     4  10  20  41  61  86 120 156 201 250 300 367
#     4  10  21  38  62  88 118 154 202 249 299 370
#     4  11  20  37  62  89 117 159 203 243 306 366
#     4  10  20  39  62  88 117 161 203 242 305 361
#     4   9  21  38  56  82 119 157 199 253 292 355
#     4  11  22  40  63  89 126 156 196 259 310 364
#     4  10  21  39  57  83 122 159 199 252 302 348
#     4   9  20  38  58  85 121 157 197 245 296 358
#
# _framework density 22.530957000000001
#
# number of rings (size 3 to 8) (size 9 to 14) (size 15 to 20)
#    0.000    2.000    2.500    1.125    1.750    5.500 
#    2.250    2.500    0.000    0.000    0.000    0.000 
#    0.000    0.000    0.000    0.000    0.000    0.000 
#
# Total GULP energy -89227.368386 kJ/mol
# GULP energy per Si atom -5576.710524 kJ/mol
# Density = 2.247968 g / cm^3
# Si number density = 22.530957 Si / 1000 Ang^3
#
#
#
# Elastic Constant Matrix: (Units=GPa)
#
#
# Indices 1 2 3 4 5 6 
#
# 1 97.3264 9.3302 23.2228 -9.2934 5.3940 22.7057
# 2 9.3302 75.7307 19.9292 -20.7924 -8.4350 24.8681
# 3 23.2228 19.9292 101.4290 -21.0629 9.5946 12.3581
# 4 -9.2934 -20.7924 -21.0629 22.7035 -3.5723 -7.3698
# 5 5.3940 -8.4350 9.5946 -3.5723 18.1244 -3.9833
# 6 22.7057 24.8681 12.3581 -7.3698 -3.9833 29.9825
#
#
#
# Elastic Compliance Matrix: (Units=1/GPa)
#
#
# Indices 1 2 3 4 5 6 
#
# 1 0.013591 0.002799 -0.001306 0.002330 -0.004243 -0.012066
# 2 0.002799 0.025203 -0.000485 0.020310 0.011575 -0.016294
# 3 -0.001306 -0.000485 0.013020 0.009489 -0.005377 -0.002357
# 4 0.002330 0.020310 0.009489 0.074673 0.018065 -0.001766
# 5 -0.004243 0.011575 -0.005377 0.018065 0.070345 0.009615
# 6 -0.012066 -0.016294 -0.002357 -0.001766 0.009615 0.057820
#
#
# Mechanical properties :
#
#
# Convention : Reuss Voigt Hill
#
# Bulk Modulus (GPa) = 18.57741 42.16115 30.36928
# Shear Modulus (GPa) = 18.47890 28.96233 23.72061
#
# Velocity S-wave (km/s) = 2.86694 3.58920 3.24821
# Velocity P-wave (km/s) = 4.38433 5.99413 5.25129
#
# Compressibility (1/GPa) = 0.05382882
#
# Stress axis : x y z
#
# Youngs Moduli (GPa) = 73.57973 39.67706 76.80621
#
# Poissons Ratio (x) = -0.11104 0.10032
# Poissons Ratio (y) = -0.20592 0.03725
# Poissons Ratio (z) = 0.09611 0.01924
#
# Static dielectric constant tensor:
#      x y z
#    x 1.860330 -0.018130 -0.001920 
#    y -0.018130 1.975870 -0.011380 
#    z -0.001920 -0.011380 1.875800 
# 
# From -- ./inp_files/498125.got.cif
#   From: 2010.05.17/outbox.cif.g08.bks.cpg/sg2_250_cif.got.tgz:498125.got - 2010.06.03 11:33:40.
