data_PCOD9104958
_publ_section_title
;
Structure prediction by ZEFSAII (Michael W. Deem and Ramdas Pophale) SiO2 
 PCOD9104958
Probable space group: P -1
;
_chemical_formula_sum "Si O2"
_cell_formula_units_Z 14
_cell_length_a 9.407667
_cell_length_b 11.518235
_cell_length_c 7.459765
_cell_angle_alpha 113.029315
_cell_angle_beta 73.645813
_cell_angle_gamma 120.846191
_cell_volume 635.323655
_symmetry_space_group_name_H-M "P -1"
_symmetry_group_IT_number 2
_symmetry_cell_setting 'triclinic'
loop_
_space_group_symop_operation_xyz
x,y,z
-x,-y,-z
loop_
_atom_site_type_symbol
_atom_site_label
_atom_site_fract_x
_atom_site_fract_y
_atom_site_fract_z
Si Si1 0.138083 0.454880 0.986754
Si Si2 0.175303 0.507016 0.423172
Si Si3 0.487863 0.633442 0.983728
Si Si4 0.660942 0.650587 0.579090
Si Si5 0.583247 0.205162 0.569259
Si Si6 0.230496 0.966308 0.499263
Si Si7 0.899263 0.838290 0.306601
O O1 0.311608 0.560409 0.899113
O O2 0.103501 0.294564 0.875100
O O3 0.182552 0.486352 0.197278
O O4 0.000000 0.500000 0.000000
O O5 0.189102 0.387540 0.458147
O O6 0.330518 0.657161 0.501702
O O7 0.000000 0.500000 0.500000
O O8 0.620730 0.697158 0.814930
O O9 0.500000 0.500000 0.000000
O O10 0.479863 0.743790 0.198670
O O11 0.500000 0.500000 0.500000
O O12 0.745992 0.765300 0.461842
O O13 0.423622 0.078010 0.460938
O O14 0.731799 0.161816 0.527297
O O15 0.152054 0.048993 0.700595
O O16 0.085435 0.913613 0.369149
#
# Coordination Sequence:
#
# PCOD9104958 Si02
#       7
#     2   2   2   2   2   2   2
#     4  11  21  37  62  91 124 153 193 252 314 353
#     4  11  23  38  63  97 122 148 197 264 315 348
#     4  11  20  38  62  93 120 155 195 255 314 358
#     4  12  22  36  62  96 124 149 197 260 311 356
#     4  10  20  39  63  84 116 163 204 237 303 358
#     4  10  22  39  62  78 120 171 205 234 280 375
#     4  11  22  39  61  89 119 161 204 239 301 358
#
# _framework density 22.036011999999999
#
# number of rings (size 3 to 8) (size 9 to 14) (size 15 to 20)
#    0.000    1.143    4.286    5.143    0.000    0.000 
#    0.000    1.429   12.571    0.000    0.000    0.000 
#    0.000    0.000    0.000    0.000    0.000    0.000 
#
# Total GULP energy -77956.231400 kJ/mol
# GULP energy per Si atom -5568.302243 kJ/mol
# Density = 2.198586 g / cm^3
# Si number density = 22.036012 Si / 1000 Ang^3
#
#
#
# Elastic Constant Matrix: (Units=GPa)
#
#
# Indices 1 2 3 4 5 6 
#
# 1 141.8506 12.9003 9.6402 9.9306 -25.7084 -6.9803
# 2 12.9003 47.1228 30.0243 17.1830 -2.7959 2.6615
# 3 9.6402 30.0243 57.3586 2.4116 -17.5992 1.4172
# 4 9.9306 17.1830 2.4116 27.3538 -0.4259 -0.2415
# 5 -25.7084 -2.7959 -17.5992 -0.4259 36.0700 12.8898
# 6 -6.9803 2.6615 1.4172 -0.2415 12.8898 56.6169
#
#
#
# Elastic Compliance Matrix: (Units=1/GPa)
#
#
# Indices 1 2 3 4 5 6 
#
# 1 0.008520 -0.002851 0.002326 -0.001401 0.007151 -0.000508
# 2 -0.002851 0.048958 -0.027817 -0.027453 -0.012402 0.000750
# 3 0.002326 -0.027817 0.036940 0.013637 0.018969 -0.003591
# 4 -0.001401 -0.027453 0.013637 0.053174 0.004133 0.000062
# 5 0.007151 -0.012402 0.018969 0.004133 0.044418 -0.009105
# 6 -0.000508 0.000750 -0.003591 0.000062 -0.009105 0.019728
#
#
# Mechanical properties :
#
#
# Convention : Reuss Voigt Hill
#
# Bulk Modulus (GPa) = 26.50151 39.05131 32.77641
# Shear Modulus (GPa) = 17.79365 36.92596 27.35980
#
# Velocity S-wave (km/s) = 2.84470 4.09798 3.52745
# Velocity P-wave (km/s) = 4.77937 6.33651 5.61221
#
# Compressibility (1/GPa) = 0.03773370
#
# Stress axis : x y z
#
# Youngs Moduli (GPa) = 117.37096 20.42578 27.07104
#
# Poissons Ratio (x) = 0.05823 -0.06297
# Poissons Ratio (y) = 0.33459 0.75304
# Poissons Ratio (z) = -0.27300 0.56819
#
# Static dielectric constant tensor:
#      x y z
#    x 1.754830 -0.026460 0.114170 
#    y -0.026460 1.892990 0.047600 
#    z 0.114170 0.047600 1.790950 
# 
# From -- ./inp_files/182282.got.cif
#   From: 2010.05.17/outbox.cif.g08.bks.cpg/sg2_92_cif.got.tgz:182282.got - 2010.06.03 11:33:40.
