data_PCOD9104501
_publ_section_title
;
Structure prediction by ZEFSAII (Michael W. Deem and Ramdas Pophale) SiO2 
 PCOD9104501
Probable space group: P -1
;
_chemical_formula_sum "Si O2"
_cell_formula_units_Z 14
_cell_length_a 22.107355
_cell_length_b 9.038082
_cell_length_c 8.567573
_cell_angle_alpha 77.521700
_cell_angle_beta 76.492620
_cell_angle_gamma 142.590957
_cell_volume 741.541576
_symmetry_space_group_name_H-M "P -1"
_symmetry_group_IT_number 2
_symmetry_cell_setting 'triclinic'
loop_
_space_group_symop_operation_xyz
x,y,z
-x,-y,-z
loop_
_atom_site_type_symbol
_atom_site_label
_atom_site_fract_x
_atom_site_fract_y
_atom_site_fract_z
Si Si1 0.372245 0.129327 0.719634
Si Si2 0.058539 0.752496 0.525151
Si Si3 0.782415 0.315464 0.810912
Si Si4 0.849703 0.769518 0.836040
Si Si5 0.351333 0.751581 0.665199
Si Si6 0.145891 0.449078 0.625500
Si Si7 0.121965 0.697047 0.780788
O O1 0.500000 0.500000 0.500000
O O2 0.373295 0.964808 0.679872
O O3 0.246900 0.948430 0.763120
O O4 0.340215 0.031565 0.944182
O O5 0.142525 0.854984 0.587293
O O6 0.000000 0.500000 0.500000
O O7 0.923481 0.539780 0.723059
O O8 0.137726 0.050197 0.311350
O O9 0.798797 0.522261 0.814960
O O10 0.783530 0.323155 0.621364
O O11 0.743778 0.550070 0.091326
O O12 0.003073 0.067802 0.739575
O O13 0.255293 0.576334 0.612434
O O14 0.500000 0.000000 0.500000
O O15 0.101948 0.487476 0.762724
O O16 0.000000 0.500000 0.000000
#
# Coordination Sequence:
#
# PCOD9104501 Si02
#       7
#     2   2   2   2   2   2   2
#     4  10  23  42  57  83 120 157 195 240 290 342
#     4  11  19  35  60  91 118 146 193 242 290 345
#     4  10  20  39  61  86 122 148 191 246 289 344
#     4  10  21  39  61  87 119 151 190 243 295 341
#     4  10  23  42  57  82 119 156 198 238 288 349
#     4  10  20  39  63  88 116 153 195 241 293 343
#     4  11  21  36  61  91 120 151 193 242 291 346
#
# _framework density 18.87959
#
# number of rings (size 3 to 8) (size 9 to 14) (size 15 to 20)
#    0.000    1.714    4.286    2.143    0.000    2.286 
#   10.286    2.857    0.000    0.000    0.000    0.000 
#    0.000    0.000    0.000    0.000    0.000    0.000 
#
# Total GULP energy -78079.814951 kJ/mol
# GULP energy per Si atom -5577.129639 kJ/mol
# Density = 1.883662 g / cm^3
# Si number density = 18.879590 Si / 1000 Ang^3
#
#
#
# Elastic Constant Matrix: (Units=GPa)
#
#
# Indices 1 2 3 4 5 6 
#
# 1 115.1807 20.6869 62.5226 -4.2401 0.9526 13.7941
# 2 20.6869 41.9387 44.3606 2.4755 8.2114 2.8734
# 3 62.5226 44.3606 161.9997 -10.4963 14.4650 8.9961
# 4 -4.2401 2.4755 -10.4963 26.3721 -3.2394 5.4180
# 5 0.9526 8.2114 14.4650 -3.2394 35.2175 -7.8524
# 6 13.7941 2.8734 8.9961 5.4180 -7.8524 25.8614
#
#
#
# Elastic Compliance Matrix: (Units=1/GPa)
#
#
# Indices 1 2 3 4 5 6 
#
# 1 0.011640 -0.001717 -0.003706 0.001641 0.000673 -0.004868
# 2 -0.001717 0.035955 -0.009249 -0.008022 -0.005224 0.000233
# 3 -0.003706 -0.009249 0.010785 0.004787 -0.002277 -0.002442
# 4 0.001641 -0.008022 0.004787 0.043130 0.001550 -0.010214
# 5 0.000673 -0.005224 -0.002277 0.001550 0.033065 0.010728
# 6 -0.004868 0.000233 -0.002442 -0.010214 0.010728 0.047485
#
#
# Mechanical properties :
#
#
# Convention : Reuss Voigt Hill
#
# Bulk Modulus (GPa) = 34.44007 63.80660 49.12333
# Shear Modulus (GPa) = 22.61619 30.26013 26.43816
#
# Velocity S-wave (km/s) = 3.46485 4.00784 3.74619
# Velocity P-wave (km/s) = 5.85563 7.43552 6.69236
#
# Compressibility (1/GPa) = 0.02903595
#
# Stress axis : x y z
#
# Youngs Moduli (GPa) = 85.91312 27.81259 92.72377
#
# Poissons Ratio (x) = 0.04775 0.34359
# Poissons Ratio (y) = 0.14751 0.85762
# Poissons Ratio (z) = 0.31836 0.25724
#
# Static dielectric constant tensor:
#      x y z
#    x 1.664210 -0.006840 0.005630 
#    y -0.006840 1.662100 0.018720 
#    z 0.005630 0.018720 1.707790 
# 
# From -- ./inp_files/154095.got.cif
#   From: 2010.05.17/outbox.cif.g08.bks.cpg/sg2_78_cif.got.tgz:154095.got - 2010.06.03 11:33:40.
