data_PCOD9104196
_publ_section_title
;
Structure prediction by ZEFSAII (Michael W. Deem and Ramdas Pophale) SiO2 
 PCOD9104196
Probable space group: P -1
;
_chemical_formula_sum "Si O2"
_cell_formula_units_Z 16
_cell_length_a 23.660222
_cell_length_b 19.735042
_cell_length_c 9.206159
_cell_angle_alpha 43.155066
_cell_angle_beta 139.567061
_cell_angle_gamma 164.814092
_cell_volume 729.980051
_symmetry_space_group_name_H-M "P -1"
_symmetry_group_IT_number 2
_symmetry_cell_setting 'triclinic'
loop_
_space_group_symop_operation_xyz
x,y,z
-x,-y,-z
loop_
_atom_site_type_symbol
_atom_site_label
_atom_site_fract_x
_atom_site_fract_y
_atom_site_fract_z
Si Si1 0.553626 0.065903 0.332977
Si Si2 0.160528 0.770969 0.030584
Si Si3 0.087408 0.293956 0.875632
Si Si4 0.270039 0.309149 0.046844
Si Si5 0.476753 0.829832 0.304844
Si Si6 0.447671 0.314898 0.263575
Si Si7 0.014683 0.639302 0.648240
Si Si8 0.867894 0.514266 0.090950
O O1 0.419944 0.027294 0.093298
O O2 0.470233 0.887569 0.349314
O O3 0.500000 0.000000 0.500000
O O4 0.806707 0.361709 0.320164
O O5 0.083220 0.574687 0.201946
O O6 0.114893 0.768982 0.100663
O O7 0.038519 0.696063 0.774727
O O8 0.259792 0.388360 0.017090
O O9 0.147540 0.402282 0.979136
O O10 0.096406 0.392499 0.618785
O O11 0.818305 0.979477 0.846203
O O12 0.382456 0.466426 0.870583
O O13 0.412138 0.355550 0.263700
O O14 0.000000 0.000000 0.000000
O O15 0.455127 0.690027 0.500625
O O16 0.732247 0.110749 0.307847
O O17 0.296225 0.673743 0.075032
#
# Coordination Sequence:
#
# PCOD9104196 Si02
#       8
#     2   2   2   2   2   2   2   2
#     4  12  26  39  60  89 128 173 214 256 298 353
#     4  11  23  36  57  82 123 170 207 252 300 346
#     4  10  23  37  63  93 123 160 205 258 302 369
#     4   9  19  41  67  96 118 147 204 257 316 372
#     4  11  22  42  61  90 126 167 211 255 306 366
#     4   9  21  39  68  91 118 158 202 255 312 375
#     4  10  20  39  59  83 118 169 212 249 295 359
#     4  12  25  39  57  93 133 164 211 255 298 362
#
# _framework density 21.918406000000001
#
# number of rings (size 3 to 8) (size 9 to 14) (size 15 to 20)
#    0.000    1.500    2.500    2.625    8.750    1.000 
#    0.000    0.625    0.000    6.750    0.000    0.000 
#    0.000    0.000    0.000    0.000    0.000    0.000 
#
# Total GULP energy -89206.803400 kJ/mol
# GULP energy per Si atom -5575.425212 kJ/mol
# Density = 2.186852 g / cm^3
# Si number density = 21.918406 Si / 1000 Ang^3
#
#
#
# Elastic Constant Matrix: (Units=GPa)
#
#
# Indices 1 2 3 4 5 6 
#
# 1 223.1685 24.4761 56.6542 -0.5827 2.7934 11.4590
# 2 24.4761 54.3239 18.1176 -11.7126 -1.3521 12.8756
# 3 56.6542 18.1176 51.2601 -7.7973 -1.8249 0.8082
# 4 -0.5827 -11.7126 -7.7973 24.4809 3.8957 -6.5436
# 5 2.7934 -1.3521 -1.8249 3.8957 37.3383 -3.6591
# 6 11.4590 12.8756 0.8082 -6.5436 -3.6591 32.1900
#
#
#
# Elastic Compliance Matrix: (Units=1/GPa)
#
#
# Indices 1 2 3 4 5 6 
#
# 1 0.006597 -0.000496 -0.007571 -0.003077 -0.000823 -0.002679
# 2 -0.000496 0.024403 -0.006844 0.007502 -0.000980 -0.007999
# 3 -0.007571 -0.006844 0.031474 0.008035 0.001652 0.006464
# 4 -0.003077 0.007502 0.008035 0.049504 -0.003530 0.007555
# 5 -0.000823 -0.000980 0.001652 -0.003530 0.027557 0.003058
# 6 -0.002679 -0.007999 0.006464 0.007555 0.003058 0.036940
#
#
# Mechanical properties :
#
#
# Convention : Reuss Voigt Hill
#
# Bulk Modulus (GPa) = 30.62660 58.58312 44.60486
# Shear Modulus (GPa) = 23.02200 34.10213 28.56207
#
# Velocity S-wave (km/s) = 3.24443 3.94873 3.61378
# Velocity P-wave (km/s) = 5.29513 6.89752 6.14875
#
# Compressibility (1/GPa) = 0.03265135
#
# Stress axis : x y z
#
# Youngs Moduli (GPa) = 151.57941 40.97807 31.77186
#
# Poissons Ratio (x) = 0.02034 0.24055
# Poissons Ratio (y) = 0.07523 0.21746
# Poissons Ratio (z) = 1.14763 0.28047
#
# Static dielectric constant tensor:
#      x y z
#    x 1.837800 0.019070 0.013160 
#    y 0.019070 1.932580 0.021480 
#    z 0.013160 0.021480 1.830600 
# 
# From -- ./inp_files/203359.got.cif
#   From: 2010.05.17/outbox.cif.g08.bks.cpg/sg2_102_cif.got.tgz:203359.got - 2010.06.03 11:33:40.
