data_PCOD9104857
_publ_section_title
;
Structure prediction by ZEFSAII (Michael W. Deem and Ramdas Pophale) SiO2 
 PCOD9104857
Probable space group: P -1
;
_chemical_formula_sum "Si O2"
_cell_formula_units_Z 16
_cell_length_a 17.711862
_cell_length_b 7.774112
_cell_length_c 10.939312
_cell_angle_alpha 95.788009
_cell_angle_beta 137.616806
_cell_angle_gamma 51.731614
_cell_volume 588.999270
_symmetry_space_group_name_H-M "P -1"
_symmetry_group_IT_number 2
_symmetry_cell_setting 'triclinic'
loop_
_space_group_symop_operation_xyz
x,y,z
-x,-y,-z
loop_
_atom_site_type_symbol
_atom_site_label
_atom_site_fract_x
_atom_site_fract_y
_atom_site_fract_z
Si Si1 0.721372 0.350234 0.706761
Si Si2 0.531638 0.010108 0.249948
Si Si3 0.671347 0.007126 0.655718
Si Si4 0.678122 0.220543 0.073941
Si Si5 0.708424 0.465142 0.293065
Si Si6 0.829201 0.743769 0.071819
Si Si7 0.810076 0.884477 0.453382
Si Si8 0.985424 0.007506 0.777718
O O1 0.706730 0.159890 0.661957
O O2 0.530123 0.702495 0.495147
O O3 0.865910 0.230669 0.766335
O O4 0.802804 0.271907 0.935633
O O5 0.611898 0.765121 0.234192
O O6 0.601606 0.093112 0.268855
O O7 0.636486 0.917090 0.497969
O O8 0.319261 0.209878 0.043847
O O9 0.821847 0.746277 0.916015
O O10 0.735018 0.345600 0.183640
O O11 0.741749 0.042721 0.016846
O O12 0.782613 0.976146 0.287952
O O13 0.449107 0.471215 0.831558
O O14 0.909439 0.206207 0.584826
O O15 0.035689 0.458793 0.359455
O O16 0.909055 0.914223 0.647719
#
# Coordination Sequence:
#
# PCOD9104857 Si02
#       8
#     2   2   2   2   2   2   2   2
#     4  10  21  37  62  89 128 167 208 252 315 384
#     4  11  23  41  64  98 125 167 207 262 318 372
#     4  11  23  40  60  96 129 167 204 257 323 376
#     4   9  20  43  64  91 124 171 210 259 311 368
#     4   9  20  37  67  89 123 164 210 257 314 364
#     4  11  24  40  65  93 133 165 208 264 309 375
#     4  11  23  40  67  93 127 166 214 260 314 369
#     4  10  20  39  62  92 123 168 207 260 308 376
#
# _framework density 27.164719999999999
#
# number of rings (size 3 to 8) (size 9 to 14) (size 15 to 20)
#    0.000    1.750    1.250    3.000    1.750    4.500 
#    0.000    0.625    2.750    0.000    0.000    0.000 
#    0.000    0.000    0.000    0.000    0.000    0.000 
#
# Total GULP energy -89474.486302 kJ/mol
# GULP energy per Si atom -5592.155394 kJ/mol
# Density = 2.710289 g / cm^3
# Si number density = 27.164720 Si / 1000 Ang^3
#
#
#
# Elastic Constant Matrix: (Units=GPa)
#
#
# Indices 1 2 3 4 5 6 
#
# 1 70.5727 23.5733 23.3988 4.8928 5.2541 10.9432
# 2 23.5733 84.4948 47.2796 16.1380 -10.2119 6.2511
# 3 23.3988 47.2796 150.8364 10.3259 -12.8424 -4.2169
# 4 4.8928 16.1380 10.3259 48.9216 4.4843 3.9993
# 5 5.2541 -10.2119 -12.8424 4.4843 38.8399 7.4870
# 6 10.9432 6.2511 -4.2169 3.9993 7.4870 35.5487
#
#
#
# Elastic Compliance Matrix: (Units=1/GPa)
#
#
# Indices 1 2 3 4 5 6 
#
# 1 0.016913 -0.003888 -0.001834 0.000609 -0.003189 -0.004137
# 2 -0.003888 0.016800 -0.004034 -0.004507 0.004652 -0.002709
# 3 -0.001834 -0.004034 0.008414 -0.000576 0.001653 0.001989
# 4 0.000609 -0.004507 -0.000576 0.022435 -0.003820 -0.001183
# 5 -0.003189 0.004652 0.001653 -0.003820 0.029431 -0.005409
# 6 -0.004137 -0.002709 0.001989 -0.001183 -0.005409 0.031388
#
#
# Mechanical properties :
#
#
# Convention : Reuss Voigt Hill
#
# Bulk Modulus (GPa) = 44.21653 54.93415 49.57534
# Shear Modulus (GPa) = 32.80106 38.77216 35.78661
#
# Velocity S-wave (km/s) = 3.47866 3.78206 3.63353
# Velocity P-wave (km/s) = 5.69625 6.27204 5.99107
#
# Compressibility (1/GPa) = 0.02261598
#
# Stress axis : x y z
#
# Youngs Moduli (GPa) = 59.12491 59.52222 118.84383
#
# Poissons Ratio (x) = 0.23143 0.21794
# Poissons Ratio (y) = 0.22989 0.47942
# Poissons Ratio (z) = 0.10843 0.24012
#
# Static dielectric constant tensor:
#      x y z
#    x 2.214740 0.006570 -0.013060 
#    y 0.006570 2.166790 -0.014050 
#    z -0.013060 -0.014050 2.087900 
# 
# From -- ./inp_files/202192.got.cif
#   From: 2010.05.17/outbox.cif.g08.bks.cpg/sg2_102_cif.got.tgz:202192.got - 2010.06.03 11:33:40.
