data_PCOD9104068
_publ_section_title
;
Structure prediction by ZEFSAII (Michael W. Deem and Ramdas Pophale) SiO2 
 PCOD9104068
Probable space group: P -1
;
_chemical_formula_sum "Si O2"
_cell_formula_units_Z 16
_cell_length_a 9.135085
_cell_length_b 21.640614
_cell_length_c 12.413514
_cell_angle_alpha 27.600034
_cell_angle_beta 47.242433
_cell_angle_gamma 55.329883
_cell_volume 830.888214
_symmetry_space_group_name_H-M "P -1"
_symmetry_group_IT_number 2
_symmetry_cell_setting 'triclinic'
loop_
_space_group_symop_operation_xyz
x,y,z
-x,-y,-z
loop_
_atom_site_type_symbol
_atom_site_label
_atom_site_fract_x
_atom_site_fract_y
_atom_site_fract_z
Si Si1 0.222861 0.765221 0.906180
Si Si2 0.672345 0.182991 0.998691
Si Si3 0.163228 0.105808 0.060956
Si Si4 0.299236 0.573716 0.970022
Si Si5 0.070126 0.050080 0.767496
Si Si6 0.632868 0.991733 0.694866
Si Si7 0.072930 0.302028 0.496374
Si Si8 0.437907 0.201824 0.607549
O O1 0.246723 0.647485 0.992302
O O2 0.296075 0.903932 0.594964
O O3 0.994258 0.783670 0.023686
O O4 0.342338 0.751137 0.979129
O O5 0.854321 0.262359 0.718666
O O6 0.742047 0.033785 0.218206
O O7 0.473714 0.145793 0.087411
O O8 0.192767 0.039500 0.262845
O O9 0.375544 0.168038 0.812262
O O10 0.081116 0.999054 0.175784
O O11 0.369560 0.691901 0.668804
O O12 0.500000 0.500000 0.000000
O O13 0.126403 0.458359 0.205601
O O14 0.100668 0.208465 0.523312
O O15 0.000000 0.000000 0.000000
O O16 0.481829 0.070282 0.722158
O O17 0.242688 0.258738 0.562372
#
# Coordination Sequence:
#
# PCOD9104068 Si02
#       8
#     2   2   2   2   2   2   2   2
#     4  10  21  37  54  78 113 139 175 228 268 314
#     4  10  18  32  56  81 109 137 175 227 272 307
#     4  11  20  34  56  83 109 147 170 216 281 321
#     4   9  21  34  55  82 104 138 184 230 256 308
#     4   9  15  29  53  77 109 133 167 221 264 306
#     4  11  21  32  54  85 113 138 177 217 272 328
#     4  10  16  33  54  80 109 140 178 222 265 308
#     4  10  17  33  52  80 111 137 179 220 257 317
#
# _framework density 19.256499999999999
#
# number of rings (size 3 to 8) (size 9 to 14) (size 15 to 20)
#    0.000    2.000    5.000    1.875    0.000    0.500 
#    0.000    0.000    0.000    7.500    3.250    0.000 
#    0.000    0.000    0.000    0.000    0.000    0.000 
#
# Total GULP energy -89179.797167 kJ/mol
# GULP energy per Si atom -5573.737323 kJ/mol
# Density = 1.921267 g / cm^3
# Si number density = 19.256500 Si / 1000 Ang^3
#
#
#
# Elastic Constant Matrix: (Units=GPa)
#
#
# Indices 1 2 3 4 5 6 
#
# 1 62.8196 8.3540 22.3591 -3.6335 -7.9459 17.0484
# 2 8.3540 93.2936 42.2771 1.2258 -14.2273 17.2354
# 3 22.3591 42.2771 86.0212 -8.1651 -23.4555 21.7251
# 4 -3.6335 1.2258 -8.1651 25.6703 8.7836 -5.0652
# 5 -7.9459 -14.2273 -23.4555 8.7836 18.6088 -5.9973
# 6 17.0484 17.2354 21.7251 -5.0652 -5.9973 18.0120
#
#
#
# Elastic Compliance Matrix: (Units=1/GPa)
#
#
# Indices 1 2 3 4 5 6 
#
# 1 0.022397 0.003386 -0.000392 -0.003707 0.005991 -0.023014
# 2 0.003386 0.015844 -0.003984 -0.006669 0.007517 -0.012933
# 3 -0.000392 -0.003984 0.024345 -0.003733 0.023279 -0.018480
# 4 -0.003707 -0.006669 -0.003733 0.051418 -0.029527 0.019021
# 5 0.005991 0.007517 0.023279 -0.029527 0.100205 -0.015881
# 6 -0.023014 -0.012933 -0.018480 0.019021 -0.015881 0.112027
#
#
# Mechanical properties :
#
#
# Convention : Reuss Voigt Hill
#
# Bulk Modulus (GPa) = 16.49975 43.12387 29.81181
# Shear Modulus (GPa) = 14.35057 23.73450 19.04254
#
# Velocity S-wave (km/s) = 2.73286 3.51457 3.14807
# Velocity P-wave (km/s) = 4.30639 6.23800 5.35993
#
# Compressibility (1/GPa) = 0.06060699
#
# Stress axis : x y z
#
# Youngs Moduli (GPa) = 44.64939 63.11377 41.07575
#
# Poissons Ratio (x) = -0.21370 0.01608
# Poissons Ratio (y) = -0.15118 0.16365
# Poissons Ratio (z) = 0.01748 0.25145
#
# Static dielectric constant tensor:
#      x y z
#    x 1.712820 -0.008190 -0.029440 
#    y -0.008190 1.684870 0.009930 
#    z -0.029440 0.009930 1.732750 
# 
# From -- ./inp_files/188400.got.cif
#   From: 2010.05.17/outbox.cif.g08.bks.cpg/sg2_95_cif.got.tgz:188400.got - 2010.06.03 11:33:40.
