data_PCOD9104927
_publ_section_title
;
Structure prediction by ZEFSAII (Michael W. Deem and Ramdas Pophale) SiO2 
 PCOD9104927
Probable space group: P -1
;
_chemical_formula_sum "Si O2"
_cell_formula_units_Z 12
_cell_length_a 7.684613
_cell_length_b 5.266705
_cell_length_c 11.544523
_cell_angle_alpha 91.466117
_cell_angle_beta 103.803062
_cell_angle_gamma 98.510575
_cell_volume 447.844401
_symmetry_space_group_name_H-M "P -1"
_symmetry_group_IT_number 2
_symmetry_cell_setting 'triclinic'
loop_
_space_group_symop_operation_xyz
x,y,z
-x,-y,-z
loop_
_atom_site_type_symbol
_atom_site_label
_atom_site_fract_x
_atom_site_fract_y
_atom_site_fract_z
Si Si1 0.205572 0.980934 0.483542
Si Si2 0.981544 0.321914 0.137466
Si Si3 0.610587 0.092421 0.259417
Si Si4 0.879944 0.541918 0.595510
Si Si5 0.284923 0.090249 0.063361
Si Si6 0.290364 0.367841 0.855240
O O1 0.340531 0.891813 0.598679
O O2 0.189314 0.752747 0.384510
O O3 0.264285 0.273090 0.455648
O O4 0.000000 0.000000 0.500000
O O5 0.006407 0.309666 0.280315
O O6 0.171278 0.272278 0.118090
O O7 0.903734 0.589501 0.121377
O O8 0.837687 0.128644 0.035405
O O9 0.411603 0.985776 0.176463
O O10 0.647411 0.371445 0.204568
O O11 0.724732 0.870977 0.235538
O O12 0.000000 0.500000 0.500000
O O13 0.390866 0.265115 0.980375
#
# Coordination Sequence:
#
# PCOD9104927 Si02
#       6
#     2   2   2   2   2   2
#     4  10  20  39  62  97 126 169 224 281 329 385
#     4  11  25  46  69 101 142 182 227 277 348 417
#     4  12  25  43  71 103 139 174 234 288 335 402
#     4  10  21  39  66  94 126 172 230 277 321 396
#     4  11  27  44  67 104 144 182 218 285 354 406
#     4  12  23  44  67 101 134 183 228 277 336 410
#
# _framework density 26.795024999999999
#
# number of rings (size 3 to 8) (size 9 to 14) (size 15 to 20)
#    0.000    1.000    1.667    6.500    4.667    0.000 
#    0.000    1.667    0.000    0.000    0.000    0.000 
#    0.000    0.000    0.000    0.000    0.000    0.000 
#
# Total GULP energy -66951.378734 kJ/mol
# GULP energy per Si atom -5579.281561 kJ/mol
# Density = 2.673404 g / cm^3
# Si number density = 26.795025 Si / 1000 Ang^3
#
#
#
# Elastic Constant Matrix: (Units=GPa)
#
#
# Indices 1 2 3 4 5 6 
#
# 1 33.9319 17.6182 32.9847 3.7331 11.7130 -13.0927
# 2 17.6182 196.1023 47.3367 18.0992 9.9959 -10.9159
# 3 32.9847 47.3367 154.5712 -7.7260 29.2081 -2.6329
# 4 3.7331 18.0992 -7.7260 51.2549 -13.7571 7.3250
# 5 11.7130 9.9959 29.2081 -13.7571 32.1603 -5.9488
# 6 -13.0927 -10.9159 -2.6329 7.3250 -5.9488 29.6693
#
#
#
# Elastic Compliance Matrix: (Units=1/GPa)
#
#
# Indices 1 2 3 4 5 6 
#
# 1 0.052551 0.000514 -0.009385 -0.011834 -0.011555 0.023151
# 2 0.000514 0.006005 -0.001827 -0.003165 -0.001229 0.002809
# 3 -0.009385 -0.001827 0.010030 0.002237 -0.005186 -0.005516
# 4 -0.011834 -0.003165 0.002237 0.026724 0.012803 -0.010219
# 5 -0.011555 -0.001229 -0.005186 0.012803 0.045877 0.000026
# 6 0.023151 0.002809 -0.005516 -0.010219 0.000026 0.046993
#
#
# Mechanical properties :
#
#
# Convention : Reuss Voigt Hill
#
# Bulk Modulus (GPa) = 21.19113 64.49830 42.84471
# Shear Modulus (GPa) = 22.19214 41.72795 31.96004
#
# Velocity S-wave (km/s) = 2.88100 3.95055 3.45738
# Velocity P-wave (km/s) = 4.35806 6.70316 5.65354
#
# Compressibility (1/GPa) = 0.04718956
#
# Stress axis : x y z
#
# Youngs Moduli (GPa) = 19.02928 166.52028 99.70465
#
# Poissons Ratio (x) = -0.08560 0.93574
# Poissons Ratio (y) = -0.00978 0.18216
# Poissons Ratio (z) = 0.17859 0.30422
#
# Static dielectric constant tensor:
#      x y z
#    x 2.292650 0.158300 -0.033560 
#    y 0.158300 2.205960 -0.083080 
#    z -0.033560 -0.083080 2.120810 
# 
# From -- ./inp_files/372786.got.cif
#   From: 2010.05.17/outbox.cif.g08.bks.cpg/sg2_187_cif.got.tgz:372786.got - 2010.06.03 11:33:40.
