data_PCOD9104521
_publ_section_title
;
Structure prediction by ZEFSAII (Michael W. Deem and Ramdas Pophale) SiO2 
 PCOD9104521
Probable space group: P -1
;
_chemical_formula_sum "Si O2"
_cell_formula_units_Z 15
_cell_length_a 6.456460
_cell_length_b 10.613765
_cell_length_c 9.873201
_cell_angle_alpha 69.992402
_cell_angle_beta 112.868306
_cell_angle_gamma 90.217212
_cell_volume 579.224772
_symmetry_space_group_name_H-M "P -1"
_symmetry_group_IT_number 2
_symmetry_cell_setting 'triclinic'
loop_
_space_group_symop_operation_xyz
x,y,z
-x,-y,-z
loop_
_atom_site_type_symbol
_atom_site_label
_atom_site_fract_x
_atom_site_fract_y
_atom_site_fract_z
Si Si1 0.249276 0.367037 0.761724
Si Si2 0.256696 0.055157 0.355987
Si Si3 0.442839 0.623008 0.606160
Si Si4 0.000000 0.000000 0.000000
Si Si5 0.879822 0.214614 0.707498
Si Si6 0.968266 0.566233 0.822847
Si Si7 0.174681 0.809193 0.698053
Si Si8 0.593016 0.868395 0.912056
O O1 0.373402 0.477051 0.677278
O O2 0.090079 0.276996 0.672552
O O3 0.063474 0.458959 0.772714
O O4 0.391014 0.261629 0.939226
O O5 0.283425 0.151301 0.198615
O O6 0.081162 0.113791 0.404827
O O7 0.500000 0.000000 0.500000
O O8 0.146954 0.934447 0.300715
O O9 0.708022 0.617920 0.698505
O O10 0.302448 0.738292 0.626177
O O11 0.346036 0.681357 0.416419
O O12 0.064054 0.834138 0.107297
O O13 0.273163 0.016685 0.035302
O O14 0.130170 0.680428 0.820463
O O15 0.000000 0.500000 0.000000
O O16 0.333134 0.898834 0.785062
#
# Coordination Sequence:
#
# PCOD9104521 Si02
#       8
#     2   2   2   1   2   2   2   2
#     4  10  22  40  62  89 124 164 204 254 313 372
#     4  11  23  40  63  91 125 163 209 262 313 370
#     4  11  23  39  62  92 125 161 208 259 309 374
#     4   8  20  40  62  84 120 166 202 254 310 366
#     4  10  21  41  62  88 124 161 207 255 310 374
#     4  11  22  38  62  93 127 165 207 255 312 370
#     4  11  22  37  62  92 122 162 207 259 312 367
#     4  10  20  39  61  87 123 161 208 255 307 371
#
# _framework density 25.896682999999999
#
# number of rings (size 3 to 8) (size 9 to 14) (size 15 to 20)
#    0.000    1.600    0.000    5.200    0.000    4.800 
#    0.000   12.667    0.000    0.000    0.000    0.000 
#    0.000    0.000    0.000    0.000    0.000    0.000 
#
# Total GULP energy -83603.635239 kJ/mol
# GULP energy per Si atom -5573.575683 kJ/mol
# Density = 2.583774 g / cm^3
# Si number density = 25.896683 Si / 1000 Ang^3
#
#
#
# Elastic Constant Matrix: (Units=GPa)
#
#
# Indices 1 2 3 4 5 6 
#
# 1 95.6198 35.6194 29.1972 3.0137 29.8075 -2.6556
# 2 35.6194 92.3964 1.7115 3.9879 2.3550 27.5097
# 3 29.1972 1.7115 124.4728 -19.2507 20.2056 4.5469
# 4 3.0137 3.9879 -19.2507 41.4680 18.1532 -5.0383
# 5 29.8075 2.3550 20.2056 18.1532 47.0021 3.2685
# 6 -2.6556 27.5097 4.5469 -5.0383 3.2685 56.4264
#
#
#
# Elastic Compliance Matrix: (Units=1/GPa)
#
#
# Indices 1 2 3 4 5 6 
#
# 1 0.018286 -0.008866 -0.001461 0.005350 -0.013045 0.006534
# 2 -0.008866 0.017172 0.000159 -0.005372 0.007444 -0.009713
# 3 -0.001461 0.000159 0.010724 0.008065 -0.006813 0.000104
# 4 0.005350 -0.005372 0.008065 0.038419 -0.021910 0.006921
# 5 -0.013045 0.007444 -0.006813 -0.021910 0.041125 -0.008033
# 6 0.006534 -0.009713 0.000104 0.006921 -0.008033 0.023840
#
#
# Mechanical properties :
#
#
# Convention : Reuss Voigt Hill
#
# Bulk Modulus (GPa) = 38.69121 49.50500 44.09810
# Shear Modulus (GPa) = 28.00835 45.37668 36.69251
#
# Velocity S-wave (km/s) = 3.29225 4.19049 3.76823
# Velocity P-wave (km/s) = 5.42447 6.52468 5.99985
#
# Compressibility (1/GPa) = 0.02584567
#
# Stress axis : x y z
#
# Youngs Moduli (GPa) = 54.68522 58.23418 93.24988
#
# Poissons Ratio (x) = 0.51633 0.13625
# Poissons Ratio (y) = 0.48486 -0.01484
# Poissons Ratio (z) = 0.07990 -0.00927
#
# Static dielectric constant tensor:
#      x y z
#    x 2.006540 0.058710 0.251530 
#    y 0.058710 2.008000 -0.218440 
#    z 0.251530 -0.218440 1.478770 
# 
# From -- ./inp_files/68770.got.cif
#   From: 2010.05.17/outbox.cif.g08.bks.cpg/sg2_35_cif.got.tgz:68770.got - 2010.06.03 11:33:40.
