data_PCOD9104837
_publ_section_title
;
Structure prediction by ZEFSAII (Michael W. Deem and Ramdas Pophale) SiO2 
 PCOD9104837
Probable space group: P -1
;
_chemical_formula_sum "Si O2"
_cell_formula_units_Z 16
_cell_length_a 8.602097
_cell_length_b 13.581730
_cell_length_c 9.022287
_cell_angle_alpha 69.033225
_cell_angle_beta 85.418434
_cell_angle_gamma 43.970169
_cell_volume 657.221914
_symmetry_space_group_name_H-M "P -1"
_symmetry_group_IT_number 2
_symmetry_cell_setting 'triclinic'
loop_
_space_group_symop_operation_xyz
x,y,z
-x,-y,-z
loop_
_atom_site_type_symbol
_atom_site_label
_atom_site_fract_x
_atom_site_fract_y
_atom_site_fract_z
Si Si1 0.826087 0.763785 0.199655
Si Si2 0.036037 0.513938 0.817598
Si Si3 0.762739 0.302139 0.744629
Si Si4 0.563002 0.240820 0.973309
Si Si5 0.612435 0.326624 0.434745
Si Si6 0.325878 0.993538 0.144730
Si Si7 0.527874 0.805648 0.668579
Si Si8 0.918106 0.920510 0.583719
O O1 0.957834 0.591379 0.234885
O O2 0.591136 0.862925 0.254789
O O3 0.990797 0.767119 0.257946
O O4 0.740042 0.860946 0.999870
O O5 0.307906 0.410799 0.847063
O O6 0.801830 0.697945 0.700800
O O7 0.000000 0.500000 0.000000
O O8 0.739754 0.247555 0.926279
O O9 0.689616 0.267675 0.629804
O O10 0.583235 0.487672 0.658928
O O11 0.654811 0.100509 0.938232
O O12 0.531016 0.212303 0.154947
O O13 0.512156 0.272556 0.397301
O O14 0.843852 0.257214 0.377332
O O15 0.151039 0.055513 0.254370
O O16 0.314072 0.988254 0.541409
O O17 0.000000 0.000000 0.500000
#
# Coordination Sequence:
#
# PCOD9104837 Si02
#       8
#     2   2   2   2   2   2   2   2
#     4  10  22  41  70  89 127 168 211 262 308 375
#     4   9  19  40  61  92 126 160 210 261 308 373
#     4  11  23  41  66  92 126 166 212 262 312 374
#     4  10  22  37  67  96 121 166 217 259 309 374
#     4  10  23  41  58  90 131 162 207 259 316 373
#     4  10  23  44  64  96 126 167 213 257 314 376
#     4  10  20  39  62  91 127 168 205 261 317 371
#     4  10  22  39  61  90 128 162 205 261 309 372
#
# _framework density 24.344895999999999
#
# number of rings (size 3 to 8) (size 9 to 14) (size 15 to 20)
#    0.000    2.000    1.250    1.500    5.250    3.000 
#    4.500    2.500    0.000    0.000    0.000    0.000 
#    0.000    0.000    0.000    0.000    0.000    0.000 
#
# Total GULP energy -89428.843179 kJ/mol
# GULP energy per Si atom -5589.302699 kJ/mol
# Density = 2.428949 g / cm^3
# Si number density = 24.344896 Si / 1000 Ang^3
#
#
#
# Elastic Constant Matrix: (Units=GPa)
#
#
# Indices 1 2 3 4 5 6 
#
# 1 51.4243 8.7632 16.5231 4.9360 9.2715 -12.2849
# 2 8.7632 96.5358 26.8738 -2.7138 4.2624 -32.2102
# 3 16.5231 26.8738 70.2125 9.3898 5.4551 -8.6939
# 4 4.9360 -2.7138 9.3898 36.4128 -11.1421 0.1889
# 5 9.2715 4.2624 5.4551 -11.1421 34.8964 -3.0685
# 6 -12.2849 -32.2102 -8.6939 0.1889 -3.0685 34.0301
#
#
#
# Elastic Compliance Matrix: (Units=1/GPa)
#
#
# Indices 1 2 3 4 5 6 
#
# 1 0.024227 0.002268 -0.004386 -0.004021 -0.006502 0.009208
# 2 0.002268 0.016852 -0.005414 0.002354 0.000291 0.015399
# 3 -0.004386 -0.005414 0.017993 -0.005321 -0.002891 -0.002343
# 4 -0.004021 0.002354 -0.005321 0.033311 0.012279 0.000339
# 5 -0.006502 0.000291 -0.002891 0.012279 0.034743 0.000254
# 6 0.009208 0.015399 -0.002343 0.000339 0.000254 0.046708
#
#
# Mechanical properties :
#
#
# Convention : Reuss Voigt Hill
#
# Bulk Modulus (GPa) = 22.72355 35.83254 29.27805
# Shear Modulus (GPa) = 24.56181 32.13536 28.34858
#
# Velocity S-wave (km/s) = 3.17978 3.63713 3.41612
# Velocity P-wave (km/s) = 4.77866 5.69113 5.25474
#
# Compressibility (1/GPa) = 0.04400720
#
# Stress axis : x y z
#
# Youngs Moduli (GPa) = 41.27619 59.34140 55.57626
#
# Poissons Ratio (x) = -0.13461 0.24378
# Poissons Ratio (y) = -0.09363 0.30091
# Poissons Ratio (z) = 0.18105 0.32130
#
# Static dielectric constant tensor:
#      x y z
#    x 1.956310 -0.009630 0.030180 
#    y -0.009630 1.967290 -0.041220 
#    z 0.030180 -0.041220 1.936440 
# 
# From -- ./inp_files/206334.got.cif
#   From: 2010.05.17/outbox.cif.g08.bks.cpg/sg2_104_cif.got.tgz:206334.got - 2010.06.03 11:33:40.
