data_PCOD9104953
_publ_section_title
;
Structure prediction by ZEFSAII (Michael W. Deem and Ramdas Pophale) SiO2 
 PCOD9104953
Probable space group: P -1
;
_chemical_formula_sum "Si O2"
_cell_formula_units_Z 12
_cell_length_a 6.443131
_cell_length_b 5.082341
_cell_length_c 17.037941
_cell_angle_alpha 94.717119
_cell_angle_beta 122.935683
_cell_angle_gamma 81.399655
_cell_volume 462.992666
_symmetry_space_group_name_H-M "P -1"
_symmetry_group_IT_number 2
_symmetry_cell_setting 'triclinic'
loop_
_space_group_symop_operation_xyz
x,y,z
-x,-y,-z
loop_
_atom_site_type_symbol
_atom_site_label
_atom_site_fract_x
_atom_site_fract_y
_atom_site_fract_z
Si Si1 0.870652 0.427903 0.165303
Si Si2 0.168483 0.722871 0.019094
Si Si3 0.261518 0.360883 0.625755
Si Si4 0.405546 0.161542 0.312773
Si Si5 0.381181 0.034930 0.886424
Si Si6 0.251647 0.355516 0.445596
O O1 0.860150 0.746098 0.169865
O O2 0.150989 0.283272 0.222235
O O3 0.690228 0.242061 0.169755
O O4 0.770468 0.372119 0.057903
O O5 0.420305 0.798067 0.110652
O O6 0.000000 0.500000 0.000000
O O7 0.000000 0.000000 0.000000
O O8 0.404292 0.618533 0.650776
O O9 0.202319 0.267082 0.522041
O O10 0.002701 0.447329 0.620411
O O11 0.447903 0.116408 0.690447
O O12 0.311657 0.142135 0.383907
O O13 0.500000 0.000000 0.000000
O O14 0.500000 0.500000 0.500000
#
# Coordination Sequence:
#
# PCOD9104953 Si02
#       6
#     2   2   2   2   2   2
#     4  11  22  40  60  86 124 161 203 257 314 371
#     4  11  21  37  60  87 115 154 208 255 300 362
#     4  10  22  40  65  95 126 164 215 254 300 387
#     4  11  23  41  62  93 134 164 204 261 324 367
#     4  10  20  39  63  83 113 163 210 245 301 378
#     4   9  21  41  68  93 124 170 210 253 310 375
#
# _framework density 25.918337999999999
#
# number of rings (size 3 to 8) (size 9 to 14) (size 15 to 20)
#    0.000    1.667    0.000    6.500    0.000    8.667 
#    9.000    0.000    0.000    0.000    0.000    0.000 
#    0.000    0.000    0.000    0.000    0.000    0.000 
#
# Total GULP energy -66905.557174 kJ/mol
# GULP energy per Si atom -5575.463098 kJ/mol
# Density = 2.585935 g / cm^3
# Si number density = 25.918338 Si / 1000 Ang^3
#
#
#
# Elastic Constant Matrix: (Units=GPa)
#
#
# Indices 1 2 3 4 5 6 
#
# 1 86.6687 28.2203 24.0940 3.8154 27.7185 1.4696
# 2 28.2203 123.2511 1.9159 -23.0541 1.8537 9.9327
# 3 24.0940 1.9159 74.9273 -12.8195 9.3565 0.1747
# 4 3.8154 -23.0541 -12.8195 34.9684 -10.2407 15.2672
# 5 27.7185 1.8537 9.3565 -10.2407 42.1775 5.1007
# 6 1.4696 9.9327 0.1747 15.2672 5.1007 45.7095
#
#
#
# Elastic Compliance Matrix: (Units=1/GPa)
#
#
# Indices 1 2 3 4 5 6 
#
# 1 0.026057 -0.011406 -0.009797 -0.026135 -0.022356 0.012902
# 2 -0.011406 0.015610 0.005580 0.022442 0.012464 -0.011933
# 3 -0.009797 0.005580 0.018355 0.016762 0.007081 -0.007356
# 4 -0.026135 0.022442 0.016762 0.077593 0.035418 -0.033969
# 5 -0.022356 0.012464 0.007081 0.035418 0.047194 -0.019113
# 6 0.012902 -0.011933 -0.007356 -0.033969 -0.019113 0.037562
#
#
# Mechanical properties :
#
#
# Convention : Reuss Voigt Hill
#
# Bulk Modulus (GPa) = 34.75212 43.70083 39.22647
# Shear Modulus (GPa) = 18.99621 39.94554 29.47087
#
# Velocity S-wave (km/s) = 2.71020 3.93008 3.37570
# Velocity P-wave (km/s) = 4.81985 6.12304 5.51011
#
# Compressibility (1/GPa) = 0.02877522
#
# Stress axis : x y z
#
# Youngs Moduli (GPa) = 38.37687 64.05998 54.48150
#
# Poissons Ratio (x) = 0.73067 0.53378
# Poissons Ratio (y) = 0.43772 -0.30399
# Poissons Ratio (z) = 0.37599 -0.35743
#
# Static dielectric constant tensor:
#      x y z
#    x 2.265980 0.108940 -0.054380 
#    y 0.108940 2.559000 -0.194460 
#    z -0.054380 -0.194460 2.156150 
# 
# From -- ./inp_files/7029.got.cif
#   From: 2010.05.17/outbox.cif.g08.bks.cpg/sg2_4_cif.got.tgz:7029.got - 2010.06.03 11:33:40.
