data_PCOD9104760
_publ_section_title
;
Structure prediction by ZEFSAII (Michael W. Deem and Ramdas Pophale) SiO2 
 PCOD9104760
Probable space group: P -1
;
_chemical_formula_sum "Si O2"
_cell_formula_units_Z 16
_cell_length_a 15.520577
_cell_length_b 25.524135
_cell_length_c 8.898150
_cell_angle_alpha 50.152091
_cell_angle_beta 46.247481
_cell_angle_gamma 18.204488
_cell_volume 793.416607
_symmetry_space_group_name_H-M "P -1"
_symmetry_group_IT_number 2
_symmetry_cell_setting 'triclinic'
loop_
_space_group_symop_operation_xyz
x,y,z
-x,-y,-z
loop_
_atom_site_type_symbol
_atom_site_label
_atom_site_fract_x
_atom_site_fract_y
_atom_site_fract_z
Si Si1 0.135867 0.363314 0.395274
Si Si2 0.298054 0.370004 0.796636
Si Si3 0.096245 0.013897 0.267267
Si Si4 0.768280 0.924474 0.931404
Si Si5 0.180331 0.255521 0.848179
Si Si6 0.434553 0.955864 0.699331
Si Si7 0.346123 0.402726 0.983341
Si Si8 0.943050 0.105712 0.944940
O O1 0.161268 0.314883 0.616459
O O2 0.278337 0.237092 0.335581
O O3 0.305731 0.346937 0.204243
O O4 0.808254 0.548778 0.386868
O O5 0.552043 0.181580 0.819013
O O6 0.408427 0.364326 0.801206
O O7 0.000000 0.500000 0.000000
O O8 0.017900 0.123170 0.250500
O O9 0.000000 0.000000 0.500000
O O10 0.947400 0.091992 0.142382
O O11 0.508012 0.074942 0.850311
O O12 0.648914 0.995782 0.114261
O O13 0.901418 0.779960 0.024832
O O14 0.957656 0.401388 0.971780
O O15 0.500000 0.000000 0.500000
O O16 0.182290 0.042537 0.756869
O O17 0.623318 0.292905 0.928017
O O18 0.000000 0.000000 0.000000
#
# Coordination Sequence:
#
# PCOD9104760 Si02
#       8
#     2   2   2   2   2   2   2   2
#     4  11  21  35  65  92 117 162 220 258 304 373
#     4  10  20  39  62  88 125 159 209 265 312 367
#     4  11  24  39  64  92 124 163 208 260 324 371
#     4  10  22  42  58  90 126 168 201 259 313 376
#     4  11  23  37  62  91 126 162 211 255 309 375
#     4  11  21  41  64  90 123 167 209 252 315 382
#     4  11  21  38  61  92 127 161 205 268 309 363
#     4  11  21  40  63  93 124 161 205 258 315 369
#
# _framework density 20.165951
#
# number of rings (size 3 to 8) (size 9 to 14) (size 15 to 20)
#    0.000    1.250    3.750    4.875    3.500    0.000 
#    0.000    3.750    0.000    2.250    0.000    0.000 
#    0.000    0.000    0.000    0.000    0.000    0.000 
#
# Total GULP energy -89181.224865 kJ/mol
# GULP energy per Si atom -5573.826554 kJ/mol
# Density = 2.012005 g / cm^3
# Si number density = 20.165951 Si / 1000 Ang^3
#
#
#
# Elastic Constant Matrix: (Units=GPa)
#
#
# Indices 1 2 3 4 5 6 
#
# 1 108.4318 13.6276 39.8999 -19.7226 -19.5242 -0.2229
# 2 13.6276 45.1361 5.7082 -13.9845 0.6581 2.9818
# 3 39.8999 5.7082 78.9604 -15.5979 -14.6287 -5.6756
# 4 -19.7226 -13.9845 -15.5979 19.8058 -3.7881 3.9225
# 5 -19.5242 0.6581 -14.6287 -3.7881 25.4464 -13.3844
# 6 -0.2229 2.9818 -5.6756 3.9225 -13.3844 47.3934
#
#
#
# Elastic Compliance Matrix: (Units=1/GPa)
#
#
# Indices 1 2 3 4 5 6 
#
# 1 0.015487 0.000301 -0.001614 0.016672 0.014833 0.002670
# 2 0.000301 0.029441 0.003087 0.024704 0.003602 -0.002509
# 3 -0.001614 0.003087 0.020189 0.018465 0.015736 0.005132
# 4 0.016672 0.024704 0.018465 0.106127 0.040322 0.003339
# 5 0.014833 0.003602 0.015736 0.040322 0.076091 0.019879
# 6 0.002670 -0.002509 0.005132 0.003339 0.019879 0.027223
#
#
# Mechanical properties :
#
#
# Convention : Reuss Voigt Hill
#
# Bulk Modulus (GPa) = 14.56378 38.99997 26.78187
# Shear Modulus (GPa) = 17.01260 30.08195 23.54728
#
# Velocity S-wave (km/s) = 2.90768 3.86647 3.42083
# Velocity P-wave (km/s) = 4.30238 6.27011 5.37702
#
# Compressibility (1/GPa) = 0.06866348
#
# Stress axis : x y z
#
# Youngs Moduli (GPa) = 64.56878 33.96598 49.53221
#
# Poissons Ratio (x) = -0.01022 0.07997
# Poissons Ratio (y) = -0.01943 -0.15289
# Poissons Ratio (z) = 0.10424 -0.10484
#
# Static dielectric constant tensor:
#      x y z
#    x 1.805020 -0.032740 -0.064310 
#    y -0.032740 1.740300 0.037890 
#    z -0.064310 0.037890 1.845080 
# 
# From -- ./inp_files/320270.got.cif
#   From: 2010.05.17/outbox.cif.g08.bks.cpg/sg2_161_cif.got.tgz:320270.got - 2010.06.03 11:33:40.
