data_PCOD9104002
_publ_section_title
;
Structure prediction by ZEFSAII (Michael W. Deem and Ramdas Pophale) SiO2 
 PCOD9104002
Probable space group: P -1
;
_chemical_formula_sum "Si O2"
_cell_formula_units_Z 14
_cell_length_a 12.950565
_cell_length_b 8.378455
_cell_length_c 16.046159
_cell_angle_alpha 130.437917
_cell_angle_beta 25.682337
_cell_angle_gamma 135.179294
_cell_volume 531.631575
_symmetry_space_group_name_H-M "P -1"
_symmetry_group_IT_number 2
_symmetry_cell_setting 'triclinic'
loop_
_space_group_symop_operation_xyz
x,y,z
-x,-y,-z
loop_
_atom_site_type_symbol
_atom_site_label
_atom_site_fract_x
_atom_site_fract_y
_atom_site_fract_z
Si Si1 0.242124 0.816912 0.370382
Si Si2 0.710142 0.778180 0.745658
Si Si3 0.153155 0.802278 0.754832
Si Si4 0.308205 0.835622 0.939858
Si Si5 0.768245 0.507532 0.267060
Si Si6 0.784294 0.651710 0.823781
Si Si7 0.447419 0.742834 0.362878
O O1 0.128358 0.551086 0.339065
O O2 0.291912 0.834224 0.439519
O O3 0.008761 0.890014 0.537778
O O4 0.515629 0.955687 0.176394
O O5 0.502862 0.856936 0.881431
O O6 0.752371 0.801416 0.821902
O O7 0.593000 0.507560 0.720499
O O8 0.122178 0.635641 0.798162
O O9 0.354011 0.752486 0.528113
O O10 0.922230 0.758273 0.844109
O O11 0.269588 0.065358 0.783530
O O12 0.300713 0.624303 0.814737
O O13 0.006982 0.744933 0.156201
O O14 0.500000 0.500000 0.500000
O O15 0.500000 0.500000 0.000000
#
# Coordination Sequence:
#
# PCOD9104002 Si02
#       7
#     2   2   2   2   2   2   2
#     4  11  21  45  66  99 140 185 222 276 350 409
#     4  11  21  44  69  97 139 179 223 279 346 408
#     4  11  20  41  68 102 130 172 235 279 337 402
#     4  11  25  46  68 102 136 186 232 271 348 424
#     4  11  25  46  70  97 142 179 229 293 340 402
#     4  11  23  41  65 102 139 173 228 288 335 406
#     4  10  20  38  71  97 130 180 226 276 337 406
#
# _framework density 26.334026999999999
#
# number of rings (size 3 to 8) (size 9 to 14) (size 15 to 20)
#    0.000    1.143    4.286    3.000    0.000    0.000 
#   12.857    3.571    0.000    0.000    0.000    0.000 
#    0.000    0.000    0.000    0.000    0.000    0.000 
#
# Total GULP energy -78288.004599 kJ/mol
# GULP energy per Si atom -5592.000328 kJ/mol
# Density = 2.627409 g / cm^3
# Si number density = 26.334027 Si / 1000 Ang^3
#
#
#
# Elastic Constant Matrix: (Units=GPa)
#
#
# Indices 1 2 3 4 5 6 
#
# 1 176.7678 28.4234 28.1070 -11.1031 -8.0871 6.9868
# 2 28.4234 110.5663 29.8893 -31.7366 1.0061 18.2649
# 3 28.1070 29.8893 139.1467 -33.9101 -6.4640 3.6983
# 4 -11.1031 -31.7366 -33.9101 40.9444 3.8442 -0.7954
# 5 -8.0871 1.0061 -6.4640 3.8442 47.3417 -6.7048
# 6 6.9868 18.2649 3.6983 -0.7954 -6.7048 47.4582
#
#
#
# Elastic Compliance Matrix: (Units=1/GPa)
#
#
# Indices 1 2 3 4 5 6 
#
# 1 0.006059 -0.001366 -0.000955 -0.000298 0.000935 -0.000165
# 2 -0.001366 0.013059 -0.000116 0.009750 -0.002018 -0.004938
# 3 -0.000955 -0.000116 0.009193 0.007215 0.000460 -0.000345
# 4 -0.000298 0.009750 0.007215 0.038073 -0.002938 -0.004048
# 5 0.000935 -0.002018 0.000460 -0.002938 0.022148 0.003683
# 6 -0.000165 -0.004938 -0.000345 -0.004048 0.003683 0.023475
#
#
# Mechanical properties :
#
#
# Convention : Reuss Voigt Hill
#
# Bulk Modulus (GPa) = 42.66662 66.59113 54.62887
# Shear Modulus (GPa) = 40.09775 49.81961 44.95868
#
# Velocity S-wave (km/s) = 3.90636 4.35424 4.13637
# Velocity P-wave (km/s) = 6.04843 7.11486 6.60321
#
# Compressibility (1/GPa) = 0.02343752
#
# Stress axis : x y z
#
# Youngs Moduli (GPa) = 165.03635 76.57318 108.77366
#
# Poissons Ratio (x) = 0.10462 0.10391
# Poissons Ratio (y) = 0.22548 0.01259
# Poissons Ratio (z) = 0.15766 0.00886
#
# Static dielectric constant tensor:
#      x y z
#    x 2.033420 0.008310 0.078360 
#    y 0.008310 2.135220 0.166050 
#    z 0.078360 0.166050 2.367140 
# 
# From -- ./inp_files/278764.got.cif
#   From: 2010.05.17/outbox.cif.g08.bks.cpg/sg2_140_cif.got.tgz:278764.got - 2010.06.03 11:33:40.
