data_PCOD9104815
_publ_section_title
;
Structure prediction by ZEFSAII (Michael W. Deem and Ramdas Pophale) SiO2 
 PCOD9104815
Probable space group: P -1
;
_chemical_formula_sum "Si O2"
_cell_formula_units_Z 16
_cell_length_a 8.177957
_cell_length_b 15.676018
_cell_length_c 9.527125
_cell_angle_alpha 119.074601
_cell_angle_beta 97.216183
_cell_angle_gamma 122.854286
_cell_volume 760.321762
_symmetry_space_group_name_H-M "P -1"
_symmetry_group_IT_number 2
_symmetry_cell_setting 'triclinic'
loop_
_space_group_symop_operation_xyz
x,y,z
-x,-y,-z
loop_
_atom_site_type_symbol
_atom_site_label
_atom_site_fract_x
_atom_site_fract_y
_atom_site_fract_z
Si Si1 0.338236 0.609825 0.219213
Si Si2 0.659725 0.558648 0.705898
Si Si3 0.803437 0.494461 0.462070
Si Si4 0.908704 0.564635 0.213927
Si Si5 0.785307 0.126950 0.489729
Si Si6 0.358880 0.079478 0.444948
Si Si7 0.310021 0.221918 0.149999
Si Si8 0.976142 0.051059 0.231943
O O1 0.417889 0.552859 0.279887
O O2 0.514688 0.771614 0.363865
O O3 0.105604 0.561793 0.221516
O O4 0.277289 0.542748 0.006768
O O5 0.500000 0.500000 0.500000
O O6 0.867239 0.597431 0.673195
O O7 0.708917 0.686010 0.867596
O O8 0.807690 0.534615 0.335179
O O9 0.565598 0.336217 0.331450
O O10 0.000000 0.500000 0.500000
O O11 0.035572 0.717775 0.313621
O O12 0.555753 0.095643 0.400057
O O13 0.902007 0.109611 0.368609
O O14 0.722630 0.025173 0.523927
O O15 0.143683 0.036847 0.304980
O O16 0.122527 0.150020 0.195301
O O17 0.250635 0.100422 0.963035
#
# Coordination Sequence:
#
# PCOD9104815 Si02
#       8
#     2   2   2   2   2   2   2   2
#     4  10  21  39  64  97 137 168 219 283 334 389
#     4  10  20  39  62  90 131 172 210 269 333 395
#     4  11  21  40  67  94 128 174 218 273 338 398
#     4  10  22  38  64 101 130 168 225 282 329 398
#     4  10  23  42  67  96 131 177 227 266 337 406
#     4  10  22  42  69  93 133 182 217 273 336 401
#     4  10  25  41  63  96 131 171 227 273 329 408
#     4  11  23  46  64  92 140 176 219 280 329 403
#
# _framework density 21.043721999999999
#
# number of rings (size 3 to 8) (size 9 to 14) (size 15 to 20)
#    0.000    1.750    1.250    2.625    5.250    1.000 
#    2.250    4.375    0.000    0.000    0.000    0.000 
#    0.000    0.000    0.000    0.000    0.000    0.000 
#
# Total GULP energy -89174.639730 kJ/mol
# GULP energy per Si atom -5573.414983 kJ/mol
# Density = 2.099583 g / cm^3
# Si number density = 21.043722 Si / 1000 Ang^3
#
#
#
# Elastic Constant Matrix: (Units=GPa)
#
#
# Indices 1 2 3 4 5 6 
#
# 1 67.4959 12.6868 13.2160 17.0440 -6.7550 -17.5068
# 2 12.6868 119.9131 35.0571 17.1467 -2.0724 -20.2054
# 3 13.2160 35.0571 65.9215 17.9218 -1.7332 -5.6691
# 4 17.0440 17.1467 17.9218 27.5990 -0.1407 -0.9589
# 5 -6.7550 -2.0724 -1.7332 -0.1407 28.2286 0.4071
# 6 -17.5068 -20.2054 -5.6691 -0.9589 0.4071 32.3056
#
#
#
# Elastic Compliance Matrix: (Units=1/GPa)
#
#
# Indices 1 2 3 4 5 6 
#
# 1 0.021810 0.002017 -0.000433 -0.013979 0.005090 0.012525
# 2 0.002017 0.011401 -0.004399 -0.005214 0.000918 0.007285
# 3 -0.000433 -0.004399 0.020427 -0.010250 0.000772 0.000284
# 4 -0.013979 -0.005214 -0.010250 0.054360 -0.003928 -0.010972
# 5 0.005090 0.000918 0.000772 -0.003928 0.036697 0.002889
# 6 0.012525 0.007285 0.000284 -0.010972 0.002889 0.041986
#
#
# Mechanical properties :
#
#
# Convention : Reuss Voigt Hill
#
# Bulk Modulus (GPa) = 20.83072 41.69445 31.26259
# Shear Modulus (GPa) = 24.00204 30.45136 27.22670
#
# Velocity S-wave (km/s) = 3.38091 3.80814 3.60087
# Velocity P-wave (km/s) = 5.01608 6.26037 5.67244
#
# Compressibility (1/GPa) = 0.04800603
#
# Stress axis : x y z
#
# Youngs Moduli (GPa) = 45.85135 87.71002 48.95391
#
# Poissons Ratio (x) = -0.17688 0.02122
# Poissons Ratio (y) = -0.09246 0.21536
# Poissons Ratio (z) = 0.01988 0.38586
#
# Static dielectric constant tensor:
#      x y z
#    x 1.310610 0.030150 0.285890 
#    y 0.030150 1.774700 -0.052380 
#    z 0.285890 -0.052380 1.629150 
# 
# From -- ./inp_files/208780.got.cif
#   From: 2010.05.17/outbox.cif.g08.bks.cpg/sg2_105_cif.got.tgz:208780.got - 2010.06.03 11:33:40.
