data_PCOD9104179
_publ_section_title
;
Structure prediction by ZEFSAII (Michael W. Deem and Ramdas Pophale) SiO2 
 PCOD9104179
Probable space group: P -1
;
_chemical_formula_sum "Si O2"
_cell_formula_units_Z 16
_cell_length_a 7.957243
_cell_length_b 13.622698
_cell_length_c 11.634516
_cell_angle_alpha 48.733588
_cell_angle_beta 122.952277
_cell_angle_gamma 141.330324
_cell_volume 591.184993
_symmetry_space_group_name_H-M "P -1"
_symmetry_group_IT_number 2
_symmetry_cell_setting 'triclinic'
loop_
_space_group_symop_operation_xyz
x,y,z
-x,-y,-z
loop_
_atom_site_type_symbol
_atom_site_label
_atom_site_fract_x
_atom_site_fract_y
_atom_site_fract_z
Si Si1 0.432565 0.606040 0.333886
Si Si2 0.883134 0.236400 0.350931
Si Si3 0.492188 0.712024 0.045217
Si Si4 0.808462 0.271235 0.706830
Si Si5 0.985254 0.856431 0.966651
Si Si6 0.016094 0.671421 0.936817
Si Si7 0.914245 0.960913 0.631154
Si Si8 0.330539 0.678615 0.622684
O O1 0.500000 0.500000 0.500000
O O2 0.603972 0.688651 0.217569
O O3 0.396328 0.714239 0.320025
O O4 0.132883 0.440973 0.307638
O O5 0.903635 0.219407 0.235952
O O6 0.886084 0.104943 0.524114
O O7 0.661122 0.234106 0.323667
O O8 0.367101 0.241458 0.328118
O O9 0.743516 0.823814 0.967223
O O10 0.317614 0.749417 0.014720
O O11 0.724847 0.244057 0.562905
O O12 0.103301 0.469426 0.679547
O O13 0.822521 0.132819 0.875887
O O14 0.765735 0.468380 0.970878
O O15 0.065278 0.976024 0.790527
O O16 0.905766 0.694400 0.989405
O O17 0.000000 0.000000 0.500000
#
# Coordination Sequence:
#
# PCOD9104179 Si02
#       8
#     2   2   2   2   2   2   2   2
#     4  10  22  39  68  97 133 173 212 277 336 405
#     4  10  22  43  65  91 131 175 226 266 322 405
#     4  10  22  34  62  97 130 168 210 278 341 384
#     4  10  24  43  67 105 136 165 220 282 351 391
#     4  12  24  39  65  99 135 171 222 283 331 394
#     4  10  20  39  58  95 133 164 219 276 331 390
#     4  12  26  42  65  95 131 183 228 269 325 398
#     4  10  24  43  69  96 131 176 220 278 335 406
#
# _framework density 27.064285000000002
#
# number of rings (size 3 to 8) (size 9 to 14) (size 15 to 20)
#    0.000    1.500    2.500    1.500   12.250    0.000 
#    0.000    1.250    2.750    0.000    0.000    0.000 
#    0.000    0.000    0.000    0.000    0.000    0.000 
#
# Total GULP energy -89185.714438 kJ/mol
# GULP energy per Si atom -5574.107152 kJ/mol
# Density = 2.700269 g / cm^3
# Si number density = 27.064285 Si / 1000 Ang^3
#
#
#
# Elastic Constant Matrix: (Units=GPa)
#
#
# Indices 1 2 3 4 5 6 
#
# 1 130.7613 32.8273 38.7610 0.8552 -16.5015 -9.5077
# 2 32.8273 70.2050 7.1006 4.6722 -7.7529 4.3730
# 3 38.7610 7.1006 206.6408 14.2720 -8.2144 -1.5044
# 4 0.8552 4.6722 14.2720 16.4459 -4.6764 -5.0395
# 5 -16.5015 -7.7529 -8.2144 -4.6764 32.6907 -3.7111
# 6 -9.5077 4.3730 -1.5044 -5.0395 -3.7111 33.3437
#
#
#
# Elastic Compliance Matrix: (Units=1/GPa)
#
#
# Indices 1 2 3 4 5 6 
#
# 1 0.010351 -0.004761 -0.001917 0.005367 0.004932 0.004849
# 2 -0.004761 0.017156 0.000738 -0.006536 0.000403 -0.004517
# 3 -0.001917 0.000738 0.005523 -0.005373 -0.000314 -0.001241
# 4 0.005367 -0.006536 -0.005373 0.075076 0.012235 0.014854
# 5 0.004932 0.000403 -0.000314 0.012235 0.035659 0.007157
# 6 0.004849 -0.004517 -0.001241 0.014854 0.007157 0.034951
#
#
# Mechanical properties :
#
#
# Convention : Reuss Voigt Hill
#
# Bulk Modulus (GPa) = 47.27984 62.77610 55.02797
# Shear Modulus (GPa) = 25.29765 38.42394 31.86080
#
# Velocity S-wave (km/s) = 3.06064 3.77202 3.43480
# Velocity P-wave (km/s) = 5.47699 6.49741 6.00890
#
# Compressibility (1/GPa) = 0.02115066
#
# Stress axis : x y z
#
# Youngs Moduli (GPa) = 96.60974 58.28764 181.05655
#
# Poissons Ratio (x) = 0.27748 0.34714
# Poissons Ratio (y) = 0.45992 -0.13363
# Poissons Ratio (z) = 0.18523 -0.04302
#
# Static dielectric constant tensor:
#      x y z
#    x 2.374110 -0.019060 0.183050 
#    y -0.019060 2.162310 -0.113220 
#    z 0.183050 -0.113220 2.574140 
# 
# From -- ./inp_files/395533.got.cif
#   From: 2010.05.17/outbox.cif.g08.bks.cpg/sg2_198_cif.got.tgz:395533.got - 2010.06.03 11:33:40.
