data_PCOD9104686
_publ_section_title
;
Structure prediction by ZEFSAII (Michael W. Deem and Ramdas Pophale) SiO2 
 PCOD9104686
Probable space group: P -1
;
_chemical_formula_sum "Si O2"
_cell_formula_units_Z 15
_cell_length_a 7.932055
_cell_length_b 10.496031
_cell_length_c 10.032328
_cell_angle_alpha 109.226180
_cell_angle_beta 129.227109
_cell_angle_gamma 98.470207
_cell_volume 533.898864
_symmetry_space_group_name_H-M "P -1"
_symmetry_group_IT_number 2
_symmetry_cell_setting 'triclinic'
loop_
_space_group_symop_operation_xyz
x,y,z
-x,-y,-z
loop_
_atom_site_type_symbol
_atom_site_label
_atom_site_fract_x
_atom_site_fract_y
_atom_site_fract_z
Si Si1 0.629668 0.848499 0.045115
Si Si2 0.388485 0.710741 0.142490
Si Si3 0.986464 0.862694 0.772307
Si Si4 0.709537 0.598593 0.930302
Si Si5 0.718870 0.046926 0.772354
Si Si6 0.661425 0.246318 0.412339
Si Si7 0.191732 0.352940 0.600239
Si Si8 0.500000 0.500000 0.500000
O O1 0.805274 0.766474 0.096913
O O2 0.497607 0.806007 0.821851
O O3 0.431819 0.782859 0.041929
O O4 0.799424 0.033522 0.191504
O O5 0.227470 0.526271 0.015822
O O6 0.289234 0.798942 0.218010
O O7 0.669581 0.743850 0.325908
O O8 0.814197 0.942342 0.711458
O O9 0.849558 0.684474 0.593107
O O10 0.104732 0.893873 0.987459
O O11 0.412845 0.522521 0.795103
O O12 0.686165 0.577332 0.753655
O O13 0.436690 0.916914 0.618806
O O14 0.589932 0.365468 0.486399
O O15 0.947383 0.322337 0.540809
#
# Coordination Sequence:
#
# PCOD9104686 Si02
#       8
#     2   2   2   2   2   2   2   1
#     4  10  20  39  62  83 126 158 207 241 302 361
#     4  10  22  39  61  91 126 159 196 256 303 360
#     4  10  21  38  62  91 117 166 208 248 289 367
#     4   9  22  40  61  88 122 162 197 252 301 364
#     4  10  21  39  62  89 127 159 204 249 306 352
#     4  10  21  38  66  90 116 166 201 256 293 362
#     4  10  22  38  60  96 119 153 212 239 312 347
#     4  10  20  40  60  84 120 154 206 238 300 354
#
# _framework density 28.095208
#
# number of rings (size 3 to 8) (size 9 to 14) (size 15 to 20)
#    0.800    1.333    0.000    2.800    0.000    8.000 
#    2.400    6.000    0.000    0.000    0.000    0.000 
#    0.000    0.000    0.000    0.000    0.000    0.000 
#
# Total GULP energy -83687.445905 kJ/mol
# GULP energy per Si atom -5579.163060 kJ/mol
# Density = 2.803126 g / cm^3
# Si number density = 28.095208 Si / 1000 Ang^3
#
#
#
# Elastic Constant Matrix: (Units=GPa)
#
#
# Indices 1 2 3 4 5 6 
#
# 1 80.5436 8.8493 9.1982 7.2819 2.0333 -31.4902
# 2 8.8493 133.6143 3.2350 23.2877 -0.8834 -28.3526
# 3 9.1982 3.2350 65.7436 2.6624 -19.0137 -5.0032
# 4 7.2819 23.2877 2.6624 32.0447 -2.4068 -5.0029
# 5 2.0333 -0.8834 -19.0137 -2.4068 43.2127 3.6081
# 6 -31.4902 -28.3526 -5.0032 -5.0029 3.6081 49.4560
#
#
#
# Elastic Compliance Matrix: (Units=1/GPa)
#
#
# Indices 1 2 3 4 5 6 
#
# 1 0.017541 0.002046 -0.002374 -0.003637 -0.003029 0.011955
# 2 0.002046 0.009855 -0.000286 -0.006686 -0.000920 0.006315
# 3 -0.002374 -0.000286 0.017838 -0.000209 0.007982 -0.000474
# 4 -0.003637 -0.006686 -0.000209 0.036666 0.002203 -0.002622
# 5 -0.003029 -0.000920 0.007982 0.002203 0.027185 -0.003409
# 6 0.011955 0.006315 -0.000474 -0.002622 -0.003409 0.031388
#
#
# Mechanical properties :
#
#
# Convention : Reuss Voigt Hill
#
# Bulk Modulus (GPa) = 22.72360 35.82960 29.27660
# Shear Modulus (GPa) = 31.97589 42.18396 37.07992
#
# Velocity S-wave (km/s) = 3.37727 3.87908 3.63684
# Velocity P-wave (km/s) = 4.82841 5.73093 5.29892
#
# Compressibility (1/GPa) = 0.04400711
#
# Stress axis : x y z
#
# Youngs Moduli (GPa) = 57.00828 101.47324 56.06073
#
# Poissons Ratio (x) = -0.20766 0.13308
# Poissons Ratio (y) = -0.11667 0.01604
# Poissons Ratio (z) = 0.13533 0.02903
#
# Static dielectric constant tensor:
#      x y z
#    x 1.902380 0.019180 0.026320 
#    y 0.019180 2.205440 -0.063470 
#    z 0.026320 -0.063470 2.171150 
# 
# From -- ./inp_files/388157.got.cif
#   From: 2010.05.17/outbox.cif.g08.bks.cpg/sg2_195_cif.got.tgz:388157.got - 2010.06.03 11:33:40.
