data_PCOD9104047
_publ_section_title
;
Structure prediction by ZEFSAII (Michael W. Deem and Ramdas Pophale) SiO2 
 PCOD9104047
Probable space group: P -1
;
_chemical_formula_sum "Si O2"
_cell_formula_units_Z 15
_cell_length_a 9.654769
_cell_length_b 11.059526
_cell_length_c 7.617767
_cell_angle_alpha 70.847234
_cell_angle_beta 98.057151
_cell_angle_gamma 64.435752
_cell_volume 654.177757
_symmetry_space_group_name_H-M "P -1"
_symmetry_group_IT_number 2
_symmetry_cell_setting 'triclinic'
loop_
_space_group_symop_operation_xyz
x,y,z
-x,-y,-z
loop_
_atom_site_type_symbol
_atom_site_label
_atom_site_fract_x
_atom_site_fract_y
_atom_site_fract_z
Si Si1 0.000000 0.000000 0.000000
Si Si2 0.256487 0.704914 0.027758
Si Si3 0.251717 0.971285 0.344678
Si Si4 0.100476 0.192051 0.531639
Si Si5 0.243727 0.689700 0.442873
Si Si6 0.546601 0.899885 0.228227
Si Si7 0.898081 0.460396 0.127392
Si Si8 0.405971 0.377602 0.820935
O O1 0.861259 0.119781 0.057401
O O2 0.858329 0.988905 0.868098
O O3 0.278107 0.653620 0.260902
O O4 0.436417 0.658802 0.021758
O O5 0.175061 0.630673 0.938254
O O6 0.298782 0.801363 0.470867
O O7 0.411300 0.977894 0.318958
O O8 0.147971 0.075308 0.437161
O O9 0.270442 0.147881 0.668706
O O10 0.955355 0.210023 0.624748
O O11 0.015832 0.355712 0.351532
O O12 0.326275 0.538442 0.637550
O O13 0.542355 0.752121 0.247600
O O14 0.500000 0.000000 0.000000
O O15 0.742181 0.608954 0.099599
O O16 0.000000 0.500000 0.000000
#
# Coordination Sequence:
#
# PCOD9104047 Si02
#       8
#     1   2   2   2   2   2   2   2
#     4  10  20  38  76  94 132 176 232 276 338 404
#     4  11  22  44  72 100 140 175 238 284 344 415
#     4  11  23  47  70 102 135 181 232 291 348 417
#     4  11  26  45  68 102 143 178 234 291 350 420
#     4  10  24  42  74 102 130 184 230 288 347 416
#     4  12  29  45  69 101 142 187 233 290 359 416
#     4  11  27  43  72 104 142 186 228 290 355 422
#     4  11  25  47  68 102 138 184 236 288 348 411
#
# _framework density 22.929549999999999
#
# number of rings (size 3 to 8) (size 9 to 14) (size 15 to 20)
#    0.000    1.067    4.000    1.600    9.333    1.067 
#    7.200    0.000    0.000    0.000    0.000    0.000 
#    0.000    0.000    0.000    0.000    0.000    0.000 
#
# Total GULP energy -83666.768815 kJ/mol
# GULP energy per Si atom -5577.784588 kJ/mol
# Density = 2.287736 g / cm^3
# Si number density = 22.929550 Si / 1000 Ang^3
#
#
#
# Elastic Constant Matrix: (Units=GPa)
#
#
# Indices 1 2 3 4 5 6 
#
# 1 118.3812 7.8965 36.7931 -5.2613 25.1926 -26.8986
# 2 7.8965 73.0308 8.7923 -2.4854 13.4820 -15.2506
# 3 36.7931 8.7923 56.4397 -8.3742 28.3882 0.4001
# 4 -5.2613 -2.4854 -8.3742 33.8088 -0.4957 4.3483
# 5 25.1926 13.4820 28.3882 -0.4957 39.8885 2.4650
# 6 -26.8986 -15.2506 0.4001 4.3483 2.4650 40.8858
#
#
#
# Elastic Compliance Matrix: (Units=1/GPa)
#
#
# Indices 1 2 3 4 5 6 
#
# 1 0.013968 0.002507 -0.007001 -0.000818 -0.005352 0.010602
# 2 0.002507 0.016566 -0.000563 0.000302 -0.007287 0.008241
# 3 -0.007001 -0.000563 0.032667 0.007312 -0.018249 -0.004813
# 4 -0.000818 0.000302 0.007312 0.031688 -0.004172 -0.003616
# 5 -0.005352 -0.007287 -0.018249 -0.004172 0.044361 -0.008291
# 6 0.010602 0.008241 -0.004813 -0.003616 -0.008291 0.035439
#
#
# Mechanical properties :
#
#
# Convention : Reuss Voigt Hill
#
# Bulk Modulus (GPa) = 18.83701 39.42394 29.13048
# Shear Modulus (GPa) = 24.69144 35.87460 30.28302
#
# Velocity S-wave (km/s) = 3.28508 3.95974 3.63808
# Velocity P-wave (km/s) = 4.75626 6.17551 5.51176
#
# Compressibility (1/GPa) = 0.05308697
#
# Stress axis : x y z
#
# Youngs Moduli (GPa) = 71.59458 60.36425 30.61152
#
# Poissons Ratio (x) = -0.15132 0.21430
# Poissons Ratio (y) = -0.17947 0.01724
# Poissons Ratio (z) = 0.50120 0.03400
#
# Static dielectric constant tensor:
#      x y z
#    x 1.920930 0.041910 -0.200210 
#    y 0.041910 1.916370 -0.216630 
#    z -0.200210 -0.216630 2.420950 
# 
# From -- ./inp_files/176473.got.cif
#   From: 2010.05.17/outbox.cif.g08.bks.cpg/sg2_89_cif.got.tgz:176473.got - 2010.06.03 11:33:40.
