data_PCOD9104740
_publ_section_title
;
Structure prediction by ZEFSAII (Michael W. Deem and Ramdas Pophale) SiO2 
 PCOD9104740
Probable space group: P -1
;
_chemical_formula_sum "Si O2"
_cell_formula_units_Z 16
_cell_length_a 6.409240
_cell_length_b 20.750595
_cell_length_c 16.644765
_cell_angle_alpha 161.087462
_cell_angle_beta 107.930570
_cell_angle_gamma 76.546690
_cell_volume 670.223853
_symmetry_space_group_name_H-M "P -1"
_symmetry_group_IT_number 2
_symmetry_cell_setting 'triclinic'
loop_
_space_group_symop_operation_xyz
x,y,z
-x,-y,-z
loop_
_atom_site_type_symbol
_atom_site_label
_atom_site_fract_x
_atom_site_fract_y
_atom_site_fract_z
Si Si1 0.389576 0.602254 0.998132
Si Si2 0.842910 0.654681 0.204811
Si Si3 0.797522 0.104543 0.569020
Si Si4 0.267933 0.104238 0.233414
Si Si5 0.888936 0.693548 0.693534
Si Si6 0.541689 0.239128 0.972661
Si Si7 0.355575 0.139617 0.001844
Si Si8 0.136747 0.034216 0.304743
O O1 0.624496 0.574437 0.031642
O O2 0.332237 0.809919 0.273261
O O3 0.428388 0.602429 0.908657
O O4 0.182922 0.451894 0.836935
O O5 0.813256 0.874448 0.494127
O O6 0.074148 0.702737 0.240797
O O7 0.632208 0.951438 0.311873
O O8 0.000000 0.000000 0.500000
O O9 0.214860 0.278491 0.373902
O O10 0.271840 0.152482 0.385699
O O11 0.486329 0.013106 0.131146
O O12 0.073277 0.902166 0.966882
O O13 0.000000 0.500000 0.500000
O O14 0.704242 0.718803 0.767768
O O15 0.457670 0.264646 0.082601
O O16 0.782134 0.178359 0.938206
O O17 0.124339 0.000133 0.782261
#
# Coordination Sequence:
#
# PCOD9104740 Si02
#       8
#     2   2   2   2   2   2   2   2
#     4  11  24  37  57  88 124 162 212 275 313 359
#     4  11  22  39  58  84 127 163 210 267 323 360
#     4  12  21  36  60  84 110 168 218 255 309 376
#     4   9  21  41  66  96 131 166 208 259 319 384
#     4  10  21  42  72  97 129 164 205 261 321 387
#     4  11  21  37  61  86 120 165 218 259 310 380
#     4  10  21  39  67  94 127 167 215 256 313 390
#     4  10  20  39  62  87 124 169 208 260 314 376
#
# _framework density 23.872622
#
# number of rings (size 3 to 8) (size 9 to 14) (size 15 to 20)
#    0.000    1.500    3.750    1.875    0.000    0.500 
#    6.750    0.000    8.250    0.000    0.000    0.000 
#    0.000    0.000    0.000    0.000    0.000    0.000 
#
# Total GULP energy -89327.957617 kJ/mol
# GULP energy per Si atom -5582.997351 kJ/mol
# Density = 2.381829 g / cm^3
# Si number density = 23.872622 Si / 1000 Ang^3
#
#
#
# Elastic Constant Matrix: (Units=GPa)
#
#
# Indices 1 2 3 4 5 6 
#
# 1 103.0025 26.9566 8.7573 14.2440 -13.7317 0.1030
# 2 26.9566 137.0518 17.5431 24.5839 -12.1819 7.8241
# 3 8.7573 17.5431 32.9785 17.4084 3.2087 8.4404
# 4 14.2440 24.5839 17.4084 41.9565 5.7259 1.9233
# 5 -13.7317 -12.1819 3.2087 5.7259 43.3304 4.6075
# 6 0.1030 7.8241 8.4404 1.9233 4.6075 40.9172
#
#
#
# Elastic Compliance Matrix: (Units=1/GPa)
#
#
# Indices 1 2 3 4 5 6 
#
# 1 0.011019 -0.001156 -0.001050 -0.003132 0.003643 0.000147
# 2 -0.001156 0.008913 -0.002093 -0.004308 0.003013 -0.001406
# 3 -0.001050 -0.002093 0.041762 -0.015241 -0.001217 -0.007358
# 4 -0.003132 -0.004308 -0.015241 0.034418 -0.005945 0.003027
# 5 0.003643 0.003013 -0.001217 -0.005945 0.026276 -0.003014
# 6 0.000147 -0.001406 -0.007358 0.003027 -0.003014 0.026423
#
#
# Mechanical properties :
#
#
# Convention : Reuss Voigt Hill
#
# Bulk Modulus (GPa) = 18.83387 42.17186 30.50286
# Shear Modulus (GPa) = 28.55373 39.89254 34.22313
#
# Velocity S-wave (km/s) = 3.46220 4.09229 3.79036
# Velocity P-wave (km/s) = 4.88763 6.32715 5.65339
#
# Compressibility (1/GPa) = 0.05309584
#
# Stress axis : x y z
#
# Youngs Moduli (GPa) = 90.75353 112.19957 23.94496
#
# Poissons Ratio (x) = 0.12966 0.02514
# Poissons Ratio (y) = 0.10488 0.05013
# Poissons Ratio (z) = 0.09529 0.23488
#
# Static dielectric constant tensor:
#      x y z
#    x 1.890880 0.027130 -0.005310 
#    y 0.027130 1.937180 0.044070 
#    z -0.005310 0.044070 2.103000 
# 
# From -- ./inp_files/551034.got.cif
#   From: 2010.05.17/outbox.cif.g08.bks.cpg/sg2_276_cif.got.tgz:551034.got - 2010.06.03 11:33:40.
