data_PCOD9104149
_publ_section_title
;
Structure prediction by ZEFSAII (Michael W. Deem and Ramdas Pophale) SiO2 
 PCOD9104149
Probable space group: P -1
;
_chemical_formula_sum "Si O2"
_cell_formula_units_Z 14
_cell_length_a 10.507627
_cell_length_b 10.199038
_cell_length_c 11.631222
_cell_angle_alpha 118.370221
_cell_angle_beta 113.136432
_cell_angle_gamma 42.477268
_cell_volume 738.760553
_symmetry_space_group_name_H-M "P -1"
_symmetry_group_IT_number 2
_symmetry_cell_setting 'triclinic'
loop_
_space_group_symop_operation_xyz
x,y,z
-x,-y,-z
loop_
_atom_site_type_symbol
_atom_site_label
_atom_site_fract_x
_atom_site_fract_y
_atom_site_fract_z
Si Si1 0.384271 0.897713 0.753011
Si Si2 0.076383 0.323896 0.220271
Si Si3 0.780355 0.478347 0.740017
Si Si4 0.426655 0.134634 0.417128
Si Si5 0.061469 0.281707 0.940376
Si Si6 0.870730 0.449241 0.411770
Si Si7 0.846641 0.205032 0.460588
O O1 0.591190 0.708211 0.797791
O O2 0.419759 0.940795 0.656865
O O3 0.279750 0.818189 0.663189
O O4 0.255158 0.097429 0.868643
O O5 0.087252 0.493502 0.264018
O O6 0.262373 0.167049 0.301156
O O7 0.895920 0.412308 0.269206
O O8 0.078804 0.239128 0.064090
O O9 0.739142 0.381640 0.592305
O O10 0.893653 0.330300 0.826620
O O11 0.329656 0.355592 0.525409
O O12 0.500000 0.000000 0.500000
O O13 0.000000 0.500000 0.000000
O O14 0.935104 0.258038 0.424829
O O15 0.000000 0.500000 0.500000
O O16 0.000000 0.000000 0.500000
#
# Coordination Sequence:
#
# PCOD9104149 Si02
#       7
#     2   2   2   2   2   2   2
#     4  11  23  38  59  91 127 151 213 251 299 371
#     4   9  20  38  59  83 122 154 204 243 297 355
#     4  10  20  39  59  91 119 157 202 254 308 351
#     4  10  22  33  61  92 121 155 196 257 315 343
#     4  10  22  37  61  86 120 170 203 249 298 357
#     4  10  20  39  58  86 125 150 201 254 300 368
#     4  12  22  36  66  91 121 163 195 263 316 352
#
# _framework density 18.950659999999999
#
# number of rings (size 3 to 8) (size 9 to 14) (size 15 to 20)
#    0.000    1.714    5.714    0.429    8.000    5.143 
#    0.000    0.714    0.000    0.857    0.000    0.000 
#    0.000    0.000    0.000    0.000    0.000    0.000 
#
# Total GULP energy -77975.888678 kJ/mol
# GULP energy per Si atom -5569.706334 kJ/mol
# Density = 1.890753 g / cm^3
# Si number density = 18.950660 Si / 1000 Ang^3
#
#
#
# Elastic Constant Matrix: (Units=GPa)
#
#
# Indices 1 2 3 4 5 6 
#
# 1 58.3755 25.5385 42.8947 1.1206 -18.4338 8.2278
# 2 25.5385 105.1593 49.7968 -4.2754 -25.9613 0.6528
# 3 42.8947 49.7968 139.7702 -0.4834 -39.7733 -5.3984
# 4 1.1206 -4.2754 -0.4834 44.1512 -3.7504 -6.8070
# 5 -18.4338 -25.9613 -39.7733 -3.7504 33.0307 4.3840
# 6 8.2278 0.6528 -5.3984 -6.8070 4.3840 21.9374
#
#
#
# Elastic Compliance Matrix: (Units=1/GPa)
#
#
# Indices 1 2 3 4 5 6 
#
# 1 0.026697 -0.001746 -0.005807 -0.002340 0.008091 -0.013733
# 2 -0.001746 0.012674 -0.002075 0.001662 0.006821 -0.001080
# 3 -0.005807 -0.002075 0.012699 0.001532 0.010086 0.003825
# 4 -0.002340 0.001662 0.001532 0.024433 0.003547 0.008078
# 5 0.008091 0.006821 0.010086 0.003547 0.054088 -0.010464
# 6 -0.013733 -0.001080 0.003825 0.008078 -0.010464 0.056306
#
#
# Mechanical properties :
#
#
# Convention : Reuss Voigt Hill
#
# Bulk Modulus (GPa) = 30.47412 59.97389 45.22401
# Shear Modulus (GPa) = 23.03173 32.16218 27.59696
#
# Velocity S-wave (km/s) = 3.48997 4.12412 3.82023
# Velocity P-wave (km/s) = 5.68819 7.37522 6.58595
#
# Compressibility (1/GPa) = 0.03281473
#
# Stress axis : x y z
#
# Youngs Moduli (GPa) = 37.45719 78.90155 78.74571
#
# Poissons Ratio (x) = 0.13776 0.45729
# Poissons Ratio (y) = 0.06540 0.16336
# Poissons Ratio (z) = 0.21752 0.16369
#
# Static dielectric constant tensor:
#      x y z
#    x 1.695480 -0.025150 -0.003570 
#    y -0.025150 1.713650 -0.010380 
#    z -0.003570 -0.010380 1.739060 
# 
# From -- ./inp_files/380002.got.cif
#   From: 2010.05.17/outbox.cif.g08.bks.cpg/sg2_191_cif.got.tgz:380002.got - 2010.06.03 11:33:40.
