data_PCOD9104775
_publ_section_title
;
Structure prediction by ZEFSAII (Michael W. Deem and Ramdas Pophale) SiO2 
 PCOD9104775
Probable space group: P -1
;
_chemical_formula_sum "Si O2"
_cell_formula_units_Z 14
_cell_length_a 8.603800
_cell_length_b 8.273315
_cell_length_c 13.298151
_cell_angle_alpha 45.867270
_cell_angle_beta 123.504113
_cell_angle_gamma 108.065589
_cell_volume 562.131405
_symmetry_space_group_name_H-M "P -1"
_symmetry_group_IT_number 2
_symmetry_cell_setting 'triclinic'
loop_
_space_group_symop_operation_xyz
x,y,z
-x,-y,-z
loop_
_atom_site_type_symbol
_atom_site_label
_atom_site_fract_x
_atom_site_fract_y
_atom_site_fract_z
Si Si1 0.954336 0.786291 0.137584
Si Si2 0.424642 0.755722 0.066134
Si Si3 0.275469 0.951537 0.535085
Si Si4 0.168954 0.454274 0.495849
Si Si5 0.106819 0.009989 0.745706
Si Si6 0.312889 0.527211 0.857047
Si Si7 0.462161 0.360438 0.380595
O O1 0.910969 0.900303 0.183899
O O2 0.817026 0.657608 0.074195
O O3 0.089724 0.565048 0.317368
O O4 0.000000 0.000000 0.000000
O O5 0.254049 0.785672 0.912084
O O6 0.612270 0.601056 0.164147
O O7 0.361073 0.604326 0.200503
O O8 0.500000 0.000000 0.000000
O O9 0.229562 0.780616 0.682614
O O10 0.455141 0.801212 0.612515
O O11 0.095721 0.993247 0.377459
O O12 0.344323 0.195465 0.472293
O O13 0.209817 0.186161 0.640625
O O14 0.351171 0.575536 0.528005
O O15 0.000000 0.500000 0.500000
O O16 0.500000 0.500000 0.000000
#
# Coordination Sequence:
#
# PCOD9104775 Si02
#       7
#     2   2   2   2   2   2   2
#     4  11  22  34  61  97 123 159 207 259 306 362
#     4  11  20  37  66  93 118 160 212 256 301 365
#     4  10  20  36  59  88 119 164 208 249 299 375
#     4  10  16  33  58  86 112 163 212 243 288 373
#     4  11  19  38  66  88 121 161 215 248 300 371
#     4  11  24  41  61  91 129 162 201 259 318 359
#     4  10  19  31  58  90 116 151 209 257 291 353
#
# _framework density 24.905208999999999
#
# number of rings (size 3 to 8) (size 9 to 14) (size 15 to 20)
#    0.000    1.429    7.143    1.714    2.000    1.714 
#    0.000    0.714    3.143    2.571    0.000    0.000 
#    0.000    0.000    0.000    0.000    0.000    0.000 
#
# Total GULP energy -78005.554716 kJ/mol
# GULP energy per Si atom -5571.825337 kJ/mol
# Density = 2.484852 g / cm^3
# Si number density = 24.905209 Si / 1000 Ang^3
#
#
#
# Elastic Constant Matrix: (Units=GPa)
#
#
# Indices 1 2 3 4 5 6 
#
# 1 48.0071 31.2113 42.2517 -14.4963 -12.7438 0.9194
# 2 31.2113 171.6064 77.3439 -22.3802 -11.6380 59.5203
# 3 42.2517 77.3439 162.5688 -12.6820 -6.8689 43.9071
# 4 -14.4963 -22.3802 -12.6820 56.7252 7.1220 0.1565
# 5 -12.7438 -11.6380 -6.8689 7.1220 41.7380 -15.8490
# 6 0.9194 59.5203 43.9071 0.1565 -15.8490 45.3641
#
#
#
# Elastic Compliance Matrix: (Units=1/GPa)
#
#
# Indices 1 2 3 4 5 6 
#
# 1 0.052163 -0.015656 -0.017232 -0.000076 0.025908 0.045215
# 2 -0.015656 0.017304 0.003938 0.005261 -0.011714 -0.030308
# 3 -0.017232 0.003938 0.014564 0.001809 -0.010676 -0.022649
# 4 -0.000076 0.005261 0.001809 0.020862 -0.005916 -0.010790
# 5 0.025908 -0.011714 -0.010676 -0.005916 0.043148 0.040272
# 6 0.045215 -0.030308 -0.022649 -0.010790 0.040272 0.096923
#
#
# Mechanical properties :
#
#
# Convention : Reuss Voigt Hill
#
# Bulk Modulus (GPa) = 38.26952 75.97733 57.12343
# Shear Modulus (GPa) = 16.04757 44.19050 30.11903
#
# Velocity S-wave (km/s) = 2.54115 4.21687 3.48134
# Velocity P-wave (km/s) = 4.89993 7.36764 6.25666
#
# Compressibility (1/GPa) = 0.02613045
#
# Stress axis : x y z
#
# Youngs Moduli (GPa) = 19.17063 57.79033 68.66476
#
# Poissons Ratio (x) = 0.90478 1.18321
# Poissons Ratio (y) = 0.30014 -0.27039
# Poissons Ratio (z) = 0.33034 -0.22757
#
# Static dielectric constant tensor:
#      x y z
#    x 2.263240 -0.050060 0.025610 
#    y -0.050060 2.134310 -0.060890 
#    z 0.025610 -0.060890 2.017810 
# 
# From -- ./inp_files/396342.got.cif
#   From: 2010.05.17/outbox.cif.g08.bks.cpg/sg2_199_cif.got.tgz:396342.got - 2010.06.03 11:33:40.
