data_PCOD9104993
_publ_section_title
;
Structure prediction by ZEFSAII (Michael W. Deem and Ramdas Pophale) SiO2 
 PCOD9104993
Probable space group: P -1
;
_chemical_formula_sum "Si O2"
_cell_formula_units_Z 16
_cell_length_a 21.489915
_cell_length_b 9.777935
_cell_length_c 13.891275
_cell_angle_alpha 124.565284
_cell_angle_beta 19.186084
_cell_angle_gamma 123.892752
_cell_volume 787.370828
_symmetry_space_group_name_H-M "P -1"
_symmetry_group_IT_number 2
_symmetry_cell_setting 'triclinic'
loop_
_space_group_symop_operation_xyz
x,y,z
-x,-y,-z
loop_
_atom_site_type_symbol
_atom_site_label
_atom_site_fract_x
_atom_site_fract_y
_atom_site_fract_z
Si Si1 0.862175 0.089204 0.962172
Si Si2 0.209427 0.415818 0.905225
Si Si3 0.170177 0.279148 0.216395
Si Si4 0.433965 0.736951 0.620279
Si Si5 0.093404 0.120122 0.831309
Si Si6 0.222646 0.592031 0.149122
Si Si7 0.143300 0.134917 0.400044
Si Si8 0.537655 0.099847 0.155015
O O1 0.970781 0.097617 0.906269
O O2 0.011689 0.175906 0.699104
O O3 0.801626 0.900109 0.942013
O O4 0.672575 0.186626 0.280939
O O5 0.332358 0.556221 0.721233
O O6 0.345736 0.290443 0.708663
O O7 0.092833 0.303153 0.953700
O O8 0.139230 0.513283 0.138577
O O9 0.277617 0.442921 0.077528
O O10 0.195613 0.264481 0.288956
O O11 0.951919 0.309952 0.520026
O O12 0.405122 0.858249 0.801142
O O13 0.310408 0.077756 0.475056
O O14 0.000000 0.000000 0.000000
O O15 0.392927 0.729556 0.933289
O O16 0.000000 0.000000 0.500000
O O17 0.331198 0.047192 0.124188
#
# Coordination Sequence:
#
# PCOD9104993 Si02
#       8
#     2   2   2   2   2   2   2   2
#     4  11  20  36  62  88 119 154 194 238 302 349
#     4   9  19  36  57  84 115 153 197 231 296 344
#     4  10  19  32  60  96 117 140 195 251 297 333
#     4   9  17  34  62  85 109 150 197 249 276 348
#     4  11  25  40  54  83 122 161 198 237 290 358
#     4  10  18  34  59  89 119 152 187 248 289 350
#     4  10  16  33  59  91 113 140 195 246 290 342
#     4  10  18  37  62  83 118 154 193 238 299 342
#
# _framework density 20.320793999999999
#
# number of rings (size 3 to 8) (size 9 to 14) (size 15 to 20)
#    0.000    2.000    5.000    2.250    0.000    1.000 
#    2.250    1.875    0.000    0.750    0.000    0.000 
#    0.000    0.000    0.000    0.000    0.000    0.000 
#
# Total GULP energy -89156.362451 kJ/mol
# GULP energy per Si atom -5572.272653 kJ/mol
# Density = 2.027454 g / cm^3
# Si number density = 20.320794 Si / 1000 Ang^3
#
#
#
# Elastic Constant Matrix: (Units=GPa)
#
#
# Indices 1 2 3 4 5 6 
#
# 1 91.6671 29.5668 13.1728 -5.2917 -13.3948 -25.7675
# 2 29.5668 75.0120 26.9563 7.3316 -10.6403 -22.3733
# 3 13.1728 26.9563 73.7793 7.3903 -16.1878 -10.5356
# 4 -5.2917 7.3316 7.3903 26.9919 -5.2780 4.4300
# 5 -13.3948 -10.6403 -16.1878 -5.2780 23.3229 3.8310
# 6 -25.7675 -22.3733 -10.5356 4.4300 3.8310 26.3064
#
#
#
# Elastic Compliance Matrix: (Units=1/GPa)
#
#
# Indices 1 2 3 4 5 6 
#
# 1 0.016416 -0.002156 0.001136 0.002855 0.007728 0.013095
# 2 -0.002156 0.021103 -0.004123 -0.007249 0.001390 0.015203
# 3 0.001136 -0.004123 0.017796 -0.002164 0.010036 0.003636
# 4 0.002855 -0.007249 -0.002164 0.044040 0.008924 -0.012951
# 5 0.007728 0.001390 0.010036 0.008924 0.056433 0.003050
# 6 0.013095 0.015203 0.003636 -0.012951 0.003050 0.066964
#
#
# Mechanical properties :
#
#
# Convention : Reuss Voigt Hill
#
# Bulk Modulus (GPa) = 22.20795 42.20558 32.20677
# Shear Modulus (GPa) = 20.15747 26.70840 23.43294
#
# Velocity S-wave (km/s) = 3.15296 3.62931 3.39949
# Velocity P-wave (km/s) = 4.92009 6.19494 5.59395
#
# Compressibility (1/GPa) = 0.04502891
#
# Stress axis : x y z
#
# Youngs Moduli (GPa) = 60.91496 47.38693 56.19389
#
# Poissons Ratio (x) = 0.10217 -0.06386
# Poissons Ratio (y) = 0.13133 0.23170
# Poissons Ratio (z) = -0.06922 0.19539
#
# Static dielectric constant tensor:
#      x y z
#    x 1.746910 -0.023620 0.059010 
#    y -0.023620 1.762260 0.016120 
#    z 0.059010 0.016120 1.774340 
# 
# From -- ./inp_files/509156.got.cif
#   From: 2010.05.17/outbox.cif.g08.bks.cpg/sg2_255_cif.got.tgz:509156.got - 2010.06.03 11:33:40.
