data_PCOD9104777
_publ_section_title
;
Structure prediction by ZEFSAII (Michael W. Deem and Ramdas Pophale) SiO2 
 PCOD9104777
Probable space group: P -1
;
_chemical_formula_sum "Si O2"
_cell_formula_units_Z 16
_cell_length_a 9.288927
_cell_length_b 10.884657
_cell_length_c 7.886119
_cell_angle_alpha 77.513242
_cell_angle_beta 58.008318
_cell_angle_gamma 69.833972
_cell_volume 634.224106
_symmetry_space_group_name_H-M "P -1"
_symmetry_group_IT_number 2
_symmetry_cell_setting 'triclinic'
loop_
_space_group_symop_operation_xyz
x,y,z
-x,-y,-z
loop_
_atom_site_type_symbol
_atom_site_label
_atom_site_fract_x
_atom_site_fract_y
_atom_site_fract_z
Si Si1 0.544557 0.397816 0.345900
Si Si2 0.394261 0.003661 0.736649
Si Si3 0.362777 0.829477 0.387928
Si Si4 0.917376 0.388418 0.149598
Si Si5 0.268951 0.842122 0.102770
Si Si6 0.943686 0.874515 0.691044
Si Si7 0.177441 0.452566 0.508041
Si Si8 0.900775 0.814005 0.337406
O O1 0.500000 0.500000 0.500000
O O2 0.561694 0.262317 0.474752
O O3 0.738490 0.391325 0.160222
O O4 0.374597 0.431111 0.320883
O O5 0.507843 0.078710 0.753409
O O6 0.200717 0.074865 0.763405
O O7 0.500000 0.000000 0.500000
O O8 0.387105 0.870869 0.870746
O O9 0.368079 0.760134 0.223590
O O10 0.149736 0.879349 0.547021
O O11 0.850021 0.437486 0.364646
O O12 0.046664 0.245127 0.149645
O O13 0.000000 0.500000 0.000000
O O14 0.105860 0.788473 0.176669
O O15 0.177158 0.991073 0.192122
O O16 0.885117 0.845369 0.543433
O O17 0.169001 0.310596 0.619759
O O18 0.000000 0.500000 0.500000
#
# Coordination Sequence:
#
# PCOD9104777 Si02
#       8
#     2   2   2   2   2   2   2   2
#     4   9  20  38  64  91 122 167 209 252 316 377
#     4  12  24  40  59  90 127 158 208 261 318 369
#     4  10  20  39  62  89 122 163 207 257 307 376
#     4  10  22  39  65  93 126 169 216 260 305 383
#     4  11  24  39  62  92 122 173 210 251 317 385
#     4  10  21  41  64  88 125 170 215 252 313 381
#     4  11  21  41  66  93 125 164 212 260 327 366
#     4  11  22  40  63  92 127 161 208 264 315 373
#
# _framework density 25.227671999999998
#
# number of rings (size 3 to 8) (size 9 to 14) (size 15 to 20)
#    0.000    1.500    2.500    3.750    3.500    0.000 
#    2.250    0.625    0.000    0.000    0.000    0.000 
#    0.000    0.000    0.000    0.000    0.000    0.000 
#
# Total GULP energy -89315.938586 kJ/mol
# GULP energy per Si atom -5582.246162 kJ/mol
# Density = 2.517025 g / cm^3
# Si number density = 25.227672 Si / 1000 Ang^3
#
#
#
# Elastic Constant Matrix: (Units=GPa)
#
#
# Indices 1 2 3 4 5 6 
#
# 1 157.5752 -5.0170 27.7947 -0.6318 -24.8866 -7.7356
# 2 -5.0170 70.0768 12.0243 -4.1302 3.6230 3.3917
# 3 27.7947 12.0243 90.1073 -18.2357 -1.6607 0.0545
# 4 -0.6318 -4.1302 -18.2357 47.5194 15.4851 4.0613
# 5 -24.8866 3.6230 -1.6607 15.4851 26.8401 -11.0365
# 6 -7.7356 3.3917 0.0545 4.0613 -11.0365 28.1163
#
#
#
# Elastic Compliance Matrix: (Units=1/GPa)
#
#
# Indices 1 2 3 4 5 6 
#
# 1 0.011073 -0.000629 -0.004914 -0.009678 0.020862 0.012719
# 2 -0.000629 0.015259 -0.001250 0.003539 -0.006915 -0.005237
# 3 -0.004914 -0.001250 0.014607 0.010135 -0.012448 -0.007579
# 4 -0.009678 0.003539 0.010135 0.041555 -0.043580 -0.026218
# 5 0.020862 -0.006915 -0.012448 -0.043580 0.103994 0.053714
# 6 0.012719 -0.005237 -0.007579 -0.026218 0.053714 0.064584
#
#
# Mechanical properties :
#
#
# Convention : Reuss Voigt Hill
#
# Bulk Modulus (GPa) = 36.55799 43.04037 39.79918
# Shear Modulus (GPa) = 18.26316 39.35896 28.81106
#
# Velocity S-wave (km/s) = 2.69352 3.95416 3.38308
# Velocity P-wave (km/s) = 4.91895 6.15995 5.57409
#
# Compressibility (1/GPa) = 0.02735380
#
# Stress axis : x y z
#
# Youngs Moduli (GPa) = 90.30730 65.53430 68.46131
#
# Poissons Ratio (x) = 0.04120 0.33640
# Poissons Ratio (y) = 0.05678 0.08560
# Poissons Ratio (z) = 0.44374 0.08194
#
# Static dielectric constant tensor:
#      x y z
#    x 2.009910 0.016340 0.086960 
#    y 0.016340 2.154450 0.093930 
#    z 0.086960 0.093930 2.083370 
# 
# From -- ./inp_files/180738.got.cif
#   From: 2010.05.17/outbox.cif.g08.bks.cpg/sg2_91_cif.got.tgz:180738.got - 2010.06.03 11:33:40.
