data_PCOD9104365
_publ_section_title
;
Structure prediction by ZEFSAII (Michael W. Deem and Ramdas Pophale) SiO2 
 PCOD9104365
Probable space group: P -1
;
_chemical_formula_sum "Si O2"
_cell_formula_units_Z 16
_cell_length_a 5.221760
_cell_length_b 10.550434
_cell_length_c 18.685955
_cell_angle_alpha 59.043373
_cell_angle_beta 121.630951
_cell_angle_gamma 117.871075
_cell_volume 723.578609
_symmetry_space_group_name_H-M "P -1"
_symmetry_group_IT_number 2
_symmetry_cell_setting 'triclinic'
loop_
_space_group_symop_operation_xyz
x,y,z
-x,-y,-z
loop_
_atom_site_type_symbol
_atom_site_label
_atom_site_fract_x
_atom_site_fract_y
_atom_site_fract_z
Si Si1 0.983002 0.547587 0.741920
Si Si2 0.439740 0.386651 0.457386
Si Si3 0.870585 0.197484 0.800763
Si Si4 0.143606 0.791060 0.486357
Si Si5 0.539142 0.166455 0.344601
Si Si6 0.380534 0.012992 0.899288
Si Si7 0.097276 0.783748 0.811631
Si Si8 0.668516 0.942812 0.330770
O O1 0.665139 0.551896 0.651202
O O2 0.011917 0.375315 0.790964
O O3 0.238795 0.671502 0.697743
O O4 0.028403 0.619496 0.808544
O O5 0.500000 0.500000 0.500000
O O6 0.753597 0.334047 0.508792
O O7 0.136240 0.260622 0.481131
O O8 0.664225 0.107700 0.862973
O O9 0.623270 0.187749 0.702490
O O10 0.123236 0.109867 0.838276
O O11 0.452508 0.839856 0.566745
O O12 0.987139 0.894667 0.384697
O O13 0.219496 0.169086 0.260316
O O14 0.643449 0.016258 0.381821
O O15 0.229253 0.842659 0.892043
O O16 0.500000 0.000000 0.000000
O O17 0.332666 0.908443 0.760261
#
# Coordination Sequence:
#
# PCOD9104365 Si02
#       8
#     2   2   2   2   2   2   2   2
#     4  10  23  40  62  94 129 171 214 255 314 378
#     4  11  23  37  54  83 129 176 212 262 311 349
#     4  11  24  42  70  97 126 164 208 258 314 380
#     4  11  23  35  56  87 124 169 223 266 297 351
#     4  10  20  39  60  88 130 174 211 260 315 362
#     4  11  25  47  72  98 125 158 204 260 324 390
#     4  10  21  41  66  88 129 170 207 262 324 373
#     4  10  22  37  60  94 123 170 223 262 306 366
#
# _framework density 22.112317000000001
#
# number of rings (size 3 to 8) (size 9 to 14) (size 15 to 20)
#    0.000    1.500    2.500    1.875    3.500    2.500 
#    0.000    1.250    0.000    0.000    0.000    0.000 
#    0.000    0.000    0.000    0.000    0.000    0.000 
#
# Total GULP energy -89150.752919 kJ/mol
# GULP energy per Si atom -5571.922057 kJ/mol
# Density = 2.206199 g / cm^3
# Si number density = 22.112317 Si / 1000 Ang^3
#
#
#
# Elastic Constant Matrix: (Units=GPa)
#
#
# Indices 1 2 3 4 5 6 
#
# 1 67.1130 14.9892 -2.6801 -7.5610 1.6914 -11.8839
# 2 14.9892 159.9160 34.0319 22.9914 -3.1205 -20.9084
# 3 -2.6801 34.0319 49.1764 23.6263 -6.3220 -1.2389
# 4 -7.5610 22.9914 23.6263 31.8367 -4.4562 0.4116
# 5 1.6914 -3.1205 -6.3220 -4.4562 24.7886 -0.5393
# 6 -11.8839 -20.9084 -1.2389 0.4116 -0.5393 38.5980
#
#
#
# Elastic Compliance Matrix: (Units=1/GPa)
#
#
# Indices 1 2 3 4 5 6 
#
# 1 0.016611 -0.001707 -0.000461 0.005410 -0.000404 0.004111
# 2 -0.001707 0.008282 -0.004136 -0.003427 -0.000428 0.003859
# 3 -0.000461 -0.004136 0.034223 -0.021908 0.004279 -0.000990
# 4 0.005410 -0.003427 -0.021908 0.051852 0.002903 -0.001406
# 5 -0.000404 -0.000428 0.004279 0.002903 0.041935 0.000336
# 6 0.004111 0.003859 -0.000990 -0.001406 0.000336 0.029252
#
#
# Mechanical properties :
#
#
# Convention : Reuss Voigt Hill
#
# Bulk Modulus (GPa) = 21.50181 40.98749 31.24465
# Shear Modulus (GPa) = 23.77939 34.36896 29.07417
#
# Velocity S-wave (km/s) = 3.28287 3.94673 3.63001
# Velocity P-wave (km/s) = 4.91067 6.27257 5.63293
#
# Compressibility (1/GPa) = 0.04650771
#
# Stress axis : x y z
#
# Youngs Moduli (GPa) = 60.20181 120.73865 29.22045
#
# Poissons Ratio (x) = 0.20610 0.01347
# Poissons Ratio (y) = 0.10276 0.12086
# Poissons Ratio (z) = 0.02775 0.49938
#
# Static dielectric constant tensor:
#      x y z
#    x 1.931670 -0.004030 -0.020100 
#    y -0.004030 1.961630 0.038600 
#    z -0.020100 0.038600 1.860460 
# 
# From -- ./inp_files/50941.got.cif
#   From: 2010.05.17/outbox.cif.g08.bks.cpg/sg2_26_cif.got.tgz:50941.got - 2010.06.03 11:33:40.
