data_PCOD9104841
_publ_section_title
;
Structure prediction by ZEFSAII (Michael W. Deem and Ramdas Pophale) SiO2 
 PCOD9104841
Probable space group: P -1
;
_chemical_formula_sum "Si O2"
_cell_formula_units_Z 16
_cell_length_a 5.695843
_cell_length_b 10.680981
_cell_length_c 11.388139
_cell_angle_alpha 82.658366
_cell_angle_beta 102.087910
_cell_angle_gamma 87.003672
_cell_volume 669.672059
_symmetry_space_group_name_H-M "P -1"
_symmetry_group_IT_number 2
_symmetry_cell_setting 'triclinic'
loop_
_space_group_symop_operation_xyz
x,y,z
-x,-y,-z
loop_
_atom_site_type_symbol
_atom_site_label
_atom_site_fract_x
_atom_site_fract_y
_atom_site_fract_z
Si Si1 0.221903 0.116071 0.429366
Si Si2 0.239612 0.456050 0.596875
Si Si3 0.083604 0.749576 0.801797
Si Si4 0.779348 0.007624 0.074556
Si Si5 0.596543 0.290820 0.497501
Si Si6 0.005518 0.114438 0.659703
Si Si7 0.774742 0.590417 0.922806
Si Si8 0.644008 0.526980 0.156205
O O1 0.472591 0.178281 0.432755
O O2 0.006249 0.211858 0.342612
O O3 0.175815 0.091190 0.565081
O O4 0.184477 0.994003 0.361018
O O5 0.395632 0.345286 0.562003
O O6 0.371731 0.586472 0.592175
O O7 0.211801 0.416375 0.731911
O O8 0.000000 0.500000 0.500000
O O9 0.205467 0.858975 0.870031
O O10 0.238206 0.616099 0.831484
O O11 0.846516 0.714868 0.852827
O O12 0.859219 0.906004 0.199628
O O13 0.500000 0.000000 0.000000
O O14 0.000000 0.000000 0.000000
O O15 0.837905 0.241162 0.597031
O O16 0.628105 0.498806 0.838612
O O17 0.637671 0.610765 0.029250
O O18 0.000000 0.500000 0.000000
#
# Coordination Sequence:
#
# PCOD9104841 Si02
#       8
#     2   2   2   2   2   2   2   2
#     4  10  21  41  70  98 129 169 230 291 348 408
#     4  11  24  41  60  95 142 178 219 281 352 417
#     4  10  21  41  69  93 129 177 227 288 350 412
#     4  11  28  51  70 102 146 187 235 291 357 426
#     4  11  22  39  64 101 133 177 222 284 352 418
#     4  10  23  44  69 102 131 176 233 288 349 418
#     4   9  20  38  60  93 122 165 229 279 337 405
#     4  10  20  39  62  91 128 171 229 279 340 419
#
# _framework density 23.892291
#
# number of rings (size 3 to 8) (size 9 to 14) (size 15 to 20)
#    0.000    1.750    0.000    3.375    3.500    3.000 
#   15.750    0.000    0.000    0.000    0.000    0.000 
#    0.000    0.000    0.000    0.000    0.000    0.000 
#
# Total GULP energy -89285.969954 kJ/mol
# GULP energy per Si atom -5580.373122 kJ/mol
# Density = 2.383791 g / cm^3
# Si number density = 23.892291 Si / 1000 Ang^3
#
#
#
# Elastic Constant Matrix: (Units=GPa)
#
#
# Indices 1 2 3 4 5 6 
#
# 1 68.2387 16.9202 50.5850 9.5977 20.1721 6.2980
# 2 16.9202 56.9761 16.4163 -4.1971 0.4522 11.9013
# 3 50.5850 16.4163 188.7613 -4.7944 12.0816 1.9012
# 4 9.5977 -4.1971 -4.7944 29.8240 1.9358 9.6247
# 5 20.1721 0.4522 12.0816 1.9358 33.5781 -0.8149
# 6 6.2980 11.9013 1.9012 9.6247 -0.8149 48.2252
#
#
#
# Elastic Compliance Matrix: (Units=1/GPa)
#
#
# Indices 1 2 3 4 5 6 
#
# 1 0.025544 -0.006557 -0.005702 -0.009284 -0.012667 0.000146
# 2 -0.006557 0.021163 -0.000058 0.006697 0.003152 -0.005647
# 3 -0.005702 -0.000058 0.006855 0.002902 0.000791 -0.000077
# 4 -0.009284 0.006697 0.002902 0.040587 0.001894 -0.008623
# 5 -0.012667 0.003152 0.000791 0.001894 0.036981 0.001092
# 6 0.000146 -0.005647 -0.000077 -0.008623 0.001092 0.023853
#
#
# Mechanical properties :
#
#
# Convention : Reuss Voigt Hill
#
# Bulk Modulus (GPa) = 34.56830 53.53544 44.05187
# Shear Modulus (GPa) = 26.41890 37.66243 32.04066
#
# Velocity S-wave (km/s) = 3.32889 3.97462 3.66600
# Velocity P-wave (km/s) = 5.41065 6.59691 6.03301
#
# Compressibility (1/GPa) = 0.02892824
#
# Stress axis : x y z
#
# Youngs Moduli (GPa) = 39.14862 47.25201 145.88771
#
# Poissons Ratio (x) = 0.30982 0.83180
# Poissons Ratio (y) = 0.25669 0.00848
# Poissons Ratio (z) = 0.22321 0.00275
#
# Static dielectric constant tensor:
#      x y z
#    x 2.137620 -0.000400 -0.022630 
#    y -0.000400 1.934070 0.045990 
#    z -0.022630 0.045990 1.942690 
# 
# From -- ./inp_files/118587.got.cif
#   From: 2010.05.17/outbox.cif.g08.bks.cpg/sg2_60_cif.got.tgz:118587.got - 2010.06.03 11:33:40.
