data_PCOD9104170
_publ_section_title
;
Structure prediction by ZEFSAII (Michael W. Deem and Ramdas Pophale) SiO2 
 PCOD9104170
Probable space group: P -1
;
_chemical_formula_sum "Si O2"
_cell_formula_units_Z 16
_cell_length_a 17.629698
_cell_length_b 9.077630
_cell_length_c 15.558921
_cell_angle_alpha 140.831600
_cell_angle_beta 155.420614
_cell_angle_gamma 40.113034
_cell_volume 637.027925
_symmetry_space_group_name_H-M "P -1"
_symmetry_group_IT_number 2
_symmetry_cell_setting 'triclinic'
loop_
_space_group_symop_operation_xyz
x,y,z
-x,-y,-z
loop_
_atom_site_type_symbol
_atom_site_label
_atom_site_fract_x
_atom_site_fract_y
_atom_site_fract_z
Si Si1 0.971282 0.468808 0.745662
Si Si2 0.483485 0.714575 0.514887
Si Si3 0.786626 0.351862 0.053088
Si Si4 0.230180 0.613181 0.744275
Si Si5 0.448338 0.123250 0.782102
Si Si6 0.418916 0.279311 0.562960
Si Si7 0.049547 0.850702 0.126446
Si Si8 0.897199 0.027010 0.566276
O O1 0.792116 0.628509 0.584526
O O2 0.932224 0.215439 0.617430
O O3 0.143285 0.472825 0.861466
O O4 0.001577 0.615740 0.929414
O O5 0.500000 0.500000 0.500000
O O6 0.588511 0.612773 0.491849
O O7 0.267995 0.825037 0.318646
O O8 0.550197 0.923988 0.729009
O O9 0.800585 0.395021 0.187910
O O10 0.572636 0.360523 0.814433
O O11 0.912905 0.082442 0.048895
O O12 0.306224 0.333116 0.678955
O O13 0.395426 0.753517 0.961326
O O14 0.041182 0.772450 0.583518
O O15 0.313950 0.009829 0.654183
O O16 0.500000 0.000000 0.500000
O O17 0.044648 0.881621 0.238756
#
# Coordination Sequence:
#
# PCOD9104170 Si02
#       8
#     2   2   2   2   2   2   2   2
#     4  12  23  37  61  97 133 168 204 262 327 382
#     4  11  23  37  64  96 129 159 200 269 314 368
#     4  11  23  41  61  95 130 172 214 253 318 387
#     4  10  23  43  72  86 121 173 217 266 305 375
#     4  10  22  43  64  97 120 162 226 259 309 372
#     4  12  22  36  59  91 130 168 205 255 316 375
#     4  10  20  39  58  90 133 171 210 250 311 390
#     4  10  23  38  65  93 125 161 212 273 313 367
#
# _framework density 25.116637999999998
#
# number of rings (size 3 to 8) (size 9 to 14) (size 15 to 20)
#    0.000    1.250    2.500    4.125    3.500    3.000 
#    0.000    0.625    0.000   10.500    0.000    0.000 
#    0.000    0.000    0.000    0.000    0.000    0.000 
#
# Total GULP energy -89640.038470 kJ/mol
# GULP energy per Si atom -5602.502404 kJ/mol
# Density = 2.505947 g / cm^3
# Si number density = 25.116638 Si / 1000 Ang^3
#
#
#
# Elastic Constant Matrix: (Units=GPa)
#
#
# Indices 1 2 3 4 5 6 
#
# 1 75.2207 29.7673 9.8449 10.6326 10.0806 14.5911
# 2 29.7673 78.1863 21.5079 29.3709 4.5181 8.4819
# 3 9.8449 21.5079 90.4077 9.1826 21.7764 7.1776
# 4 10.6326 29.3709 9.1826 31.6895 -1.1743 11.5530
# 5 10.0806 4.5181 21.7764 -1.1743 37.3756 5.9459
# 6 14.5911 8.4819 7.1776 11.5530 5.9459 40.2739
#
#
#
# Elastic Compliance Matrix: (Units=1/GPa)
#
#
# Indices 1 2 3 4 5 6 
#
# 1 0.016967 -0.006665 0.000741 0.001946 -0.003355 -0.004938
# 2 -0.006665 0.023204 -0.002961 -0.019823 -0.000512 0.003817
# 3 0.000741 -0.002961 0.013775 -0.001612 -0.007842 -0.000480
# 4 0.001946 -0.019823 -0.001612 0.054691 0.006582 -0.012903
# 5 -0.003355 -0.000512 -0.007842 0.006582 0.033144 -0.004060
# 6 -0.004938 0.003817 -0.000480 -0.012903 -0.004060 0.030201
#
#
# Mechanical properties :
#
#
# Convention : Reuss Voigt Hill
#
# Bulk Modulus (GPa) = 27.64214 40.67277 34.15745
# Shear Modulus (GPa) = 24.77557 34.04745 29.41151
#
# Velocity S-wave (km/s) = 3.14414 3.68581 3.42570
# Velocity P-wave (km/s) = 4.92039 5.86023 5.41075
#
# Compressibility (1/GPa) = 0.03617665
#
# Stress axis : x y z
#
# Youngs Moduli (GPa) = 58.93671 43.09649 72.59293
#
# Poissons Ratio (x) = 0.28723 -0.05376
# Poissons Ratio (y) = 0.39280 0.21492
# Poissons Ratio (z) = -0.04365 0.12759
#
# Static dielectric constant tensor:
#      x y z
#    x 2.062220 -0.017070 0.001110 
#    y -0.017070 1.974780 0.017040 
#    z 0.001110 0.017040 1.996610 
# 
# From -- ./inp_files/577644.got.cif
#   From: 2010.05.17/outbox.cif.g08.bks.cpg/sg2_289_cif.got.tgz:577644.got - 2010.06.03 11:33:40.
