data_PCOD9104166
_publ_section_title
;
Structure prediction by ZEFSAII (Michael W. Deem and Ramdas Pophale) SiO2 
 PCOD9104166
Probable space group: P -1
;
_chemical_formula_sum "Si O2"
_cell_formula_units_Z 16
_cell_length_a 15.938112
_cell_length_b 12.074984
_cell_length_c 11.185277
_cell_angle_alpha 77.642543
_cell_angle_beta 155.699215
_cell_angle_gamma 104.594801
_cell_volume 856.619747
_symmetry_space_group_name_H-M "P -1"
_symmetry_group_IT_number 2
_symmetry_cell_setting 'triclinic'
loop_
_space_group_symop_operation_xyz
x,y,z
-x,-y,-z
loop_
_atom_site_type_symbol
_atom_site_label
_atom_site_fract_x
_atom_site_fract_y
_atom_site_fract_z
Si Si1 0.584865 0.685643 0.595430
Si Si2 0.268777 0.727816 0.788109
Si Si3 0.757233 0.504990 0.688771
Si Si4 0.525505 0.497131 0.893759
Si Si5 0.598930 0.123959 0.836262
Si Si6 0.924908 0.974572 0.272232
Si Si7 0.647233 0.056454 0.282856
Si Si8 0.801084 0.724637 0.113015
O O1 0.694771 0.609747 0.662005
O O2 0.385115 0.605374 0.411475
O O3 0.506761 0.792059 0.403904
O O4 0.746156 0.724549 0.901532
O O5 0.360838 0.808275 0.777634
O O6 0.029379 0.703016 0.450528
O O7 0.358081 0.611494 0.954409
O O8 0.314405 0.804680 0.949147
O O9 0.677630 0.517575 0.447659
O O10 0.000000 0.500000 0.000000
O O11 0.500000 0.500000 0.000000
O O12 0.651166 0.618109 0.993475
O O13 0.438599 0.014182 0.696741
O O14 0.790458 0.072227 0.039451
O O15 0.787376 0.850310 0.117843
O O16 0.121989 0.964841 0.447265
O O17 0.000000 0.000000 0.500000
O O18 0.500000 0.000000 0.000000
#
# Coordination Sequence:
#
# PCOD9104166 Si02
#       8
#     2   2   2   2   2   2   2   2
#     4  10  23  43  61  88 129 166 205 250 311 368
#     4  10  20  39  58  90 119 160 202 250 315 352
#     4  10  23  44  63  88 126 171 204 250 310 374
#     4  11  24  37  62  98 120 153 210 260 307 364
#     4  11  21  38  64  86 120 166 205 255 295 375
#     4  11  20  38  61  90 119 164 204 249 314 355
#     4   9  19  34  58  89 119 152 206 253 297 356
#     4  10  23  40  61  89 127 160 201 260 308 363
#
# _framework density 18.678066999999999
#
# number of rings (size 3 to 8) (size 9 to 14) (size 15 to 20)
#    0.000    1.750    5.000    0.375    3.500    2.500 
#    0.000    2.500    0.000    0.000    0.000    0.000 
#    0.000    0.000    0.000    0.000    0.000    0.000 
#
# Total GULP energy -89207.175461 kJ/mol
# GULP energy per Si atom -5575.448466 kJ/mol
# Density = 1.863555 g / cm^3
# Si number density = 18.678067 Si / 1000 Ang^3
#
#
#
# Elastic Constant Matrix: (Units=GPa)
#
#
# Indices 1 2 3 4 5 6 
#
# 1 62.8567 29.5832 51.8477 -4.0372 -7.9127 4.1334
# 2 29.5832 109.0077 55.2778 -10.5025 -7.1499 -9.9202
# 3 51.8477 55.2778 147.3690 -13.0781 -9.2260 -0.3739
# 4 -4.0372 -10.5025 -13.0781 35.9297 -2.9163 -6.0832
# 5 -7.9127 -7.1499 -9.2260 -2.9163 34.3181 -6.0682
# 6 4.1334 -9.9202 -0.3739 -6.0832 -6.0682 20.0869
#
#
#
# Elastic Compliance Matrix: (Units=1/GPa)
#
#
# Indices 1 2 3 4 5 6 
#
# 1 0.024088 -0.003620 -0.007228 -0.002064 0.001431 -0.007072
# 2 -0.003620 0.013178 -0.003082 0.004165 0.003097 0.009393
# 3 -0.007228 -0.003082 0.010773 0.002499 0.001017 0.001230
# 4 -0.002064 0.004165 0.002499 0.032675 0.006378 0.014350
# 5 0.001431 0.003097 0.001017 0.006378 0.033270 0.013236
# 6 -0.007072 0.009393 0.001230 0.014350 0.013236 0.064245
#
#
# Mechanical properties :
#
#
# Convention : Reuss Voigt Hill
#
# Bulk Modulus (GPa) = 49.55801 65.85011 57.70406
# Shear Modulus (GPa) = 23.49433 30.23525 26.86479
#
# Velocity S-wave (km/s) = 3.55047 4.02774 3.79662
# Velocity P-wave (km/s) = 6.58773 7.54733 7.08379
#
# Compressibility (1/GPa) = 0.02017837
#
# Stress axis : x y z
#
# Youngs Moduli (GPa) = 41.51458 75.88220 92.82078
#
# Poissons Ratio (x) = 0.27472 0.67093
# Poissons Ratio (y) = 0.15030 0.28608
# Poissons Ratio (z) = 0.30008 0.23388
#
# Static dielectric constant tensor:
#      x y z
#    x 1.595910 0.127670 -0.010180 
#    y 0.127670 1.497330 0.023980 
#    z -0.010180 0.023980 1.628410 
# 
# From -- ./inp_files/454976.got.cif
#   From: 2010.05.17/outbox.cif.g08.bks.cpg/sg2_228_cif.got.tgz:454976.got - 2010.06.03 11:33:40.
