data_PCOD9104390
_publ_section_title
;
Structure prediction by ZEFSAII (Michael W. Deem and Ramdas Pophale) SiO2 
 PCOD9104390
Probable space group: P -1
;
_chemical_formula_sum "Si O2"
_cell_formula_units_Z 16
_cell_length_a 12.384448
_cell_length_b 10.913742
_cell_length_c 13.890236
_cell_angle_alpha 115.602482
_cell_angle_beta 31.216230
_cell_angle_gamma 94.947908
_cell_volume 697.886302
_symmetry_space_group_name_H-M "P -1"
_symmetry_group_IT_number 2
_symmetry_cell_setting 'triclinic'
loop_
_space_group_symop_operation_xyz
x,y,z
-x,-y,-z
loop_
_atom_site_type_symbol
_atom_site_label
_atom_site_fract_x
_atom_site_fract_y
_atom_site_fract_z
Si Si1 0.288471 0.867502 0.108566
Si Si2 0.108961 0.403082 0.484960
Si Si3 0.823000 0.247719 0.652332
Si Si4 0.479921 0.686677 0.283113
Si Si5 0.647352 0.236446 0.310469
Si Si6 0.310421 0.539957 0.515053
Si Si7 0.022215 0.075883 0.818732
Si Si8 0.794461 0.695327 0.190338
O O1 0.275934 0.791474 0.192041
O O2 0.154788 0.840872 0.113174
O O3 0.591549 0.768733 0.815980
O O4 0.090052 0.071820 0.347227
O O5 0.120387 0.519728 0.592575
O O6 0.000000 0.500000 0.500000
O O7 0.918659 0.358255 0.645665
O O8 0.601870 0.328138 0.765726
O O9 0.471736 0.559062 0.316340
O O10 0.727187 0.677779 0.126219
O O11 0.250117 0.883440 0.552372
O O12 0.473378 0.381759 0.410827
O O13 0.782050 0.301321 0.292538
O O14 0.459879 0.226826 0.520540
O O15 0.856266 0.076459 0.032439
O O16 0.113827 0.188025 0.821515
O O17 0.000000 0.500000 0.000000
#
# Coordination Sequence:
#
# PCOD9104390 Si02
#       8
#     2   2   2   2   2   2   2   2
#     4  10  24  43  67  91 126 164 214 254 315 369
#     4  12  23  40  66  93 126 162 210 256 316 368
#     4  10  23  46  65  90 125 169 207 264 305 369
#     4  10  22  43  64  92 131 160 212 259 310 368
#     4  10  22  42  65  89 126 164 208 256 316 364
#     4  10  20  39  60  91 125 159 202 254 305 373
#     4  11  22  42  68  92 125 167 205 265 308 370
#     4  11  24  40  65  94 125 166 206 253 315 376
#
# _framework density 22.926371
#
# number of rings (size 3 to 8) (size 9 to 14) (size 15 to 20)
#    0.000    1.500    2.500    3.000    1.750    2.500 
#    4.500    1.250    0.000    0.000    0.000    0.000 
#    0.000    0.000    0.000    0.000    0.000    0.000 
#
# Total GULP energy -89421.642935 kJ/mol
# GULP energy per Si atom -5588.852683 kJ/mol
# Density = 2.287419 g / cm^3
# Si number density = 22.926371 Si / 1000 Ang^3
#
#
#
# Elastic Constant Matrix: (Units=GPa)
#
#
# Indices 1 2 3 4 5 6 
#
# 1 183.2879 33.8217 23.9112 -17.0161 -23.8928 5.9425
# 2 33.8217 71.5337 8.8691 -9.0535 -12.2655 9.1331
# 3 23.9112 8.8691 96.1459 0.7188 0.1738 6.0651
# 4 -17.0161 -9.0535 0.7188 27.0811 -4.2882 -7.8579
# 5 -23.8928 -12.2655 0.1738 -4.2882 32.6091 -0.3916
# 6 5.9425 9.1331 6.0651 -7.8579 -0.3916 39.8751
#
#
#
# Elastic Compliance Matrix: (Units=1/GPa)
#
#
# Indices 1 2 3 4 5 6 
#
# 1 0.007115 -0.001707 -0.001697 0.004954 0.005239 0.000616
# 2 -0.001707 0.016799 -0.001017 0.004759 0.005670 -0.002445
# 3 -0.001697 -0.001017 0.011047 -0.002519 -0.002037 -0.001711
# 4 0.004954 0.004759 -0.002519 0.045754 0.011542 0.007685
# 5 0.005239 0.005670 -0.002037 0.011542 0.038177 0.000880
# 6 0.000616 -0.002445 -0.001711 0.007685 0.000880 0.027330
#
#
# Mechanical properties :
#
#
# Convention : Reuss Voigt Hill
#
# Bulk Modulus (GPa) = 38.28599 53.79681 46.04140
# Shear Modulus (GPa) = 30.53047 38.87078 34.70062
#
# Velocity S-wave (km/s) = 3.65317 4.12207 3.89468
# Velocity P-wave (km/s) = 5.87622 6.79494 6.35221
#
# Compressibility (1/GPa) = 0.02611922
#
# Stress axis : x y z
#
# Youngs Moduli (GPa) = 140.54448 59.52631 90.52047
#
# Poissons Ratio (x) = 0.10162 0.15365
# Poissons Ratio (y) = 0.23993 0.09203
# Poissons Ratio (z) = 0.23857 0.06052
#
# Static dielectric constant tensor:
#      x y z
#    x 1.835670 -0.020990 -0.031750 
#    y -0.020990 1.776130 -0.019010 
#    z -0.031750 -0.019010 1.871250 
# 
# From -- ./inp_files/516257.got.cif
#   From: 2010.05.17/outbox.cif.g08.bks.cpg/sg2_259_cif.got.tgz:516257.got - 2010.06.03 11:33:40.
