data_PCOD9104126
_publ_section_title
;
Structure prediction by ZEFSAII (Michael W. Deem and Ramdas Pophale) SiO2 
 PCOD9104126
Probable space group: P -1
;
_chemical_formula_sum "Si O2"
_cell_formula_units_Z 14
_cell_length_a 18.350790
_cell_length_b 9.093309
_cell_length_c 20.380005
_cell_angle_alpha 139.415866
_cell_angle_beta 160.850745
_cell_angle_gamma 51.894646
_cell_volume 640.556549
_symmetry_space_group_name_H-M "P -1"
_symmetry_group_IT_number 2
_symmetry_cell_setting 'triclinic'
loop_
_space_group_symop_operation_xyz
x,y,z
-x,-y,-z
loop_
_atom_site_type_symbol
_atom_site_label
_atom_site_fract_x
_atom_site_fract_y
_atom_site_fract_z
Si Si1 0.763726 0.147056 0.405151
Si Si2 0.795619 0.103635 0.135799
Si Si3 0.390236 0.671050 0.433079
Si Si4 0.110098 0.382062 0.963403
Si Si5 0.766123 0.921502 0.186937
Si Si6 0.544134 0.146516 0.656171
Si Si7 0.248339 0.431162 0.539475
O O1 0.798534 0.430907 0.516831
O O2 0.996046 0.132129 0.630222
O O3 0.754029 0.035387 0.285573
O O4 0.495227 0.976169 0.153783
O O5 0.810414 0.122661 0.234114
O O6 0.833980 0.854239 0.073404
O O7 0.010699 0.323070 0.349819
O O8 0.500000 0.500000 0.500000
O O9 0.248790 0.531270 0.198396
O O10 0.582967 0.963757 0.678646
O O11 0.179012 0.689080 0.303193
O O12 0.229476 0.577973 0.071923
O O13 0.506112 0.660313 0.866333
O O14 0.313702 0.202823 0.498619
O O15 0.500000 0.000000 0.500000
#
# Coordination Sequence:
#
# PCOD9104126 Si02
#       7
#     2   2   2   2   2   2   2
#     4  10  23  42  63  90 122 161 198 253 309 364
#     4  11  21  38  64  90 121 160 199 250 304 357
#     4  10  22  38  58  86 117 157 201 250 303 349
#     4  10  20  39  58  82 122 154 199 251 292 358
#     4  10  23  42  62  91 126 154 202 253 306 368
#     4  10  20  39  61  84 123 161 199 246 294 353
#     4  11  21  40  63  92 120 164 202 248 304 359
#
# _framework density 21.855993999999999
#
# number of rings (size 3 to 8) (size 9 to 14) (size 15 to 20)
#    0.000    1.714    4.286    1.714    0.000    5.143 
#    2.571    2.857    0.000    0.000    0.000    0.000 
#    0.000    0.000    0.000    0.000    0.000    0.000 
#
# Total GULP energy -78169.834743 kJ/mol
# GULP energy per Si atom -5583.559625 kJ/mol
# Density = 2.180625 g / cm^3
# Si number density = 21.855994 Si / 1000 Ang^3
#
#
#
# Elastic Constant Matrix: (Units=GPa)
#
#
# Indices 1 2 3 4 5 6 
#
# 1 66.1114 10.6232 43.3303 -0.7239 31.1925 -5.9524
# 2 10.6232 119.2233 39.9843 -19.8606 15.5081 0.9290
# 3 43.3303 39.9843 96.3018 -14.2327 36.5149 11.8827
# 4 -0.7239 -19.8606 -14.2327 37.2426 -2.9519 3.2827
# 5 31.1925 15.5081 36.5149 -2.9519 39.8984 9.4566
# 6 -5.9524 0.9290 11.8827 3.2827 9.4566 42.6490
#
#
#
# Elastic Compliance Matrix: (Units=1/GPa)
#
#
# Indices 1 2 3 4 5 6 
#
# 1 0.031412 0.002163 -0.009706 -0.004537 -0.019634 0.011744
# 2 0.002163 0.010470 -0.004187 0.003746 -0.001981 0.001391
# 3 -0.009706 -0.004187 0.021208 0.005520 -0.008427 -0.005729
# 4 -0.004537 0.003746 0.005520 0.031329 0.000488 -0.004772
# 5 -0.019634 -0.001981 -0.008427 0.000488 0.051744 -0.011860
# 6 0.011744 0.001391 -0.005729 -0.004772 -0.011860 0.029649
#
#
# Mechanical properties :
#
#
# Convention : Reuss Voigt Hill
#
# Bulk Modulus (GPa) = 25.23442 52.16800 38.70121
# Shear Modulus (GPa) = 23.53142 36.47125 30.00133
#
# Velocity S-wave (km/s) = 3.28481 4.08941 3.70899
# Velocity P-wave (km/s) = 5.09484 6.79842 6.00733
#
# Compressibility (1/GPa) = 0.03962842
#
# Stress axis : x y z
#
# Youngs Moduli (GPa) = 31.83542 95.51092 47.15208
#
# Poissons Ratio (x) = -0.20660 0.45767
# Poissons Ratio (y) = -0.06886 0.19744
# Poissons Ratio (z) = 0.30900 0.39994
#
# Static dielectric constant tensor:
#      x y z
#    x 1.872400 -0.024320 -0.011370 
#    y -0.024320 1.791490 0.005880 
#    z -0.011370 0.005880 1.805410 
# 
# From -- ./inp_files/315197.got.cif
#   From: 2010.05.17/outbox.cif.g08.bks.cpg/sg2_158_cif.got.tgz:315197.got - 2010.06.03 11:33:40.
