data_PCOD9104793
_publ_section_title
;
Structure prediction by ZEFSAII (Michael W. Deem and Ramdas Pophale) SiO2 
 PCOD9104793
Probable space group: P -1
;
_chemical_formula_sum "Si O2"
_cell_formula_units_Z 15
_cell_length_a 8.773161
_cell_length_b 5.953634
_cell_length_c 19.920377
_cell_angle_alpha 135.399464
_cell_angle_beta 126.913070
_cell_angle_gamma 55.679094
_cell_volume 566.691454
_symmetry_space_group_name_H-M "P -1"
_symmetry_group_IT_number 2
_symmetry_cell_setting 'triclinic'
loop_
_space_group_symop_operation_xyz
x,y,z
-x,-y,-z
loop_
_atom_site_type_symbol
_atom_site_label
_atom_site_fract_x
_atom_site_fract_y
_atom_site_fract_z
Si Si1 0.459569 0.668794 0.291045
Si Si2 0.000000 0.500000 0.000000
Si Si3 0.969777 0.556824 0.627481
Si Si4 0.711858 0.128515 0.455597
Si Si5 0.150077 0.637522 0.827553
Si Si6 0.195920 0.861373 0.670002
Si Si7 0.187672 0.250507 0.139947
Si Si8 0.587160 0.423475 0.898871
O O1 0.643998 0.360436 0.286280
O O2 0.282316 0.548466 0.252513
O O3 0.423304 0.697579 0.207388
O O4 0.525307 0.995492 0.400701
O O5 0.093742 0.379106 0.072437
O O6 0.227530 0.422461 0.012206
O O7 0.783463 0.421574 0.572601
O O8 0.052273 0.726780 0.747856
O O9 0.988054 0.777251 0.614693
O O10 0.119790 0.211749 0.573607
O O11 0.714659 0.229745 0.399568
O O12 0.371867 0.656007 0.903356
O O13 0.982645 0.820902 0.872575
O O14 0.170203 0.246422 0.754925
O O15 0.356344 0.911310 0.113289
#
# Coordination Sequence:
#
# PCOD9104793 Si02
#       8
#     2   1   2   2   2   2   2   2
#     4  10  18  36  61  87 122 167 202 247 297 352
#     4  10  26  44  66  94 118 156 192 248 306 374
#     4   9  18  30  52  92 123 156 212 247 291 349
#     4   9  16  29  53  87 123 163 206 249 292 345
#     4  11  22  38  64  94 119 161 203 247 292 363
#     4  10  16  33  58  88 119 166 200 250 295 342
#     4  11  24  42  66  90 122 156 199 244 307 362
#     4  11  21  45  64  88 124 153 199 245 305 361
#
# _framework density 26.469429999999999
#
# number of rings (size 3 to 8) (size 9 to 14) (size 15 to 20)
#    0.000    1.867    5.333    0.800    0.000    3.733 
#    0.000    2.000    0.000    4.000    0.000    0.000 
#    0.000    0.000    0.000    0.000    0.000    0.000 
#
# Total GULP energy -83557.692005 kJ/mol
# GULP energy per Si atom -5570.512800 kJ/mol
# Density = 2.640918 g / cm^3
# Si number density = 26.469430 Si / 1000 Ang^3
#
#
#
# Elastic Constant Matrix: (Units=GPa)
#
#
# Indices 1 2 3 4 5 6 
#
# 1 85.3155 2.3521 49.4501 37.4961 35.7306 5.8634
# 2 2.3521 66.0178 27.0941 -5.8322 -4.2166 -16.9382
# 3 49.4501 27.0941 71.5589 -14.1063 36.1927 6.5488
# 4 37.4961 -5.8322 -14.1063 13.5280 24.0309 -0.9618
# 5 35.7306 -4.2166 36.1927 24.0309 49.7403 4.3343
# 6 5.8634 -16.9382 6.5488 -0.9618 4.3343 32.4023
#
#
#
# Elastic Compliance Matrix: (Units=1/GPa)
#
#
# Indices 1 2 3 4 5 6 
#
# 1 0.009529 -0.004122 0.007676 0.013863 -0.019265 -0.002442
# 2 -0.004122 0.022406 -0.005969 0.011255 0.002576 0.013655
# 3 0.007676 -0.005969 0.004726 -0.025609 0.003497 -0.006692
# 4 0.013863 0.011255 -0.025609 -0.014986 0.016354 0.005918
# 5 -0.019265 0.002576 0.003497 0.016354 0.023589 0.001456
# 6 -0.002442 0.013655 -0.006692 0.005918 0.001456 0.039775
#
#
# Mechanical properties :
#
#
# Convention : Reuss Voigt Hill
#
# Bulk Modulus (GPa) = 31.41637 42.29832 36.85734
# Shear Modulus (GPa) = 49.76132 28.73383 39.24757
#
# Velocity S-wave (km/s) = 4.34055 3.29834 3.85483
# Velocity P-wave (km/s) = 6.08401 5.52450 5.81099
#
# Compressibility (1/GPa) = 0.03183054
#
# Stress axis : x y z
#
# Youngs Moduli (GPa) = 104.94517 44.63051 211.60606
#
# Poissons Ratio (x) = 0.18396 -1.62425
# Poissons Ratio (y) = 0.43258 1.26308
# Poissons Ratio (z) = -0.80554 0.26640
#
# Static dielectric constant tensor:
#      x y z
#    x 2.124130 0.018900 0.090600 
#    y 0.018900 2.055170 0.023780 
#    z 0.090600 0.023780 2.194610 
# 
# From -- ./inp_files/52258.got.cif
#   From: 2010.05.17/outbox.cif.g08.bks.cpg/sg2_27_cif.got.tgz:52258.got - 2010.06.03 11:33:40.
