data_PCOD9104341
_publ_section_title
;
Structure prediction by ZEFSAII (Michael W. Deem and Ramdas Pophale) SiO2 
 PCOD9104341
Probable space group: P -1
;
_chemical_formula_sum "Si O2"
_cell_formula_units_Z 14
_cell_length_a 31.779945
_cell_length_b 13.153141
_cell_length_c 15.729491
_cell_angle_alpha 148.044908
_cell_angle_beta 19.043342
_cell_angle_gamma 159.540609
_cell_volume 708.914331
_symmetry_space_group_name_H-M "P -1"
_symmetry_group_IT_number 2
_symmetry_cell_setting 'triclinic'
loop_
_space_group_symop_operation_xyz
x,y,z
-x,-y,-z
loop_
_atom_site_type_symbol
_atom_site_label
_atom_site_fract_x
_atom_site_fract_y
_atom_site_fract_z
Si Si1 0.482723 0.070127 0.398576
Si Si2 0.074950 0.229610 0.947487
Si Si3 0.094735 0.142266 0.654788
Si Si4 0.554173 0.702802 0.962558
Si Si5 0.846450 0.766506 0.706584
Si Si6 0.903069 0.391462 0.316550
Si Si7 0.196338 0.680479 0.812882
O O1 0.686069 0.433044 0.256465
O O2 0.534816 0.904566 0.166494
O O3 0.291749 0.891096 0.572072
O O4 0.393000 0.990413 0.608693
O O5 0.045079 0.103157 0.820827
O O6 0.945897 0.278167 0.223148
O O7 0.000000 0.000000 0.000000
O O8 0.222893 0.482662 0.628022
O O9 0.225121 0.105812 0.357821
O O10 0.909537 0.937486 0.795295
O O11 0.382194 0.457145 0.046181
O O12 0.500000 0.500000 0.000000
O O13 0.861704 0.556637 0.543217
O O14 0.000000 0.000000 0.500000
O O15 0.113253 0.648222 0.040152
O O16 0.000000 0.500000 0.000000
#
# Coordination Sequence:
#
# PCOD9104341 Si02
#       7
#     2   2   2   2   2   2   2
#     4  10  20  39  60  87 123 159 193 251 303 362
#     4  11  26  43  61  82 115 167 224 255 279 333
#     4  11  22  37  57  89 121 157 195 241 308 356
#     4  11  20  35  59  94 125 152 188 228 311 380
#     4  11  20  34  60  90 130 154 177 239 304 382
#     4   9  21  37  60  88 120 157 198 242 314 356
#     4   9  17  33  54  87 121 150 189 233 305 380
#
# _framework density 19.748508000000001
#
# number of rings (size 3 to 8) (size 9 to 14) (size 15 to 20)
#    0.000    1.714    2.857    2.571    0.000    7.429 
#    0.000    2.857    0.000    3.429    0.000    0.000 
#    0.000    0.000    0.000    0.000    0.000    0.000 
#
# Total GULP energy -78194.521241 kJ/mol
# GULP energy per Si atom -5585.322946 kJ/mol
# Density = 1.970356 g / cm^3
# Si number density = 19.748508 Si / 1000 Ang^3
#
#
#
# Elastic Constant Matrix: (Units=GPa)
#
#
# Indices 1 2 3 4 5 6 
#
# 1 125.2684 75.6753 30.1997 -14.0200 -8.4679 -5.9715
# 2 75.6753 102.3090 29.2180 -19.1302 -2.4610 -5.8450
# 3 30.1997 29.2180 66.2839 1.0610 -16.2291 -6.6250
# 4 -14.0200 -19.1302 1.0610 25.6333 1.5047 -7.5698
# 5 -8.4679 -2.4610 -16.2291 1.5047 27.0664 -0.0632
# 6 -5.9715 -5.8450 -6.6250 -7.5698 -0.0632 46.9179
#
#
#
# Elastic Compliance Matrix: (Units=1/GPa)
#
#
# Indices 1 2 3 4 5 6 
#
# 1 0.014892 -0.010433 -0.001458 0.000389 0.002816 0.000457
# 2 -0.010433 0.021339 -0.005957 0.011480 -0.005528 0.002334
# 3 -0.001458 -0.005957 0.021607 -0.006541 0.012324 0.001085
# 4 0.000389 0.011480 -0.006541 0.050981 -0.005570 0.008774
# 5 0.002816 -0.005528 0.012324 -0.005570 0.045025 0.000572
# 6 0.000457 0.002334 0.001085 0.008774 0.000572 0.023232
#
#
# Mechanical properties :
#
#
# Convention : Reuss Voigt Hill
#
# Bulk Modulus (GPa) = 45.15857 62.67191 53.91524
# Shear Modulus (GPa) = 22.71148 30.50809 26.60978
#
# Velocity S-wave (km/s) = 3.39490 3.93470 3.67472
# Velocity P-wave (km/s) = 6.18737 7.24199 6.73535
#
# Compressibility (1/GPa) = 0.02214419
#
# Stress axis : x y z
#
# Youngs Moduli (GPa) = 67.14870 46.86198 46.28080
#
# Poissons Ratio (x) = 0.48889 0.06746
# Poissons Ratio (y) = 0.70054 0.27570
# Poissons Ratio (z) = 0.09787 0.27917
#
# Static dielectric constant tensor:
#      x y z
#    x 1.713690 0.052870 -0.024880 
#    y 0.052870 1.712670 0.008870 
#    z -0.024880 0.008870 1.733700 
# 
# From -- ./inp_files/256154.got.cif
#   From: 2010.05.17/outbox.cif.g08.bks.cpg/sg2_129_cif.got.tgz:256154.got - 2010.06.03 11:33:40.
