data_PCOD9104667
_publ_section_title
;
Structure prediction by ZEFSAII (Michael W. Deem and Ramdas Pophale) SiO2 
 PCOD9104667
Probable space group: P -1
;
_chemical_formula_sum "Si O2"
_cell_formula_units_Z 14
_cell_length_a 15.952214
_cell_length_b 7.149142
_cell_length_c 9.544089
_cell_angle_alpha 115.304425
_cell_angle_beta 143.444273
_cell_angle_gamma 65.055309
_cell_volume 579.837758
_symmetry_space_group_name_H-M "P -1"
_symmetry_group_IT_number 2
_symmetry_cell_setting 'triclinic'
loop_
_space_group_symop_operation_xyz
x,y,z
-x,-y,-z
loop_
_atom_site_type_symbol
_atom_site_label
_atom_site_fract_x
_atom_site_fract_y
_atom_site_fract_z
Si Si1 0.778311 0.399485 0.705045
Si Si2 0.972526 0.458203 0.760814
Si Si3 0.643765 0.824957 0.138285
Si Si4 0.975985 0.808447 0.508941
Si Si5 0.605482 0.755627 0.758214
Si Si6 0.688609 0.985561 0.523749
Si Si7 0.150438 0.044158 0.985429
O O1 0.822684 0.498682 0.651099
O O2 0.651810 0.554817 0.659015
O O3 0.741642 0.169428 0.560851
O O4 0.910474 0.400255 0.990903
O O5 0.975966 0.400513 0.584402
O O6 0.035173 0.242363 0.856397
O O7 0.810168 0.841057 0.334173
O O8 0.658177 0.801364 0.319518
O O9 0.612366 0.696630 0.914267
O O10 0.500000 0.000000 0.000000
O O11 0.000000 0.000000 0.500000
O O12 0.080646 0.841245 0.787153
O O13 0.456430 0.892622 0.568413
O O14 0.720158 0.911902 0.927234
O O15 0.798378 0.946520 0.784714
#
# Coordination Sequence:
#
# PCOD9104667 Si02
#       7
#     2   2   2   2   2   2   2
#     4  10  19  34  57  83 108 147 190 226 278 333
#     4   9  19  34  59  80 109 149 190 224 274 346
#     4  10  20  34  55  83 111 146 187 229 272 329
#     4  10  16  33  58  79 106 146 189 224 265 339
#     4  10  20  39  57  78 116 155 185 221 282 346
#     4  11  22  33  57  89 115 139 186 245 280 316
#     4  10  20  34  59  84 112 143 192 233 280 321
#
# _framework density 24.144684000000002
#
# number of rings (size 3 to 8) (size 9 to 14) (size 15 to 20)
#    0.000    2.000    4.286    2.571    0.000    2.286 
#    0.000    0.714    9.429    0.857    0.000    0.000 
#    0.000    0.000    0.000    0.000    0.000    0.000 
#
# Total GULP energy -77985.787951 kJ/mol
# GULP energy per Si atom -5570.413425 kJ/mol
# Density = 2.408973 g / cm^3
# Si number density = 24.144684 Si / 1000 Ang^3
#
#
#
# Elastic Constant Matrix: (Units=GPa)
#
#
# Indices 1 2 3 4 5 6 
#
# 1 102.1343 31.3811 30.3735 -12.8855 -9.4994 -33.1611
# 2 31.3811 48.8873 28.1894 4.7422 -5.5113 -12.4062
# 3 30.3735 28.1894 117.2821 -3.2488 -30.7102 -5.7224
# 4 -12.8855 4.7422 -3.2488 25.8548 3.5659 -5.5939
# 5 -9.4994 -5.5113 -30.7102 3.5659 47.5074 6.7873
# 6 -33.1611 -12.4062 -5.7224 -5.5939 6.7873 30.8295
#
#
#
# Elastic Compliance Matrix: (Units=1/GPa)
#
#
# Indices 1 2 3 4 5 6 
#
# 1 0.024142 -0.009424 -0.003080 0.019444 -0.003414 0.025884
# 2 -0.009424 0.030439 -0.005466 -0.010981 -0.000965 -0.000682
# 3 -0.003080 -0.005466 0.012331 -0.001122 0.007532 -0.005085
# 4 0.019444 -0.010981 -0.001122 0.057201 -0.006416 0.028079
# 5 -0.003414 -0.000965 0.007532 -0.006416 0.027001 -0.009771
# 6 0.025884 -0.000682 -0.005085 0.028079 -0.009771 0.066306
#
#
# Mechanical properties :
#
#
# Convention : Reuss Voigt Hill
#
# Bulk Modulus (GPa) = 32.28529 49.79910 41.04219
# Shear Modulus (GPa) = 18.96217 32.72897 25.84557
#
# Velocity S-wave (km/s) = 2.80546 3.68575 3.27532
# Velocity P-wave (km/s) = 4.88823 6.22761 5.59812
#
# Compressibility (1/GPa) = 0.03097386
#
# Stress axis : x y z
#
# Youngs Moduli (GPa) = 41.42192 32.85219 81.09792
#
# Poissons Ratio (x) = 0.30958 0.24976
# Poissons Ratio (y) = 0.39034 0.44327
# Poissons Ratio (z) = 0.12757 0.17956
#
# Static dielectric constant tensor:
#      x y z
#    x 2.062270 -0.006420 0.015090 
#    y -0.006420 2.024750 0.054960 
#    z 0.015090 0.054960 1.998540 
# 
# From -- ./inp_files/299369.got.cif
#   From: 2010.05.17/outbox.cif.g08.bks.cpg/sg2_150_cif.got.tgz:299369.got - 2010.06.03 11:33:40.
