data_PCOD9104810
_publ_section_title
;
Structure prediction by ZEFSAII (Michael W. Deem and Ramdas Pophale) SiO2 
 PCOD9104810
Probable space group: P -1
;
_chemical_formula_sum "Si O2"
_cell_formula_units_Z 16
_cell_length_a 6.732785
_cell_length_b 8.975862
_cell_length_c 14.782635
_cell_angle_alpha 71.693767
_cell_angle_beta 102.137011
_cell_angle_gamma 73.546675
_cell_volume 768.235382
_symmetry_space_group_name_H-M "P -1"
_symmetry_group_IT_number 2
_symmetry_cell_setting 'triclinic'
loop_
_space_group_symop_operation_xyz
x,y,z
-x,-y,-z
loop_
_atom_site_type_symbol
_atom_site_label
_atom_site_fract_x
_atom_site_fract_y
_atom_site_fract_z
Si Si1 0.309223 0.236257 0.494893
Si Si2 0.510186 0.474880 0.833124
Si Si3 0.140298 0.661688 0.475435
Si Si4 0.545430 0.154837 0.024484
Si Si5 0.213640 0.971314 0.409418
Si Si6 0.593406 0.463770 0.637014
Si Si7 0.815737 0.651669 0.904189
Si Si8 0.118225 0.807385 0.806114
O O1 0.538783 0.129204 0.587287
O O2 0.354391 0.367046 0.405610
O O3 0.097092 0.326362 0.520184
O O4 0.245665 0.109541 0.450063
O O5 0.549501 0.425325 0.741647
O O6 0.687346 0.558581 0.853371
O O7 0.287065 0.632399 0.809927
O O8 0.537948 0.308451 0.926837
O O9 0.165113 0.827746 0.487584
O O10 0.356448 0.506281 0.559027
O O11 0.200943 0.667400 0.373869
O O12 0.345787 0.231915 0.059491
O O13 0.756287 0.127022 0.116606
O O14 0.500000 0.000000 0.000000
O O15 0.009442 0.055482 0.307260
O O16 0.927896 0.757376 0.840492
O O17 0.000000 0.500000 0.000000
#
# Coordination Sequence:
#
# PCOD9104810 Si02
#       8
#     2   2   2   2   2   2   2   2
#     4  10  20  39  62  90 125 166 211 259 314 376
#     4  11  22  41  67  95 124 168 220 261 319 395
#     4  10  21  40  59  88 133 164 200 263 314 374
#     4  11  25  43  65  97 131 167 214 273 330 380
#     4  10  22  36  61  94 124 163 211 259 314 379
#     4  10  22  38  62  92 122 167 213 252 317 381
#     4  11  20  42  68  91 125 171 212 260 319 387
#     4  11  22  42  67  93 130 171 215 265 319 388
#
# _framework density 20.826948999999999
#
# number of rings (size 3 to 8) (size 9 to 14) (size 15 to 20)
#    0.000    1.500    2.500    3.000    0.000    5.500 
#    2.250    2.500    0.000    0.000    0.000    0.000 
#    0.000    0.000    0.000    0.000    0.000    0.000 
#
# Total GULP energy -89162.561717 kJ/mol
# GULP energy per Si atom -5572.660107 kJ/mol
# Density = 2.077955 g / cm^3
# Si number density = 20.826949 Si / 1000 Ang^3
#
#
#
# Elastic Constant Matrix: (Units=GPa)
#
#
# Indices 1 2 3 4 5 6 
#
# 1 163.7903 40.9798 44.1473 4.5792 1.3204 -8.2095
# 2 40.9798 90.7379 24.2444 1.1039 14.7439 7.6850
# 3 44.1473 24.2444 83.5037 4.7276 7.6599 -18.6228
# 4 4.5792 1.1039 4.7276 23.9006 -7.5439 0.7533
# 5 1.3204 14.7439 7.6599 -7.5439 29.1005 0.1346
# 6 -8.2095 7.6850 -18.6228 0.7533 0.1346 33.2971
#
#
#
# Elastic Compliance Matrix: (Units=1/GPa)
#
#
# Indices 1 2 3 4 5 6 
#
# 1 0.007760 -0.003038 -0.003218 -0.000103 0.002004 0.000809
# 2 -0.003038 0.014936 -0.003359 -0.001428 -0.006888 -0.006015
# 3 -0.003218 -0.003359 0.017444 -0.004214 -0.003881 0.009849
# 4 -0.000103 -0.001428 -0.004214 0.047316 0.014118 -0.003180
# 5 0.002004 -0.006888 -0.003881 0.014118 0.042447 -0.000578
# 6 0.000809 -0.006015 0.009849 -0.003180 -0.000578 0.037203
#
#
# Mechanical properties :
#
#
# Convention : Reuss Voigt Hill
#
# Bulk Modulus (GPa) = 47.82611 61.86386 54.84499
# Shear Modulus (GPa) = 25.86582 32.50367 29.18475
#
# Velocity S-wave (km/s) = 3.52794 3.95480 3.74745
# Velocity P-wave (km/s) = 6.29353 7.11492 6.71680
#
# Compressibility (1/GPa) = 0.02090908
#
# Stress axis : x y z
#
# Youngs Moduli (GPa) = 128.86492 66.95148 57.32790
#
# Poissons Ratio (x) = 0.20337 0.18450
# Poissons Ratio (y) = 0.39143 0.19259
# Poissons Ratio (z) = 0.41473 0.22492
#
# Static dielectric constant tensor:
#      x y z
#    x 1.706620 -0.034660 0.055970 
#    y -0.034660 1.807600 0.082300 
#    z 0.055970 0.082300 1.844750 
# 
# From -- ./inp_files/480435.got.cif
#   From: 2010.05.17/outbox.cif.g08.bks.cpg/sg2_241_cif.got.tgz:480435.got - 2010.06.03 11:33:40.
