data_PCOD9104359
_publ_section_title
;
Structure prediction by ZEFSAII (Michael W. Deem and Ramdas Pophale) SiO2 
 PCOD9104359
Probable space group: P -1
;
_chemical_formula_sum "Si O2"
_cell_formula_units_Z 16
_cell_length_a 7.436994
_cell_length_b 18.072584
_cell_length_c 9.142460
_cell_angle_alpha 40.401021
_cell_angle_beta 52.452956
_cell_angle_gamma 47.933857
_cell_volume 578.542080
_symmetry_space_group_name_H-M "P -1"
_symmetry_group_IT_number 2
_symmetry_cell_setting 'triclinic'
loop_
_space_group_symop_operation_xyz
x,y,z
-x,-y,-z
loop_
_atom_site_type_symbol
_atom_site_label
_atom_site_fract_x
_atom_site_fract_y
_atom_site_fract_z
Si Si1 0.221624 0.954799 0.154642
Si Si2 0.241631 0.559124 0.846876
Si Si3 0.734360 0.918606 0.797779
Si Si4 0.502875 0.643869 0.206634
Si Si5 0.987493 0.810852 0.295609
Si Si6 0.114990 0.333060 0.779715
Si Si7 0.275475 0.204876 0.294928
Si Si8 0.297126 0.412882 0.315142
O O1 0.219689 0.973551 0.301635
O O2 0.111433 0.860850 0.290839
O O3 0.071390 0.088660 0.953743
O O4 0.490029 0.917936 0.002948
O O5 0.372698 0.484336 0.749964
O O6 0.421519 0.613455 0.753131
O O7 0.977740 0.671177 0.792629
O O8 0.229835 0.452026 0.122744
O O9 0.712267 0.906126 0.654297
O O10 0.927535 0.782365 0.958628
O O11 0.216483 0.685367 0.325579
O O12 0.680355 0.643868 0.254449
O O13 0.513709 0.752906 0.930984
O O14 0.740641 0.819765 0.489088
O O15 0.218788 0.316644 0.587878
O O16 0.863736 0.454574 0.727577
#
# Coordination Sequence:
#
# PCOD9104359 Si02
#       8
#     2   2   2   2   2   2   2   2
#     4  10  23  43  65  91 121 161 210 262 309 357
#     4  11  23  39  60  93 127 164 203 247 302 373
#     4  10  21  43  66  88 127 161 201 262 312 355
#     4  11  23  43  61  92 131 163 198 255 306 367
#     4  11  24  42  66  93 121 161 211 256 306 366
#     4  10  20  39  60  88 124 162 199 252 305 359
#     4  11  23  41  67  90 127 163 203 251 313 366
#     4  10  22  36  60  90 124 161 206 244 296 371
#
# _framework density 27.655722000000001
#
# number of rings (size 3 to 8) (size 9 to 14) (size 15 to 20)
#    0.000    1.500    5.000    1.125    1.750    4.000 
#    0.000    0.000    0.000    0.000    0.000    0.000 
#    0.000    0.000    0.000    0.000    0.000    0.000 
#
# Total GULP energy -89642.886140 kJ/mol
# GULP energy per Si atom -5602.680384 kJ/mol
# Density = 2.759278 g / cm^3
# Si number density = 27.655722 Si / 1000 Ang^3
#
#
#
# Elastic Constant Matrix: (Units=GPa)
#
#
# Indices 1 2 3 4 5 6 
#
# 1 79.5927 26.0944 5.6688 10.8523 10.8270 6.5516
# 2 26.0944 137.9538 28.4353 32.3216 26.2284 12.3318
# 3 5.6688 28.4353 97.9593 26.0623 11.2118 3.4632
# 4 10.8523 32.3216 26.0623 44.0022 7.2781 12.1704
# 5 10.8270 26.2284 11.2118 7.2781 32.4284 14.2182
# 6 6.5516 12.3318 3.4632 12.1704 14.2182 45.9903
#
#
#
# Elastic Compliance Matrix: (Units=1/GPa)
#
#
# Indices 1 2 3 4 5 6 
#
# 1 0.013754 -0.001690 0.000555 -0.001962 -0.002922 -0.000126
# 2 -0.001690 0.010262 -0.000554 -0.006013 -0.006721 0.001200
# 3 0.000555 -0.000554 0.012561 -0.007184 -0.003374 0.002068
# 4 -0.001962 -0.006013 -0.007184 0.033342 0.003841 -0.007578
# 5 -0.002922 -0.006721 -0.003374 0.003841 0.042703 -0.011746
# 6 -0.000126 0.001200 0.002068 -0.007578 -0.011746 0.026921
#
#
# Mechanical properties :
#
#
# Convention : Reuss Voigt Hill
#
# Bulk Modulus (GPa) = 30.12068 48.43365 39.27717
# Shear Modulus (GPa) = 32.47022 41.50467 36.98745
#
# Velocity S-wave (km/s) = 3.43021 3.87817 3.66105
# Velocity P-wave (km/s) = 5.15785 6.13227 5.66604
#
# Compressibility (1/GPa) = 0.03319978
#
# Stress axis : x y z
#
# Youngs Moduli (GPa) = 72.70786 97.44687 79.60868
#
# Poissons Ratio (x) = 0.16464 -0.04421
# Poissons Ratio (y) = 0.12285 0.04414
# Poissons Ratio (z) = -0.04038 0.05403
#
# Static dielectric constant tensor:
#      x y z
#    x 2.229590 0.069130 -0.049970 
#    y 0.069130 2.120260 -0.011910 
#    z -0.049970 -0.011910 2.234020 
# 
# From -- ./inp_files/223164.got.cif
#   From: 2010.05.17/outbox.cif.g08.bks.cpg/sg2_112_cif.got.tgz:223164.got - 2010.06.03 11:33:40.
