data_PCOD9104511
_publ_section_title
;
Structure prediction by ZEFSAII (Michael W. Deem and Ramdas Pophale) SiO2 
 PCOD9104511
Probable space group: P -1
;
_chemical_formula_sum "Si O2"
_cell_formula_units_Z 14
_cell_length_a 5.226061
_cell_length_b 6.211050
_cell_length_c 22.554163
_cell_angle_alpha 124.828789
_cell_angle_beta 65.414858
_cell_angle_gamma 102.744845
_cell_volume 546.326225
_symmetry_space_group_name_H-M "P -1"
_symmetry_group_IT_number 2
_symmetry_cell_setting 'triclinic'
loop_
_space_group_symop_operation_xyz
x,y,z
-x,-y,-z
loop_
_atom_site_type_symbol
_atom_site_label
_atom_site_fract_x
_atom_site_fract_y
_atom_site_fract_z
Si Si1 0.271625 0.907137 0.392019
Si Si2 0.596840 0.910748 0.041503
Si Si3 0.274757 0.234107 0.551420
Si Si4 0.236719 0.824989 0.679694
Si Si5 0.223639 0.615234 0.112611
Si Si6 0.378492 0.341555 0.288281
Si Si7 0.626842 0.463007 0.160006
O O1 0.191315 0.156630 0.479861
O O2 0.541216 0.980773 0.339994
O O3 0.338227 0.621367 0.370227
O O4 0.962905 0.831891 0.386130
O O5 0.336488 0.854801 0.101299
O O6 0.745251 0.163020 0.092644
O O7 0.755542 0.632731 0.974197
O O8 0.500000 0.000000 0.000000
O O9 0.310594 0.542028 0.597964
O O10 0.500000 0.000000 0.500000
O O11 0.346213 0.795331 0.732109
O O12 0.898040 0.834945 0.707942
O O13 0.438439 0.555367 0.136640
O O14 0.902693 0.635210 0.167544
O O15 0.431554 0.437162 0.231793
#
# Coordination Sequence:
#
# PCOD9104511 Si02
#       7
#     2   2   2   2   2   2   2
#     4  10  23  39  59  87 120 153 194 249 297 353
#     4   9  21  39  63  93 122 152 197 247 290 345
#     4  10  20  39  61  87 117 149 198 248 296 354
#     4  11  24  40  63  86 117 158 197 244 301 345
#     4  10  22  39  63  90 118 158 197 240 297 342
#     4  11  25  41  58  89 120 156 202 241 287 356
#     4  11  23  40  61  86 123 159 197 242 289 350
#
# _framework density 25.625716000000001
#
# number of rings (size 3 to 8) (size 9 to 14) (size 15 to 20)
#    0.000    1.714    1.429    1.714    2.000   10.286 
#    0.000    0.000    0.000    0.000    0.000    0.000 
#    0.000    0.000    0.000    0.000    0.000    0.000 
#
# Total GULP energy -78125.857772 kJ/mol
# GULP energy per Si atom -5580.418412 kJ/mol
# Density = 2.556739 g / cm^3
# Si number density = 25.625716 Si / 1000 Ang^3
#
#
#
# Elastic Constant Matrix: (Units=GPa)
#
#
# Indices 1 2 3 4 5 6 
#
# 1 89.9134 38.9936 0.8884 -6.1026 -15.6582 24.9234
# 2 38.9936 132.0455 19.2033 -13.7769 -3.5438 45.7953
# 3 0.8884 19.2033 64.4346 -8.5996 -8.8349 9.8885
# 4 -6.1026 -13.7769 -8.5996 45.4404 6.5100 -9.5737
# 5 -15.6582 -3.5438 -8.8349 6.5100 33.1929 -11.4591
# 6 24.9234 45.7953 9.8885 -9.5737 -11.4591 45.4988
#
#
#
# Elastic Compliance Matrix: (Units=1/GPa)
#
#
# Indices 1 2 3 4 5 6 
#
# 1 0.014515 -0.003122 0.002083 -0.000244 0.005785 -0.003855
# 2 -0.003122 0.012946 -0.002534 0.001272 -0.005082 -0.011782
# 3 0.002083 -0.002534 0.017262 0.001951 0.004663 -0.000757
# 4 -0.000244 0.001272 0.001951 0.023740 -0.003213 0.002616
# 5 0.005785 -0.005082 0.004663 -0.003213 0.037537 0.009711
# 6 -0.003855 -0.011782 -0.000757 0.002616 0.009711 0.039109
#
#
# Mechanical properties :
#
#
# Convention : Reuss Voigt Hill
#
# Bulk Modulus (GPa) = 26.61326 44.95158 35.78242
# Shear Modulus (GPa) = 30.34302 39.98029 35.16166
#
# Velocity S-wave (km/s) = 3.44479 3.95417 3.70824
# Velocity P-wave (km/s) = 5.12152 6.19895 5.68582
#
# Compressibility (1/GPa) = 0.03757525
#
# Stress axis : x y z
#
# Youngs Moduli (GPa) = 68.89476 77.24338 57.93071
#
# Poissons Ratio (x) = 0.24118 -0.12065
# Poissons Ratio (y) = 0.21511 0.14681
# Poissons Ratio (z) = -0.14349 0.19575
#
# Static dielectric constant tensor:
#      x y z
#    x 2.167560 0.008300 0.050110 
#    y 0.008300 2.031020 0.019420 
#    z 0.050110 0.019420 2.241980 
# 
# From -- ./inp_files/9952.got.cif
#   From: 2010.05.17/outbox.cif.g08.bks.cpg/sg2_5_cif.got.tgz:9952.got - 2010.06.03 11:33:40.
