data_PCOD9104165
_publ_section_title
;
Structure prediction by ZEFSAII (Michael W. Deem and Ramdas Pophale) SiO2 
 PCOD9104165
Probable space group: P -1
;
_chemical_formula_sum "Si O2"
_cell_formula_units_Z 14
_cell_length_a 9.810662
_cell_length_b 16.568368
_cell_length_c 11.273070
_cell_angle_alpha 33.619859
_cell_angle_beta 65.078938
_cell_angle_gamma 43.514760
_cell_volume 613.300617
_symmetry_space_group_name_H-M "P -1"
_symmetry_group_IT_number 2
_symmetry_cell_setting 'triclinic'
loop_
_space_group_symop_operation_xyz
x,y,z
-x,-y,-z
loop_
_atom_site_type_symbol
_atom_site_label
_atom_site_fract_x
_atom_site_fract_y
_atom_site_fract_z
Si Si1 0.394500 0.794358 0.560366
Si Si2 0.667242 0.710128 0.771355
Si Si3 0.032527 0.811248 0.108490
Si Si4 0.479485 0.443169 0.853571
Si Si5 0.314727 0.071084 0.068443
Si Si6 0.756887 0.312007 0.589323
Si Si7 0.847706 0.785757 0.796187
O O1 0.580759 0.748051 0.623811
O O2 0.420538 0.605031 0.777132
O O3 0.397804 0.852722 0.353468
O O4 0.168260 0.028298 0.411729
O O5 0.718042 0.823949 0.680491
O O6 0.506708 0.727595 0.890918
O O7 0.904875 0.454254 0.003486
O O8 0.275310 0.688008 0.123444
O O9 0.083714 0.719829 0.335458
O O10 0.915872 0.781575 0.100019
O O11 0.864287 0.072400 0.849423
O O12 0.281033 0.598300 0.637908
O O13 0.268540 0.183086 0.074867
O O14 0.500000 0.000000 0.000000
O O15 0.500000 0.500000 0.500000
#
# Coordination Sequence:
#
# PCOD9104165 Si02
#       7
#     2   2   2   2   2   2   2
#     4  10  22  41  63  88 128 162 211 261 306 378
#     4  11  22  42  63  95 125 171 205 262 316 374
#     4  10  20  39  58  89 131 161 211 264 307 370
#     4  11  22  37  65  95 126 162 211 258 322 370
#     4  10  22  42  65  88 122 171 211 259 317 375
#     4   9  19  36  59  86 129 166 200 265 306 367
#     4   9  23  42  63  85 135 159 219 255 308 382
#
# _framework density 22.827304000000002
#
# number of rings (size 3 to 8) (size 9 to 14) (size 15 to 20)
#    0.857    1.143    1.429    1.714    0.000    5.143 
#    5.143    1.429    0.000    0.000    0.000    0.000 
#    0.000    0.000    0.000    0.000    0.000    0.000 
#
# Total GULP energy -78017.719078 kJ/mol
# GULP energy per Si atom -5572.694220 kJ/mol
# Density = 2.277535 g / cm^3
# Si number density = 22.827304 Si / 1000 Ang^3
#
#
#
# Elastic Constant Matrix: (Units=GPa)
#
#
# Indices 1 2 3 4 5 6 
#
# 1 91.9719 29.7778 42.7144 17.5411 30.7804 20.3668
# 2 29.7778 59.1351 21.5711 1.3317 12.7790 10.6383
# 3 42.7144 21.5711 85.2971 13.1832 28.9982 16.4331
# 4 17.5411 1.3317 13.1832 39.5001 15.1936 3.2189
# 5 30.7804 12.7790 28.9982 15.1936 51.4688 3.8041
# 6 20.3668 10.6383 16.4331 3.2189 3.8041 35.7058
#
#
#
# Elastic Compliance Matrix: (Units=1/GPa)
#
#
# Indices 1 2 3 4 5 6 
#
# 1 0.018623 -0.005403 -0.004195 -0.003954 -0.005813 -0.006106
# 2 -0.005403 0.021101 -0.002139 0.003198 -0.001574 -0.002341
# 3 -0.004195 -0.002139 0.017449 -0.001186 -0.006127 -0.004241
# 4 -0.003954 0.003198 -0.001186 0.029902 -0.006578 -0.000147
# 5 -0.005813 -0.001574 -0.006127 -0.006578 0.028382 0.004174
# 6 -0.006106 -0.002341 -0.004241 -0.000147 0.004174 0.033707
#
#
# Mechanical properties :
#
#
# Convention : Reuss Voigt Hill
#
# Bulk Modulus (GPa) = 29.67604 47.17008 38.42306
# Shear Modulus (GPa) = 27.19299 34.82431 31.00865
#
# Velocity S-wave (km/s) = 3.45519 3.91007 3.68965
# Velocity P-wave (km/s) = 5.38017 6.41043 5.91777
#
# Compressibility (1/GPa) = 0.03369722
#
# Stress axis : x y z
#
# Youngs Moduli (GPa) = 53.69829 47.39185 57.31015
#
# Poissons Ratio (x) = 0.25608 0.24044
# Poissons Ratio (y) = 0.29015 0.12257
# Poissons Ratio (z) = 0.22529 0.10135
#
# Static dielectric constant tensor:
#      x y z
#    x 1.854560 0.044200 0.001870 
#    y 0.044200 1.871770 0.000030 
#    z 0.001870 0.000030 1.913490 
# 
# From -- ./inp_files/436509.got.cif
#   From: 2010.05.17/outbox.cif.g08.bks.cpg/sg2_219_cif.got.tgz:436509.got - 2010.06.03 11:33:40.
