data_PCOD9104585
_publ_section_title
;
Structure prediction by ZEFSAII (Michael W. Deem and Ramdas Pophale) SiO2 
 PCOD9104585
Probable space group: P -1
;
_chemical_formula_sum "Si O2"
_cell_formula_units_Z 16
_cell_length_a 11.067724
_cell_length_b 5.915059
_cell_length_c 15.473389
_cell_angle_alpha 64.439672
_cell_angle_beta 78.148018
_cell_angle_gamma 96.720144
_cell_volume 869.767163
_symmetry_space_group_name_H-M "P -1"
_symmetry_group_IT_number 2
_symmetry_cell_setting 'triclinic'
loop_
_space_group_symop_operation_xyz
x,y,z
-x,-y,-z
loop_
_atom_site_type_symbol
_atom_site_label
_atom_site_fract_x
_atom_site_fract_y
_atom_site_fract_z
Si Si1 0.922596 0.835728 0.461541
Si Si2 0.777458 0.222282 0.433596
Si Si3 0.456194 0.532263 0.599625
Si Si4 0.949694 0.398444 0.649292
Si Si5 0.513038 0.935737 0.223465
Si Si6 0.650148 0.865644 0.646892
Si Si7 0.275000 0.593021 0.207767
Si Si8 0.430464 0.738096 0.997286
O O1 0.890448 0.557608 0.558524
O O2 0.013539 0.834322 0.367897
O O3 0.807787 0.962693 0.431878
O O4 0.000000 0.000000 0.500000
O O5 0.662371 0.335249 0.399216
O O6 0.911476 0.427795 0.374899
O O7 0.734448 0.126364 0.552618
O O8 0.500000 0.500000 0.500000
O O9 0.425160 0.263260 0.700613
O O10 0.573167 0.712464 0.603522
O O11 0.852794 0.335895 0.752435
O O12 0.393319 0.767352 0.214891
O O13 0.452602 0.087864 0.278123
O O14 0.594586 0.133964 0.110802
O O15 0.731913 0.694791 0.710512
O O16 0.313721 0.618872 0.097537
O O17 0.500000 0.500000 0.000000
O O18 0.500000 0.000000 0.000000
#
# Coordination Sequence:
#
# PCOD9104585 Si02
#       8
#     2   2   2   2   2   2   2   2
#     4   9  20  31  47  71 108 145 182 222 273 329
#     4  11  22  33  50  75 114 149 186 224 273 342
#     4  11  24  35  52  79 111 154 194 229 282 340
#     4  10  21  33  51  78 111 147 187 226 287 341
#     4  10  22  35  56  83 115 144 188 235 290 343
#     4  11  21  33  55  80 113 147 188 231 281 342
#     4  10  21  35  57  85 114 146 184 238 295 354
#     4  10  20  39  61  90 118 150 190 247 304 350
#
# _framework density 18.395727999999998
#
# number of rings (size 3 to 8) (size 9 to 14) (size 15 to 20)
#    0.000    1.750    3.750    0.375    7.000    0.000 
#    0.000    0.000    0.000    0.750    0.000    1.750 
#    0.000    0.000    0.000    0.000    0.000    0.000 
#
# Total GULP energy -89113.007038 kJ/mol
# GULP energy per Si atom -5569.562940 kJ/mol
# Density = 1.835386 g / cm^3
# Si number density = 18.395728 Si / 1000 Ang^3
#
#
#
# Elastic Constant Matrix: (Units=GPa)
#
#
# Indices 1 2 3 4 5 6 
#
# 1 72.7376 30.1287 52.6416 -1.9735 -11.0420 -31.7603
# 2 30.1287 82.3705 37.3331 13.1222 -0.3068 -22.7974
# 3 52.6416 37.3331 149.8298 16.4719 -11.7305 -19.7149
# 4 -1.9735 13.1222 16.4719 28.3715 -11.8705 -8.5551
# 5 -11.0420 -0.3068 -11.7305 -11.8705 24.6777 0.6572
# 6 -31.7603 -22.7974 -19.7149 -8.5551 0.6572 37.6202
#
#
#
# Elastic Compliance Matrix: (Units=1/GPa)
#
#
# Indices 1 2 3 4 5 6 
#
# 1 0.048686 -0.008048 -0.011729 0.039879 0.034265 0.038549
# 2 -0.008048 0.017583 -0.000878 -0.011923 -0.009558 0.000856
# 3 -0.011729 -0.000878 0.010880 -0.011070 -0.005221 -0.007159
# 4 0.039879 -0.011923 -0.011070 0.083113 0.051383 0.038644
# 5 0.034265 -0.009558 -0.005221 0.051383 0.077151 0.030736
# 6 0.038549 0.000856 -0.007159 0.038644 0.030736 0.064144
#
#
# Mechanical properties :
#
#
# Convention : Reuss Voigt Hill
#
# Bulk Modulus (GPa) = 27.90369 60.57165 44.23767
# Shear Modulus (GPa) = 14.09186 30.45618 22.27402
#
# Velocity S-wave (km/s) = 2.77075 4.07333 3.48347
# Velocity P-wave (km/s) = 5.04356 7.42437 6.34660
#
# Compressibility (1/GPa) = 0.03583755
#
# Stress axis : x y z
#
# Youngs Moduli (GPa) = 20.53977 56.87368 91.90901
#
# Poissons Ratio (x) = 0.45773 1.07803
# Poissons Ratio (y) = 0.16531 0.08073
# Poissons Ratio (z) = 0.24092 0.04996
#
# Static dielectric constant tensor:
#      x y z
#    x 1.658310 -0.008320 -0.010540 
#    y -0.008320 1.767350 -0.020170 
#    z -0.010540 -0.020170 1.642590 
# 
# From -- ./inp_files/97124.got.cif
#   From: 2010.05.17/outbox.cif.g08.bks.cpg/sg2_49_cif.got.tgz:97124.got - 2010.06.03 11:33:40.
