data_PCOD9104334
_publ_section_title
;
Structure prediction by ZEFSAII (Michael W. Deem and Ramdas Pophale) SiO2 
 PCOD9104334
Probable space group: P -1
;
_chemical_formula_sum "Si O2"
_cell_formula_units_Z 16
_cell_length_a 11.868836
_cell_length_b 8.519971
_cell_length_c 9.439477
_cell_angle_alpha 120.996881
_cell_angle_beta 59.791203
_cell_angle_gamma 104.194129
_cell_volume 706.985363
_symmetry_space_group_name_H-M "P -1"
_symmetry_group_IT_number 2
_symmetry_cell_setting 'triclinic'
loop_
_space_group_symop_operation_xyz
x,y,z
-x,-y,-z
loop_
_atom_site_type_symbol
_atom_site_label
_atom_site_fract_x
_atom_site_fract_y
_atom_site_fract_z
Si Si1 0.402146 0.448843 0.160456
Si Si2 0.175808 0.304767 0.792204
Si Si3 0.853129 0.481539 0.810633
Si Si4 0.145679 0.517069 0.632715
Si Si5 0.375991 0.748350 0.509683
Si Si6 0.280246 0.150198 0.238978
Si Si7 0.402520 0.056105 0.404855
Si Si8 0.061257 0.893928 0.275780
O O1 0.259036 0.520878 0.235336
O O2 0.440206 0.553853 0.329201
O O3 0.381043 0.235526 0.105058
O O4 0.500000 0.500000 0.000000
O O5 0.148137 0.473198 0.779210
O O6 0.305577 0.200464 0.611809
O O7 0.055422 0.170151 0.779780
O O8 0.185993 0.374015 0.976425
O O9 0.870762 0.286226 0.784534
O O10 0.995911 0.533763 0.689276
O O11 0.233182 0.689947 0.622029
O O12 0.208533 0.330465 0.438605
O O13 0.455571 0.857920 0.627199
O O14 0.387235 0.872444 0.419673
O O15 0.353736 0.046416 0.271484
O O16 0.167005 0.021836 0.195965
O O17 0.000000 0.000000 0.500000
#
# Coordination Sequence:
#
# PCOD9104334 Si02
#       8
#     2   2   2   2   2   2   2   2
#     4  11  25  41  58  85 126 163 204 244 309 354
#     4  10  21  36  61  88 128 158 196 245 307 358
#     4  11  22  39  60  89 129 159 197 252 304 355
#     4   9  19  36  59  90 114 153 203 248 305 355
#     4  10  22  37  61  88 117 157 208 255 294 363
#     4  10  21  38  62  89 115 159 208 250 293 366
#     4  10  20  39  60  87 117 157 205 252 299 353
#     4  11  18  37  64  95 119 152 206 248 298 360
#
# _framework density 22.631302999999999
#
# number of rings (size 3 to 8) (size 9 to 14) (size 15 to 20)
#    0.000    1.750    3.750    3.000    0.000    8.500 
#    0.000   11.250    0.000    0.000    0.000    0.000 
#    0.000    0.000    0.000    0.000    0.000    0.000 
#
# Total GULP energy -89448.004105 kJ/mol
# GULP energy per Si atom -5590.500257 kJ/mol
# Density = 2.257979 g / cm^3
# Si number density = 22.631303 Si / 1000 Ang^3
#
#
#
# Elastic Constant Matrix: (Units=GPa)
#
#
# Indices 1 2 3 4 5 6 
#
# 1 77.6871 38.5386 -3.0067 -5.2374 -3.5255 27.0587
# 2 38.5386 124.9274 8.6209 -18.0036 -10.0770 51.9305
# 3 -3.0067 8.6209 35.7464 -3.9937 4.8057 11.8608
# 4 -5.2374 -18.0036 -3.9937 33.0554 7.8102 -11.1130
# 5 -3.5255 -10.0770 4.8057 7.8102 28.4830 -0.0498
# 6 27.0587 51.9305 11.8608 -11.1130 -0.0498 40.2443
#
#
#
# Elastic Compliance Matrix: (Units=1/GPa)
#
#
# Indices 1 2 3 4 5 6 
#
# 1 0.018054 -0.000290 0.005815 -0.001652 0.001580 -0.013933
# 2 -0.000290 0.018679 0.002925 0.000866 0.005799 -0.024524
# 3 0.005815 0.002925 0.034324 0.001942 -0.004599 -0.017269
# 4 -0.001652 0.000866 0.001942 0.036263 -0.010153 0.009422
# 5 0.001580 0.005799 -0.004599 -0.010153 0.040898 -0.009942
# 6 -0.013933 -0.024524 -0.017269 0.009422 -0.009942 0.073541
#
#
# Mechanical properties :
#
#
# Convention : Reuss Voigt Hill
#
# Bulk Modulus (GPa) = 11.36911 36.29626 23.83269
# Shear Modulus (GPa) = 21.35121 33.30373 27.32747
#
# Velocity S-wave (km/s) = 3.07487 3.84028 3.47869
# Velocity P-wave (km/s) = 4.20012 5.97800 5.16612
#
# Compressibility (1/GPa) = 0.08795763
#
# Stress axis : x y z
#
# Youngs Moduli (GPa) = 55.38895 53.53586 29.13423
#
# Poissons Ratio (x) = 0.01550 -0.16940
# Poissons Ratio (y) = 0.01604 -0.08523
# Poissons Ratio (z) = -0.32206 -0.15661
#
# Static dielectric constant tensor:
#      x y z
#    x 1.813540 -0.004360 -0.032850 
#    y -0.004360 1.860650 -0.015500 
#    z -0.032850 -0.015500 1.852750 
# 
# From -- ./inp_files/245369.got.cif
#   From: 2010.05.17/outbox.cif.g08.bks.cpg/sg2_123_cif.got.tgz:245369.got - 2010.06.03 11:33:40.
