data_PCOD9104742
_publ_section_title
;
Structure prediction by ZEFSAII (Michael W. Deem and Ramdas Pophale) SiO2 
 PCOD9104742
Probable space group: P -1
;
_chemical_formula_sum "Si O2"
_cell_formula_units_Z 12
_cell_length_a 21.354793
_cell_length_b 15.417157
_cell_length_c 18.241586
_cell_angle_alpha 160.724687
_cell_angle_beta 20.599412
_cell_angle_gamma 162.500298
_cell_volume 556.008522
_symmetry_space_group_name_H-M "P -1"
_symmetry_group_IT_number 2
_symmetry_cell_setting 'triclinic'
loop_
_space_group_symop_operation_xyz
x,y,z
-x,-y,-z
loop_
_atom_site_type_symbol
_atom_site_label
_atom_site_fract_x
_atom_site_fract_y
_atom_site_fract_z
Si Si1 0.715522 0.650174 0.335115
Si Si2 0.859928 0.234149 0.877282
Si Si3 0.931736 0.052480 0.283226
Si Si4 0.121985 0.253765 0.466791
Si Si5 0.770219 0.188915 0.431833
Si Si6 0.305031 0.958171 0.768442
O O1 0.500000 0.500000 0.500000
O O2 0.738818 0.797664 0.347510
O O3 0.725273 0.344899 0.075513
O O4 0.924763 0.961323 0.398765
O O5 0.022132 0.276598 0.669925
O O6 0.739990 0.879730 0.764438
O O7 0.000000 0.500000 0.000000
O O8 0.839648 0.023321 0.279576
O O9 0.032282 0.427185 0.491990
O O10 0.128972 0.008208 0.035017
O O11 0.233749 0.596005 0.576748
O O12 0.702001 0.010179 0.286062
O O13 0.566238 0.185202 0.684660
#
# Coordination Sequence:
#
# PCOD9104742 Si02
#       6
#     2   2   2   2   2   2
#     4  11  23  40  60  91 130 171 209 258 324 378
#     4   9  20  38  60  86 118 164 206 256 311 371
#     4  11  22  43  63  92 134 164 208 267 312 380
#     4  10  20  39  62  87 125 161 214 261 311 381
#     4  10  24  40  65  97 122 167 215 257 322 380
#     4  11  21  42  67  93 124 166 211 265 323 371
#
# _framework density 21.582402999999999
#
# number of rings (size 3 to 8) (size 9 to 14) (size 15 to 20)
#    0.000    1.667    3.333    1.000    0.000    4.667 
#    3.000    1.667    0.000    0.000    0.000    0.000 
#    0.000    0.000    0.000    0.000    0.000    0.000 
#
# Total GULP energy -66928.749364 kJ/mol
# GULP energy per Si atom -5577.395780 kJ/mol
# Density = 2.153328 g / cm^3
# Si number density = 21.582403 Si / 1000 Ang^3
#
#
#
# Elastic Constant Matrix: (Units=GPa)
#
#
# Indices 1 2 3 4 5 6 
#
# 1 76.4776 27.7106 13.3120 15.0518 -14.3410 -30.1819
# 2 27.7106 84.1776 25.8810 6.3753 -26.8476 -31.4901
# 3 13.3120 25.8810 75.6295 10.1389 -14.3749 -26.1919
# 4 15.0518 6.3753 10.1389 28.7975 -9.7272 -1.1737
# 5 -14.3410 -26.8476 -14.3749 -9.7272 33.7152 13.1980
# 6 -30.1819 -31.4901 -26.1919 -1.1737 13.1980 36.4238
#
#
#
# Elastic Compliance Matrix: (Units=1/GPa)
#
#
# Indices 1 2 3 4 5 6 
#
# 1 0.024130 0.000137 0.005782 -0.013894 -0.000578 0.024033
# 2 0.000137 0.020532 -0.000163 -0.000337 0.010835 0.013811
# 3 0.005782 -0.000163 0.020025 -0.008913 0.001108 0.018361
# 4 -0.013894 -0.000337 -0.008913 0.048484 0.012268 -0.021097
# 5 -0.000578 0.010835 0.001108 0.012268 0.044407 -0.006009
# 6 0.024033 0.013811 0.018361 -0.021097 -0.006009 0.074010
#
#
# Mechanical properties :
#
#
# Convention : Reuss Voigt Hill
#
# Bulk Modulus (GPa) = 13.12338 41.12133 27.12236
# Shear Modulus (GPa) = 20.36853 31.07936 25.72395
#
# Velocity S-wave (km/s) = 3.07539 3.79889 3.45613
# Velocity P-wave (km/s) = 4.32487 6.19166 5.34047
#
# Compressibility (1/GPa) = 0.07619987
#
# Stress axis : x y z
#
# Youngs Moduli (GPa) = 41.44144 48.70345 49.93839
#
# Poissons Ratio (x) = -0.00669 -0.28872
# Poissons Ratio (y) = -0.00569 0.00813
# Poissons Ratio (z) = -0.23960 0.00793
#
# Static dielectric constant tensor:
#      x y z
#    x 1.812610 0.029850 -0.049740 
#    y 0.029850 1.754120 0.050900 
#    z -0.049740 0.050900 1.772030 
# 
# From -- ./inp_files/23035.got.cif
#   From: 2010.05.17/outbox.cif.g08.bks.cpg/sg2_12_cif.got.tgz:23035.got - 2010.06.03 11:33:40.
