data_PCOD9104435
_publ_section_title
;
Structure prediction by ZEFSAII (Michael W. Deem and Ramdas Pophale) SiO2 
 PCOD9104435
Probable space group: P -1
;
_chemical_formula_sum "Si O2"
_cell_formula_units_Z 14
_cell_length_a 8.886399
_cell_length_b 7.861275
_cell_length_c 14.309779
_cell_angle_alpha 52.991750
_cell_angle_beta 118.156038
_cell_angle_gamma 127.311812
_cell_volume 625.830640
_symmetry_space_group_name_H-M "P -1"
_symmetry_group_IT_number 2
_symmetry_cell_setting 'triclinic'
loop_
_space_group_symop_operation_xyz
x,y,z
-x,-y,-z
loop_
_atom_site_type_symbol
_atom_site_label
_atom_site_fract_x
_atom_site_fract_y
_atom_site_fract_z
Si Si1 0.761716 0.297470 0.765516
Si Si2 0.232915 0.119940 0.015985
Si Si3 0.089466 0.216715 0.601822
Si Si4 0.726923 0.761354 0.666488
Si Si5 0.888247 0.445943 0.340650
Si Si6 0.585821 0.787909 0.422734
Si Si7 0.532358 0.392624 0.179406
O O1 0.770265 0.546125 0.717713
O O2 0.588051 0.177911 0.681018
O O3 0.954694 0.359412 0.745054
O O4 0.732976 0.114718 0.901055
O O5 0.363433 0.264279 0.096447
O O6 0.334740 0.324506 0.899769
O O7 0.000000 0.000000 0.000000
O O8 0.162436 0.430383 0.627546
O O9 0.242432 0.148053 0.621787
O O10 0.995038 0.302365 0.462425
O O11 0.923657 0.986423 0.678281
O O12 0.648796 0.857115 0.524853
O O13 0.576323 0.657283 0.738612
O O14 0.696702 0.305076 0.270533
O O15 0.500000 0.500000 0.500000
#
# Coordination Sequence:
#
# PCOD9104435 Si02
#       7
#     2   2   2   2   2   2   2
#     4  11  23  41  69  95 136 175 219 276 331 389
#     4  11  25  50  73  92 127 173 231 287 328 386
#     4  11  23  38  64 100 147 179 212 264 325 408
#     4  11  24  40  62 103 137 173 217 268 336 405
#     4  11  22  39  67 100 134 180 222 261 330 394
#     4  10  20  39  60  95 142 175 210 263 331 391
#     4  11  26  45  71  97 131 174 226 279 331 389
#
# _framework density 22.370270000000001
#
# number of rings (size 3 to 8) (size 9 to 14) (size 15 to 20)
#    0.000    1.143    4.286    3.000    4.000    1.143 
#    0.000    0.714    0.000    0.000    0.000    0.000 
#    0.000    0.000    0.000    0.000    0.000    0.000 
#
# Total GULP energy -78169.581868 kJ/mol
# GULP energy per Si atom -5583.541562 kJ/mol
# Density = 2.231935 g / cm^3
# Si number density = 22.370270 Si / 1000 Ang^3
#
#
#
# Elastic Constant Matrix: (Units=GPa)
#
#
# Indices 1 2 3 4 5 6 
#
# 1 120.7309 28.3649 41.0373 9.9436 -17.7667 34.1351
# 2 28.3649 100.6176 5.8904 1.1909 4.2970 38.6888
# 3 41.0373 5.8904 56.5862 -9.8283 10.7550 22.6298
# 4 9.9436 1.1909 -9.8283 34.8370 6.7805 1.2499
# 5 -17.7667 4.2970 10.7550 6.7805 29.1389 -4.6483
# 6 34.1351 38.6888 22.6298 1.2499 -4.6483 38.1062
#
#
#
# Elastic Compliance Matrix: (Units=1/GPa)
#
#
# Indices 1 2 3 4 5 6 
#
# 1 0.029346 -0.015321 -0.041622 -0.029202 0.045581 0.020503
# 2 -0.015321 0.031652 0.038765 0.023990 -0.041441 -0.047274
# 3 -0.041622 0.038765 0.103602 0.061225 -0.095913 -0.077306
# 4 -0.029202 0.023990 0.061225 0.068141 -0.066969 -0.044960
# 5 0.045581 -0.041441 -0.095913 -0.066969 0.131398 0.076427
# 6 0.020503 -0.047274 -0.077306 -0.044960 0.076427 0.112580
#
#
# Mechanical properties :
#
#
# Convention : Reuss Voigt Hill
#
# Bulk Modulus (GPa) = 7.79768 47.61331 27.70550
# Shear Modulus (GPa) = 8.99568 33.92590 21.46079
#
# Velocity S-wave (km/s) = 2.00749 3.89853 3.10069
# Velocity P-wave (km/s) = 2.97769 6.44943 5.02303
#
# Compressibility (1/GPa) = 0.12824323
#
# Stress axis : x y z
#
# Youngs Moduli (GPa) = 34.07615 31.59383 9.65234
#
# Poissons Ratio (x) = 0.48405 0.40175
# Poissons Ratio (y) = 0.52208 -0.37417
# Poissons Ratio (z) = 1.41833 -1.22474
#
# Static dielectric constant tensor:
#      x y z
#    x 1.844840 -0.048910 0.073640 
#    y -0.048910 1.972500 -0.031390 
#    z 0.073640 -0.031390 1.891510 
# 
# From -- ./inp_files/177214.got.cif
#   From: 2010.05.17/outbox.cif.g08.bks.cpg/sg2_89_cif.got.tgz:177214.got - 2010.06.03 11:33:40.
