data_PCOD9104962
_publ_section_title
;
Structure prediction by ZEFSAII (Michael W. Deem and Ramdas Pophale) SiO2 
 PCOD9104962
Probable space group: P -1
;
_chemical_formula_sum "Si O2"
_cell_formula_units_Z 16
_cell_length_a 10.856211
_cell_length_b 9.529040
_cell_length_c 27.117119
_cell_angle_alpha 41.170928
_cell_angle_beta 158.621485
_cell_angle_gamma 137.694554
_cell_volume 664.406892
_symmetry_space_group_name_H-M "P -1"
_symmetry_group_IT_number 2
_symmetry_cell_setting 'triclinic'
loop_
_space_group_symop_operation_xyz
x,y,z
-x,-y,-z
loop_
_atom_site_type_symbol
_atom_site_label
_atom_site_fract_x
_atom_site_fract_y
_atom_site_fract_z
Si Si1 0.803668 0.371620 0.416462
Si Si2 0.697178 0.838193 0.404471
Si Si3 0.468280 0.794950 0.820294
Si Si4 0.171762 0.273311 0.328000
Si Si5 0.330294 0.389776 0.152571
Si Si6 0.921119 0.119444 0.787946
Si Si7 0.746967 0.037837 0.642203
Si Si8 0.149567 0.333498 0.915301
O O1 0.563495 0.481783 0.261271
O O2 0.561716 0.152217 0.403494
O O3 0.000000 0.500000 0.500000
O O4 0.100480 0.320459 0.505248
O O5 0.414121 0.764899 0.359400
O O6 0.515288 0.972612 0.260886
O O7 0.000000 0.000000 0.500000
O O8 0.486269 0.620888 0.829295
O O9 0.105652 0.755811 0.723744
O O10 0.778472 0.788165 0.975686
O O11 0.070163 0.087263 0.297932
O O12 0.142928 0.511673 0.233203
O O13 0.538429 0.219526 0.495990
O O14 0.200751 0.135718 0.181911
O O15 0.000000 0.500000 0.000000
O O16 0.147221 0.208185 0.895413
O O17 0.997578 0.129736 0.755834
O O18 0.500000 0.500000 0.000000
#
# Coordination Sequence:
#
# PCOD9104962 Si02
#       8
#     2   2   2   2   2   2   2   2
#     4  11  23  37  63  99 126 157 207 272 320 372
#     4  11  18  39  65  90 119 159 202 261 326 373
#     4  10  20  39  63  84 126 159 209 253 316 373
#     4  10  21  40  63  85 122 168 208 257 304 371
#     4  10  23  40  65  96 129 165 203 265 331 387
#     4  10  22  39  66  91 122 163 212 262 324 372
#     4  10  21  40  62  90 125 162 209 263 312 376
#     4  10  24  41  60  90 122 172 216 256 306 384
#
# _framework density 24.081629
#
# number of rings (size 3 to 8) (size 9 to 14) (size 15 to 20)
#    0.000    1.750    5.000    0.000    5.250    3.500 
#    0.000    7.500    0.000    0.000    0.000    0.000 
#    0.000    0.000    0.000    0.000    0.000    0.000 
#
# Total GULP energy -89347.792173 kJ/mol
# GULP energy per Si atom -5584.237011 kJ/mol
# Density = 2.402682 g / cm^3
# Si number density = 24.081629 Si / 1000 Ang^3
#
#
#
# Elastic Constant Matrix: (Units=GPa)
#
#
# Indices 1 2 3 4 5 6 
#
# 1 98.3515 41.4526 40.5720 0.0289 -10.6331 -33.4316
# 2 41.4526 98.4032 55.4658 18.2916 -17.2771 -30.5855
# 3 40.5720 55.4658 149.8880 -1.2234 -37.8305 -32.1577
# 4 0.0289 18.2916 -1.2234 53.7812 -14.8757 -8.4468
# 5 -10.6331 -17.2771 -37.8305 -14.8757 49.3930 6.3824
# 6 -33.4316 -30.5855 -32.1577 -8.4468 6.3824 51.4040
#
#
#
# Elastic Compliance Matrix: (Units=1/GPa)
#
#
# Indices 1 2 3 4 5 6 
#
# 1 0.014613 -0.003871 -0.000687 0.002729 0.001173 0.007073
# 2 -0.003871 0.016257 -0.004363 -0.005200 -0.000524 0.003637
# 3 -0.000687 -0.004363 0.011305 0.004509 0.007852 0.003796
# 4 0.002729 -0.005200 0.004509 0.023561 0.008764 0.004285
# 5 0.001173 -0.000524 0.007852 0.008764 0.028548 0.003259
# 6 0.007073 0.003637 0.003796 0.004285 0.003259 0.028892
#
#
# Mechanical properties :
#
#
# Convention : Reuss Voigt Hill
#
# Bulk Modulus (GPa) = 41.09550 69.06928 55.08239
# Shear Modulus (GPa) = 33.52826 44.85912 39.19369
#
# Velocity S-wave (km/s) = 3.73537 4.32069 4.03865
# Velocity P-wave (km/s) = 5.97546 7.32358 6.68359
#
# Compressibility (1/GPa) = 0.02433357
#
# Stress axis : x y z
#
# Youngs Moduli (GPa) = 68.43174 61.51225 88.45665
#
# Poissons Ratio (x) = 0.23813 0.06077
# Poissons Ratio (y) = 0.26492 0.38589
# Poissons Ratio (z) = 0.04701 0.26835
#
# Static dielectric constant tensor:
#      x y z
#    x 2.021010 0.077010 -0.041720 
#    y 0.077010 1.969160 0.011260 
#    z -0.041720 0.011260 1.982180 
# 
# From -- ./inp_files/618219.got.cif
#   From: 2010.05.17/outbox.cif.g08.bks.cpg/sg2_310_cif.got.tgz:618219.got - 2010.06.03 11:33:40.
