data_PCOD9104022
_publ_section_title
;
Structure prediction by ZEFSAII (Michael W. Deem and Ramdas Pophale) SiO2 
 PCOD9104022
Probable space group: P -1
;
_chemical_formula_sum "Si O2"
_cell_formula_units_Z 16
_cell_length_a 7.871987
_cell_length_b 24.476691
_cell_length_c 10.421197
_cell_angle_alpha 25.012448
_cell_angle_beta 56.550775
_cell_angle_gamma 55.501664
_cell_volume 695.534968
_symmetry_space_group_name_H-M "P -1"
_symmetry_group_IT_number 2
_symmetry_cell_setting 'triclinic'
loop_
_space_group_symop_operation_xyz
x,y,z
-x,-y,-z
loop_
_atom_site_type_symbol
_atom_site_label
_atom_site_fract_x
_atom_site_fract_y
_atom_site_fract_z
Si Si1 0.083566 0.362355 0.191408
Si Si2 0.414804 0.365679 0.848642
Si Si3 0.461455 0.880507 0.102531
Si Si4 0.666510 0.367536 0.187855
Si Si5 0.308134 0.890214 0.845293
Si Si6 0.828906 0.914901 0.728474
Si Si7 0.907145 0.917555 0.099979
Si Si8 0.000107 0.363574 0.859175
O O1 0.104798 0.230273 0.544505
O O2 0.885173 0.353533 0.202732
O O3 0.312238 0.364533 0.034297
O O4 0.000000 0.500000 0.000000
O O5 0.500000 0.500000 0.500000
O O6 0.203262 0.356360 0.880026
O O7 0.583665 0.238496 0.005751
O O8 0.439743 0.749718 0.466454
O O9 0.389318 0.871561 0.000114
O O10 0.684866 0.911069 0.918720
O O11 0.319795 0.997430 0.988190
O O12 0.500000 0.500000 0.000000
O O13 0.770999 0.363681 0.012177
O O14 0.304998 0.018747 0.481834
O O15 0.063276 0.907537 0.939077
O O16 0.000000 0.000000 0.500000
O O17 0.939312 0.766734 0.971290
O O18 0.000000 0.000000 0.000000
O O19 0.000000 0.500000 0.500000
#
# Coordination Sequence:
#
# PCOD9104022 Si02
#       8
#     2   2   2   2   2   2   2   2
#     4  11  23  42  65 101 132 169 224 285 331 402
#     4  11  25  40  71 100 133 178 231 275 343 397
#     4  11  22  44  72  97 130 180 229 280 339 404
#     4  11  24  44  69  96 132 183 225 271 346 406
#     4  11  22  42  71  98 134 171 232 280 336 399
#     4  12  27  44  68 101 140 178 227 280 345 404
#     4  10  20  38  72  95 129 166 228 276 335 394
#     4  11  26  47  69  96 141 183 225 281 342 407
#
# _framework density 23.003876999999999
#
# number of rings (size 3 to 8) (size 9 to 14) (size 15 to 20)
#    0.000    1.000    3.750    3.375    7.000    0.000 
#    4.500    1.250    0.000    0.000    0.000    0.000 
#    0.000    0.000    0.000    0.000    0.000    0.000 
#
# Total GULP energy -89281.415143 kJ/mol
# GULP energy per Si atom -5580.088446 kJ/mol
# Density = 2.295152 g / cm^3
# Si number density = 23.003877 Si / 1000 Ang^3
#
#
#
# Elastic Constant Matrix: (Units=GPa)
#
#
# Indices 1 2 3 4 5 6 
#
# 1 65.3779 21.4453 15.2325 4.9199 -9.5892 -20.0931
# 2 21.4453 227.2357 115.0225 5.7534 5.4806 -54.1412
# 3 15.2325 115.0225 215.4289 3.4608 2.2561 -23.9870
# 4 4.9199 5.7534 3.4608 55.4430 -14.4133 -5.1179
# 5 -9.5892 5.4806 2.2561 -14.4133 37.6316 0.7890
# 6 -20.0931 -54.1412 -23.9870 -5.1179 0.7890 37.3662
#
#
#
# Elastic Compliance Matrix: (Units=1/GPa)
#
#
# Indices 1 2 3 4 5 6 
#
# 1 0.019303 0.001208 -0.000776 0.000514 0.004743 0.011602
# 2 0.001208 0.008714 -0.003497 -0.000032 -0.000996 0.011047
# 3 -0.000776 -0.003497 0.006413 -0.000119 -0.000090 -0.001382
# 4 0.000514 -0.000032 -0.000119 0.020301 0.007860 0.002768
# 5 0.004743 -0.000996 -0.000090 0.007860 0.030912 0.001474
# 6 0.011602 0.011047 -0.001382 0.002768 0.001474 0.048468
#
#
# Mechanical properties :
#
#
# Convention : Reuss Voigt Hill
#
# Bulk Modulus (GPa) = 35.33566 90.16035 62.74801
# Shear Modulus (GPa) = 33.40607 49.84429 41.62518
#
# Velocity S-wave (km/s) = 3.81490 4.65992 4.25842
# Velocity P-wave (km/s) = 5.89904 8.26025 7.17741
#
# Compressibility (1/GPa) = 0.02830002
#
# Stress axis : x y z
#
# Youngs Moduli (GPa) = 51.80519 114.76296 155.93742
#
# Poissons Ratio (x) = -0.13864 0.12100
# Poissons Ratio (y) = -0.06258 0.54529
# Poissons Ratio (z) = 0.04020 0.40131
#
# Static dielectric constant tensor:
#      x y z
#    x 1.822690 0.496310 0.371270 
#    y 0.496310 1.275160 -0.451730 
#    z 0.371270 -0.451730 1.383840 
# 
# From -- ./inp_files/407300.got.cif
#   From: 2010.05.17/outbox.cif.g08.bks.cpg/sg2_204_cif.got.tgz:407300.got - 2010.06.03 11:33:40.
