data_PCOD9104049
_publ_section_title
;
Structure prediction by ZEFSAII (Michael W. Deem and Ramdas Pophale) SiO2 
 PCOD9104049
Probable space group: P -1
;
_chemical_formula_sum "Si O2"
_cell_formula_units_Z 16
_cell_length_a 6.411499
_cell_length_b 7.260952
_cell_length_c 22.705727
_cell_angle_alpha 130.877894
_cell_angle_beta 55.561287
_cell_angle_gamma 105.738491
_cell_volume 650.813427
_symmetry_space_group_name_H-M "P -1"
_symmetry_group_IT_number 2
_symmetry_cell_setting 'triclinic'
loop_
_space_group_symop_operation_xyz
x,y,z
-x,-y,-z
loop_
_atom_site_type_symbol
_atom_site_label
_atom_site_fract_x
_atom_site_fract_y
_atom_site_fract_z
Si Si1 0.724102 0.158714 0.996215
Si Si2 0.247724 0.732913 0.124310
Si Si3 0.059953 0.645440 0.445115
Si Si4 0.481443 0.482911 0.208862
Si Si5 0.984252 0.754500 0.713912
Si Si6 0.173586 0.315360 0.979128
Si Si7 0.339650 0.411401 0.672966
Si Si8 0.041461 0.907353 0.375871
O O1 0.626616 0.363876 0.104245
O O2 0.022498 0.084335 0.952064
O O3 0.735468 0.205530 0.934653
O O4 0.500000 0.000000 0.000000
O O5 0.183053 0.456480 0.069953
O O6 0.535923 0.737507 0.100457
O O7 0.047559 0.953090 0.228051
O O8 0.364389 0.626043 0.401724
O O9 0.978168 0.388330 0.384145
O O10 0.007953 0.791108 0.421927
O O11 0.931265 0.813136 0.553745
O O12 0.654254 0.528873 0.246388
O O13 0.284657 0.308201 0.229378
O O14 0.297491 0.739749 0.275648
O O15 0.188928 0.632305 0.703649
O O16 0.000000 0.500000 0.000000
O O17 0.201939 0.171443 0.634883
#
# Coordination Sequence:
#
# PCOD9104049 Si02
#       8
#     2   2   2   2   2   2   2   2
#     4  11  21  35  52  78 104 135 173 210 259 302
#     4  10  20  39  53  73 104 136 171 214 252 302
#     4   8  14  23  39  65  90 130 165 201 245 295
#     4   9  18  29  41  71  99 132 167 204 249 302
#     4   9  17  29  45  71  99 126 166 208 251 295
#     4   9  22  38  56  71  97 137 176 210 257 305
#     4   8  15  25  42  63 100 129 166 200 247 296
#     4   8  14  25  39  58  98 130 163 201 245 296
#
# _framework density 24.584617999999999
#
# number of rings (size 3 to 8) (size 9 to 14) (size 15 to 20)
#    0.000    3.500    1.250    0.375    0.000    7.500 
#    0.000    0.000    0.000    0.000    0.000    0.875 
#    0.000   11.000    0.000    0.250    0.000    0.000 
#
# Total GULP energy -89182.659719 kJ/mol
# GULP energy per Si atom -5573.916232 kJ/mol
# Density = 2.452866 g / cm^3
# Si number density = 24.584618 Si / 1000 Ang^3
#
#
#
# Elastic Constant Matrix: (Units=GPa)
#
#
# Indices 1 2 3 4 5 6 
#
# 1 161.1082 21.5623 32.6014 10.0016 27.5446 14.7318
# 2 21.5623 38.8168 -2.0074 -6.2212 8.7529 -2.7785
# 3 32.6014 -2.0074 136.2249 24.6923 19.4584 1.9960
# 4 10.0016 -6.2212 24.6923 26.6632 2.9116 7.0288
# 5 27.5446 8.7529 19.4584 2.9116 16.1541 1.8657
# 6 14.7318 -2.7785 1.9960 7.0288 1.8657 29.9935
#
#
#
# Elastic Compliance Matrix: (Units=1/GPa)
#
#
# Indices 1 2 3 4 5 6 
#
# 1 0.009349 -0.002584 0.000075 -0.001720 -0.013909 -0.003568
# 2 -0.002584 0.032793 0.002218 0.007592 -0.017806 0.003488
# 3 0.000075 0.002218 0.010742 -0.008645 -0.012976 0.002287
# 4 -0.001720 0.007592 -0.008645 0.050359 0.001283 -0.009758
# 5 -0.013909 -0.017806 -0.012976 0.001283 0.110800 -0.001147
# 6 -0.003568 0.003488 0.002287 -0.009758 -0.001147 0.037622
#
#
# Mechanical properties :
#
#
# Convention : Reuss Voigt Hill
#
# Bulk Modulus (GPa) = 19.11922 48.94027 34.02974
# Shear Modulus (GPa) = 18.54038 33.49508 26.01773
#
# Velocity S-wave (km/s) = 2.74915 3.69513 3.25667
# Velocity P-wave (km/s) = 4.22740 6.17700 5.29274
#
# Compressibility (1/GPa) = 0.05230339
#
# Stress axis : x y z
#
# Youngs Moduli (GPa) = 106.96745 30.49398 93.08900
#
# Poissons Ratio (x) = 0.07879 -0.00703
# Poissons Ratio (y) = 0.27638 -0.20645
# Poissons Ratio (z) = -0.00807 -0.06763
#
# Static dielectric constant tensor:
#      x y z
#    x 1.984940 0.081850 0.031350 
#    y 0.081850 2.249030 0.223670 
#    z 0.031350 0.223670 2.099960 
# 
# From -- ./inp_files/615283.got.cif
#   From: 2010.05.17/outbox.cif.g08.bks.cpg/sg2_308_cif.got.tgz:615283.got - 2010.06.03 11:33:40.
