data_PCOD9104221
_publ_section_title
;
Structure prediction by ZEFSAII (Michael W. Deem and Ramdas Pophale) SiO2 
 PCOD9104221
Probable space group: P -1
;
_chemical_formula_sum "Si O2"
_cell_formula_units_Z 15
_cell_length_a 8.379498
_cell_length_b 17.550098
_cell_length_c 6.903624
_cell_angle_alpha 116.737811
_cell_angle_beta 127.579386
_cell_angle_gamma 95.394102
_cell_volume 613.560465
_symmetry_space_group_name_H-M "P -1"
_symmetry_group_IT_number 2
_symmetry_cell_setting 'triclinic'
loop_
_space_group_symop_operation_xyz
x,y,z
-x,-y,-z
loop_
_atom_site_type_symbol
_atom_site_label
_atom_site_fract_x
_atom_site_fract_y
_atom_site_fract_z
Si Si1 0.174997 0.362152 0.682759
Si Si2 0.500000 0.500000 0.500000
Si Si3 0.986785 0.187964 0.863824
Si Si4 0.991503 0.855786 0.719146
Si Si5 0.503628 0.995282 0.264693
Si Si6 0.008508 0.388930 0.202195
Si Si7 0.390143 0.574269 0.204857
Si Si8 0.225631 0.103780 0.712055
O O1 0.017026 0.380215 0.432612
O O2 0.408973 0.385487 0.763248
O O3 0.042975 0.247275 0.511982
O O4 0.277343 0.451997 0.018015
O O5 0.267581 0.475335 0.433371
O O6 0.510961 0.602939 0.533351
O O7 0.189038 0.182287 0.892026
O O8 0.729334 0.100860 0.497893
O O9 0.016135 0.161435 0.077432
O O10 0.974517 0.286611 0.977349
O O11 0.797129 0.873921 0.504269
O O12 0.237914 0.954996 0.961961
O O13 0.555740 0.910869 0.133367
O O14 0.500000 0.000000 0.500000
O O15 0.809719 0.406215 0.987279
O O16 0.000000 0.000000 0.500000
#
# Coordination Sequence:
#
# PCOD9104221 Si02
#       8
#     2   1   2   2   2   2   2   2
#     4   9  21  37  60  88 116 160 204 252 302 368
#     4  10  22  36  56  88 118 156 202 246 304 358
#     4   9  21  39  61  87 125 158 206 254 303 370
#     4  10  21  40  61  89 123 159 207 251 305 364
#     4   9  20  39  61  88 119 158 201 248 302 364
#     4  10  20  39  59  86 120 158 204 250 310 365
#     4  10  20  39  61  84 125 158 200 254 306 367
#     4  10  22  39  60  88 122 164 200 254 305 360
#
# _framework density 24.447467
#
# number of rings (size 3 to 8) (size 9 to 14) (size 15 to 20)
#    0.000    2.400    0.000    0.800    1.867   10.133 
#    2.400    9.333    0.000    0.000    0.000    0.000 
#    0.000    0.000    0.000    0.000    0.000    0.000 
#
# Total GULP energy -83548.842889 kJ/mol
# GULP energy per Si atom -5569.922859 kJ/mol
# Density = 2.439182 g / cm^3
# Si number density = 24.447467 Si / 1000 Ang^3
#
#
#
# Elastic Constant Matrix: (Units=GPa)
#
#
# Indices 1 2 3 4 5 6 
#
# 1 61.4873 19.1140 10.5927 -2.3682 -8.2866 -8.3650
# 2 19.1140 96.6689 39.7268 -15.1924 -2.0012 -8.4649
# 3 10.5927 39.7268 75.7712 9.3705 4.2798 -11.1136
# 4 -2.3682 -15.1924 9.3705 51.1849 -12.7087 -2.1244
# 5 -8.2866 -2.0012 4.2798 -12.7087 25.6938 -8.3528
# 6 -8.3650 -8.4649 -11.1136 -2.1244 -8.3528 27.2595
#
#
#
# Elastic Compliance Matrix: (Units=1/GPa)
#
#
# Indices 1 2 3 4 5 6 
#
# 1 0.019940 -0.001567 -0.001828 0.003986 0.011411 0.008694
# 2 -0.001567 0.016306 -0.009262 0.008559 0.007796 0.003862
# 3 -0.001828 -0.009262 0.020058 -0.008523 -0.008377 0.001509
# 4 0.003986 0.008559 -0.008523 0.029378 0.020857 0.009087
# 5 0.011411 0.007796 -0.008377 0.020857 0.062487 0.023280
# 6 0.008694 0.003862 0.001509 0.009087 0.023280 0.049009
#
#
# Mechanical properties :
#
#
# Convention : Reuss Voigt Hill
#
# Bulk Modulus (GPa) = 32.27052 41.42158 36.84605
# Shear Modulus (GPa) = 21.47564 31.79390 26.63477
#
# Velocity S-wave (km/s) = 2.96706 3.61016 3.30429
# Velocity P-wave (km/s) = 4.99666 5.86153 5.44629
#
# Compressibility (1/GPa) = 0.03098803
#
# Stress axis : x y z
#
# Youngs Moduli (GPa) = 50.15066 61.32874 49.85555
#
# Poissons Ratio (x) = 0.09612 0.09114
# Poissons Ratio (y) = 0.07860 0.46177
# Poissons Ratio (z) = 0.09168 0.56804
#
# Static dielectric constant tensor:
#      x y z
#    x 1.934960 0.021060 0.032590 
#    y 0.021060 1.951560 0.132970 
#    z 0.032590 0.132970 1.575160 
# 
# From -- ./inp_files/110857.got.cif
#   From: 2010.05.17/outbox.cif.g08.bks.cpg/sg2_56_cif.got.tgz:110857.got - 2010.06.03 11:33:40.
