data_PCOD9104595
_publ_section_title
;
Structure prediction by ZEFSAII (Michael W. Deem and Ramdas Pophale) SiO2 
 PCOD9104595
Probable space group: P -1
;
_chemical_formula_sum "Si O2"
_cell_formula_units_Z 16
_cell_length_a 7.712387
_cell_length_b 28.847263
_cell_length_c 13.980340
_cell_angle_alpha 18.999285
_cell_angle_beta 58.146379
_cell_angle_gamma 50.816995
_cell_volume 754.426920
_symmetry_space_group_name_H-M "P -1"
_symmetry_group_IT_number 2
_symmetry_cell_setting 'triclinic'
loop_
_space_group_symop_operation_xyz
x,y,z
-x,-y,-z
loop_
_atom_site_type_symbol
_atom_site_label
_atom_site_fract_x
_atom_site_fract_y
_atom_site_fract_z
Si Si1 0.221428 0.499304 0.387551
Si Si2 0.217329 0.437918 0.984907
Si Si3 0.485441 0.136274 0.808488
Si Si4 0.263925 0.661369 0.227134
Si Si5 0.051511 0.447034 0.351096
Si Si6 0.644580 0.906779 0.370120
Si Si7 0.847603 0.225771 0.617453
Si Si8 0.332095 0.842145 0.013407
O O1 0.246294 0.641647 0.157330
O O2 0.159444 0.521084 0.251176
O O3 0.436999 0.322400 0.697256
O O4 0.000000 0.500000 0.500000
O O5 0.283693 0.579837 0.705111
O O6 0.124134 0.446024 0.888187
O O7 0.393893 0.248734 0.317290
O O8 0.000000 0.500000 0.000000
O O9 0.267785 0.302678 0.516949
O O10 0.695936 0.175077 0.691871
O O11 0.500000 0.000000 0.000000
O O12 0.461245 0.061708 0.061833
O O13 0.500000 0.500000 0.500000
O O14 0.276529 0.808436 0.988791
O O15 0.068783 0.635905 0.389252
O O16 0.896775 0.839113 0.375083
O O17 0.655396 0.992524 0.297864
O O18 0.854478 0.151736 0.865153
#
# Coordination Sequence:
#
# PCOD9104595 Si02
#       8
#     2   2   2   2   2   2   2   2
#     4   9  18  32  52  86 106 132 187 244 275 309
#     4  10  21  37  54  79 115 158 185 208 269 355
#     4  11  21  32  56  85 109 141 185 235 277 314
#     4   9  19  31  57  86 103 139 192 236 269 327
#     4  11  19  34  58  81 115 142 179 234 277 322
#     4  10  21  35  53  82 116 145 185 222 267 342
#     4  10  19  34  55  77 112 153 186 210 265 352
#     4  10  16  33  57  83 105 142 187 229 274 320
#
# _framework density 21.208151000000001
#
# number of rings (size 3 to 8) (size 9 to 14) (size 15 to 20)
#    0.000    2.000    3.750    3.000    1.750    0.000 
#    0.000    5.625    0.000    7.500    0.000    0.000 
#    0.000    0.000    0.000    0.000    0.000    0.000 
#
# Total GULP energy -89103.977254 kJ/mol
# GULP energy per Si atom -5568.998578 kJ/mol
# Density = 2.115988 g / cm^3
# Si number density = 21.208151 Si / 1000 Ang^3
#
#
#
# Elastic Constant Matrix: (Units=GPa)
#
#
# Indices 1 2 3 4 5 6 
#
# 1 84.4322 27.5253 15.4578 -12.0447 -17.7504 31.7581
# 2 27.5253 57.6342 3.0313 -23.1230 -11.8782 22.7874
# 3 15.4578 3.0313 67.0254 -12.4319 -24.9024 5.6199
# 4 -12.0447 -23.1230 -12.4319 22.9292 11.1400 -9.8891
# 5 -17.7504 -11.8782 -24.9024 11.1400 33.9587 -20.8840
# 6 31.7581 22.7874 5.6199 -9.8891 -20.8840 44.7853
#
#
#
# Elastic Compliance Matrix: (Units=1/GPa)
#
#
# Indices 1 2 3 4 5 6 
#
# 1 0.017567 -0.005065 -0.003675 -0.001818 -0.001020 -0.010295
# 2 -0.005065 0.036416 0.005648 0.034464 -0.002827 -0.009354
# 3 -0.003675 0.005648 0.023891 0.010985 0.018863 0.007956
# 4 -0.001818 0.034464 0.010985 0.087493 -0.011917 -0.003863
# 5 -0.001020 -0.002827 0.018863 -0.011917 0.061584 0.025880
# 6 -0.010295 -0.009354 0.007956 -0.003863 0.025880 0.044605
#
#
# Mechanical properties :
#
#
# Convention : Reuss Voigt Hill
#
# Bulk Modulus (GPa) = 13.94929 33.45782 23.70356
# Shear Modulus (GPa) = 16.57628 31.20647 23.89138
#
# Velocity S-wave (km/s) = 2.79874 3.84009 3.36001
# Velocity P-wave (km/s) = 4.12742 5.95583 5.12384
#
# Compressibility (1/GPa) = 0.07168825
#
# Stress axis : x y z
#
# Youngs Moduli (GPa) = 56.92590 27.46079 41.85740
#
# Poissons Ratio (x) = 0.13909 0.15382
# Poissons Ratio (y) = 0.28834 -0.23640
# Poissons Ratio (z) = 0.20920 -0.15509
#
# Static dielectric constant tensor:
#      x y z
#    x 1.868490 0.014050 -0.050920 
#    y 0.014050 1.859340 0.005420 
#    z -0.050920 0.005420 1.770960 
# 
# From -- ./inp_files/509084.got.cif
#   From: 2010.05.17/outbox.cif.g08.bks.cpg/sg2_255_cif.got.tgz:509084.got - 2010.06.03 11:33:40.
