data_PCOD9104410
_publ_section_title
;
Structure prediction by ZEFSAII (Michael W. Deem and Ramdas Pophale) SiO2 
 PCOD9104410
Probable space group: P -1
;
_chemical_formula_sum "Si O2"
_cell_formula_units_Z 14
_cell_length_a 7.763920
_cell_length_b 12.090136
_cell_length_c 9.394835
_cell_angle_alpha 110.249871
_cell_angle_beta 45.200054
_cell_angle_gamma 91.422753
_cell_volume 554.376225
_symmetry_space_group_name_H-M "P -1"
_symmetry_group_IT_number 2
_symmetry_cell_setting 'triclinic'
loop_
_space_group_symop_operation_xyz
x,y,z
-x,-y,-z
loop_
_atom_site_type_symbol
_atom_site_label
_atom_site_fract_x
_atom_site_fract_y
_atom_site_fract_z
Si Si1 0.762155 0.671364 0.640395
Si Si2 0.982771 0.398771 0.258877
Si Si3 0.906400 0.702949 0.145890
Si Si4 0.594536 0.037193 0.811191
Si Si5 0.744124 0.962063 0.234234
Si Si6 0.940640 0.206835 0.648084
Si Si7 0.620427 0.234666 0.349119
O O1 0.838961 0.535724 0.463620
O O2 0.995766 0.727381 0.499616
O O3 0.511045 0.747631 0.725735
O O4 0.780091 0.655994 0.793345
O O5 0.780230 0.324228 0.333302
O O6 0.059683 0.391552 0.044741
O O7 0.086485 0.686171 0.170461
O O8 0.626538 0.729530 0.387474
O O9 0.931914 0.835455 0.134446
O O10 0.347672 0.080913 0.876776
O O11 0.797880 0.915778 0.562506
O O12 0.728994 0.142233 0.769062
O O13 0.500000 0.000000 0.000000
O O14 0.785219 0.092061 0.231107
O O15 0.500000 0.000000 0.500000
#
# Coordination Sequence:
#
# PCOD9104410 Si02
#       7
#     2   2   2   2   2   2   2
#     4  10  23  46  63  97 125 165 224 262 308 387
#     4  11  25  42  69  90 128 170 216 268 313 363
#     4  10  23  41  61  96 125 167 216 253 319 390
#     4  11  23  38  61  93 122 167 201 253 316 382
#     4  10  20  39  60  92 132 153 207 259 311 383
#     4  10  23  41  61  88 133 161 205 265 316 364
#     4  10  22  43  66  91 133 167 203 271 319 369
#
# _framework density 25.253608
#
# number of rings (size 3 to 8) (size 9 to 14) (size 15 to 20)
#    0.000    1.714    4.286    0.429    8.000    2.857 
#    0.000    4.286    0.000    0.000    0.000    0.000 
#    0.000    0.000    0.000    0.000    0.000    0.000 
#
# Total GULP energy -78147.879353 kJ/mol
# GULP energy per Si atom -5581.991382 kJ/mol
# Density = 2.519613 g / cm^3
# Si number density = 25.253608 Si / 1000 Ang^3
#
#
#
# Elastic Constant Matrix: (Units=GPa)
#
#
# Indices 1 2 3 4 5 6 
#
# 1 106.0821 28.5736 44.5264 -6.2433 8.7941 13.5211
# 2 28.5736 96.9202 17.7039 9.1316 -10.6367 27.0905
# 3 44.5264 17.7039 107.5490 10.0506 18.1674 16.5021
# 4 -6.2433 9.1316 10.0506 39.3343 6.1010 8.8240
# 5 8.7941 -10.6367 18.1674 6.1010 45.2160 -4.3734
# 6 13.5211 27.0905 16.5021 8.8240 -4.3734 42.1655
#
#
#
# Elastic Compliance Matrix: (Units=1/GPa)
#
#
# Indices 1 2 3 4 5 6 
#
# 1 0.012881 -0.003221 -0.004651 0.004638 -0.002159 -0.001435
# 2 -0.003221 0.013890 -0.000279 -0.002708 0.003710 -0.006831
# 3 -0.004651 -0.000279 0.012716 -0.002545 -0.004238 -0.003213
# 4 0.004638 -0.002708 -0.002545 0.029434 -0.005013 -0.005431
# 5 -0.002159 0.003710 -0.004238 -0.005013 0.026148 0.003728
# 6 -0.001435 -0.006831 -0.003213 -0.005431 0.003728 0.031346
#
#
# Mechanical properties :
#
#
# Convention : Reuss Voigt Hill
#
# Bulk Modulus (GPa) = 43.12941 54.68433 48.90687
# Shear Modulus (GPa) = 33.23462 39.99298 36.61380
#
# Velocity S-wave (km/s) = 3.63165 3.98383 3.81181
# Velocity P-wave (km/s) = 5.89074 6.54693 6.22748
#
# Compressibility (1/GPa) = 0.02318604
#
# Stress axis : x y z
#
# Youngs Moduli (GPa) = 77.63180 71.99570 78.63901
#
# Poissons Ratio (x) = 0.23187 0.36578
# Poissons Ratio (y) = 0.25002 0.02192
# Poissons Ratio (z) = 0.36109 0.02007
#
# Static dielectric constant tensor:
#      x y z
#    x 2.061110 -0.189690 0.056650 
#    y -0.189690 2.295840 -0.140910 
#    z 0.056650 -0.140910 2.165080 
# 
# From -- ./inp_files/181034.got.cif
#   From: 2010.05.17/outbox.cif.g08.bks.cpg/sg2_91_cif.got.tgz:181034.got - 2010.06.03 11:33:40.
