data_PCOD9104291
_publ_section_title
;
Structure prediction by ZEFSAII (Michael W. Deem and Ramdas Pophale) SiO2 
 PCOD9104291
Probable space group: P -1
;
_chemical_formula_sum "Si O2"
_cell_formula_units_Z 16
_cell_length_a 11.873605
_cell_length_b 10.206818
_cell_length_c 12.927773
_cell_angle_alpha 35.191846
_cell_angle_beta 89.280543
_cell_angle_gamma 87.035628
_cell_volume 900.526699
_symmetry_space_group_name_H-M "P -1"
_symmetry_group_IT_number 2
_symmetry_cell_setting 'triclinic'
loop_
_space_group_symop_operation_xyz
x,y,z
-x,-y,-z
loop_
_atom_site_type_symbol
_atom_site_label
_atom_site_fract_x
_atom_site_fract_y
_atom_site_fract_z
Si Si1 0.286259 0.495936 0.326020
Si Si2 0.082736 0.836959 0.035244
Si Si3 0.265580 0.184097 0.327877
Si Si4 0.248153 0.060217 0.739944
Si Si5 0.401314 0.375629 0.022125
Si Si6 0.449931 0.832398 0.027708
Si Si7 0.219476 0.774011 0.714541
Si Si8 0.984772 0.581991 0.830819
O O1 0.179253 0.682433 0.196689
O O2 0.298110 0.345920 0.317469
O O3 0.268450 0.315190 0.534798
O O4 0.394648 0.641597 0.221513
O O5 0.024431 0.640497 0.097633
O O6 0.143446 0.008389 0.847548
O O7 0.000000 0.000000 0.000000
O O8 0.133101 0.265199 0.266261
O O9 0.273859 0.925744 0.530277
O O10 0.344383 0.216406 0.208445
O O11 0.354311 0.952990 0.874521
O O12 0.224471 0.916916 0.728930
O O13 0.297819 0.549410 0.879102
O O14 0.500000 0.500000 0.000000
O O15 0.455509 0.265085 0.990330
O O16 0.500000 0.000000 0.000000
O O17 0.093972 0.719251 0.718481
O O18 0.000000 0.500000 0.000000
#
# Coordination Sequence:
#
# PCOD9104291 Si02
#       8
#     2   2   2   2   2   2   2   2
#     4   9  20  39  60  82 114 155 194 232 294 357
#     4  10  21  37  59  87 118 153 191 235 288 346
#     4  10  21  37  61  92 116 150 196 243 295 343
#     4  10  20  39  60  81 116 158 189 236 300 345
#     4  12  21  38  61  87 115 150 199 243 287 343
#     4  11  24  40  58  82 117 155 194 239 291 347
#     4  11  21  36  63  91 117 150 196 249 291 339
#     4  11  19  38  62  85 120 153 191 238 292 345
#
# _framework density 17.767379999999999
#
# number of rings (size 3 to 8) (size 9 to 14) (size 15 to 20)
#    0.000    1.500    5.000    1.125    0.000    4.500 
#    0.000    1.250    0.000    0.000    0.000    0.000 
#    0.000    0.000    0.000    0.000    0.000    0.000 
#
# Total GULP energy -89183.329876 kJ/mol
# GULP energy per Si atom -5573.958117 kJ/mol
# Density = 1.772694 g / cm^3
# Si number density = 17.767380 Si / 1000 Ang^3
#
#
#
# Elastic Constant Matrix: (Units=GPa)
#
#
# Indices 1 2 3 4 5 6 
#
# 1 62.4734 11.5472 22.3371 11.4966 -42.6851 0.2068
# 2 11.5472 46.9140 13.5532 13.9231 -30.9843 -18.3257
# 3 22.3371 13.5532 127.9237 15.8126 -42.6152 -13.2258
# 4 11.4966 13.9231 15.8126 11.4515 2.4764 -5.0844
# 5 -42.6851 -30.9843 -42.6152 2.4764 24.1426 2.7279
# 6 0.2068 -18.3257 -13.2258 -5.0844 2.7279 30.2018
#
#
#
# Elastic Compliance Matrix: (Units=1/GPa)
#
#
# Indices 1 2 3 4 5 6 
#
# 1 0.011861 -0.015046 -0.006341 0.013355 -0.009902 -0.008845
# 2 -0.015046 0.016112 -0.005058 0.011158 -0.017250 0.011101
# 3 -0.006341 -0.005058 0.007152 0.004481 -0.005692 0.001375
# 4 0.013355 0.011158 0.004481 0.051892 0.038954 0.013859
# 5 -0.009902 -0.017250 -0.005692 0.038954 -0.011671 -0.005280
# 6 -0.008845 0.011101 0.001375 0.013859 -0.005280 0.043319
#
#
# Mechanical properties :
#
#
# Convention : Reuss Voigt Hill
#
# Bulk Modulus (GPa) = -56.29587 36.90957 -9.69315
# Shear Modulus (GPa) = 30.18715 25.81742 28.00228
#
# Velocity S-wave (km/s) = 4.12639 3.81606 3.97426
# Velocity P-wave (km/s) = 3.00848 6.34313 3.94870
#
# Compressibility (1/GPa) = -0.01776329
#
# Stress axis : x y z
#
# Youngs Moduli (GPa) = 84.30929 62.06414 139.81763
#
# Poissons Ratio (x) = 0.93380 0.88657
# Poissons Ratio (y) = 1.26850 0.70717
# Poissons Ratio (z) = 0.53460 0.31391
#
# Static dielectric constant tensor:
#      x y z
#    x 0.896960 0.111390 0.081000 
#    y 0.111390 1.552450 -0.028140 
#    z 0.081000 -0.028140 1.605050 
# 
# From -- ./inp_files/255918.got.cif
#   From: 2010.05.17/outbox.cif.g08.bks.cpg/sg2_128_cif.got.tgz:255918.got - 2010.06.03 11:33:40.
