data_PCOD9104694
_publ_section_title
;
Structure prediction by ZEFSAII (Michael W. Deem and Ramdas Pophale) SiO2 
 PCOD9104694
Probable space group: P -1
;
_chemical_formula_sum "Si O2"
_cell_formula_units_Z 15
_cell_length_a 7.394251
_cell_length_b 12.396515
_cell_length_c 7.561580
_cell_angle_alpha 95.273735
_cell_angle_beta 125.707510
_cell_angle_gamma 97.980805
_cell_volume 544.321206
_symmetry_space_group_name_H-M "P -1"
_symmetry_group_IT_number 2
_symmetry_cell_setting 'triclinic'
loop_
_space_group_symop_operation_xyz
x,y,z
-x,-y,-z
loop_
_atom_site_type_symbol
_atom_site_label
_atom_site_fract_x
_atom_site_fract_y
_atom_site_fract_z
Si Si1 0.729427 0.957705 0.629525
Si Si2 0.010819 0.154265 0.976018
Si Si3 0.000000 0.000000 0.500000
Si Si4 0.687475 0.422508 0.462588
Si Si5 0.516980 0.691210 0.006621
Si Si6 0.888028 0.652852 0.479228
Si Si7 0.841892 0.375857 0.899026
Si Si8 0.748786 0.139161 0.149651
O O1 0.795719 0.907598 0.478758
O O2 0.500000 0.000000 0.500000
O O3 0.780757 0.877349 0.802853
O O4 0.946635 0.071570 0.757740
O O5 0.792026 0.100784 0.971123
O O6 0.978660 0.277605 0.943040
O O7 0.794429 0.055539 0.307384
O O8 0.743090 0.556155 0.508232
O O9 0.666302 0.366369 0.632936
O O10 0.919340 0.394162 0.518745
O O11 0.502653 0.374680 0.199394
O O12 0.734585 0.684501 0.242215
O O13 0.305939 0.637008 0.008518
O O14 0.474164 0.812118 0.954497
O O15 0.038258 0.752886 0.690820
O O16 0.000000 0.500000 0.000000
#
# Coordination Sequence:
#
# PCOD9104694 Si02
#       8
#     2   2   1   2   2   2   2   2
#     4  10  22  44  68  95 131 175 221 277 338 394
#     4   9  21  41  63  92 135 165 211 284 325 386
#     4  10  22  40  66  92 128 166 212 272 332 390
#     4  10  21  38  60  86 127 165 204 263 320 374
#     4  10  22  40  60  89 124 164 214 261 312 380
#     4  10  20  39  62  84 123 167 205 262 316 375
#     4  11  22  39  65  94 131 173 214 265 333 391
#     4   9  20  39  61  85 124 159 203 264 325 373
#
# _framework density 27.557257
#
# number of rings (size 3 to 8) (size 9 to 14) (size 15 to 20)
#    0.000    2.133    0.000    3.600    3.733    4.800 
#    2.400   12.000    0.000    0.000    0.000    0.000 
#    0.000    0.000    0.000    0.000    0.000    0.000 
#
# Total GULP energy -83731.334500 kJ/mol
# GULP energy per Si atom -5582.088967 kJ/mol
# Density = 2.749454 g / cm^3
# Si number density = 27.557257 Si / 1000 Ang^3
#
#
#
# Elastic Constant Matrix: (Units=GPa)
#
#
# Indices 1 2 3 4 5 6 
#
# 1 73.8610 21.3798 6.9490 -17.8480 19.0701 8.6624
# 2 21.3798 142.5796 66.1322 -22.8502 4.9707 -19.5232
# 3 6.9490 66.1322 185.6404 -34.3620 12.3270 0.8163
# 4 -17.8480 -22.8502 -34.3620 50.2641 -4.0217 -4.7952
# 5 19.0701 4.9707 12.3270 -4.0217 43.3869 -22.4294
# 6 8.6624 -19.5232 0.8163 -4.7952 -22.4294 34.9769
#
#
#
# Elastic Compliance Matrix: (Units=1/GPa)
#
#
# Indices 1 2 3 4 5 6 
#
# 1 0.026106 -0.008113 0.004459 0.004058 -0.025260 -0.026740
# 2 -0.008113 0.012827 -0.004750 0.002445 0.012930 0.017907
# 3 0.004459 -0.004750 0.008121 0.003551 -0.007752 -0.008429
# 4 0.004058 0.002445 0.003551 0.025497 0.001857 0.004963
# 5 -0.025260 0.012930 -0.007752 0.001857 0.063179 0.054423
# 6 -0.026740 0.017907 -0.008429 0.004963 0.054423 0.080984
#
#
# Mechanical properties :
#
#
# Convention : Reuss Voigt Hill
#
# Bulk Modulus (GPa) = 33.06342 65.66700 49.36521
# Shear Modulus (GPa) = 20.52501 46.23358 33.37929
#
# Velocity S-wave (km/s) = 2.73209 4.10045 3.48411
# Velocity P-wave (km/s) = 4.68791 6.80436 5.84277
#
# Compressibility (1/GPa) = 0.03024491
#
# Stress axis : x y z
#
# Youngs Moduli (GPa) = 38.30486 77.96298 123.13395
#
# Poissons Ratio (x) = 0.63255 -0.54907
# Poissons Ratio (y) = 0.31078 0.58492
# Poissons Ratio (z) = -0.17080 0.37035
#
# Static dielectric constant tensor:
#      x y z
#    x 1.964200 0.031490 0.216850 
#    y 0.031490 2.127620 0.042360 
#    z 0.216850 0.042360 1.969250 
# 
# From -- ./inp_files/188066.got.cif
#   From: 2010.05.17/outbox.cif.g08.bks.cpg/sg2_95_cif.got.tgz:188066.got - 2010.06.03 11:33:40.
