data_PCOD9104001
_publ_section_title
;
Structure prediction by ZEFSAII (Michael W. Deem and Ramdas Pophale) SiO2 
 PCOD9104001
Probable space group: P -1
;
_chemical_formula_sum "Si O2"
_cell_formula_units_Z 16
_cell_length_a 17.024105
_cell_length_b 11.296811
_cell_length_c 17.514995
_cell_angle_alpha 149.658710
_cell_angle_beta 31.154443
_cell_angle_gamma 150.010803
_cell_volume 768.319046
_symmetry_space_group_name_H-M "P -1"
_symmetry_group_IT_number 2
_symmetry_cell_setting 'triclinic'
loop_
_space_group_symop_operation_xyz
x,y,z
-x,-y,-z
loop_
_atom_site_type_symbol
_atom_site_label
_atom_site_fract_x
_atom_site_fract_y
_atom_site_fract_z
Si Si1 0.311497 0.595004 0.976343
Si Si2 0.310351 0.258441 0.236007
Si Si3 0.734414 0.259973 0.223235
Si Si4 0.371771 0.794575 0.556380
Si Si5 0.067247 0.811303 0.301563
Si Si6 0.174622 0.472512 0.852895
Si Si7 0.105512 0.964500 0.824893
Si Si8 0.907927 0.919977 0.822499
O O1 0.509282 0.744645 0.922294
O O2 0.276009 0.597801 0.916743
O O3 0.241709 0.277755 0.869915
O O4 0.201768 0.724211 0.177819
O O5 0.350744 0.506600 0.395308
O O6 0.227146 0.280997 0.238280
O O7 0.168492 0.986442 0.241402
O O8 0.600437 0.148724 0.343804
O O9 0.699195 0.375511 0.238369
O O10 0.900211 0.528731 0.265905
O O11 0.805590 0.058987 0.026435
O O12 0.500000 0.000000 0.500000
O O13 0.195561 0.800182 0.687852
O O14 0.000000 0.000000 0.500000
O O15 0.079737 0.151048 0.764870
O O16 0.000000 0.500000 0.000000
O O17 0.985502 0.827604 0.775197
O O18 0.000000 0.000000 0.000000
#
# Coordination Sequence:
#
# PCOD9104001 Si02
#       8
#     2   2   2   2   2   2   2   2
#     4  11  22  41  64  97 134 170 209 268 339 387
#     4  12  25  39  67 100 137 163 210 281 332 376
#     4  11  19  40  66  92 129 172 214 261 326 392
#     4  12  25  43  64  96 138 175 214 273 325 377
#     4  12  21  36  66 101 130 159 216 270 325 385
#     4   9  16  34  66  92 122 162 217 257 316 392
#     4  11  21  42  72  90 121 187 231 245 315 408
#     4  10  20  38  71  97 121 173 220 269 316 394
#
# _framework density 20.824681999999999
#
# number of rings (size 3 to 8) (size 9 to 14) (size 15 to 20)
#    0.000    1.000    8.750    1.125    0.000    0.500 
#    0.000    3.125    8.250    0.000    0.000    0.000 
#    0.000    0.000    0.000    0.000    0.000    0.000 
#
# Total GULP energy -89149.911115 kJ/mol
# GULP energy per Si atom -5571.869445 kJ/mol
# Density = 2.077728 g / cm^3
# Si number density = 20.824682 Si / 1000 Ang^3
#
#
#
# Elastic Constant Matrix: (Units=GPa)
#
#
# Indices 1 2 3 4 5 6 
#
# 1 85.5879 12.1444 -2.6967 -17.2200 2.9082 -5.2596
# 2 12.1444 53.2361 -0.1073 -15.9797 13.6429 -10.8361
# 3 -2.6967 -0.1073 71.8369 0.0180 -5.7817 -0.5972
# 4 -17.2200 -15.9797 0.0180 25.2134 -7.2992 0.7337
# 5 2.9082 13.6429 -5.7817 -7.2992 30.1751 -7.0338
# 6 -5.2596 -10.8361 -0.5972 0.7337 -7.0338 31.7073
#
#
#
# Elastic Compliance Matrix: (Units=1/GPa)
#
#
# Indices 1 2 3 4 5 6 
#
# 1 0.013779 -0.000190 0.000680 0.009743 0.001806 0.002409
# 2 -0.000190 0.026345 -0.000463 0.014378 -0.006846 0.007112
# 3 0.000680 -0.000463 0.014223 0.001105 0.003356 0.000941
# 4 0.009743 0.014378 0.001105 0.057643 0.008364 0.007072
# 5 0.001806 -0.006846 0.003356 0.008364 0.040305 0.006771
# 6 0.002409 0.007112 0.000941 0.007072 0.006771 0.035725
#
#
# Mechanical properties :
#
#
# Convention : Reuss Voigt Hill
#
# Bulk Modulus (GPa) = 18.38251 25.48241 21.93246
# Shear Modulus (GPa) = 24.26015 30.84053 27.55034
#
# Velocity S-wave (km/s) = 3.41687 3.85250 3.64121
# Velocity P-wave (km/s) = 4.94096 5.66147 5.31344
#
# Compressibility (1/GPa) = 0.05439953
#
# Stress axis : x y z
#
# Youngs Moduli (GPa) = 72.57364 37.95857 70.30923
#
# Poissons Ratio (x) = 0.00722 -0.04781
# Poissons Ratio (y) = 0.01380 0.03257
# Poissons Ratio (z) = -0.04935 0.01758
#
# Static dielectric constant tensor:
#      x y z
#    x 1.821700 -0.069850 0.115920 
#    y -0.069850 1.843630 -0.075670 
#    z 0.115920 -0.075670 1.933570 
# 
# From -- ./inp_files/575871.got.cif
#   From: 2010.05.17/outbox.cif.g08.bks.cpg/sg2_288_cif.got.tgz:575871.got - 2010.06.03 11:33:40.
