data_PCOD9104798
_publ_section_title
;
Structure prediction by ZEFSAII (Michael W. Deem and Ramdas Pophale) SiO2 
 PCOD9104798
Probable space group: P -1
;
_chemical_formula_sum "Si O2"
_cell_formula_units_Z 10
_cell_length_a 10.389053
_cell_length_b 8.199581
_cell_length_c 9.449018
_cell_angle_alpha 76.931187
_cell_angle_beta 71.761032
_cell_angle_gamma 36.347055
_cell_volume 452.607577
_symmetry_space_group_name_H-M "P -1"
_symmetry_group_IT_number 2
_symmetry_cell_setting 'triclinic'
loop_
_space_group_symop_operation_xyz
x,y,z
-x,-y,-z
loop_
_atom_site_type_symbol
_atom_site_label
_atom_site_fract_x
_atom_site_fract_y
_atom_site_fract_z
Si Si1 0.699912 0.870219 0.104753
Si Si2 0.019018 0.735788 0.246097
Si Si3 0.365526 0.403764 0.955600
Si Si4 0.387881 0.659001 0.656338
Si Si5 0.380793 0.221124 0.374719
O O1 0.863317 0.782687 0.183436
O O2 0.758974 0.641296 0.051574
O O3 0.475391 0.044887 0.234736
O O4 0.607035 0.104910 0.986907
O O5 0.124606 0.509486 0.371445
O O6 0.867315 0.023191 0.318441
O O7 0.214843 0.613168 0.098997
O O8 0.390821 0.510357 0.800823
O O9 0.500000 0.500000 0.500000
O O10 0.525908 0.682990 0.658162
O O11 0.500000 0.000000 0.500000
#
# Coordination Sequence:
#
# PCOD9104798 Si02
#       5
#     2   2   2   2   2
#     4   9  20  37  63  90 118 158 199 244 293 353
#     4  10  22  39  63  88 116 162 201 240 299 355
#     4  10  20  39  62  90 122 154 200 245 291 354
#     4  11  24  39  59  89 123 158 199 249 296 348
#     4  10  22  41  60  86 122 157 199 249 300 354
#
# _framework density 22.094197000000001
#
# number of rings (size 3 to 8) (size 9 to 14) (size 15 to 20)
#    0.000    2.000    0.000    2.400    0.000   12.800 
#    0.000    4.000    0.000    0.000    0.000    0.000 
#    0.000    0.000    0.000    0.000    0.000    0.000 
#
# Total GULP energy -55752.295722 kJ/mol
# GULP energy per Si atom -5575.229572 kJ/mol
# Density = 2.204391 g / cm^3
# Si number density = 22.094197 Si / 1000 Ang^3
#
#
#
# Elastic Constant Matrix: (Units=GPa)
#
#
# Indices 1 2 3 4 5 6 
#
# 1 65.0155 39.2420 35.0471 -13.8249 2.5061 0.1705
# 2 39.2420 171.4387 112.2087 -20.4848 2.0815 10.3994
# 3 35.0471 112.2087 174.0911 -14.9731 -10.1749 11.0698
# 4 -13.8249 -20.4848 -14.9731 63.7278 4.9301 19.1569
# 5 2.5061 2.0815 -10.1749 4.9301 31.2657 -3.3188
# 6 0.1705 10.3994 11.0698 19.1569 -3.3188 19.4575
#
#
#
# Elastic Compliance Matrix: (Units=1/GPa)
#
#
# Indices 1 2 3 4 5 6 
#
# 1 0.018778 -0.002476 -0.001930 0.003542 -0.002707 -0.001692
# 2 -0.002476 0.011568 -0.006363 0.004229 -0.004095 -0.007403
# 3 -0.001930 -0.006363 0.010653 0.000508 0.003698 -0.002513
# 4 0.003542 0.004229 0.000508 0.028077 -0.008184 -0.031620
# 5 -0.002707 -0.004095 0.003698 -0.008184 0.036495 0.014390
# 6 -0.001692 -0.007403 -0.002513 -0.031620 0.014390 0.090381
#
#
# Mechanical properties :
#
#
# Convention : Reuss Voigt Hill
#
# Bulk Modulus (GPa) = 51.38319 87.06009 69.22164
# Shear Modulus (GPa) = 22.32361 37.82670 30.07516
#
# Velocity S-wave (km/s) = 3.18210 4.14220 3.69348
# Velocity P-wave (km/s) = 6.06695 7.89726 7.04183
#
# Compressibility (1/GPa) = 0.01946162
#
# Stress axis : x y z
#
# Youngs Moduli (GPa) = 53.25381 86.44371 93.86706
#
# Poissons Ratio (x) = 0.21404 0.18119
# Poissons Ratio (y) = 0.13186 0.59724
# Poissons Ratio (z) = 0.10280 0.55001
#
# Static dielectric constant tensor:
#      x y z
#    x 1.838850 -0.045640 -0.008210 
#    y -0.045640 1.937930 0.017260 
#    z -0.008210 0.017260 1.853790 
# 
# From -- ./inp_files/15546.got.cif
#   From: 2010.05.17/outbox.cif.g08.bks.cpg/sg2_8_cif.got.tgz:15546.got - 2010.06.03 11:33:40.
