data_PCOD9104827
_publ_section_title
;
Structure prediction by ZEFSAII (Michael W. Deem and Ramdas Pophale) SiO2 
 PCOD9104827
Probable space group: P -1
;
_chemical_formula_sum "Si O2"
_cell_formula_units_Z 16
_cell_length_a 7.465800
_cell_length_b 13.085289
_cell_length_c 9.421347
_cell_angle_alpha 45.332751
_cell_angle_beta 70.868387
_cell_angle_gamma 68.046529
_cell_volume 604.170593
_symmetry_space_group_name_H-M "P -1"
_symmetry_group_IT_number 2
_symmetry_cell_setting 'triclinic'
loop_
_space_group_symop_operation_xyz
x,y,z
-x,-y,-z
loop_
_atom_site_type_symbol
_atom_site_label
_atom_site_fract_x
_atom_site_fract_y
_atom_site_fract_z
Si Si1 0.933895 0.219206 0.816970
Si Si2 0.427767 0.015946 0.167534
Si Si3 0.943922 0.115808 0.604130
Si Si4 0.690690 0.090168 0.240017
Si Si5 0.937493 0.582788 0.739609
Si Si6 0.336065 0.476807 0.384544
Si Si7 0.259025 0.310788 0.814153
Si Si8 0.422356 0.391156 0.021747
O O1 0.951900 0.122537 0.767488
O O2 0.826005 0.386390 0.647587
O O3 0.136091 0.221178 0.835183
O O4 0.801081 0.168816 0.018571
O O5 0.586423 0.981591 0.283662
O O6 0.254861 0.934484 0.323180
O O7 0.355257 0.193975 0.020043
O O8 0.500000 0.000000 0.000000
O O9 0.964590 0.278210 0.399549
O O10 0.138335 0.999862 0.619007
O O11 0.530819 0.227140 0.203995
O O12 0.780035 0.595211 0.636325
O O13 0.096624 0.439494 0.796793
O O14 0.803972 0.577435 0.916033
O O15 0.395058 0.367884 0.607809
O O16 0.505302 0.548529 0.204366
O O17 0.500000 0.500000 0.000000
#
# Coordination Sequence:
#
# PCOD9104827 Si02
#       8
#     2   2   2   2   2   2   2   2
#     4  10  16  33  58  92 122 164 202 261 317 374
#     4  12  26  38  62 103 140 168 214 264 332 393
#     4  12  21  38  66  93 134 173 210 262 335 385
#     4  11  23  40  62  93 139 173 210 268 328 386
#     4  10  20  37  67  95 125 174 224 265 325 385
#     4   9  17  32  62  98 126 159 222 272 318 380
#     4  11  19  37  66  97 128 168 222 269 323 390
#     4   9  21  40  65  96 129 168 226 273 316 391
#
# _framework density 26.482588
#
# number of rings (size 3 to 8) (size 9 to 14) (size 15 to 20)
#    0.000    1.500    5.000    2.625    0.000    0.500 
#    0.000    6.875    0.000    0.000    0.000    0.000 
#    0.000    0.000    0.000    0.000    0.000    0.000 
#
# Total GULP energy -89626.399959 kJ/mol
# GULP energy per Si atom -5601.649997 kJ/mol
# Density = 2.642231 g / cm^3
# Si number density = 26.482588 Si / 1000 Ang^3
#
#
#
# Elastic Constant Matrix: (Units=GPa)
#
#
# Indices 1 2 3 4 5 6 
#
# 1 115.5408 25.5422 39.1558 -8.5191 -34.5320 -2.1712
# 2 25.5422 101.3440 29.5409 -4.9008 -8.9568 -20.1269
# 3 39.1558 29.5409 101.3702 -1.0508 -36.9692 -3.8772
# 4 -8.5191 -4.9008 -1.0508 41.5055 4.6027 -0.3610
# 5 -34.5320 -8.9568 -36.9692 4.6027 45.9371 -0.5216
# 6 -2.1712 -20.1269 -3.8772 -0.3610 -0.5216 44.3234
#
#
#
# Elastic Compliance Matrix: (Units=1/GPa)
#
#
# Indices 1 2 3 4 5 6 
#
# 1 0.011807 -0.001941 -0.001338 0.001350 0.007282 -0.000323
# 2 -0.001941 0.012231 -0.003241 0.001202 -0.001744 0.005165
# 3 -0.001338 -0.003241 0.015235 -0.001466 0.010769 -0.000090
# 4 0.001350 0.001202 -0.001466 0.024747 -0.002403 0.000657
# 5 0.007282 -0.001744 0.010769 -0.002403 0.035820 0.000909
# 6 -0.000323 0.005165 -0.000090 0.000657 0.000909 0.024899
#
#
# Mechanical properties :
#
#
# Convention : Reuss Voigt Hill
#
# Bulk Modulus (GPa) = 38.11909 56.30365 47.21137
# Shear Modulus (GPa) = 34.12428 41.28761 37.70595
#
# Velocity S-wave (km/s) = 3.59354 3.95276 3.77742
# Velocity P-wave (km/s) = 5.62524 6.49147 6.07382
#
# Compressibility (1/GPa) = 0.02623358
#
# Stress axis : x y z
#
# Youngs Moduli (GPa) = 84.69387 81.76010 65.63970
#
# Poissons Ratio (x) = 0.15872 0.08781
# Poissons Ratio (y) = 0.16441 0.21271
# Poissons Ratio (z) = 0.11330 0.26495
#
# Static dielectric constant tensor:
#      x y z
#    x 2.101610 0.023120 0.067910 
#    y 0.023120 2.133580 0.013730 
#    z 0.067910 0.013730 2.120370 
# 
# From -- ./inp_files/396927.got.cif
#   From: 2010.05.17/outbox.cif.g08.bks.cpg/sg2_199_cif.got.tgz:396927.got - 2010.06.03 11:33:40.
