data_PCOD9104708
_publ_section_title
;
Structure prediction by ZEFSAII (Michael W. Deem and Ramdas Pophale) SiO2 
 PCOD9104708
Probable space group: P -1
;
_chemical_formula_sum "Si O2"
_cell_formula_units_Z 16
_cell_length_a 13.342510
_cell_length_b 23.139057
_cell_length_c 14.156280
_cell_angle_alpha 17.094359
_cell_angle_beta 147.875633
_cell_angle_gamma 147.380909
_cell_volume 667.946432
_symmetry_space_group_name_H-M "P -1"
_symmetry_group_IT_number 2
_symmetry_cell_setting 'triclinic'
loop_
_space_group_symop_operation_xyz
x,y,z
-x,-y,-z
loop_
_atom_site_type_symbol
_atom_site_label
_atom_site_fract_x
_atom_site_fract_y
_atom_site_fract_z
Si Si1 0.069276 0.231988 0.904360
Si Si2 0.997847 0.257047 0.125443
Si Si3 0.796246 0.051721 0.121621
Si Si4 0.471410 0.074627 0.066680
Si Si5 0.667845 0.691669 0.842757
Si Si6 0.143172 0.867293 0.276168
Si Si7 0.092808 0.784992 0.559616
Si Si8 0.224300 0.561364 0.187418
O O1 0.254830 0.332065 0.952780
O O2 0.094712 0.006188 0.254855
O O3 0.903712 0.213692 0.878984
O O4 0.990717 0.296105 0.643428
O O5 0.068568 0.099400 0.500038
O O6 0.172611 0.314442 0.101249
O O7 0.808030 0.171117 0.043343
O O8 0.934400 0.406611 0.913275
O O9 0.619772 0.941132 0.088125
O O10 0.604530 0.906044 0.444977
O O11 0.308808 0.985385 0.155828
O O12 0.578003 0.302757 0.824746
O O13 0.500000 0.500000 0.000000
O O14 0.212081 0.790271 0.549052
O O15 0.000000 0.000000 0.000000
O O16 0.866696 0.671889 0.544028
O O17 0.191887 0.671010 0.893788
#
# Coordination Sequence:
#
# PCOD9104708 Si02
#       8
#     2   2   2   2   2   2   2   2
#     4   9  17  42  61  82 123 162 198 254 313 363
#     4  10  20  39  62  85 128 166 195 249 325 366
#     4   9  18  36  65  85 116 161 198 251 314 367
#     4  11  22  40  63  97 124 155 215 263 297 369
#     4  11  24  40  61  94 127 159 208 260 309 370
#     4   9  21  40  65  85 124 172 202 249 314 367
#     4  10  20  39  63  87 121 165 210 243 315 368
#     4  11  22  37  64  93 123 160 209 261 300 370
#
# _framework density 23.954018000000001
#
# number of rings (size 3 to 8) (size 9 to 14) (size 15 to 20)
#    0.000    2.000    2.500    1.500    1.750    2.500 
#    4.500    7.500    0.000    0.000    0.000    0.000 
#    0.000    0.000    0.000    0.000    0.000    0.000 
#
# Total GULP energy -89133.075261 kJ/mol
# GULP energy per Si atom -5570.817204 kJ/mol
# Density = 2.389950 g / cm^3
# Si number density = 23.954018 Si / 1000 Ang^3
#
#
#
# Elastic Constant Matrix: (Units=GPa)
#
#
# Indices 1 2 3 4 5 6 
#
# 1 128.7616 40.5509 30.5315 18.7313 -19.9987 -16.4475
# 2 40.5509 194.3403 20.6077 5.5593 -4.8040 -13.2509
# 3 30.5315 20.6077 47.7820 9.0202 -17.1874 -12.4016
# 4 18.7313 5.5593 9.0202 31.7033 -5.2084 -10.8405
# 5 -19.9987 -4.8040 -17.1874 -5.2084 25.1793 12.5211
# 6 -16.4475 -13.2509 -12.4016 -10.8405 12.5211 41.6563
#
#
#
# Elastic Compliance Matrix: (Units=1/GPa)
#
#
# Indices 1 2 3 4 5 6 
#
# 1 0.010425 -0.001564 -0.003500 -0.004083 0.004698 0.000102
# 2 -0.001564 0.005706 -0.001955 0.000619 -0.002053 0.001394
# 3 -0.003500 -0.001955 0.030950 -0.003191 0.016626 0.001382
# 4 -0.004083 0.000619 -0.003191 0.037162 -0.001468 0.007747
# 5 0.004698 -0.002053 0.016626 -0.001468 0.060234 -0.012336
# 6 0.000102 0.001394 0.001382 0.007747 -0.012336 0.030625
#
#
# Mechanical properties :
#
#
# Convention : Reuss Voigt Hill
#
# Bulk Modulus (GPa) = 30.26426 61.58488 45.92457
# Shear Modulus (GPa) = 24.98068 38.32071 31.65069
#
# Velocity S-wave (km/s) = 3.23284 4.00404 3.63893
# Velocity P-wave (km/s) = 5.15720 6.86600 6.07201
#
# Compressibility (1/GPa) = 0.03304227
#
# Stress axis : x y z
#
# Youngs Moduli (GPa) = 95.91921 175.25725 32.31070
#
# Poissons Ratio (x) = 0.27416 0.11308
# Poissons Ratio (y) = 0.15005 0.06317
# Poissons Ratio (z) = 0.33571 0.34264
#
# Static dielectric constant tensor:
#      x y z
#    x 1.930080 0.028970 -0.007740 
#    y 0.028970 2.012660 0.015660 
#    z -0.007740 0.015660 2.029380 
# 
# From -- ./inp_files/535375.got.cif
#   From: 2010.05.17/outbox.cif.g08.bks.cpg/sg2_268_cif.got.tgz:535375.got - 2010.06.03 11:33:40.
