data_PCOD9104926
_publ_section_title
;
Structure prediction by ZEFSAII (Michael W. Deem and Ramdas Pophale) SiO2 
 PCOD9104926
Probable space group: P -1
;
_chemical_formula_sum "Si O2"
_cell_formula_units_Z 15
_cell_length_a 8.543052
_cell_length_b 9.315493
_cell_length_c 16.889409
_cell_angle_alpha 118.982703
_cell_angle_beta 34.060569
_cell_angle_gamma 105.186815
_cell_volume 631.277105
_symmetry_space_group_name_H-M "P -1"
_symmetry_group_IT_number 2
_symmetry_cell_setting 'triclinic'
loop_
_space_group_symop_operation_xyz
x,y,z
-x,-y,-z
loop_
_atom_site_type_symbol
_atom_site_label
_atom_site_fract_x
_atom_site_fract_y
_atom_site_fract_z
Si Si1 0.226083 0.258456 0.871686
Si Si2 0.041464 0.962424 0.191956
Si Si3 0.500000 0.500000 0.000000
Si Si4 0.135408 0.221698 0.647586
Si Si5 0.283553 0.473800 0.767622
Si Si6 0.689535 0.771338 0.892226
Si Si7 0.281652 0.059635 0.380047
Si Si8 0.273070 0.336926 0.333434
O O1 0.391261 0.349738 0.765181
O O2 0.021247 0.173708 0.881244
O O3 0.440772 0.104560 0.786822
O O4 0.045132 0.414675 0.043042
O O5 0.851237 0.938857 0.341306
O O6 0.048799 0.138251 0.192560
O O7 0.371006 0.904748 0.070826
O O8 0.319406 0.378039 0.084307
O O9 0.206789 0.670674 0.185168
O O10 0.287014 0.349577 0.661278
O O11 0.295757 0.162451 0.482305
O O12 0.461660 0.609132 0.724028
O O13 0.683856 0.700255 0.786855
O O14 0.237218 0.176387 0.353373
O O15 0.000000 0.000000 0.500000
O O16 0.000000 0.500000 0.500000
#
# Coordination Sequence:
#
# PCOD9104926 Si02
#       8
#     2   2   1   2   2   2   2   2
#     4  10  22  43  69  95 135 172 225 278 330 400
#     4   9  19  39  66  89 128 169 217 269 326 394
#     4  10  22  38  68  94 130 172 222 272 328 406
#     4  10  23  41  63  96 130 178 221 268 336 391
#     4  10  23  43  68  96 131 183 221 270 339 398
#     4  10  20  39  62  97 126 169 219 266 332 393
#     4  12  27  42  64 102 135 173 226 281 333 394
#     4  12  25  42  67  93 137 175 221 274 337 398
#
# _framework density 23.761354000000001
#
# number of rings (size 3 to 8) (size 9 to 14) (size 15 to 20)
#    0.000    1.600    1.333    2.400    3.733    5.333 
#    0.000    0.000    0.000    0.000    0.000    0.000 
#    0.000    0.000    0.000    0.000    0.000    0.000 
#
# Total GULP energy -83597.419261 kJ/mol
# GULP energy per Si atom -5573.161284 kJ/mol
# Density = 2.370727 g / cm^3
# Si number density = 23.761354 Si / 1000 Ang^3
#
#
#
# Elastic Constant Matrix: (Units=GPa)
#
#
# Indices 1 2 3 4 5 6 
#
# 1 50.8147 21.8516 5.4669 3.4783 21.1858 4.6832
# 2 21.8516 146.2673 9.2017 -7.3009 0.4135 -10.8535
# 3 5.4669 9.2017 50.3298 11.6155 5.0251 -7.3251
# 4 3.4783 -7.3009 11.6155 32.6928 0.1490 -6.5631
# 5 21.1858 0.4135 5.0251 0.1490 31.1486 11.8850
# 6 4.6832 -10.8535 -7.3251 -6.5631 11.8850 45.5979
#
#
#
# Elastic Compliance Matrix: (Units=1/GPa)
#
#
# Indices 1 2 3 4 5 6 
#
# 1 0.030705 -0.004737 0.000760 -0.004349 -0.021207 0.000742
# 2 -0.004737 0.007944 -0.001676 0.003239 0.002653 0.001883
# 3 0.000760 -0.001676 0.022974 -0.007887 -0.005504 0.003513
# 4 -0.004349 0.003239 -0.007887 0.035459 0.002320 0.004450
# 5 -0.021207 0.002653 -0.005504 0.002320 0.051644 -0.011201
# 6 0.000742 0.001883 0.003513 0.004450 -0.011201 0.026427
#
#
# Mechanical properties :
#
#
# Convention : Reuss Voigt Hill
#
# Bulk Modulus (GPa) = 19.87428 35.60581 27.74004
# Shear Modulus (GPa) = 24.60243 35.94729 30.27486
#
# Velocity S-wave (km/s) = 3.22125 3.89375 3.57336
# Velocity P-wave (km/s) = 4.71355 5.93569 5.35957
#
# Compressibility (1/GPa) = 0.05031629
#
# Stress axis : x y z
#
# Youngs Moduli (GPa) = 32.56750 125.88331 43.52760
#
# Poissons Ratio (x) = 0.59632 -0.03308
# Poissons Ratio (y) = 0.15428 0.07297
# Poissons Ratio (z) = -0.02475 0.21102
#
# Static dielectric constant tensor:
#      x y z
#    x 1.977610 -0.001520 -0.025450 
#    y -0.001520 1.905500 0.016360 
#    z -0.025450 0.016360 1.911360 
# 
# From -- ./inp_files/174928.got.cif
#   From: 2010.05.17/outbox.cif.g08.bks.cpg/sg2_88_cif.got.tgz:174928.got - 2010.06.03 11:33:40.
