data_PCOD9104384
_publ_section_title
;
Structure prediction by ZEFSAII (Michael W. Deem and Ramdas Pophale) SiO2 
 PCOD9104384
Probable space group: P -1
;
_chemical_formula_sum "Si O2"
_cell_formula_units_Z 14
_cell_length_a 5.424997
_cell_length_b 24.895365
_cell_length_c 5.000081
_cell_angle_alpha 105.419879
_cell_angle_beta 92.528580
_cell_angle_gamma 117.798692
_cell_volume 564.556955
_symmetry_space_group_name_H-M "P -1"
_symmetry_group_IT_number 2
_symmetry_cell_setting 'triclinic'
loop_
_space_group_symop_operation_xyz
x,y,z
-x,-y,-z
loop_
_atom_site_type_symbol
_atom_site_label
_atom_site_fract_x
_atom_site_fract_y
_atom_site_fract_z
Si Si1 0.745983 0.986826 0.768317
Si Si2 0.059918 0.345941 0.248768
Si Si3 0.037039 0.555439 0.377242
Si Si4 0.866504 0.895069 0.332200
Si Si5 0.273168 0.799784 0.112990
Si Si6 0.396562 0.411013 0.830526
Si Si7 0.187017 0.863866 0.709806
O O1 0.751183 0.943044 0.468605
O O2 0.448151 0.937308 0.821022
O O3 0.841722 0.056202 0.738157
O O4 0.000000 0.000000 0.000000
O O5 0.874046 0.275674 0.031498
O O6 0.293922 0.390027 0.098371
O O7 0.877035 0.380304 0.360678
O O8 0.219974 0.350181 0.539814
O O9 0.277279 0.565725 0.189028
O O10 0.000000 0.500000 0.500000
O O11 0.741388 0.545539 0.222117
O O12 0.605792 0.836256 0.098549
O O13 0.933056 0.869525 0.571297
O O14 0.250228 0.822146 0.439305
O O15 0.134652 0.827875 0.937884
#
# Coordination Sequence:
#
# PCOD9104384 Si02
#       7
#     2   2   2   2   2   2   2
#     4  10  20  39  60  90 129 158 222 282 352 417
#     4  10  25  44  68  99 146 188 239 292 355 421
#     4  10  24  45  75 110 145 188 238 296 357 422
#     4  10  23  39  62  91 126 172 214 292 344 419
#     4  11  24  45  60  95 131 177 233 284 339 428
#     4  10  24  43  72 104 145 187 236 294 356 422
#     4  11  24  39  67  91 126 173 229 278 359 413
#
# _framework density 24.798209
#
# number of rings (size 3 to 8) (size 9 to 14) (size 15 to 20)
#    0.857    0.857    1.429    1.714    4.000    2.857 
#    2.571    0.000    0.000    0.000    0.000    0.000 
#    0.000    0.000    0.000    0.000    0.000    0.000 
#
# Total GULP energy -78296.812591 kJ/mol
# GULP energy per Si atom -5592.629471 kJ/mol
# Density = 2.474177 g / cm^3
# Si number density = 24.798209 Si / 1000 Ang^3
#
#
#
# Elastic Constant Matrix: (Units=GPa)
#
#
# Indices 1 2 3 4 5 6 
#
# 1 133.2288 42.4164 28.6398 2.0796 -10.4271 5.2023
# 2 42.4164 109.2504 18.4751 14.7009 -7.0858 -11.2449
# 3 28.6398 18.4751 84.7984 1.8189 -7.0703 0.1621
# 4 2.0796 14.7009 1.8189 46.1135 0.6003 -4.4456
# 5 -10.4271 -7.0858 -7.0703 0.6003 53.0951 -9.9763
# 6 5.2023 -11.2449 0.1621 -4.4456 -9.9763 26.3291
#
#
#
# Elastic Compliance Matrix: (Units=1/GPa)
#
#
# Indices 1 2 3 4 5 6 
#
# 1 0.009291 -0.003571 -0.002327 0.000507 0.000452 -0.003090
# 2 -0.003571 0.011885 -0.001172 -0.003028 0.001889 0.005993
# 3 -0.002327 -0.001172 0.012931 -0.000016 0.001169 0.000320
# 4 0.000507 -0.003028 -0.000016 0.022864 -0.000109 0.002426
# 5 0.000452 0.001889 0.001169 -0.000109 0.020954 0.008631
# 6 -0.003090 0.005993 0.000320 0.002426 0.008631 0.044829
#
#
# Mechanical properties :
#
#
# Convention : Reuss Voigt Hill
#
# Bulk Modulus (GPa) = 50.08412 56.26001 53.17206
# Shear Modulus (GPa) = 34.83112 40.95730 37.89421
#
# Velocity S-wave (km/s) = 3.75184 4.06843 3.91334
# Velocity P-wave (km/s) = 6.24571 6.69372 6.47359
#
# Compressibility (1/GPa) = 0.01996641
#
# Stress axis : x y z
#
# Youngs Moduli (GPa) = 107.63021 84.14165 77.33169
#
# Poissons Ratio (x) = 0.30044 0.17998
# Poissons Ratio (y) = 0.38431 0.09066
# Poissons Ratio (z) = 0.25049 0.09865
#
# Static dielectric constant tensor:
#      x y z
#    x 2.047470 0.021660 -0.047630 
#    y 0.021660 1.935180 0.025910 
#    z -0.047630 0.025910 2.034080 
# 
# From -- ./inp_files/12469.got.cif
#   From: 2010.05.17/outbox.cif.g08.bks.cpg/sg2_7_cif.got.tgz:12469.got - 2010.06.03 11:33:40.
