data_PCOD9104676
_publ_section_title
;
Structure prediction by ZEFSAII (Michael W. Deem and Ramdas Pophale) SiO2 
 PCOD9104676
Probable space group: P -1
;
_chemical_formula_sum "Si O2"
_cell_formula_units_Z 16
_cell_length_a 9.160962
_cell_length_b 7.972876
_cell_length_c 15.507116
_cell_angle_alpha 74.663433
_cell_angle_beta 40.412816
_cell_angle_gamma 65.291893
_cell_volume 664.262123
_symmetry_space_group_name_H-M "P -1"
_symmetry_group_IT_number 2
_symmetry_cell_setting 'triclinic'
loop_
_space_group_symop_operation_xyz
x,y,z
-x,-y,-z
loop_
_atom_site_type_symbol
_atom_site_label
_atom_site_fract_x
_atom_site_fract_y
_atom_site_fract_z
Si Si1 0.813031 0.184315 0.012811
Si Si2 0.939528 0.789499 0.721418
Si Si3 0.257013 0.230524 0.758688
Si Si4 0.527298 0.688195 0.998346
Si Si5 0.510704 0.193593 0.302528
Si Si6 0.396639 0.804431 0.235127
Si Si7 0.454949 0.804056 0.530056
Si Si8 0.007283 0.677681 0.521520
O O1 0.974237 0.304209 0.893896
O O2 0.669692 0.158909 0.995612
O O3 0.612467 0.272462 0.164872
O O4 0.000000 0.000000 0.000000
O O5 0.785476 0.709143 0.864522
O O6 0.021160 0.657155 0.619990
O O7 0.176669 0.829656 0.638323
O O8 0.746589 0.981453 0.749744
O O9 0.384758 0.230814 0.792193
O O10 0.382812 0.292496 0.612537
O O11 0.309203 0.015221 0.740021
O O12 0.500000 0.500000 0.000000
O O13 0.463591 0.713586 0.123751
O O14 0.485504 0.297796 0.390309
O O15 0.256177 0.174121 0.399596
O O16 0.210431 0.737242 0.380240
O O17 0.500000 0.000000 0.500000
O O18 0.000000 0.500000 0.500000
#
# Coordination Sequence:
#
# PCOD9104676 Si02
#       8
#     2   2   2   2   2   2   2   2
#     4  10  22  41  68  96 138 179 232 284 346 421
#     4  12  23  45  70 101 135 185 247 292 342 432
#     4  10  20  39  62 102 130 171 232 293 338 405
#     4  12  28  47  69 105 147 187 236 298 370 423
#     4  10  21  39  63  94 136 175 226 284 350 410
#     4  12  24  40  73 100 137 181 247 296 343 427
#     4  10  22  37  65 100 136 166 228 296 345 399
#     4  12  24  43  68  98 143 187 229 297 366 418
#
# _framework density 24.086877999999999
#
# number of rings (size 3 to 8) (size 9 to 14) (size 15 to 20)
#    0.000    1.000    3.750    3.750    8.750    0.000 
#    0.000    2.500    0.000    0.000    0.000    0.000 
#    0.000    0.000    0.000    0.000    0.000    0.000 
#
# Total GULP energy -89381.634565 kJ/mol
# GULP energy per Si atom -5586.352160 kJ/mol
# Density = 2.403205 g / cm^3
# Si number density = 24.086878 Si / 1000 Ang^3
#
#
#
# Elastic Constant Matrix: (Units=GPa)
#
#
# Indices 1 2 3 4 5 6 
#
# 1 154.0058 -6.8941 73.6645 3.9553 -1.3313 10.6323
# 2 -6.8941 51.9687 -9.7207 9.2843 -8.9918 -3.0725
# 3 73.6645 -9.7207 194.3151 -4.3510 -4.7907 3.2698
# 4 3.9553 9.2843 -4.3510 16.9402 27.4532 12.8047
# 5 -1.3313 -8.9918 -4.7907 27.4532 51.0442 -11.4057
# 6 10.6323 -3.0725 3.2698 12.8047 -11.4057 24.7217
#
#
#
# Elastic Compliance Matrix: (Units=1/GPa)
#
#
# Indices 1 2 3 4 5 6 
#
# 1 0.008179 0.000521 -0.003054 -0.000944 -0.000051 -0.002584
# 2 0.000521 0.013841 0.000861 0.017870 -0.009853 -0.012419
# 3 -0.003054 0.000861 0.006359 0.000383 0.000611 0.000663
# 4 -0.000944 0.017870 0.000383 -0.047679 0.038907 0.045222
# 5 -0.000051 -0.009853 0.000611 0.038907 -0.008701 -0.025450
# 6 -0.002584 -0.012419 0.000663 0.045222 -0.025450 0.004766
#
#
# Mechanical properties :
#
#
# Convention : Reuss Voigt Hill
#
# Bulk Modulus (GPa) = 39.94134 57.15435 48.54785
# Shear Modulus (GPa) = -433.06261 41.42388 -195.81936
#
# Velocity S-wave (km/s) = -13.42320 4.15151 -9.02627
# Velocity P-wave (km/s) = 14.95409 6.83813 9.40385
#
# Compressibility (1/GPa) = 0.02503671
#
# Stress axis : x y z
#
# Youngs Moduli (GPa) = 122.25847 72.24919 157.24583
#
# Poissons Ratio (x) = -0.03764 0.48017
# Poissons Ratio (y) = -0.06370 -0.13540
# Poissons Ratio (z) = 0.37334 -0.06221
#
# Static dielectric constant tensor:
#      x y z
#    x 1.980560 -0.106980 0.009960 
#    y -0.106980 1.952680 0.089980 
#    z 0.009960 0.089980 1.884190 
# 
# From -- ./inp_files/283466.got.cif
#   From: 2010.05.17/outbox.cif.g08.bks.cpg/sg2_142_cif.got.tgz:283466.got - 2010.06.03 11:33:40.
