data_PCOD9104524
_publ_section_title
;
Structure prediction by ZEFSAII (Michael W. Deem and Ramdas Pophale) SiO2 
 PCOD9104524
Probable space group: P -1
;
_chemical_formula_sum "Si O2"
_cell_formula_units_Z 16
_cell_length_a 13.129786
_cell_length_b 12.809968
_cell_length_c 9.076561
_cell_angle_alpha 115.235192
_cell_angle_beta 75.185207
_cell_angle_gamma 150.281720
_cell_volume 661.850543
_symmetry_space_group_name_H-M "P -1"
_symmetry_group_IT_number 2
_symmetry_cell_setting 'triclinic'
loop_
_space_group_symop_operation_xyz
x,y,z
-x,-y,-z
loop_
_atom_site_type_symbol
_atom_site_label
_atom_site_fract_x
_atom_site_fract_y
_atom_site_fract_z
Si Si1 0.704404 0.743105 0.923163
Si Si2 0.235484 0.908796 0.169024
Si Si3 0.528080 0.043583 0.739150
Si Si4 0.090817 0.090664 0.771478
Si Si5 0.847740 0.136929 0.150214
Si Si6 0.540064 0.421999 0.347462
Si Si7 0.191086 0.603966 0.424583
Si Si8 0.011481 0.835784 0.418104
O O1 0.492997 0.561762 0.796817
O O2 0.743646 0.713579 0.043365
O O3 0.877526 0.867387 0.813460
O O4 0.773401 0.936152 0.064919
O O5 0.352609 0.898538 0.132589
O O6 0.387253 0.166246 0.262910
O O7 0.106057 0.807373 0.306293
O O8 0.106520 0.790462 0.994240
O O9 0.353744 0.975880 0.795955
O O10 0.389202 0.804976 0.581252
O O11 0.700362 0.249266 0.679274
O O12 0.016260 0.111578 0.687681
O O13 0.140287 0.026054 0.611227
O O14 0.062086 0.364963 0.297742
O O15 0.500000 0.500000 0.500000
O O16 0.769914 0.595336 0.410373
O O17 0.000000 0.500000 0.500000
#
# Coordination Sequence:
#
# PCOD9104524 Si02
#       8
#     2   2   2   2   2   2   2   2
#     4  10  21  39  63  91 126 162 210 259 314 368
#     4  11  24  40  59  97 124 165 211 254 311 378
#     4  10  22  41  65  89 126 162 207 257 314 372
#     4  10  20  39  61  87 124 166 206 261 311 373
#     4  10  21  40  63  91 128 161 208 264 309 370
#     4  11  21  40  62  89 128 166 206 260 311 375
#     4   9  21  41  63  87 121 161 205 261 312 364
#     4  11  21  38  63  86 128 169 208 258 316 369
#
# _framework density 24.174641000000001
#
# number of rings (size 3 to 8) (size 9 to 14) (size 15 to 20)
#    0.000    1.750    3.750    1.125    0.000    9.000 
#    0.000    0.000    0.000    0.000    0.000    0.000 
#    0.000    0.000    0.000    0.000    0.000    0.000 
#
# Total GULP energy -89283.211706 kJ/mol
# GULP energy per Si atom -5580.200732 kJ/mol
# Density = 2.411962 g / cm^3
# Si number density = 24.174641 Si / 1000 Ang^3
#
#
#
# Elastic Constant Matrix: (Units=GPa)
#
#
# Indices 1 2 3 4 5 6 
#
# 1 60.4163 8.1409 14.9880 -15.2882 -2.8836 3.9876
# 2 8.1409 59.8030 18.3312 -4.1300 -15.7921 10.2812
# 3 14.9880 18.3312 108.8075 -3.6289 1.9728 -2.2990
# 4 -15.2882 -4.1300 -3.6289 34.1846 7.0831 0.8552
# 5 -2.8836 -15.7921 1.9728 7.0831 37.6908 -5.3161
# 6 3.9876 10.2812 -2.2990 0.8552 -5.3161 23.8050
#
#
#
# Elastic Compliance Matrix: (Units=1/GPa)
#
#
# Indices 1 2 3 4 5 6 
#
# 1 0.019656 -0.000994 -0.002309 0.008710 -0.000937 -0.003609
# 2 -0.000994 0.021464 -0.003777 0.000288 0.007975 -0.007698
# 3 -0.002309 -0.003777 0.010232 -0.000070 -0.001918 0.002580
# 4 0.008710 0.000288 -0.000070 0.034589 -0.006308 -0.004241
# 5 -0.000937 0.007975 -0.001918 -0.006308 0.031625 0.003817
# 6 -0.003609 -0.007698 0.002580 -0.004241 0.003817 0.047191
#
#
# Mechanical properties :
#
#
# Convention : Reuss Voigt Hill
#
# Bulk Modulus (GPa) = 26.88696 34.66078 30.77387
# Shear Modulus (GPa) = 26.13517 31.64053 28.88785
#
# Velocity S-wave (km/s) = 3.29157 3.62170 3.46058
# Velocity P-wave (km/s) = 5.05886 5.64427 5.35956
#
# Compressibility (1/GPa) = 0.03719275
#
# Stress axis : x y z
#
# Youngs Moduli (GPa) = 50.87508 46.59020 97.73403
#
# Poissons Ratio (x) = 0.04629 0.22566
# Poissons Ratio (y) = 0.05055 0.36913
# Poissons Ratio (z) = 0.11747 0.17596
#
# Static dielectric constant tensor:
#      x y z
#    x 1.945040 0.031010 0.010290 
#    y 0.031010 2.027380 -0.035050 
#    z 0.010290 -0.035050 1.932700 
# 
# From -- ./inp_files/313846.got.cif
#   From: 2010.05.17/outbox.cif.g08.bks.cpg/sg2_157_cif.got.tgz:313846.got - 2010.06.03 11:33:40.
