data_PCOD9104091
_publ_section_title
;
Structure prediction by ZEFSAII (Michael W. Deem and Ramdas Pophale) SiO2 
 PCOD9104091
Probable space group: P -1
;
_chemical_formula_sum "Si O2"
_cell_formula_units_Z 16
_cell_length_a 11.785754
_cell_length_b 12.403421
_cell_length_c 8.697501
_cell_angle_alpha 106.533727
_cell_angle_beta 127.147560
_cell_angle_gamma 47.432912
_cell_volume 729.565933
_symmetry_space_group_name_H-M "P -1"
_symmetry_group_IT_number 2
_symmetry_cell_setting 'triclinic'
loop_
_space_group_symop_operation_xyz
x,y,z
-x,-y,-z
loop_
_atom_site_type_symbol
_atom_site_label
_atom_site_fract_x
_atom_site_fract_y
_atom_site_fract_z
Si Si1 0.770208 0.758926 0.151387
Si Si2 0.868879 0.465397 0.814697
Si Si3 0.213509 0.421958 0.674498
Si Si4 0.524329 0.757225 0.454663
Si Si5 0.304791 0.665966 0.278225
Si Si6 0.790092 0.154577 0.412399
Si Si7 0.562147 0.054407 0.276312
Si Si8 0.631918 0.427677 0.225803
O O1 0.739945 0.648074 0.145879
O O2 0.988975 0.658730 0.247370
O O3 0.697471 0.881794 0.271790
O O4 0.639686 0.854145 0.936290
O O5 0.675570 0.616285 0.640946
O O6 0.818466 0.385827 0.852110
O O7 0.000000 0.500000 0.000000
O O8 0.358794 0.287594 0.621713
O O9 0.231255 0.541894 0.691944
O O10 0.000000 0.500000 0.500000
O O11 0.343381 0.770766 0.277167
O O12 0.463113 0.901674 0.549121
O O13 0.240478 0.748661 0.425209
O O14 0.504292 0.513962 0.309936
O O15 0.654714 0.118740 0.307716
O O16 0.734066 0.257410 0.262129
O O17 0.000000 0.000000 0.500000
O O18 0.500000 0.500000 0.000000
#
# Coordination Sequence:
#
# PCOD9104091 Si02
#       8
#     2   2   2   2   2   2   2   2
#     4  11  23  38  59  92 125 158 195 255 309 362
#     4  12  21  33  62  88 119 153 209 249 298 350
#     4  11  23  37  61  88 125 153 206 246 300 361
#     4  10  20  39  57  87 114 165 198 251 299 359
#     4  10  22  39  62  89 122 163 215 254 297 373
#     4  11  22  40  68  92 121 163 217 254 305 365
#     4  10  22  39  61  87 123 159 202 248 309 361
#     4  11  24  41  65  90 127 167 202 256 317 363
#
# _framework density 21.930848999999998
#
# number of rings (size 3 to 8) (size 9 to 14) (size 15 to 20)
#    0.000    1.250    2.500    5.250    3.500    0.500 
#    0.000    0.625    0.000    0.000    0.000    0.000 
#    0.000    0.000    0.000    0.000    0.000    0.000 
#
# Total GULP energy -89076.591801 kJ/mol
# GULP energy per Si atom -5567.286988 kJ/mol
# Density = 2.188093 g / cm^3
# Si number density = 21.930849 Si / 1000 Ang^3
#
#
#
# Elastic Constant Matrix: (Units=GPa)
#
#
# Indices 1 2 3 4 5 6 
#
# 1 143.5472 14.1307 17.5488 -2.4803 11.7767 15.8682
# 2 14.1307 62.5612 14.6957 -7.0813 -5.3696 6.5415
# 3 17.5488 14.6957 33.7900 -0.8259 13.3072 11.1358
# 4 -2.4803 -7.0813 -0.8259 26.6586 6.1153 6.4755
# 5 11.7767 -5.3696 13.3072 6.1153 28.6301 8.7432
# 6 15.8682 6.5415 11.1358 6.4755 8.7432 34.0905
#
#
#
# Elastic Compliance Matrix: (Units=1/GPa)
#
#
# Indices 1 2 3 4 5 6 
#
# 1 0.007778 -0.001053 -0.001896 0.001476 -0.002051 -0.002553
# 2 -0.001053 0.020317 -0.010980 0.003490 0.009493 -0.002919
# 3 -0.001896 -0.010980 0.046537 0.005177 -0.021684 -0.007634
# 4 0.001476 0.003490 0.005177 0.042927 -0.008796 -0.008946
# 5 -0.002051 0.009493 -0.021684 -0.008796 0.051104 -0.005220
# 6 -0.002553 -0.002919 -0.007634 -0.008946 -0.005220 0.036614
#
#
# Mechanical properties :
#
#
# Convention : Reuss Voigt Hill
#
# Bulk Modulus (GPa) = 21.38040 36.96097 29.17068
# Shear Modulus (GPa) = 20.10249 30.77740 25.43995
#
# Velocity S-wave (km/s) = 3.03088 3.75024 3.40958
# Velocity P-wave (km/s) = 4.69238 5.97013 5.36940
#
# Compressibility (1/GPa) = 0.04677182
#
# Stress axis : x y z
#
# Youngs Moduli (GPa) = 128.57023 49.22088 21.48846
#
# Poissons Ratio (x) = 0.05185 0.04074
# Poissons Ratio (y) = 0.13544 0.23595
# Poissons Ratio (z) = 0.24376 0.54045
#
# Static dielectric constant tensor:
#      x y z
#    x 1.781650 0.023090 -0.032490 
#    y 0.023090 1.839290 0.037690 
#    z -0.032490 0.037690 1.832630 
# 
# From -- ./inp_files/262722.got.cif
#   From: 2010.05.17/outbox.cif.g08.bks.cpg/sg2_132_cif.got.tgz:262722.got - 2010.06.03 11:33:40.
