data_PCOD9104554
_publ_section_title
;
Structure prediction by ZEFSAII (Michael W. Deem and Ramdas Pophale) SiO2 
 PCOD9104554
Probable space group: P -1
;
_chemical_formula_sum "Si O2"
_cell_formula_units_Z 16
_cell_length_a 5.297693
_cell_length_b 7.402297
_cell_length_c 20.365873
_cell_angle_alpha 80.072856
_cell_angle_beta 67.802835
_cell_angle_gamma 62.498908
_cell_volume 655.901514
_symmetry_space_group_name_H-M "P -1"
_symmetry_group_IT_number 2
_symmetry_cell_setting 'triclinic'
loop_
_space_group_symop_operation_xyz
x,y,z
-x,-y,-z
loop_
_atom_site_type_symbol
_atom_site_label
_atom_site_fract_x
_atom_site_fract_y
_atom_site_fract_z
Si Si1 0.104369 0.025878 0.160192
Si Si2 0.051213 0.956958 0.690927
Si Si3 0.155958 0.148910 0.537791
Si Si4 0.826005 0.578862 0.836491
Si Si5 0.296202 0.282985 0.300045
Si Si6 0.217166 0.290957 0.908278
Si Si7 0.842697 0.431233 0.448582
Si Si8 0.216363 0.706557 0.939987
O O1 0.445244 0.883117 0.115332
O O2 0.063610 0.245000 0.179079
O O3 0.015170 0.933342 0.238262
O O4 0.899478 0.103844 0.111091
O O5 0.402458 0.784210 0.680586
O O6 0.767320 0.904315 0.707603
O O7 0.058142 0.072433 0.617078
O O8 0.102102 0.377269 0.546124
O O9 0.995501 0.203909 0.479164
O O10 0.500000 0.000000 0.500000
O O11 0.693983 0.599170 0.774860
O O12 0.571742 0.639506 0.914875
O O13 0.075197 0.358110 0.845765
O O14 0.984907 0.400867 0.363880
O O15 0.213741 0.500814 0.923338
O O16 0.997517 0.238415 0.979792
O O17 0.500000 0.500000 0.500000
#
# Coordination Sequence:
#
# PCOD9104554 Si02
#       8
#     2   2   2   2   2   2   2   2
#     4  10  22  40  60  91 126 165 218 265 326 383
#     4  11  24  44  70  95 133 179 217 271 332 388
#     4  11  24  44  68  97 135 171 218 270 325 391
#     4  10  22  40  61  87 130 166 211 270 324 382
#     4  11  24  45  69  95 137 174 218 274 328 388
#     4  10  22  37  61  93 121 168 216 267 323 393
#     4  11  26  42  69 102 131 175 220 269 329 390
#     4  10  20  39  61  88 128 164 211 272 326 381
#
# _framework density 24.393909000000001
#
# number of rings (size 3 to 8) (size 9 to 14) (size 15 to 20)
#    0.000    1.500    2.500    1.500    3.500    4.500 
#    2.250    0.000    0.000    0.000    0.000    0.000 
#    0.000    0.000    0.000    0.000    0.000    0.000 
#
# Total GULP energy -89226.411519 kJ/mol
# GULP energy per Si atom -5576.650720 kJ/mol
# Density = 2.433839 g / cm^3
# Si number density = 24.393909 Si / 1000 Ang^3
#
#
#
# Elastic Constant Matrix: (Units=GPa)
#
#
# Indices 1 2 3 4 5 6 
#
# 1 49.8370 9.0446 2.1986 -1.7517 -6.9038 -16.6403
# 2 9.0446 78.2110 24.7624 -4.8047 13.4412 -24.9082
# 3 2.1986 24.7624 127.7782 0.1810 -10.6674 -2.1010
# 4 -1.7517 -4.8047 0.1810 31.5570 -5.3049 -4.2604
# 5 -6.9038 13.4412 -10.6674 -5.3049 30.0888 5.6329
# 6 -16.6403 -24.9082 -2.1010 -4.2604 5.6329 40.0139
#
#
#
# Elastic Compliance Matrix: (Units=1/GPa)
#
#
# Indices 1 2 3 4 5 6 
#
# 1 0.024042 -0.000417 0.000201 0.003318 0.004589 0.009456
# 2 -0.000417 0.022089 -0.005205 0.003095 -0.014189 0.015630
# 3 0.000201 -0.005205 0.009298 -0.000260 0.006293 -0.003582
# 4 0.003318 0.003095 -0.000260 0.033885 0.004076 0.006327
# 5 0.004589 -0.014189 0.006293 0.004076 0.045940 -0.012627
# 6 0.009456 0.015630 -0.003582 0.006327 -0.012627 0.040916
#
#
# Mechanical properties :
#
#
# Convention : Reuss Voigt Hill
#
# Bulk Modulus (GPa) = 22.42862 36.42637 29.42750
# Shear Modulus (GPa) = 24.76782 34.98664 29.87723
#
# Velocity S-wave (km/s) = 3.18988 3.79124 3.50349
# Velocity P-wave (km/s) = 4.77299 5.84206 5.33437
#
# Compressibility (1/GPa) = 0.04458589
#
# Stress axis : x y z
#
# Youngs Moduli (GPa) = 41.59394 45.27214 107.54819
#
# Poissons Ratio (x) = 0.01888 -0.02162
# Poissons Ratio (y) = 0.01735 0.55983
# Poissons Ratio (z) = -0.00836 0.23566
#
# Static dielectric constant tensor:
#      x y z
#    x 2.202390 0.053990 0.178980 
#    y 0.053990 1.924400 -0.006210 
#    z 0.178980 -0.006210 2.038810 
# 
# From -- ./inp_files/11005.got.cif
#   From: 2010.05.17/outbox.cif.g08.bks.cpg/sg2_6_cif.got.tgz:11005.got - 2010.06.03 11:33:40.
