data_PCOD9104613
_publ_section_title
;
Structure prediction by ZEFSAII (Michael W. Deem and Ramdas Pophale) SiO2 
 PCOD9104613
Probable space group: P -1
;
_chemical_formula_sum "Si O2"
_cell_formula_units_Z 14
_cell_length_a 6.686244
_cell_length_b 18.728074
_cell_length_c 9.809079
_cell_angle_alpha 45.958474
_cell_angle_beta 131.689433
_cell_angle_gamma 130.056349
_cell_volume 620.656147
_symmetry_space_group_name_H-M "P -1"
_symmetry_group_IT_number 2
_symmetry_cell_setting 'triclinic'
loop_
_space_group_symop_operation_xyz
x,y,z
-x,-y,-z
loop_
_atom_site_type_symbol
_atom_site_label
_atom_site_fract_x
_atom_site_fract_y
_atom_site_fract_z
Si Si1 0.877837 0.457613 0.646730
Si Si2 0.125675 0.598539 0.824343
Si Si3 0.767368 0.907170 0.599585
Si Si4 0.958791 0.029707 0.097164
Si Si5 0.359489 0.341761 0.414554
Si Si6 0.548145 0.141479 0.737490
Si Si7 0.743366 0.672772 0.913696
O O1 0.542250 0.415698 0.518392
O O2 0.000000 0.500000 0.500000
O O3 0.005130 0.550177 0.688548
O O4 0.006454 0.367301 0.870578
O O5 0.465298 0.642231 0.923962
O O6 0.974528 0.684863 0.671915
O O7 0.000000 0.500000 0.000000
O O8 0.497010 0.886128 0.407602
O O9 0.837030 0.798250 0.767033
O O10 0.778873 0.942444 0.714943
O O11 0.000000 0.000000 0.500000
O O12 0.696626 0.938496 0.172016
O O13 0.848959 0.129920 0.920026
O O14 0.000000 0.000000 0.000000
O O15 0.495593 0.250385 0.589950
O O16 0.375676 0.383307 0.211201
#
# Coordination Sequence:
#
# PCOD9104613 Si02
#       7
#     2   2   2   2   2   2   2
#     4  12  23  42  68  92 132 178 219 272 332 385
#     4  12  24  43  65  96 136 173 222 272 328 388
#     4   9  20  41  67  90 125 172 211 261 332 385
#     4  10  20  39  61  91 125 155 209 269 318 379
#     4  11  23  42  65  93 129 174 222 267 324 391
#     4   9  21  39  61  87 123 165 208 260 321 384
#     4  11  23  43  66  96 135 171 220 277 326 390
#
# _framework density 22.556773
#
# number of rings (size 3 to 8) (size 9 to 14) (size 15 to 20)
#    0.000    1.429    2.857    2.571    0.000    2.857 
#    5.143    5.714    0.000    0.000    0.000    0.000 
#    0.000    0.000    0.000    0.000    0.000    0.000 
#
# Total GULP energy -78084.683790 kJ/mol
# GULP energy per Si atom -5577.477414 kJ/mol
# Density = 2.250543 g / cm^3
# Si number density = 22.556773 Si / 1000 Ang^3
#
#
#
# Elastic Constant Matrix: (Units=GPa)
#
#
# Indices 1 2 3 4 5 6 
#
# 1 81.0800 15.0541 29.8786 6.0484 3.3175 -12.4966
# 2 15.0541 53.8419 21.6974 14.0429 -8.6798 -10.7442
# 3 29.8786 21.6974 115.4938 13.7225 -6.4075 -4.0344
# 4 6.0484 14.0429 13.7225 51.6111 -10.3321 -6.1264
# 5 3.3175 -8.6798 -6.4075 -10.3321 34.8850 11.8906
# 6 -12.4966 -10.7442 -4.0344 -6.1264 11.8906 26.7580
#
#
#
# Elastic Compliance Matrix: (Units=1/GPa)
#
#
# Indices 1 2 3 4 5 6 
#
# 1 0.015589 -0.002029 -0.003619 -0.000450 -0.005619 0.008314
# 2 -0.002029 0.022929 -0.002973 -0.004082 0.002120 0.005934
# 3 -0.003619 -0.002973 0.010343 -0.001427 0.001938 -0.002513
# 4 -0.000450 -0.004082 -0.001427 0.022014 0.005033 0.000739
# 5 -0.005619 0.002120 0.001938 0.005033 0.037342 -0.016922
# 6 0.008314 0.005934 -0.002513 0.000739 -0.016922 0.050947
#
#
# Mechanical properties :
#
#
# Convention : Reuss Voigt Hill
#
# Bulk Modulus (GPa) = 31.62831 42.63065 37.12948
# Shear Modulus (GPa) = 26.74567 34.90321 30.82444
#
# Velocity S-wave (km/s) = 3.44714 3.93790 3.70067
# Velocity P-wave (km/s) = 5.46770 6.29416 5.89543
#
# Compressibility (1/GPa) = 0.03161725
#
# Stress axis : x y z
#
# Youngs Moduli (GPa) = 64.14769 43.61337 96.68718
#
# Poissons Ratio (x) = 0.08851 0.34996
# Poissons Ratio (y) = 0.13019 0.28741
# Poissons Ratio (z) = 0.23218 0.12965
#
# Static dielectric constant tensor:
#      x y z
#    x 1.827190 0.044970 -0.015030 
#    y 0.044970 1.772390 0.070000 
#    z -0.015030 0.070000 1.818440 
# 
# From -- ./inp_files/47677.got.cif
#   From: 2010.05.17/outbox.cif.g08.bks.cpg/sg2_24_cif.got.tgz:47677.got - 2010.06.03 11:33:40.
