data_PCOD9104633
_publ_section_title
;
Structure prediction by ZEFSAII (Michael W. Deem and Ramdas Pophale) SiO2 
 PCOD9104633
Probable space group: P -1
;
_chemical_formula_sum "Si O2"
_cell_formula_units_Z 16
_cell_length_a 21.551950
_cell_length_b 20.166924
_cell_length_c 5.439142
_cell_angle_alpha 74.609753
_cell_angle_beta 67.913100
_cell_angle_gamma 18.935521
_cell_volume 678.055595
_symmetry_space_group_name_H-M "P -1"
_symmetry_group_IT_number 2
_symmetry_cell_setting 'triclinic'
loop_
_space_group_symop_operation_xyz
x,y,z
-x,-y,-z
loop_
_atom_site_type_symbol
_atom_site_label
_atom_site_fract_x
_atom_site_fract_y
_atom_site_fract_z
Si Si1 0.120057 0.336683 0.289621
Si Si2 0.590036 0.069556 0.728771
Si Si3 0.120187 0.836644 0.173960
Si Si4 0.189337 0.118468 0.901357
Si Si5 0.187304 0.619970 0.788004
Si Si6 0.591533 0.568334 0.869780
Si Si7 0.857756 0.043210 0.749402
Si Si8 0.858389 0.542717 0.088418
O O1 0.318338 0.096828 0.277458
O O2 0.000000 0.500000 0.500000
O O3 0.942638 0.458273 0.324303
O O4 0.188493 0.331184 0.006780
O O5 0.690358 0.012000 0.403988
O O6 0.343007 0.304798 0.830463
O O7 0.664957 0.019588 0.937737
O O8 0.318176 0.596904 0.068077
O O9 0.188821 0.831008 0.263173
O O10 0.942771 0.958246 0.428448
O O11 0.000000 0.000000 0.000000
O O12 0.001204 0.249188 0.098653
O O13 0.062742 0.314027 0.871777
O O14 0.330138 0.484346 0.464303
O O15 0.310931 0.486866 0.987268
O O16 0.061246 0.815138 0.808845
O O17 0.343959 0.804191 0.034626
#
# Coordination Sequence:
#
# PCOD9104633 Si02
#       8
#     2   2   2   2   2   2   2   2
#     4  10  20  39  61  92 129 153 196 254 301 364
#     4  11  24  40  66  90 119 166 201 246 312 359
#     4  10  20  39  61  92 129 153 196 254 301 364
#     4  11  25  43  61  89 123 159 210 257 293 354
#     4  11  25  43  61  89 123 159 210 257 293 354
#     4  11  24  40  66  90 119 166 201 246 312 359
#     4  10  23  39  61  92 125 160 200 248 305 364
#     4  10  23  39  61  92 125 160 200 248 305 364
#
# _framework density 23.596883999999999
#
# number of rings (size 3 to 8) (size 9 to 14) (size 15 to 20)
#    0.000    1.500    2.500    1.500    3.500    3.000 
#    0.000    0.000    0.000    0.000    0.000    0.000 
#    0.000    0.000    0.000    0.000    0.000    0.000 
#
# Total GULP energy -89266.329969 kJ/mol
# GULP energy per Si atom -5579.145623 kJ/mol
# Density = 2.354318 g / cm^3
# Si number density = 23.596884 Si / 1000 Ang^3
#
#
#
# Elastic Constant Matrix: (Units=GPa)
#
#
# Indices 1 2 3 4 5 6 
#
# 1 60.8134 28.8724 11.1642 0.4416 -5.3647 -8.4988
# 2 28.8724 114.0794 54.1550 25.1197 11.7480 -9.4283
# 3 11.1642 54.1550 109.4474 5.5474 -2.0416 -28.0740
# 4 0.4416 25.1197 5.5474 20.5242 -10.7144 -7.8021
# 5 -5.3647 11.7480 -2.0416 -10.7144 27.1488 -0.5591
# 6 -8.4988 -9.4283 -28.0740 -7.8021 -0.5591 51.1432
#
#
#
# Elastic Compliance Matrix: (Units=1/GPa)
#
#
# Indices 1 2 3 4 5 6 
#
# 1 0.048831 -0.055941 0.026262 0.114591 0.081685 0.030592
# 2 -0.055941 0.099731 -0.048839 -0.197984 -0.137037 -0.049421
# 3 0.026262 -0.048839 0.034649 0.096491 0.067624 0.029840
# 4 0.114591 -0.197984 0.096491 0.460256 0.299460 0.108998
# 5 0.081685 -0.137037 0.067624 0.299460 0.237062 0.073708
# 6 0.030592 -0.049421 0.029840 0.108998 0.073708 0.049339
#
#
# Mechanical properties :
#
#
# Convention : Reuss Voigt Hill
#
# Bulk Modulus (GPa) = 38.20753 52.52482 45.36617
# Shear Modulus (GPa) = 4.56358 32.43980 18.50169
#
# Velocity S-wave (km/s) = 1.39218 3.71178 2.80317
# Velocity P-wave (km/s) = 4.33718 6.37788 5.45383
#
# Compressibility (1/GPa) = 0.02617285
#
# Stress axis : x y z
#
# Youngs Moduli (GPa) = 20.47877 10.02693 28.86110
#
# Poissons Ratio (x) = 0.56092 -0.75794
# Poissons Ratio (y) = 1.14561 1.40956
# Poissons Ratio (z) = -0.53781 0.48971
#
# Static dielectric constant tensor:
#      x y z
#    x 1.997290 0.030740 0.025650 
#    y 0.030740 1.938290 -0.053490 
#    z 0.025650 -0.053490 1.985070 
# 
# From -- ./inp_files/13023.got.cif
#   From: 2010.05.17/outbox.cif.g08.bks.cpg/sg2_7_cif.got.tgz:13023.got - 2010.06.03 11:33:40.
