data_PCOD9104645
_publ_section_title
;
Structure prediction by ZEFSAII (Michael W. Deem and Ramdas Pophale) SiO2 
 PCOD9104645
Probable space group: P -1
;
_chemical_formula_sum "Si O2"
_cell_formula_units_Z 12
_cell_length_a 15.015306
_cell_length_b 6.657365
_cell_length_c 8.521805
_cell_angle_alpha 114.365579
_cell_angle_beta 58.274932
_cell_angle_gamma 71.259648
_cell_volume 474.805086
_symmetry_space_group_name_H-M "P -1"
_symmetry_group_IT_number 2
_symmetry_cell_setting 'triclinic'
loop_
_space_group_symop_operation_xyz
x,y,z
-x,-y,-z
loop_
_atom_site_type_symbol
_atom_site_label
_atom_site_fract_x
_atom_site_fract_y
_atom_site_fract_z
Si Si1 0.343086 0.197790 0.601284
Si Si2 0.623202 0.423739 0.128188
Si Si3 0.186622 0.160832 0.004767
Si Si4 0.866452 0.446618 0.359111
Si Si5 0.421081 0.909714 0.122239
Si Si6 0.143365 0.704667 0.355587
O O1 0.208248 0.498689 0.719903
O O2 0.438757 0.929353 0.296918
O O3 0.418927 0.299549 0.641036
O O4 0.270613 0.132549 0.766622
O O5 0.727750 0.361357 0.873676
O O6 0.714309 0.143949 0.080712
O O7 0.528064 0.377439 0.111859
O O8 0.152172 0.432987 0.221463
O O9 0.032404 0.277644 0.141085
O O10 0.754717 0.805282 0.632687
O O11 0.854668 0.280826 0.453343
O O12 0.500000 0.000000 0.000000
O O13 0.000000 0.000000 0.500000
#
# Coordination Sequence:
#
# PCOD9104645 Si02
#       6
#     2   2   2   2   2   2
#     4   9  24  38  62 100 120 159 211 249 314 375
#     4  11  22  39  66  89 129 163 199 262 313 362
#     4  11  19  38  62  96 131 159 194 261 320 365
#     4  10  20  39  61  93 132 158 204 251 305 372
#     4  10  23  45  64  86 124 168 213 256 299 362
#     4  11  20  34  62  98 126 167 203 244 318 378
#
# _framework density 25.273529
#
# number of rings (size 3 to 8) (size 9 to 14) (size 15 to 20)
#    1.000    0.667    3.333    2.000    0.000    2.667 
#    0.000    1.667    0.000    0.000    0.000    0.000 
#    0.000    0.000    0.000    0.000    0.000    0.000 
#
# Total GULP energy -67111.129573 kJ/mol
# GULP energy per Si atom -5592.594131 kJ/mol
# Density = 2.521601 g / cm^3
# Si number density = 25.273529 Si / 1000 Ang^3
#
#
#
# Elastic Constant Matrix: (Units=GPa)
#
#
# Indices 1 2 3 4 5 6 
#
# 1 132.9965 60.9347 67.9418 -13.6557 27.4293 4.1766
# 2 60.9347 151.2040 67.3350 10.3877 20.8758 9.8273
# 3 67.9418 67.3350 123.4076 -15.3617 7.7505 5.4938
# 4 -13.6557 10.3877 -15.3617 53.7756 0.7879 18.4339
# 5 27.4293 20.8758 7.7505 0.7879 43.4766 2.3559
# 6 4.1766 9.8273 5.4938 18.4339 2.3559 45.5970
#
#
#
# Elastic Compliance Matrix: (Units=1/GPa)
#
#
# Indices 1 2 3 4 5 6 
#
# 1 0.012599 -0.002116 -0.005053 0.002527 -0.006034 -0.000799
# 2 -0.002116 0.010189 -0.004728 -0.003916 -0.002659 0.000288
# 3 -0.005053 -0.004728 0.013899 0.004267 0.003015 -0.002074
# 4 0.002527 -0.003916 0.004267 0.024585 -0.000388 -0.009821
# 5 -0.006034 -0.002659 0.003015 -0.000388 0.027582 -0.000506
# 6 -0.000799 0.000288 -0.002074 -0.009821 -0.000506 0.026189
#
#
# Mechanical properties :
#
#
# Convention : Reuss Voigt Hill
#
# Bulk Modulus (GPa) = 77.55547 88.89232 83.22390
# Shear Modulus (GPa) = 34.93263 42.66295 38.79779
#
# Velocity S-wave (km/s) = 3.72180 4.11304 3.92231
# Velocity P-wave (km/s) = 7.01585 7.60294 7.31529
#
# Compressibility (1/GPa) = 0.01289400
#
# Stress axis : x y z
#
# Youngs Moduli (GPa) = 79.37416 98.14363 71.94860
#
# Poissons Ratio (x) = 0.20764 0.36353
# Poissons Ratio (y) = 0.16793 0.34017
# Poissons Ratio (z) = 0.40105 0.46402
#
# Static dielectric constant tensor:
#      x y z
#    x 2.046170 -0.079630 0.051080 
#    y -0.079630 2.151810 0.059900 
#    z 0.051080 0.059900 1.989300 
# 
# From -- ./inp_files/27371.got.cif
#   From: 2010.05.17/outbox.cif.g08.bks.cpg/sg2_14_cif.got.tgz:27371.got - 2010.06.03 11:33:40.
