data_PCOD9104820
_publ_section_title
;
Structure prediction by ZEFSAII (Michael W. Deem and Ramdas Pophale) SiO2 
 PCOD9104820
Probable space group: P -1
;
_chemical_formula_sum "Si O2"
_cell_formula_units_Z 14
_cell_length_a 17.327482
_cell_length_b 9.841967
_cell_length_c 9.102953
_cell_angle_alpha 128.299558
_cell_angle_beta 32.347472
_cell_angle_gamma 109.772582
_cell_volume 584.934620
_symmetry_space_group_name_H-M "P -1"
_symmetry_group_IT_number 2
_symmetry_cell_setting 'triclinic'
loop_
_space_group_symop_operation_xyz
x,y,z
-x,-y,-z
loop_
_atom_site_type_symbol
_atom_site_label
_atom_site_fract_x
_atom_site_fract_y
_atom_site_fract_z
Si Si1 0.466071 0.423136 0.225869
Si Si2 0.672606 0.063679 0.839564
Si Si3 0.437184 0.186476 0.931954
Si Si4 0.930588 0.843965 0.030713
Si Si5 0.741658 0.854824 0.066085
Si Si6 0.231467 0.826586 0.957638
Si Si7 0.115363 0.583032 0.810670
O O1 0.406016 0.641140 0.517251
O O2 0.300316 0.424272 0.424834
O O3 0.537771 0.270220 0.137454
O O4 0.552588 0.301192 0.861297
O O5 0.779897 0.942454 0.450613
O O6 0.775422 0.123252 0.828426
O O7 0.609659 0.932631 0.943933
O O8 0.308713 0.261486 0.051809
O O9 0.579876 0.992379 0.501073
O O10 0.875432 0.773939 0.924971
O O11 0.063424 0.670843 0.793956
O O12 0.000000 0.000000 0.000000
O O13 0.790239 0.992273 0.980304
O O14 0.110285 0.746511 0.040633
O O15 0.000000 0.500000 0.000000
#
# Coordination Sequence:
#
# PCOD9104820 Si02
#       7
#     2   2   2   2   2   2   2
#     4  10  20  39  62  91 122 161 206 260 309 363
#     4  11  22  39  69  91 119 168 223 246 313 376
#     4  10  21  38  66  94 119 167 207 268 299 377
#     4  12  23  43  64  91 125 171 211 263 307 381
#     4  10  21  40  61  93 128 159 217 253 313 367
#     4   9  22  40  61  94 127 164 208 264 308 379
#     4  10  23  39  62  89 135 163 203 258 322 367
#
# _framework density 23.934298999999999
#
# number of rings (size 3 to 8) (size 9 to 14) (size 15 to 20)
#    0.857    0.857    2.857    1.714    2.000    1.143 
#    5.143    0.714    0.000    0.000    0.000    0.000 
#    0.000    0.000    0.000    0.000    0.000    0.000 
#
# Total GULP energy -77989.843097 kJ/mol
# GULP energy per Si atom -5570.703078 kJ/mol
# Density = 2.387982 g / cm^3
# Si number density = 23.934299 Si / 1000 Ang^3
#
#
#
# Elastic Constant Matrix: (Units=GPa)
#
#
# Indices 1 2 3 4 5 6 
#
# 1 187.7669 35.6841 10.8098 10.7094 5.4920 -24.0709
# 2 35.6841 58.4383 7.5093 3.2882 -12.1352 -19.4645
# 3 10.8098 7.5093 52.3953 8.4712 -2.8273 -14.5840
# 4 10.7094 3.2882 8.4712 39.7748 -2.1018 -6.2524
# 5 5.4920 -12.1352 -2.8273 -2.1018 43.9550 13.0168
# 6 -24.0709 -19.4645 -14.5840 -6.2524 13.0168 42.1879
#
#
#
# Elastic Compliance Matrix: (Units=1/GPa)
#
#
# Indices 1 2 3 4 5 6 
#
# 1 0.006491 -0.003544 -0.000034 -0.001163 -0.002647 0.002701
# 2 -0.003544 0.022556 -0.000416 0.000505 0.004628 0.006888
# 3 -0.000034 -0.000416 0.021628 -0.003507 -0.000974 0.007046
# 4 -0.001163 0.000505 -0.003507 0.026522 0.000715 0.002068
# 5 -0.002647 0.004628 -0.000974 0.000715 0.026649 -0.007828
# 6 0.002701 0.006888 0.007046 0.002068 -0.007828 0.033580
#
#
# Mechanical properties :
#
#
# Convention : Reuss Voigt Hill
#
# Bulk Modulus (GPa) = 23.42665 45.17856 34.30260
# Shear Modulus (GPa) = 31.31952 41.49004 36.40478
#
# Velocity S-wave (km/s) = 3.62133 4.16805 3.90427
# Velocity P-wave (km/s) = 5.22442 6.48695 5.88961
#
# Compressibility (1/GPa) = 0.04268643
#
# Stress axis : x y z
#
# Youngs Moduli (GPa) = 154.05336 44.33333 46.23644
#
# Poissons Ratio (x) = 0.15711 0.00159
# Poissons Ratio (y) = 0.54595 0.01925
# Poissons Ratio (z) = 0.00528 0.01846
#
# Static dielectric constant tensor:
#      x y z
#    x 2.126260 0.180750 0.153380 
#    y 0.180750 2.194630 0.251280 
#    z 0.153380 0.251280 2.298760 
# 
# From -- ./inp_files/329383.got.cif
#   From: 2010.05.17/outbox.cif.g08.bks.cpg/sg2_165_cif.got.tgz:329383.got - 2010.06.03 11:33:40.
