data_PCOD9104482
_publ_section_title
;
Structure prediction by ZEFSAII (Michael W. Deem and Ramdas Pophale) SiO2 
 PCOD9104482
Probable space group: P -1
;
_chemical_formula_sum "Si O2"
_cell_formula_units_Z 16
_cell_length_a 8.159242
_cell_length_b 11.083809
_cell_length_c 11.676192
_cell_angle_alpha 35.978990
_cell_angle_beta 100.651441
_cell_angle_gamma 105.767647
_cell_volume 595.861651
_symmetry_space_group_name_H-M "P -1"
_symmetry_group_IT_number 2
_symmetry_cell_setting 'triclinic'
loop_
_space_group_symop_operation_xyz
x,y,z
-x,-y,-z
loop_
_atom_site_type_symbol
_atom_site_label
_atom_site_fract_x
_atom_site_fract_y
_atom_site_fract_z
Si Si1 0.120769 0.277148 0.038792
Si Si2 0.647155 0.480200 0.944976
Si Si3 0.199455 0.038482 0.031964
Si Si4 0.966074 0.301125 0.570284
Si Si5 0.665695 0.621399 0.493199
Si Si6 0.730798 0.228024 0.951486
Si Si7 0.780826 0.103040 0.516152
Si Si8 0.602606 0.880601 0.480845
O O1 0.192467 0.468204 0.987019
O O2 0.226096 0.248060 0.955382
O O3 0.140240 0.077775 0.274344
O O4 0.925817 0.252804 0.997801
O O5 0.632061 0.275486 0.019071
O O6 0.638280 0.676201 0.710352
O O7 0.500000 0.500000 0.000000
O O8 0.304442 0.968695 0.992858
O O9 0.186565 0.855618 0.265290
O O10 0.000000 0.000000 0.000000
O O11 0.155744 0.259756 0.629381
O O12 0.000000 0.500000 0.500000
O O13 0.899257 0.310337 0.425132
O O14 0.500000 0.500000 0.500000
O O15 0.718497 0.433134 0.716917
O O16 0.611585 0.809942 0.408379
O O17 0.584890 0.084682 0.543032
O O18 0.753935 0.062001 0.409845
#
# Coordination Sequence:
#
# PCOD9104482 Si02
#       8
#     2   2   2   2   2   2   2   2
#     4   9  19  37  63  81 120 163 196 255 306 360
#     4  10  21  38  59  91 121 160 205 248 308 374
#     4   9  19  38  59  86 119 154 202 249 305 356
#     4  11  20  35  62  89 116 161 210 252 298 370
#     4  11  23  37  58  91 128 156 204 263 312 363
#     4  10  20  39  61  85 117 159 203 253 307 358
#     4   9  19  38  61  85 120 160 206 249 308 365
#     4   9  20  39  59  86 127 164 194 256 318 361
#
# _framework density 26.851872
#
# number of rings (size 3 to 8) (size 9 to 14) (size 15 to 20)
#    0.000    2.250    1.250    1.125    1.750    1.500 
#    9.000   11.875    0.000    0.000    0.000    0.000 
#    0.000    0.000    0.000    0.000    0.000    0.000 
#
# Total GULP energy -89272.430089 kJ/mol
# GULP energy per Si atom -5579.526881 kJ/mol
# Density = 2.679076 g / cm^3
# Si number density = 26.851872 Si / 1000 Ang^3
#
#
#
# Elastic Constant Matrix: (Units=GPa)
#
#
# Indices 1 2 3 4 5 6 
#
# 1 131.9129 78.8489 12.5497 13.6301 24.8231 -0.7844
# 2 78.8489 180.7011 33.1208 0.5992 1.7681 -4.2726
# 3 12.5497 33.1208 79.4441 -0.3489 26.1818 4.0502
# 4 13.6301 0.5992 -0.3489 34.6684 2.7052 12.9727
# 5 24.8231 1.7681 26.1818 2.7052 35.6062 13.0446
# 6 -0.7844 -4.2726 4.0502 12.9727 13.0446 57.9532
#
#
#
# Elastic Compliance Matrix: (Units=1/GPa)
#
#
# Indices 1 2 3 4 5 6 
#
# 1 0.014809 -0.007180 0.005334 -0.005975 -0.014898 0.003989
# 2 -0.007180 0.009594 -0.005804 0.002483 0.009198 -0.001611
# 3 0.005334 -0.005804 0.020400 -0.001359 -0.019385 0.002886
# 4 -0.005975 0.002483 -0.001359 0.033941 0.005639 -0.008670
# 5 -0.014898 0.009198 -0.019385 0.005639 0.056272 -0.012097
# 6 0.003989 -0.001611 0.002886 -0.008670 -0.012097 0.021652
#
#
# Mechanical properties :
#
#
# Convention : Reuss Voigt Hill
#
# Bulk Modulus (GPa) = 33.89379 71.23299 52.56339
# Shear Modulus (GPa) = 27.50202 43.48146 35.49174
#
# Velocity S-wave (km/s) = 3.20380 4.02843 3.63955
# Velocity P-wave (km/s) = 5.13183 6.94430 6.10570
#
# Compressibility (1/GPa) = 0.02950393
#
# Stress axis : x y z
#
# Youngs Moduli (GPa) = 67.52437 104.22652 49.01911
#
# Poissons Ratio (x) = 0.74833 -0.26147
# Poissons Ratio (y) = 0.48482 0.28452
# Poissons Ratio (z) = -0.36018 0.60496
#
# Static dielectric constant tensor:
#      x y z
#    x 1.967490 0.014790 -0.059470 
#    y 0.014790 2.250870 0.003930 
#    z -0.059470 0.003930 2.300820 
# 
# From -- ./inp_files/497519.got.cif
#   From: 2010.05.17/outbox.cif.g08.bks.cpg/sg2_249_cif.got.tgz:497519.got - 2010.06.03 11:33:40.
