data_PCOD9104031
_publ_section_title
;
Structure prediction by ZEFSAII (Michael W. Deem and Ramdas Pophale) SiO2 
 PCOD9104031
Probable space group: P -1
;
_chemical_formula_sum "Si O2"
_cell_formula_units_Z 16
_cell_length_a 13.429593
_cell_length_b 9.815847
_cell_length_c 8.929284
_cell_angle_alpha 86.462989
_cell_angle_beta 58.024896
_cell_angle_gamma 56.834855
_cell_volume 791.579681
_symmetry_space_group_name_H-M "P -1"
_symmetry_group_IT_number 2
_symmetry_cell_setting 'triclinic'
loop_
_space_group_symop_operation_xyz
x,y,z
-x,-y,-z
loop_
_atom_site_type_symbol
_atom_site_label
_atom_site_fract_x
_atom_site_fract_y
_atom_site_fract_z
Si Si1 0.873104 0.694896 0.046925
Si Si2 0.127864 0.005191 0.830050
Si Si3 0.240242 0.147611 0.183971
Si Si4 0.564574 0.761354 0.264176
Si Si5 0.538713 0.402477 0.817672
Si Si6 0.460046 0.707059 0.653245
Si Si7 0.853786 0.040816 0.540256
Si Si8 0.453854 0.117203 0.212133
O O1 0.885862 0.826173 0.121538
O O2 0.717896 0.724672 0.187175
O O3 0.867726 0.738690 0.872605
O O4 0.000000 0.500000 0.000000
O O5 0.283420 0.845721 0.785868
O O6 0.132234 0.984956 0.648270
O O7 0.000000 0.000000 0.000000
O O8 0.307630 0.223753 0.221294
O O9 0.171038 0.086547 0.351940
O O10 0.393248 0.983449 0.997674
O O11 0.561008 0.661044 0.133219
O O12 0.507982 0.708529 0.447437
O O13 0.459345 0.964283 0.297144
O O14 0.508656 0.533352 0.702419
O O15 0.708053 0.232602 0.682954
O O16 0.500000 0.500000 0.000000
O O17 0.534664 0.773349 0.685697
O O18 0.000000 0.000000 0.500000
#
# Coordination Sequence:
#
# PCOD9104031 Si02
#       8
#     2   2   2   2   2   2   2   2
#     4  11  27  45  72 103 140 187 237 297 359 426
#     4  12  27  46  73 101 145 196 237 293 369 426
#     4  10  20  41  68  95 136 179 225 280 354 413
#     4  11  23  43  71  99 139 179 241 291 347 425
#     4  12  28  43  71 108 143 185 244 298 350 419
#     4  12  24  42  73 104 137 182 244 295 353 416
#     4  12  27  46  71 103 148 191 236 287 364 438
#     4  10  20  38  73  98 132 176 233 287 354 415
#
# _framework density 20.212748000000001
#
# number of rings (size 3 to 8) (size 9 to 14) (size 15 to 20)
#    0.000    0.750    5.000    2.250    8.750    1.000 
#    0.000    0.625    0.000    0.000    0.000    0.000 
#    0.000    0.000    0.000    0.000    0.000    0.000 
#
# Total GULP energy -89420.597815 kJ/mol
# GULP energy per Si atom -5588.787363 kJ/mol
# Density = 2.016674 g / cm^3
# Si number density = 20.212748 Si / 1000 Ang^3
#
#
#
# Elastic Constant Matrix: (Units=GPa)
#
#
# Indices 1 2 3 4 5 6 
#
# 1 178.4572 75.5447 60.8920 13.2051 9.1658 18.1797
# 2 75.5447 120.6280 53.8206 -11.5956 -1.2409 1.6133
# 3 60.8920 53.8206 117.0330 -14.8213 -1.5595 6.4635
# 4 13.2051 -11.5956 -14.8213 30.5905 6.7253 -0.1631
# 5 9.1658 -1.2409 -1.5595 6.7253 33.7370 1.1234
# 6 18.1797 1.6133 6.4635 -0.1631 1.1234 40.0609
#
#
#
# Elastic Compliance Matrix: (Units=1/GPa)
#
#
# Indices 1 2 3 4 5 6 
#
# 1 0.010220 -0.005526 -0.003591 -0.007952 -0.001433 -0.003828
# 2 -0.005526 0.013511 -0.002692 0.006088 0.000580 0.002407
# 3 -0.003591 -0.002692 0.012497 0.006548 0.000157 -0.000256
# 4 -0.007952 0.006088 0.006548 0.042927 -0.005959 0.002649
# 5 -0.001433 0.000580 0.000157 -0.005959 0.031257 -0.000299
# 6 -0.003828 0.002407 -0.000256 0.002649 -0.000299 0.026663
#
#
# Mechanical properties :
#
#
# Convention : Reuss Voigt Hill
#
# Bulk Modulus (GPa) = 79.30861 88.51475 83.91168
# Shear Modulus (GPa) = 30.32209 35.93506 33.12858
#
# Velocity S-wave (km/s) = 3.87738 4.22102 4.05284
# Velocity P-wave (km/s) = 7.70503 8.22451 7.96901
#
# Compressibility (1/GPa) = 0.01260897
#
# Stress axis : x y z
#
# Youngs Moduli (GPa) = 97.84512 74.01329 80.02232
#
# Poissons Ratio (x) = 0.40902 0.28735
# Poissons Ratio (y) = 0.54073 0.21544
# Poissons Ratio (z) = 0.35134 0.19926
#
# Static dielectric constant tensor:
#      x y z
#    x 1.783620 0.005640 0.032000 
#    y 0.005640 1.699620 -0.013510 
#    z 0.032000 -0.013510 1.750800 
# 
# From -- ./inp_files/243410.got.cif
#   From: 2010.05.17/outbox.cif.g08.bks.cpg/sg2_122_cif.got.tgz:243410.got - 2010.06.03 11:33:40.
