data_PCOD9104061
_publ_section_title
;
Structure prediction by ZEFSAII (Michael W. Deem and Ramdas Pophale) SiO2 
 PCOD9104061
Probable space group: P -1
;
_chemical_formula_sum "Si O2"
_cell_formula_units_Z 16
_cell_length_a 12.466606
_cell_length_b 14.385564
_cell_length_c 8.885964
_cell_angle_alpha 68.973160
_cell_angle_beta 73.732353
_cell_angle_gamma 27.888785
_cell_volume 693.278366
_symmetry_space_group_name_H-M "P -1"
_symmetry_group_IT_number 2
_symmetry_cell_setting 'triclinic'
loop_
_space_group_symop_operation_xyz
x,y,z
-x,-y,-z
loop_
_atom_site_type_symbol
_atom_site_label
_atom_site_fract_x
_atom_site_fract_y
_atom_site_fract_z
Si Si1 0.859743 0.277216 0.057171
Si Si2 0.296593 0.926959 0.911731
Si Si3 0.536891 0.365994 0.222397
Si Si4 0.022861 0.512424 0.685366
Si Si5 0.397593 0.184075 0.493410
Si Si6 0.254930 0.444575 0.876205
Si Si7 0.877715 0.842809 0.434365
Si Si8 0.644871 0.486310 0.475872
O O1 0.724805 0.306858 0.201772
O O2 0.872068 0.376294 0.071187
O O3 0.690142 0.415528 0.899477
O O4 0.105118 0.048070 0.038618
O O5 0.354337 0.795294 0.845973
O O6 0.184731 0.098182 0.750589
O O7 0.532432 0.768275 0.994657
O O8 0.451035 0.394374 0.399503
O O9 0.246702 0.296561 0.637660
O O10 0.090124 0.491653 0.837729
O O11 0.789714 0.634391 0.664440
O O12 0.968483 0.661912 0.542073
O O13 0.500000 0.000000 0.500000
O O14 0.639746 0.050802 0.492524
O O15 0.357956 0.432849 0.706453
O O16 0.087419 0.747750 0.459780
O O17 0.500000 0.500000 0.500000
#
# Coordination Sequence:
#
# PCOD9104061 Si02
#       8
#     2   2   2   2   2   2   2   2
#     4  10  20  39  56  79 121 169 203 247 296 354
#     4  11  23  37  58  87 118 169 206 243 294 364
#     4  10  21  37  58  78 120 167 212 243 297 350
#     4   9  20  40  65  91 124 150 194 255 303 359
#     4   9  19  39  68  95 116 154 198 240 308 365
#     4  10  23  37  60  90 123 156 197 259 305 344
#     4  10  22  36  62  87 118 161 203 237 294 371
#     4  11  21  40  58  88 124 161 203 261 302 338
#
# _framework density 23.078754
#
# number of rings (size 3 to 8) (size 9 to 14) (size 15 to 20)
#    0.000    2.000    2.500    0.375    3.500    4.000 
#    0.000    1.875    0.000    7.500    0.000    0.000 
#    0.000    0.000    0.000    0.000    0.000    0.000 
#
# Total GULP energy -89319.959783 kJ/mol
# GULP energy per Si atom -5582.497486 kJ/mol
# Density = 2.302623 g / cm^3
# Si number density = 23.078754 Si / 1000 Ang^3
#
#
#
# Elastic Constant Matrix: (Units=GPa)
#
#
# Indices 1 2 3 4 5 6 
#
# 1 59.3927 46.3574 11.7633 -5.3958 23.2822 -14.7338
# 2 46.3574 147.2724 29.4793 13.1440 15.0407 -21.7493
# 3 11.7633 29.4793 92.5433 -4.2830 0.9193 -10.7311
# 4 -5.3958 13.1440 -4.2830 37.5533 -3.2164 3.0505
# 5 23.2822 15.0407 0.9193 -3.2164 35.1449 -3.8430
# 6 -14.7338 -21.7493 -10.7311 3.0505 -3.8430 26.9970
#
#
#
# Elastic Compliance Matrix: (Units=1/GPa)
#
#
# Indices 1 2 3 4 5 6 
#
# 1 0.031655 -0.007464 -0.000294 0.005053 -0.016405 0.008240
# 2 -0.007464 0.010650 -0.002198 -0.005364 0.000424 0.004299
# 3 -0.000294 -0.002198 0.011944 0.001975 0.001307 0.002780
# 4 0.005053 -0.005364 0.001975 0.029884 0.001196 -0.003985
# 5 -0.016405 0.000424 0.001307 0.001196 0.038921 -0.002687
# 6 0.008240 0.004299 0.002780 -0.003985 -0.002687 0.046174
#
#
# Mechanical properties :
#
#
# Convention : Reuss Voigt Hill
#
# Bulk Modulus (GPa) = 29.12237 52.71204 40.91721
# Shear Modulus (GPa) = 24.92709 34.04625 29.48667
#
# Velocity S-wave (km/s) = 3.29004 3.84503 3.57831
# Velocity P-wave (km/s) = 5.20370 6.52702 5.90256
#
# Compressibility (1/GPa) = 0.03433786
#
# Stress axis : x y z
#
# Youngs Moduli (GPa) = 31.59048 93.89820 83.72470
#
# Poissons Ratio (x) = 0.70086 0.02460
# Poissons Ratio (y) = 0.23579 0.18400
# Poissons Ratio (z) = 0.00928 0.20635
#
# Static dielectric constant tensor:
#      x y z
#    x 2.009540 -0.033520 -0.041270 
#    y -0.033520 1.849860 0.004800 
#    z -0.041270 0.004800 1.914240 
# 
# From -- ./inp_files/54984.got.cif
#   From: 2010.05.17/outbox.cif.g08.bks.cpg/sg2_28_cif.got.tgz:54984.got - 2010.06.03 11:33:40.
