data_PCOD9104732
_publ_section_title
;
Structure prediction by ZEFSAII (Michael W. Deem and Ramdas Pophale) SiO2 
 PCOD9104732
Probable space group: P -1
;
_chemical_formula_sum "Si O2"
_cell_formula_units_Z 16
_cell_length_a 7.891303
_cell_length_b 5.721972
_cell_length_c 18.915894
_cell_angle_alpha 93.757397
_cell_angle_beta 112.509409
_cell_angle_gamma 121.022323
_cell_volume 637.840390
_symmetry_space_group_name_H-M "P -1"
_symmetry_group_IT_number 2
_symmetry_cell_setting 'triclinic'
loop_
_space_group_symop_operation_xyz
x,y,z
-x,-y,-z
loop_
_atom_site_type_symbol
_atom_site_label
_atom_site_fract_x
_atom_site_fract_y
_atom_site_fract_z
Si Si1 0.169687 0.724668 0.882679
Si Si2 0.170785 0.723854 0.428551
Si Si3 0.879983 0.612715 0.718445
Si Si4 0.403806 0.640693 0.036203
Si Si5 0.702193 0.140390 0.395663
Si Si6 0.848929 0.833769 0.905719
Si Si7 0.132756 0.141031 0.674268
Si Si8 0.437311 0.245260 0.253725
O O1 0.015735 0.528770 0.788411
O O2 0.024607 0.841660 0.882828
O O3 0.420017 0.015821 0.915799
O O4 0.199549 0.585115 0.953378
O O5 0.225839 0.590780 0.371026
O O6 0.324937 0.847888 0.524889
O O7 0.924653 0.454897 0.414137
O O8 0.104774 0.922921 0.388282
O O9 0.695888 0.642510 0.726345
O O10 0.079728 0.926775 0.725280
O O11 0.331296 0.481944 0.096391
O O12 0.500000 0.500000 0.000000
O O13 0.498111 0.085744 0.314392
O O14 0.768925 0.931060 0.377834
O O15 0.715427 0.927969 0.842070
O O16 0.000000 0.000000 0.000000
O O17 0.324472 0.472204 0.729653
#
# Coordination Sequence:
#
# PCOD9104732 Si02
#       8
#     2   2   2   2   2   2   2   2
#     4  10  23  41  59  89 122 156 204 246 304 359
#     4   9  19  37  62  90 122 158 200 243 298 355
#     4  10  22  39  59  89 123 158 197 249 293 358
#     4  11  22  39  64  88 115 160 202 252 301 361
#     4   9  19  38  62  91 120 157 200 248 294 357
#     4  11  22  43  61  87 122 160 198 251 305 354
#     4  10  20  39  62  87 119 165 195 243 301 353
#     4  10  23  40  60  89 122 155 203 246 299 358
#
# _framework density 25.084644999999998
#
# number of rings (size 3 to 8) (size 9 to 14) (size 15 to 20)
#    0.000    2.000    1.250    1.500    0.000    6.500 
#    6.750    1.250    0.000    0.000    0.000    0.000 
#    0.000    0.000    0.000    0.000    0.000    0.000 
#
# Total GULP energy -89445.583306 kJ/mol
# GULP energy per Si atom -5590.348957 kJ/mol
# Density = 2.502755 g / cm^3
# Si number density = 25.084645 Si / 1000 Ang^3
#
#
#
# Elastic Constant Matrix: (Units=GPa)
#
#
# Indices 1 2 3 4 5 6 
#
# 1 69.0951 -4.9425 23.9989 6.6046 -2.0157 -8.9611
# 2 -4.9425 35.8129 11.8716 1.7959 5.6158 14.5231
# 3 23.9989 11.8716 145.5443 3.9994 25.4029 -0.2468
# 4 6.6046 1.7959 3.9994 23.5243 0.9649 2.3340
# 5 -2.0157 5.6158 25.4029 0.9649 33.9185 -10.8892
# 6 -8.9611 14.5231 -0.2468 2.3340 -10.8892 36.7354
#
#
#
# Elastic Compliance Matrix: (Units=1/GPa)
#
#
# Indices 1 2 3 4 5 6 
#
# 1 0.017252 0.000522 -0.003755 -0.005082 0.005831 0.006028
# 2 0.000522 0.037403 -0.001239 -0.000568 -0.010958 -0.017880
# 3 -0.003755 -0.001239 0.008894 0.000204 -0.007523 -0.002609
# 4 -0.005082 -0.000568 0.000204 0.044549 -0.003164 -0.004782
# 5 0.005831 -0.010958 -0.007523 -0.003164 0.043392 0.018767
# 6 0.006028 -0.017880 -0.002609 -0.004782 0.018767 0.041611
#
#
# Mechanical properties :
#
#
# Convention : Reuss Voigt Hill
#
# Bulk Modulus (GPa) = 18.31362 34.70091 26.50726
# Shear Modulus (GPa) = 22.70170 33.47060 28.08615
#
# Velocity S-wave (km/s) = 3.01159 3.65678 3.34975
# Velocity P-wave (km/s) = 4.40562 5.62965 5.05482
#
# Compressibility (1/GPa) = 0.05460417
#
# Stress axis : x y z
#
# Youngs Moduli (GPa) = 57.96376 26.73558 112.43615
#
# Poissons Ratio (x) = -0.01394 0.42221
# Poissons Ratio (y) = -0.03023 0.13931
# Poissons Ratio (z) = 0.21766 0.03313
#
# Static dielectric constant tensor:
#      x y z
#    x 2.007130 0.110650 -0.164180 
#    y 0.110650 2.184270 -0.197840 
#    z -0.164180 -0.197840 2.575340 
# 
# From -- ./inp_files/51562.got.cif
#   From: 2010.05.17/outbox.cif.g08.bks.cpg/sg2_26_cif.got.tgz:51562.got - 2010.06.03 11:33:40.
