data_PCOD9104879
_publ_section_title
;
Structure prediction by ZEFSAII (Michael W. Deem and Ramdas Pophale) SiO2 
 PCOD9104879
Probable space group: P -1
;
_chemical_formula_sum "Si O2"
_cell_formula_units_Z 16
_cell_length_a 13.705662
_cell_length_b 9.751010
_cell_length_c 8.309764
_cell_angle_alpha 47.454709
_cell_angle_beta 113.739768
_cell_angle_gamma 122.592380
_cell_volume 688.027685
_symmetry_space_group_name_H-M "P -1"
_symmetry_group_IT_number 2
_symmetry_cell_setting 'triclinic'
loop_
_space_group_symop_operation_xyz
x,y,z
-x,-y,-z
loop_
_atom_site_type_symbol
_atom_site_label
_atom_site_fract_x
_atom_site_fract_y
_atom_site_fract_z
Si Si1 0.651139 0.629210 0.669412
Si Si2 0.873431 0.329747 0.373961
Si Si3 0.694478 0.634955 0.335238
Si Si4 0.626088 0.216931 0.129213
Si Si5 0.867977 0.446644 0.646957
Si Si6 0.876672 0.963273 0.514977
Si Si7 0.486238 0.683631 0.747015
Si Si8 0.724376 0.049088 0.068309
O O1 0.629203 0.620940 0.471833
O O2 0.789897 0.742792 0.688530
O O3 0.610575 0.403710 0.884158
O O4 0.592354 0.753155 0.636188
O O5 0.756378 0.304906 0.222155
O O6 0.866790 0.387212 0.507266
O O7 0.882710 0.113769 0.543319
O O8 0.998230 0.479573 0.266058
O O9 0.816476 0.620875 0.471070
O O10 0.627020 0.440445 0.336545
O O11 0.698383 0.848777 0.101010
O O12 0.537392 0.167480 0.260148
O O13 0.625174 0.063122 0.109396
O O14 0.782998 0.256862 0.844567
O O15 0.813714 0.025902 0.275942
O O16 0.000000 0.000000 0.500000
O O17 0.500000 0.500000 0.000000
#
# Coordination Sequence:
#
# PCOD9104879 Si02
#       8
#     2   2   2   2   2   2   2   2
#     4  10  21  38  66  92 124 170 212 255 322 367
#     4  10  22  38  59  92 132 163 215 256 311 382
#     4  11  21  43  65  92 127 165 210 262 311 382
#     4  10  20  39  62  93 127 169 209 259 315 371
#     4  11  22  40  63  94 128 173 204 262 320 368
#     4  10  22  39  62  97 129 164 212 259 309 380
#     4  10  22  40  66  89 127 170 210 263 318 370
#     4  10  23  38  66  94 127 162 216 253 315 382
#
# _framework density 23.254877
#
# number of rings (size 3 to 8) (size 9 to 14) (size 15 to 20)
#    0.000    1.750    2.500    1.875    1.750    3.000 
#    0.000   10.000   11.000    0.000    0.000    0.000 
#    0.000    0.000    0.000    0.000    0.000    0.000 
#
# Total GULP energy -89293.306606 kJ/mol
# GULP energy per Si atom -5580.831663 kJ/mol
# Density = 2.320195 g / cm^3
# Si number density = 23.254877 Si / 1000 Ang^3
#
#
#
# Elastic Constant Matrix: (Units=GPa)
#
#
# Indices 1 2 3 4 5 6 
#
# 1 131.1143 28.2668 9.6004 6.6533 5.7184 -22.0880
# 2 28.2668 51.9294 -1.6415 -10.8525 -1.6518 -24.6163
# 3 9.6004 -1.6415 58.7530 -4.3816 -3.7009 -8.3306
# 4 6.6533 -10.8525 -4.3816 22.0230 -2.1069 9.5767
# 5 5.7184 -1.6518 -3.7009 -2.1069 29.8111 3.8009
# 6 -22.0880 -24.6163 -8.3306 9.5767 3.8009 48.2043
#
#
#
# Elastic Compliance Matrix: (Units=1/GPa)
#
#
# Indices 1 2 3 4 5 6 
#
# 1 0.010162 -0.005923 -0.002209 -0.008132 -0.003527 0.003144
# 2 -0.005923 0.030647 0.004544 0.013368 0.002962 0.010833
# 3 -0.002209 0.004544 0.018557 0.005494 0.002961 0.003190
# 4 -0.008132 0.013368 0.005494 0.060052 0.008315 -0.008536
# 5 -0.003527 0.002962 0.002961 0.008315 0.035860 -0.004072
# 6 0.003144 0.010833 0.003190 -0.008536 -0.004072 0.030286
#
#
# Mechanical properties :
#
#
# Convention : Reuss Voigt Hill
#
# Bulk Modulus (GPa) = 19.16072 34.91645 27.03859
# Shear Modulus (GPa) = 23.79413 33.71241 28.75327
#
# Velocity S-wave (km/s) = 3.20220 3.81161 3.52012
# Velocity P-wave (km/s) = 4.68289 5.86673 5.30792
#
# Compressibility (1/GPa) = 0.05219011
#
# Stress axis : x y z
#
# Youngs Moduli (GPa) = 98.40933 32.62915 53.88853
#
# Poissons Ratio (x) = 0.19325 0.11903
# Poissons Ratio (y) = 0.58284 -0.24484
# Poissons Ratio (z) = 0.21737 -0.14825
#
# Static dielectric constant tensor:
#      x y z
#    x 1.944150 0.034480 -0.012030 
#    y 0.034480 2.007990 -0.042060 
#    z -0.012030 -0.042060 1.859800 
# 
# From -- ./inp_files/297505.got.cif
#   From: 2010.05.17/outbox.cif.g08.bks.cpg/sg2_149_cif.got.tgz:297505.got - 2010.06.03 11:33:40.
