data_PCOD9104913
_publ_section_title
;
Structure prediction by ZEFSAII (Michael W. Deem and Ramdas Pophale) SiO2 
 PCOD9104913
Probable space group: P -1
;
_chemical_formula_sum "Si O2"
_cell_formula_units_Z 14
_cell_length_a 12.174256
_cell_length_b 9.765216
_cell_length_c 15.628548
_cell_angle_alpha 132.218216
_cell_angle_beta 153.946761
_cell_angle_gamma 48.213299
_cell_volume 593.023516
_symmetry_space_group_name_H-M "P -1"
_symmetry_group_IT_number 2
_symmetry_cell_setting 'triclinic'
loop_
_space_group_symop_operation_xyz
x,y,z
-x,-y,-z
loop_
_atom_site_type_symbol
_atom_site_label
_atom_site_fract_x
_atom_site_fract_y
_atom_site_fract_z
Si Si1 0.271012 0.024143 0.917316
Si Si2 0.071509 0.485043 0.197246
Si Si3 0.164096 0.835158 0.925013
Si Si4 0.564987 0.651744 0.743258
Si Si5 0.096709 0.879688 0.434409
Si Si6 0.743314 0.631564 0.545539
Si Si7 0.276897 0.806628 0.185325
O O1 0.012671 0.010264 0.680781
O O2 0.315029 0.884516 0.969355
O O3 0.260938 0.232548 0.035129
O O4 0.500000 0.000000 0.000000
O O5 0.259717 0.499756 0.256940
O O6 0.986916 0.685852 0.267506
O O7 0.233960 0.353536 0.329028
O O8 0.854635 0.375718 0.970724
O O9 0.024967 0.661294 0.731474
O O10 0.311494 0.812627 0.109067
O O11 0.929688 0.012566 0.852911
O O12 0.393961 0.803112 0.624205
O O13 0.360848 0.563764 0.617876
O O14 0.000000 0.000000 0.500000
O O15 0.531989 0.775687 0.406564
#
# Coordination Sequence:
#
# PCOD9104913 Si02
#       7
#     2   2   2   2   2   2   2
#     4  12  25  43  66  92 128 175 218 266 324 379
#     4  10  22  38  67 102 129 165 220 269 320 384
#     4  10  23  38  60  95 131 165 220 264 321 392
#     4  11  23  41  66 100 130 167 221 269 317 391
#     4  11  23  40  63  95 132 165 210 271 324 379
#     4  10  21  37  62  95 131 167 206 265 337 379
#     4  10  20  39  62  95 133 170 207 271 326 382
#
# _framework density 23.607831999999998
#
# number of rings (size 3 to 8) (size 9 to 14) (size 15 to 20)
#    0.000    1.429    2.857    3.000    4.000    2.286 
#    0.000    0.714    0.000    8.571    0.000    0.000 
#    0.000    0.000    0.000    0.000    0.000    0.000 
#
# Total GULP energy -78164.068251 kJ/mol
# GULP energy per Si atom -5583.147732 kJ/mol
# Density = 2.355410 g / cm^3
# Si number density = 23.607832 Si / 1000 Ang^3
#
#
#
# Elastic Constant Matrix: (Units=GPa)
#
#
# Indices 1 2 3 4 5 6 
#
# 1 113.2515 34.7906 22.2450 5.9966 -3.5604 16.7857
# 2 34.7906 53.7689 14.8515 6.1724 -4.2243 3.7518
# 3 22.2450 14.8515 122.1698 -7.9835 -22.2245 4.3166
# 4 5.9966 6.1724 -7.9835 54.4269 8.0151 -2.9603
# 5 -3.5604 -4.2243 -22.2245 8.0151 23.2532 2.5289
# 6 16.7857 3.7518 4.3166 -2.9603 2.5289 38.8055
#
#
#
# Elastic Compliance Matrix: (Units=1/GPa)
#
#
# Indices 1 2 3 4 5 6 
#
# 1 0.011912 -0.006938 -0.001187 -0.000978 0.000249 -0.004441
# 2 -0.006938 0.023933 -0.001307 -0.002538 0.002862 0.000453
# 3 -0.001187 -0.001307 0.010344 0.000342 0.009469 -0.001102
# 4 -0.000978 -0.002538 0.000342 0.020066 -0.007489 0.002649
# 5 0.000249 0.002862 0.009469 -0.007489 0.055809 -0.005646
# 6 -0.004441 0.000453 -0.001102 0.002649 -0.005646 0.028339
#
#
# Mechanical properties :
#
#
# Convention : Reuss Voigt Hill
#
# Bulk Modulus (GPa) = 36.59778 48.10714 42.35246
# Shear Modulus (GPa) = 28.03048 37.78397 32.90722
#
# Velocity S-wave (km/s) = 3.44952 4.00495 3.73756
# Velocity P-wave (km/s) = 5.60371 6.46591 6.05019
#
# Compressibility (1/GPa) = 0.02732406
#
# Stress axis : x y z
#
# Youngs Moduli (GPa) = 83.94694 41.78317 96.67102
#
# Poissons Ratio (x) = 0.28990 0.11478
# Poissons Ratio (y) = 0.58243 0.12639
# Poissons Ratio (z) = 0.09967 0.05463
#
# Static dielectric constant tensor:
#      x y z
#    x 1.856250 0.060890 -0.008190 
#    y 0.060890 1.990980 -0.034390 
#    z -0.008190 -0.034390 1.936750 
# 
# From -- ./inp_files/514651.got.cif
#   From: 2010.05.17/outbox.cif.g08.bks.cpg/sg2_258_cif.got.tgz:514651.got - 2010.06.03 11:33:40.
