data_PCOD9104223
_publ_section_title
;
Structure prediction by ZEFSAII (Michael W. Deem and Ramdas Pophale) SiO2 
 PCOD9104223
Probable space group: P -1
;
_chemical_formula_sum "Si O2"
_cell_formula_units_Z 16
_cell_length_a 18.166219
_cell_length_b 7.988158
_cell_length_c 8.501511
_cell_angle_alpha 58.749877
_cell_angle_beta 78.650115
_cell_angle_gamma 123.160386
_cell_volume 654.278200
_symmetry_space_group_name_H-M "P -1"
_symmetry_group_IT_number 2
_symmetry_cell_setting 'triclinic'
loop_
_space_group_symop_operation_xyz
x,y,z
-x,-y,-z
loop_
_atom_site_type_symbol
_atom_site_label
_atom_site_fract_x
_atom_site_fract_y
_atom_site_fract_z
Si Si1 0.223868 0.715180 0.639681
Si Si2 0.871611 0.974248 0.642690
Si Si3 0.379695 0.796143 0.738933
Si Si4 0.745525 0.849047 0.024989
Si Si5 0.584258 0.791189 0.941508
Si Si6 0.640213 0.398313 0.832628
Si Si7 0.958631 0.721041 0.838659
Si Si8 0.189314 0.271661 0.673455
O O1 0.323650 0.873657 0.650661
O O2 0.171655 0.406533 0.742165
O O3 0.300512 0.940006 0.349439
O O4 0.117164 0.567959 0.870150
O O5 0.986549 0.259221 0.352073
O O6 0.752734 0.748618 0.691335
O O7 0.889929 0.781407 0.780436
O O8 0.857020 0.086053 0.744095
O O9 0.309413 0.461343 0.874730
O O10 0.500000 0.000000 0.500000
O O11 0.382463 0.802998 0.921245
O O12 0.781647 0.868413 0.175908
O O13 0.645185 0.806036 0.056054
O O14 0.500000 0.500000 0.000000
O O15 0.485872 0.749401 0.059275
O O16 0.697782 0.449989 0.619805
O O17 0.073432 0.024287 0.738010
#
# Coordination Sequence:
#
# PCOD9104223 Si02
#       8
#     2   2   2   2   2   2   2   2
#     4  11  21  34  57  91 109 145 192 227 285 333
#     4   9  17  32  60  85 109 140 190 229 279 327
#     4  10  16  33  55  81 105 137 192 235 270 321
#     4  10  20  36  54  80 109 155 185 220 287 332
#     4  12  22  38  61  78 115 154 187 232 277 335
#     4  10  19  34  59  85 112 142 186 229 288 322
#     4  10  18  34  59  86 113 142 187 241 275 319
#     4  10  22  36  58  83 118 146 184 235 280 331
#
# _framework density 24.454429999999999
#
# number of rings (size 3 to 8) (size 9 to 14) (size 15 to 20)
#    0.000    1.750    7.500    0.375    0.000    1.000 
#    0.000    1.250    2.750    0.000    0.000    0.000 
#    0.000    0.000    0.000    0.000    0.000    0.000 
#
# Total GULP energy -89172.245581 kJ/mol
# GULP energy per Si atom -5573.265349 kJ/mol
# Density = 2.439877 g / cm^3
# Si number density = 24.454430 Si / 1000 Ang^3
#
#
#
# Elastic Constant Matrix: (Units=GPa)
#
#
# Indices 1 2 3 4 5 6 
#
# 1 103.0161 25.3206 29.1672 8.0400 -5.8166 37.0107
# 2 25.3206 49.3008 18.7412 11.6892 -7.6948 11.8552
# 3 29.1672 18.7412 153.7364 10.6879 -37.0936 8.7171
# 4 8.0400 11.6892 10.6879 37.9691 7.8011 -1.4575
# 5 -5.8166 -7.6948 -37.0936 7.8011 30.4103 1.8740
# 6 37.0107 11.8552 8.7171 -1.4575 1.8740 29.4826
#
#
#
# Elastic Compliance Matrix: (Units=1/GPa)
#
#
# Indices 1 2 3 4 5 6 
#
# 1 0.019995 -0.001855 -0.000306 -0.005766 0.005998 -0.024931
# 2 -0.001855 0.027812 0.001144 -0.011281 0.011618 -0.010489
# 3 -0.000306 0.001144 0.010902 -0.006726 0.015539 -0.004620
# 4 -0.005766 -0.011281 -0.006726 0.038317 -0.023046 0.017123
# 5 0.005998 0.011618 0.015539 -0.023046 0.063189 -0.021951
# 6 -0.024931 -0.010489 -0.004620 0.017123 -0.021951 0.073041
#
#
# Mechanical properties :
#
#
# Convention : Reuss Voigt Hill
#
# Bulk Modulus (GPa) = 17.64442 50.27903 33.96173
# Shear Modulus (GPa) = 19.67095 35.09400 27.38247
#
# Velocity S-wave (km/s) = 2.83926 3.79235 3.34987
# Velocity P-wave (km/s) = 4.24021 6.30720 5.37402
#
# Compressibility (1/GPa) = 0.05667514
#
# Stress axis : x y z
#
# Youngs Moduli (GPa) = 50.01128 35.95594 91.72605
#
# Poissons Ratio (x) = 0.06669 0.02805
# Poissons Ratio (y) = 0.09277 -0.10490
# Poissons Ratio (z) = 0.01530 -0.04112
#
# Static dielectric constant tensor:
#      x y z
#    x 2.001420 -0.070830 -0.078660 
#    y -0.070830 1.976020 0.076500 
#    z -0.078660 0.076500 2.436120 
# 
# From -- ./inp_files/185771.got.cif
#   From: 2010.05.17/outbox.cif.g08.bks.cpg/sg2_93_cif.got.tgz:185771.got - 2010.06.03 11:33:40.
