data_PCOD9104596
_publ_section_title
;
Structure prediction by ZEFSAII (Michael W. Deem and Ramdas Pophale) SiO2 
 PCOD9104596
Probable space group: P -1
;
_chemical_formula_sum "Si O2"
_cell_formula_units_Z 16
_cell_length_a 25.366796
_cell_length_b 18.800114
_cell_length_c 15.002496
_cell_angle_alpha 20.398574
_cell_angle_beta 150.144920
_cell_angle_gamma 160.649807
_cell_volume 817.220582
_symmetry_space_group_name_H-M "P -1"
_symmetry_group_IT_number 2
_symmetry_cell_setting 'triclinic'
loop_
_space_group_symop_operation_xyz
x,y,z
-x,-y,-z
loop_
_atom_site_type_symbol
_atom_site_label
_atom_site_fract_x
_atom_site_fract_y
_atom_site_fract_z
Si Si1 0.706315 0.357293 0.612334
Si Si2 0.304561 0.062778 0.815255
Si Si3 0.105107 0.228658 0.768983
Si Si4 0.370324 0.953275 0.666173
Si Si5 0.918141 0.217425 0.645584
Si Si6 0.199401 0.286162 0.195959
Si Si7 0.013192 0.905396 0.537529
Si Si8 0.426238 0.222722 0.617107
O O1 0.773791 0.512549 0.432053
O O2 0.843124 0.613009 0.585366
O O3 0.539827 0.227915 0.542467
O O4 0.683193 0.081242 0.918552
O O5 0.386512 0.087491 0.817080
O O6 0.401850 0.414585 0.560530
O O7 0.122071 0.862607 0.762956
O O8 0.056409 0.326600 0.655482
O O9 0.938900 0.934548 0.820255
O O10 0.153031 0.084825 0.053575
O O11 0.226061 0.887417 0.497691
O O12 0.400193 0.031786 0.722716
O O13 0.311738 0.640104 0.929234
O O14 0.000000 0.500000 0.500000
O O15 0.300965 0.226868 0.415687
O O16 0.112000 0.180639 0.286910
O O17 0.000000 0.000000 0.500000
#
# Coordination Sequence:
#
# PCOD9104596 Si02
#       8
#     2   2   2   2   2   2   2   2
#     4  11  24  40  61  96 128 163 205 263 318 359
#     4  10  21  39  60  86 132 170 212 246 311 354
#     4  10  23  45  65  92 128 155 206 267 315 375
#     4  12  23  38  69  94 123 164 214 253 314 369
#     4  11  23  43  72  92 116 167 211 252 318 392
#     4  10  20  39  61  90 124 164 211 250 308 373
#     4  10  22  37  56  89 128 169 211 253 299 370
#     4  10  21  38  60  93 125 168 211 260 283 368
#
# _framework density 19.578558000000001
#
# number of rings (size 3 to 8) (size 9 to 14) (size 15 to 20)
#    0.000    1.500    3.750    1.125    1.750    2.000 
#    2.250    0.625    0.000    0.000    0.000    0.000 
#    0.000    0.000    0.000    0.000    0.000    0.000 
#
# Total GULP energy -89377.204404 kJ/mol
# GULP energy per Si atom -5586.075275 kJ/mol
# Density = 1.953400 g / cm^3
# Si number density = 19.578558 Si / 1000 Ang^3
#
#
#
# Elastic Constant Matrix: (Units=GPa)
#
#
# Indices 1 2 3 4 5 6 
#
# 1 115.7158 12.6760 37.2859 -17.7547 5.4168 -5.5371
# 2 12.6760 60.3665 6.2876 -7.5192 7.4006 8.0382
# 3 37.2859 6.2876 67.5261 -0.4274 -4.5923 10.1435
# 4 -17.7547 -7.5192 -0.4274 29.5689 1.8250 -1.8309
# 5 5.4168 7.4006 -4.5923 1.8250 21.5626 -1.0614
# 6 -5.5371 8.0382 10.1435 -1.8309 -1.0614 27.3006
#
#
#
# Elastic Compliance Matrix: (Units=1/GPa)
#
#
# Indices 1 2 3 4 5 6 
#
# 1 0.013359 -0.001116 -0.008560 0.008341 -0.005178 0.006576
# 2 -0.001116 0.019008 -0.000776 0.004245 -0.007040 -0.005523
# 3 -0.008560 -0.000776 0.021494 -0.006057 0.007033 -0.009626
# 4 0.008341 0.004245 -0.006057 0.040631 -0.008030 0.005105
# 5 -0.005178 -0.007040 0.007033 -0.008030 0.052267 -0.000097
# 6 0.006576 -0.005523 -0.009626 0.005105 -0.000097 0.043504
#
#
# Mechanical properties :
#
#
# Convention : Reuss Voigt Hill
#
# Bulk Modulus (GPa) = 30.34186 39.56749 34.95468
# Shear Modulus (GPa) = 22.50711 28.17702 25.34206
#
# Velocity S-wave (km/s) = 3.39422 3.79776 3.60165
# Velocity P-wave (km/s) = 5.55807 6.28364 5.93196
#
# Compressibility (1/GPa) = 0.03295776
#
# Stress axis : x y z
#
# Youngs Moduli (GPa) = 74.85543 52.60972 46.52491
#
# Poissons Ratio (x) = 0.05869 0.39825
# Poissons Ratio (y) = 0.08350 0.03611
# Poissons Ratio (z) = 0.64075 0.04083
#
# Static dielectric constant tensor:
#      x y z
#    x 1.683390 -0.001650 -0.002920 
#    y -0.001650 1.703930 0.013470 
#    z -0.002920 0.013470 1.699430 
# 
# From -- ./inp_files/37326.got.cif
#   From: 2010.05.17/outbox.cif.g08.bks.cpg/sg2_19_cif.got.tgz:37326.got - 2010.06.03 11:33:40.
