data_PCOD9104005
_publ_section_title
;
Structure prediction by ZEFSAII (Michael W. Deem and Ramdas Pophale) SiO2 
 PCOD9104005
Probable space group: P -1
;
_chemical_formula_sum "Si O2"
_cell_formula_units_Z 16
_cell_length_a 26.181399
_cell_length_b 15.476479
_cell_length_c 9.610894
_cell_angle_alpha 141.670451
_cell_angle_beta 131.633162
_cell_angle_gamma 18.045440
_cell_volume 677.474144
_symmetry_space_group_name_H-M "P -1"
_symmetry_group_IT_number 2
_symmetry_cell_setting 'triclinic'
loop_
_space_group_symop_operation_xyz
x,y,z
-x,-y,-z
loop_
_atom_site_type_symbol
_atom_site_label
_atom_site_fract_x
_atom_site_fract_y
_atom_site_fract_z
Si Si1 0.687369 0.048978 0.501423
Si Si2 0.812618 0.322398 0.650842
Si Si3 0.449249 0.390514 0.009821
Si Si4 0.875900 0.904871 0.219468
Si Si5 0.702087 0.819135 0.989976
Si Si6 0.018525 0.548380 0.318658
Si Si7 0.181966 0.685696 0.016878
Si Si8 0.327271 0.125662 0.484058
O O1 0.633898 0.055377 0.281177
O O2 0.683947 0.956970 0.511413
O O3 0.566831 0.413525 0.763876
O O4 0.890464 0.722734 0.423496
O O5 0.843873 0.264327 0.800410
O O6 0.682872 0.695410 0.846122
O O7 0.000000 0.000000 0.500000
O O8 0.759077 0.264982 0.443099
O O9 0.500091 0.237941 0.757415
O O10 0.265667 0.669851 0.090479
O O11 0.600955 0.044568 0.950918
O O12 0.889168 0.834082 0.315127
O O13 0.084073 0.554477 0.116260
O O14 0.846805 0.826429 0.970991
O O15 0.145087 0.433512 0.454246
O O16 0.317334 0.302939 0.739476
O O17 0.000000 0.000000 0.000000
#
# Coordination Sequence:
#
# PCOD9104005 Si02
#       8
#     2   2   2   2   2   2   2   2
#     4  11  23  43  66 101 137 176 231 278 336 399
#     4  10  21  42  69 103 131 174 225 283 336 393
#     4  12  26  45  68  96 137 190 223 275 347 400
#     4   9  18  37  66 103 132 170 231 270 333 396
#     4  10  21  42  68  95 138 175 225 283 331 400
#     4  10  20  38  71  99 132 181 223 280 327 400
#     4  12  27  47  71  99 137 180 227 279 341 416
#     4  12  24  46  65 101 142 178 223 281 339 407
#
# _framework density 23.617138000000001
#
# number of rings (size 3 to 8) (size 9 to 14) (size 15 to 20)
#    0.000    1.250    2.500    3.750    1.750    0.500 
#    2.250    0.000    0.000    0.000    0.000    0.000 
#    0.000    0.000    0.000    0.000    0.000    0.000 
#
# Total GULP energy -89609.219580 kJ/mol
# GULP energy per Si atom -5600.576224 kJ/mol
# Density = 2.356338 g / cm^3
# Si number density = 23.617138 Si / 1000 Ang^3
#
#
#
# Elastic Constant Matrix: (Units=GPa)
#
#
# Indices 1 2 3 4 5 6 
#
# 1 93.4287 7.5541 53.8410 12.3433 -8.8067 18.3176
# 2 7.5541 23.5106 1.6857 3.3441 -3.4043 -4.0182
# 3 53.8410 1.6857 150.1446 1.9495 15.3073 17.3192
# 4 12.3433 3.3441 1.9495 21.4737 9.5053 -1.7294
# 5 -8.8067 -3.4043 15.3073 9.5053 63.6989 6.2659
# 6 18.3176 -4.0182 17.3192 -1.7294 6.2659 34.0794
#
#
#
# Elastic Compliance Matrix: (Units=1/GPa)
#
#
# Indices 1 2 3 4 5 6 
#
# 1 0.018846 -0.004350 -0.006136 -0.013356 0.006770 -0.009447
# 2 -0.004350 0.046120 0.000092 -0.004947 0.001878 0.007133
# 3 -0.006136 0.000092 0.009234 0.004249 -0.003648 -0.000497
# 4 -0.013356 -0.004947 0.004249 0.061305 -0.013262 0.009985
# 5 0.006770 0.001878 -0.003648 -0.013262 0.020176 -0.005946
# 6 -0.009447 0.007133 -0.000497 0.009985 -0.005946 0.037115
#
#
# Mechanical properties :
#
#
# Convention : Reuss Voigt Hill
#
# Bulk Modulus (GPa) = 18.72274 43.69394 31.20834
# Shear Modulus (GPa) = 21.60884 37.45060 29.52972
#
# Velocity S-wave (km/s) = 3.02812 3.98645 3.53987
# Velocity P-wave (km/s) = 4.49119 6.30319 5.47271
#
# Compressibility (1/GPa) = 0.05341100
#
# Stress axis : x y z
#
# Youngs Moduli (GPa) = 53.06146 21.68273 108.29860
#
# Poissons Ratio (x) = 0.09432 0.66456
# Poissons Ratio (y) = 0.23081 -0.00997
# Poissons Ratio (z) = 0.32560 -0.00200
#
# Static dielectric constant tensor:
#      x y z
#    x 1.883860 -0.020470 -0.015430 
#    y -0.020470 1.889920 0.033420 
#    z -0.015430 0.033420 1.940330 
# 
# From -- ./inp_files/357464.got.cif
#   From: 2010.05.17/outbox.cif.g08.bks.cpg/sg2_179_cif.got.tgz:357464.got - 2010.06.03 11:33:40.
