data_PCOD9104351
_publ_section_title
;
Structure prediction by ZEFSAII (Michael W. Deem and Ramdas Pophale) SiO2 
 PCOD9104351
Probable space group: P -1
;
_chemical_formula_sum "Si O2"
_cell_formula_units_Z 14
_cell_length_a 11.286178
_cell_length_b 8.558756
_cell_length_c 10.847843
_cell_angle_alpha 47.132126
_cell_angle_beta 104.040679
_cell_angle_gamma 128.659133
_cell_volume 568.450461
_symmetry_space_group_name_H-M "P -1"
_symmetry_group_IT_number 2
_symmetry_cell_setting 'triclinic'
loop_
_space_group_symop_operation_xyz
x,y,z
-x,-y,-z
loop_
_atom_site_type_symbol
_atom_site_label
_atom_site_fract_x
_atom_site_fract_y
_atom_site_fract_z
Si Si1 0.404489 0.643919 0.517418
Si Si2 0.747764 0.436436 0.864432
Si Si3 0.877048 0.623161 0.267421
Si Si4 0.196168 0.233321 0.064073
Si Si5 0.668128 0.934656 0.234713
Si Si6 0.649078 0.755960 0.696148
Si Si7 0.928781 0.249504 0.347169
O O1 0.244594 0.586467 0.544632
O O2 0.511330 0.831198 0.328324
O O3 0.349759 0.336520 0.649776
O O4 0.528009 0.778775 0.590657
O O5 0.805644 0.573394 0.943179
O O6 0.618606 0.478816 0.788848
O O7 0.893559 0.625394 0.705639
O O8 0.695824 0.134006 0.025520
O O9 0.939459 0.497454 0.271770
O O10 0.780143 0.660403 0.125049
O O11 0.025554 0.925820 0.189381
O O12 0.330804 0.233343 0.158132
O O13 0.820626 0.121862 0.265276
O O14 0.824911 0.004379 0.552512
#
# Coordination Sequence:
#
# PCOD9104351 Si02
#       7
#     2   2   2   2   2   2   2
#     4  10  23  40  61  87 122 151 199 239 294 353
#     4  10  20  39  60  88 115 155 198 245 280 353
#     4  11  22  38  63  90 115 156 196 243 290 352
#     4   9  22  39  59  89 117 154 199 239 293 341
#     4  10  21  38  62  87 113 162 195 242 284 350
#     4   9  22  40  58  87 122 155 192 242 296 341
#     4  11  20  36  66  89 117 152 200 243 292 338
#
# _framework density 24.628356
#
# number of rings (size 3 to 8) (size 9 to 14) (size 15 to 20)
#    0.857    1.143    1.429    1.714    4.000    4.000 
#    0.000    0.000    3.143    0.000    0.000    0.000 
#    0.000    0.000    0.000    0.000    0.000    0.000 
#
# Total GULP energy -78224.041402 kJ/mol
# GULP energy per Si atom -5587.431529 kJ/mol
# Density = 2.457230 g / cm^3
# Si number density = 24.628356 Si / 1000 Ang^3
#
#
#
# Elastic Constant Matrix: (Units=GPa)
#
#
# Indices 1 2 3 4 5 6 
#
# 1 41.4052 -0.3153 7.6028 -1.3113 -18.8844 -8.6849
# 2 -0.3153 60.1901 11.9079 -2.1848 0.1004 3.3632
# 3 7.6028 11.9079 57.7219 -12.6395 -3.6127 9.7329
# 4 -1.3113 -2.1848 -12.6395 31.9968 2.2785 5.3732
# 5 -18.8844 0.1004 -3.6127 2.2785 41.3420 -4.1962
# 6 -8.6849 3.3632 9.7329 5.3732 -4.1962 9.5402
#
#
#
# Elastic Compliance Matrix: (Units=1/GPa)
#
#
# Indices 1 2 3 4 5 6 
#
# 1 0.142571 -0.003208 -0.081764 -0.084174 0.093361 0.302808
# 2 -0.003208 0.017495 -0.000919 0.002742 -0.002850 -0.010949
# 3 -0.081764 -0.000919 0.075007 0.065861 -0.055975 -0.212347
# 4 -0.084174 0.002742 0.065861 0.096265 -0.060925 -0.225802
# 5 0.093361 -0.002850 -0.055975 -0.060925 0.087209 0.215774
# 6 0.302808 -0.010949 -0.212347 -0.225802 0.215774 0.823061
#
#
# Mechanical properties :
#
#
# Convention : Reuss Voigt Hill
#
# Bulk Modulus (GPa) = 15.79970 21.96757 18.88363
# Shear Modulus (GPa) = 3.48557 25.91724 14.70141
#
# Velocity S-wave (km/s) = 1.19094 3.24749 2.44587
# Velocity P-wave (km/s) = 2.88449 4.79589 3.95733
#
# Compressibility (1/GPa) = 0.06329236
#
# Stress axis : x y z
#
# Youngs Moduli (GPa) = 7.01406 57.15917 13.33205
#
# Poissons Ratio (x) = 0.18336 1.09008
# Poissons Ratio (y) = 0.02250 0.01225
# Poissons Ratio (z) = 0.57350 0.05250
#
# Static dielectric constant tensor:
#      x y z
#    x 1.946920 0.010540 0.042990 
#    y 0.010540 1.955170 -0.000600 
#    z 0.042990 -0.000600 1.930990 
# 
# From -- ./inp_files/418922.got.cif
#   From: 2010.05.17/outbox.cif.g08.bks.cpg/sg2_210_cif.got.tgz:418922.got - 2010.06.03 11:33:40.
