data_PCOD9104432
_publ_section_title
;
Structure prediction by ZEFSAII (Michael W. Deem and Ramdas Pophale) SiO2 
 PCOD9104432
Probable space group: P -1
;
_chemical_formula_sum "Si O2"
_cell_formula_units_Z 16
_cell_length_a 11.863608
_cell_length_b 24.819109
_cell_length_c 5.331455
_cell_angle_alpha 79.184113
_cell_angle_beta 109.932043
_cell_angle_gamma 151.165337
_cell_volume 690.091427
_symmetry_space_group_name_H-M "P -1"
_symmetry_group_IT_number 2
_symmetry_cell_setting 'triclinic'
loop_
_space_group_symop_operation_xyz
x,y,z
-x,-y,-z
loop_
_atom_site_type_symbol
_atom_site_label
_atom_site_fract_x
_atom_site_fract_y
_atom_site_fract_z
Si Si1 0.916173 0.380907 0.957067
Si Si2 0.231154 0.597579 0.775085
Si Si3 0.383135 0.179117 0.645211
Si Si4 0.019476 0.235288 0.552669
Si Si5 0.380971 0.998345 0.732097
Si Si6 0.087439 0.969632 0.844315
Si Si7 0.923158 0.260149 0.941462
Si Si8 0.740817 0.776252 0.118865
O O1 0.667604 0.288282 0.672177
O O2 0.986077 0.346328 0.005515
O O3 0.149724 0.515144 0.973871
O O4 0.798019 0.355934 0.148282
O O5 0.000000 0.500000 0.500000
O O6 0.511721 0.694078 0.821633
O O7 0.154448 0.089372 0.354063
O O8 0.347758 0.222022 0.722252
O O9 0.317087 0.103784 0.858296
O O10 0.760933 0.095049 0.503027
O O11 0.042168 0.288502 0.744865
O O12 0.227393 0.272916 0.729012
O O13 0.002268 0.253380 0.243913
O O14 0.167298 0.950250 0.744849
O O15 0.623471 0.134381 0.758458
O O16 0.500000 0.000000 0.000000
O O17 0.997438 0.905191 0.088070
#
# Coordination Sequence:
#
# PCOD9104432 Si02
#       8
#     2   2   2   2   2   2   2   2
#     4  10  22  43  65  94 126 169 222 280 328 395
#     4  10  23  43  69  94 123 169 226 277 345 387
#     4  10  21  37  59  92 129 166 215 265 337 390
#     4  11  24  42  65  98 137 182 220 267 330 398
#     4  10  20  39  60  94 135 181 215 257 319 393
#     4  11  20  36  58  94 133 166 217 263 335 396
#     4  11  24  43  67  98 136 177 228 270 323 397
#     4  11  22  39  63  91 129 171 217 276 334 398
#
# _framework density 23.185333
#
# number of rings (size 3 to 8) (size 9 to 14) (size 15 to 20)
#    0.000    1.500    2.500    3.000    1.750    1.000 
#    0.000    1.250    0.000    0.000    0.000    0.000 
#    0.000    0.000    0.000    0.000    0.000    0.000 
#
# Total GULP energy -89185.532813 kJ/mol
# GULP energy per Si atom -5574.095801 kJ/mol
# Density = 2.313256 g / cm^3
# Si number density = 23.185333 Si / 1000 Ang^3
#
#
#
# Elastic Constant Matrix: (Units=GPa)
#
#
# Indices 1 2 3 4 5 6 
#
# 1 120.0619 21.9996 24.9704 0.1701 3.1356 -27.3438
# 2 21.9996 80.8139 -0.0858 2.6561 -1.8936 -11.0947
# 3 24.9704 -0.0858 83.2954 5.8928 4.6165 -4.5094
# 4 0.1701 2.6561 5.8928 22.8906 2.7355 -5.4086
# 5 3.1356 -1.8936 4.6165 2.7355 32.3054 3.6778
# 6 -27.3438 -11.0947 -4.5094 -5.4086 3.6778 37.9249
#
#
#
# Elastic Compliance Matrix: (Units=1/GPa)
#
#
# Indices 1 2 3 4 5 6 
#
# 1 0.011139 -0.002127 -0.003033 0.002981 -0.001897 0.007657
# 2 -0.002127 0.013316 0.000823 -0.001308 0.000729 0.002203
# 3 -0.003033 0.000823 0.013186 -0.003510 -0.001157 -0.000766
# 4 0.002981 -0.001308 -0.003510 0.047323 -0.004847 0.008568
# 5 -0.001897 0.000729 -0.001157 -0.004847 0.032340 -0.005119
# 6 0.007657 0.002203 -0.000766 0.008568 -0.005119 0.034160
#
#
# Mechanical properties :
#
#
# Convention : Reuss Voigt Hill
#
# Bulk Modulus (GPa) = 34.52048 41.99329 38.25689
# Shear Modulus (GPa) = 29.44744 34.44332 31.94538
#
# Velocity S-wave (km/s) = 3.56770 3.85848 3.71594
# Velocity P-wave (km/s) = 5.64735 6.16457 5.91162
#
# Compressibility (1/GPa) = 0.02896831
#
# Stress axis : x y z
#
# Youngs Moduli (GPa) = 89.77762 75.09535 75.83562
#
# Poissons Ratio (x) = 0.15970 0.22998
# Poissons Ratio (y) = 0.19092 -0.06238
# Poissons Ratio (z) = 0.27226 -0.06177
#
# Static dielectric constant tensor:
#      x y z
#    x 1.848610 0.025350 0.001990 
#    y 0.025350 1.967880 0.000990 
#    z 0.001990 0.000990 2.085610 
# 
# From -- ./inp_files/84323.got.cif
#   From: 2010.05.17/outbox.cif.g08.bks.cpg/sg2_43_cif.got.tgz:84323.got - 2010.06.03 11:33:40.
