data_PCOD9104006
_publ_section_title
;
Structure prediction by ZEFSAII (Michael W. Deem and Ramdas Pophale) SiO2 
 PCOD9104006
Probable space group: P -1
;
_chemical_formula_sum "Si O2"
_cell_formula_units_Z 16
_cell_length_a 7.910419
_cell_length_b 14.107889
_cell_length_c 9.548708
_cell_angle_alpha 66.269519
_cell_angle_beta 101.392368
_cell_angle_gamma 54.598085
_cell_volume 649.361596
_symmetry_space_group_name_H-M "P -1"
_symmetry_group_IT_number 2
_symmetry_cell_setting 'triclinic'
loop_
_space_group_symop_operation_xyz
x,y,z
-x,-y,-z
loop_
_atom_site_type_symbol
_atom_site_label
_atom_site_fract_x
_atom_site_fract_y
_atom_site_fract_z
Si Si1 0.898240 0.406432 0.411301
Si Si2 0.016378 0.881245 0.150396
Si Si3 0.445604 0.858287 0.907807
Si Si4 0.378828 0.940853 0.525491
Si Si5 0.329864 0.670915 0.090509
Si Si6 0.137347 0.740443 0.733267
Si Si7 0.994255 0.608092 0.255647
Si Si8 0.541194 0.305156 0.432990
O O1 0.981179 0.296000 0.363859
O O2 0.003052 0.339400 0.622567
O O3 0.950304 0.503483 0.334447
O O4 0.593772 0.524767 0.292640
O O5 0.248949 0.776181 0.361891
O O6 0.101077 0.769363 0.104671
O O7 0.749808 0.988518 0.122337
O O8 0.000000 0.000000 0.000000
O O9 0.392582 0.900507 0.712339
O O10 0.384554 0.765734 0.993193
O O11 0.740833 0.750865 0.047474
O O12 0.500590 0.799414 0.532376
O O13 0.500000 0.000000 0.500000
O O14 0.082359 0.085416 0.355390
O O15 0.263367 0.642129 0.953312
O O16 0.330016 0.714255 0.678309
O O17 0.277691 0.479776 0.314622
#
# Coordination Sequence:
#
# PCOD9104006 Si02
#       8
#     2   2   2   2   2   2   2   2
#     4  10  22  43  67 102 140 178 224 278 345 410
#     4  10  20  38  72 101 131 181 234 276 342 405
#     4  10  21  43  69 100 136 184 228 280 342 411
#     4  12  25  44  66 101 141 182 231 283 349 407
#     4  10  20  42  71 102 135 177 231 281 339 407
#     4  12  24  43  69 101 140 178 230 287 335 407
#     4  10  23  44  71  97 141 182 224 279 345 410
#     4  12  23  44  73  95 138 186 230 285 337 404
#
# _framework density 24.639582000000001
#
# number of rings (size 3 to 8) (size 9 to 14) (size 15 to 20)
#    0.000    1.250    3.750    3.000    1.750    1.000 
#    6.750    1.875    0.000    0.000    0.000    0.000 
#    0.000    0.000    0.000    0.000    0.000    0.000 
#
# Total GULP energy -89618.216002 kJ/mol
# GULP energy per Si atom -5601.138500 kJ/mol
# Density = 2.458350 g / cm^3
# Si number density = 24.639582 Si / 1000 Ang^3
#
#
#
# Elastic Constant Matrix: (Units=GPa)
#
#
# Indices 1 2 3 4 5 6 
#
# 1 103.1905 24.4528 18.6661 -2.0746 17.4474 -3.8750
# 2 24.4528 150.8301 34.4892 -5.4645 16.0908 -3.7806
# 3 18.6661 34.4892 124.6305 -0.6888 13.0732 -15.6860
# 4 -2.0746 -5.4645 -0.6888 47.6326 -4.6020 8.1067
# 5 17.4474 16.0908 13.0732 -4.6020 29.5644 -6.0853
# 6 -3.8750 -3.7806 -15.6860 8.1067 -6.0853 44.7035
#
#
#
# Elastic Compliance Matrix: (Units=1/GPa)
#
#
# Indices 1 2 3 4 5 6 
#
# 1 0.011022 -0.001011 -0.000797 -0.000169 -0.005659 -0.000150
# 2 -0.001011 0.007483 -0.001696 0.000616 -0.002740 -0.000535
# 3 -0.000797 -0.001696 0.009200 -0.000796 -0.002210 0.002859
# 4 -0.000169 0.000616 -0.000796 0.021966 0.002743 -0.003852
# 5 -0.005659 -0.002740 -0.002210 0.002743 0.040792 0.003558
# 6 -0.000150 -0.000535 0.002859 -0.003852 0.003558 0.024498
#
#
# Mechanical properties :
#
#
# Convention : Reuss Voigt Hill
#
# Bulk Modulus (GPa) = 48.31546 59.31859 53.81703
# Shear Modulus (GPa) = 38.79942 44.44963 41.62453
#
# Velocity S-wave (km/s) = 3.97253 4.25195 4.11461
# Velocity P-wave (km/s) = 6.37909 6.94494 6.66802
#
# Compressibility (1/GPa) = 0.02069731
#
# Stress axis : x y z
#
# Youngs Moduli (GPa) = 90.72426 133.63831 108.69946
#
# Poissons Ratio (x) = 0.13508 0.08666
# Poissons Ratio (y) = 0.09170 0.18433
# Poissons Ratio (z) = 0.07233 0.22662
#
# Static dielectric constant tensor:
#      x y z
#    x 2.029970 0.065500 -0.027110 
#    y 0.065500 1.971270 -0.027010 
#    z -0.027110 -0.027010 1.871720 
# 
# From -- ./inp_files/207027.got.cif
#   From: 2010.05.17/outbox.cif.g08.bks.cpg/sg2_104_cif.got.tgz:207027.got - 2010.06.03 11:33:40.
