data_PCOD9104996
_publ_section_title
;
Structure prediction by ZEFSAII (Michael W. Deem and Ramdas Pophale) SiO2 
 PCOD9104996
Probable space group: P -1
;
_chemical_formula_sum "Si O2"
_cell_formula_units_Z 16
_cell_length_a 9.531396
_cell_length_b 13.516831
_cell_length_c 10.578443
_cell_angle_alpha 150.236055
_cell_angle_beta 94.595072
_cell_angle_gamma 74.396095
_cell_volume 617.187473
_symmetry_space_group_name_H-M "P -1"
_symmetry_group_IT_number 2
_symmetry_cell_setting 'triclinic'
loop_
_space_group_symop_operation_xyz
x,y,z
-x,-y,-z
loop_
_atom_site_type_symbol
_atom_site_label
_atom_site_fract_x
_atom_site_fract_y
_atom_site_fract_z
Si Si1 0.180279 0.905568 0.374400
Si Si2 0.433239 0.163285 0.955449
Si Si3 0.331675 0.481789 0.772678
Si Si4 0.769211 0.870528 0.723953
Si Si5 0.848914 0.672719 0.749579
Si Si6 0.337148 0.757010 0.488901
Si Si7 0.921910 0.386973 0.661461
Si Si8 0.281999 0.296483 0.822196
O O1 0.282078 0.786835 0.372197
O O2 0.233566 0.100459 0.571938
O O3 0.223119 0.728155 0.069457
O O4 0.000000 0.000000 0.500000
O O5 0.391120 0.232469 0.882827
O O6 0.612684 0.068321 0.894425
O O7 0.375345 0.965405 0.748637
O O8 0.321576 0.324285 0.231868
O O9 0.266480 0.347907 0.529177
O O10 0.501094 0.444066 0.699901
O O11 0.352744 0.352608 0.764999
O O12 0.817362 0.875865 0.878641
O O13 0.915466 0.803159 0.568477
O O14 0.906751 0.603914 0.822105
O O15 0.000000 0.500000 0.500000
O O16 0.201268 0.712423 0.495642
O O17 0.867357 0.491027 0.909987
#
# Coordination Sequence:
#
# PCOD9104996 Si02
#       8
#     2   2   2   2   2   2   2   2
#     4  11  23  36  58  92 123 159 207 253 291 362
#     4   9  20  39  63  89 117 155 211 247 296 369
#     4  11  23  42  60  85 132 163 201 250 301 364
#     4  10  21  36  64  88 118 162 201 255 301 358
#     4   9  19  39  64  87 117 160 203 245 310 366
#     4  10  22  40  57  89 124 159 200 255 301 356
#     4  10  20  39  63  87 120 162 201 249 312 354
#     4  10  22  39  63  86 123 172 200 241 312 362
#
# _framework density 25.924050999999999
#
# number of rings (size 3 to 8) (size 9 to 14) (size 15 to 20)
#    0.000    2.000    1.250    1.500    1.750    6.500 
#    4.500    5.000    2.750    0.000    0.000    0.000 
#    0.000    0.000    0.000    0.000    0.000    0.000 
#
# Total GULP energy -89278.715199 kJ/mol
# GULP energy per Si atom -5579.919700 kJ/mol
# Density = 2.586505 g / cm^3
# Si number density = 25.924051 Si / 1000 Ang^3
#
#
#
# Elastic Constant Matrix: (Units=GPa)
#
#
# Indices 1 2 3 4 5 6 
#
# 1 166.2277 16.7337 39.6384 11.3010 -30.5075 -7.7826
# 2 16.7337 92.6362 4.1764 0.8219 -9.5685 -2.8623
# 3 39.6384 4.1764 78.0720 5.7782 -7.9572 8.8881
# 4 11.3010 0.8219 5.7782 28.8524 12.3018 -7.7548
# 5 -30.5075 -9.5685 -7.9572 12.3018 49.1932 14.6472
# 6 -7.7826 -2.8623 8.8881 -7.7548 14.6472 25.6748
#
#
#
# Elastic Compliance Matrix: (Units=1/GPa)
#
#
# Indices 1 2 3 4 5 6 
#
# 1 0.008311 -0.000688 -0.002747 -0.006258 0.006858 -0.002409
# 2 -0.000688 0.011137 0.000158 -0.001241 0.002284 -0.000699
# 3 -0.002747 0.000158 0.017260 -0.009398 0.007633 -0.013983
# 4 -0.006258 -0.001241 -0.009398 0.063912 -0.033410 0.039582
# 5 0.006858 0.002284 0.007633 -0.033410 0.045428 -0.036317
# 6 -0.002409 -0.000699 -0.013983 0.039582 -0.036317 0.075655
#
#
# Mechanical properties :
#
#
# Convention : Reuss Voigt Hill
#
# Bulk Modulus (GPa) = 33.16181 50.89253 42.02717
# Shear Modulus (GPa) = 20.98113 39.16989 30.07551
#
# Velocity S-wave (km/s) = 2.84796 3.89131 3.40978
# Velocity P-wave (km/s) = 4.86150 6.31377 5.63462
#
# Compressibility (1/GPa) = 0.03015517
#
# Stress axis : x y z
#
# Youngs Moduli (GPa) = 120.31657 89.78772 57.93673
#
# Poissons Ratio (x) = 0.06178 0.15913
# Poissons Ratio (y) = 0.08278 -0.00914
# Poissons Ratio (z) = 0.33046 -0.01416
#
# Static dielectric constant tensor:
#      x y z
#    x 2.045030 -0.010620 -0.009510 
#    y -0.010620 2.106370 0.027850 
#    z -0.009510 0.027850 2.150340 
# 
# From -- ./inp_files/400037.got.cif
#   From: 2010.05.17/outbox.cif.g08.bks.cpg/sg2_201_cif.got.tgz:400037.got - 2010.06.03 11:33:40.
