data_PCOD9104054
_publ_section_title
;
Structure prediction by ZEFSAII (Michael W. Deem and Ramdas Pophale) SiO2 
 PCOD9104054
Probable space group: P -1
;
_chemical_formula_sum "Si O2"
_cell_formula_units_Z 16
_cell_length_a 4.942943
_cell_length_b 11.282605
_cell_length_c 23.163606
_cell_angle_alpha 43.120466
_cell_angle_beta 113.138572
_cell_angle_gamma 114.381825
_cell_volume 795.491689
_symmetry_space_group_name_H-M "P -1"
_symmetry_group_IT_number 2
_symmetry_cell_setting 'triclinic'
loop_
_space_group_symop_operation_xyz
x,y,z
-x,-y,-z
loop_
_atom_site_type_symbol
_atom_site_label
_atom_site_fract_x
_atom_site_fract_y
_atom_site_fract_z
Si Si1 0.363399 0.669990 0.911850
Si Si2 0.195412 0.777645 0.072059
Si Si3 0.636199 0.338735 0.590832
Si Si4 0.033876 0.269156 0.742526
Si Si5 0.714559 0.962761 0.909092
Si Si6 0.678302 0.567985 0.178421
Si Si7 0.086959 0.128316 0.676274
Si Si8 0.256625 0.263636 0.193229
O O1 0.437101 0.819603 0.913719
O O2 0.549647 0.750192 0.842666
O O3 0.010508 0.632945 0.881943
O O4 0.500000 0.500000 0.000000
O O5 0.978657 0.623736 0.145758
O O6 0.461705 0.700489 0.094275
O O7 0.980349 0.858496 0.983227
O O8 0.332959 0.928181 0.076556
O O9 0.500000 0.500000 0.500000
O O10 0.371439 0.174394 0.643149
O O11 0.821811 0.379772 0.651581
O O12 0.864936 0.263371 0.595516
O O13 0.245908 0.386883 0.764566
O O14 0.177597 0.182157 0.731505
O O15 0.841303 0.108269 0.819748
O O16 0.489753 0.375119 0.217781
O O17 0.911883 0.928123 0.731796
#
# Coordination Sequence:
#
# PCOD9104054 Si02
#       8
#     2   2   2   2   2   2   2   2
#     4  12  24  36  56  79 117 160 203 246 295 329
#     4  10  24  36  55  79 115 159 198 246 286 316
#     4  10  21  39  64  94 116 139 187 242 295 354
#     4   9  22  35  62  84 112 149 194 231 291 339
#     4  10  20  39  55  82 113 153 202 246 279 342
#     4  11  23  39  55  82 119 156 199 235 282 338
#     4  10  21  38  61  90 110 152 186 234 298 342
#     4  12  23  39  56  84 119 152 199 241 287 348
#
# _framework density 20.113346
#
# number of rings (size 3 to 8) (size 9 to 14) (size 15 to 20)
#    0.750    0.750    1.250    4.500    5.250    5.500 
#    0.000    0.000    0.000    1.500    0.000    0.000 
#    0.000    0.000    0.000    0.000    0.000    0.000 
#
# Total GULP energy -89432.741065 kJ/mol
# GULP energy per Si atom -5589.546317 kJ/mol
# Density = 2.006757 g / cm^3
# Si number density = 20.113346 Si / 1000 Ang^3
#
#
#
# Elastic Constant Matrix: (Units=GPa)
#
#
# Indices 1 2 3 4 5 6 
#
# 1 64.7547 8.5615 -6.6552 2.2853 2.6601 8.9089
# 2 8.5615 140.1528 26.5821 -1.0943 -0.2910 28.3848
# 3 -6.6552 26.5821 75.2864 1.6295 14.5197 6.4426
# 4 2.2853 -1.0943 1.6295 15.7882 2.1692 1.4542
# 5 2.6601 -0.2910 14.5197 2.1692 27.8436 -3.1483
# 6 8.9089 28.3848 6.4426 1.4542 -3.1483 25.0243
#
#
#
# Elastic Compliance Matrix: (Units=1/GPa)
#
#
# Indices 1 2 3 4 5 6 
#
# 1 0.016939 -0.000207 0.002934 -0.001607 -0.003810 -0.006937
# 2 -0.000207 0.009777 -0.002654 0.001917 0.000178 -0.010422
# 3 0.002934 -0.002654 0.016579 -0.000728 -0.009284 -0.003427
# 4 -0.001607 0.001917 -0.000728 0.065028 -0.005174 -0.005845
# 5 -0.003810 0.000178 -0.009284 -0.005174 0.042565 0.009200
# 6 -0.006937 -0.010422 -0.003427 -0.005845 0.009200 0.056632
#
#
# Mechanical properties :
#
#
# Convention : Reuss Voigt Hill
#
# Bulk Modulus (GPa) = 23.02007 37.46340 30.24174
# Shear Modulus (GPa) = 22.53708 30.51159 26.52433
#
# Velocity S-wave (km/s) = 3.35102 3.89907 3.63539
# Velocity P-wave (km/s) = 5.14223 6.23995 5.71749
#
# Compressibility (1/GPa) = 0.04344035
#
# Stress axis : x y z
#
# Youngs Moduli (GPa) = 59.03420 102.27799 60.31812
#
# Poissons Ratio (x) = 0.02113 -0.17694
# Poissons Ratio (y) = 0.01220 0.16011
# Poissons Ratio (z) = -0.17318 0.27149
#
# Static dielectric constant tensor:
#      x y z
#    x 1.738050 -0.001500 0.020520 
#    y -0.001500 1.724480 0.000610 
#    z 0.020520 0.000610 1.713400 
# 
# From -- ./inp_files/604315.got.cif
#   From: 2010.05.17/outbox.cif.g08.bks.cpg/sg2_303_cif.got.tgz:604315.got - 2010.06.03 11:33:40.
