data_PCOD9104590
_publ_section_title
;
Structure prediction by ZEFSAII (Michael W. Deem and Ramdas Pophale) SiO2 
 PCOD9104590
Probable space group: P -1
;
_chemical_formula_sum "Si O2"
_cell_formula_units_Z 16
_cell_length_a 9.269661
_cell_length_b 13.819779
_cell_length_c 12.165444
_cell_angle_alpha 76.034251
_cell_angle_beta 73.792340
_cell_angle_gamma 30.443633
_cell_volume 758.267395
_symmetry_space_group_name_H-M "P -1"
_symmetry_group_IT_number 2
_symmetry_cell_setting 'triclinic'
loop_
_space_group_symop_operation_xyz
x,y,z
-x,-y,-z
loop_
_atom_site_type_symbol
_atom_site_label
_atom_site_fract_x
_atom_site_fract_y
_atom_site_fract_z
Si Si1 0.542270 0.412492 0.853470
Si Si2 0.399334 0.523150 0.395161
Si Si3 0.185007 0.177225 0.466835
Si Si4 0.014693 0.901719 0.609908
Si Si5 0.945742 0.840268 0.854805
Si Si6 0.800046 0.548989 0.950391
Si Si7 0.694829 0.801949 0.779832
Si Si8 0.886000 0.820922 0.105717
O O1 0.574872 0.401495 0.717881
O O2 0.844692 0.273722 0.875878
O O3 0.284653 0.638538 0.869399
O O4 0.434316 0.374731 0.946305
O O5 0.500000 0.500000 0.500000
O O6 0.647399 0.303594 0.376459
O O7 0.075273 0.668005 0.433842
O O8 0.178115 0.264992 0.350433
O O9 0.117634 0.115083 0.427884
O O10 0.500000 0.000000 0.500000
O O11 0.880789 0.962542 0.744912
O O12 0.000000 0.000000 0.500000
O O13 0.881240 0.771040 0.826111
O O14 0.787246 0.927611 0.981510
O O15 0.675622 0.700008 0.851869
O O16 0.994245 0.355631 0.902475
O O17 0.000000 0.500000 0.000000
O O18 0.377700 0.028479 0.796041
#
# Coordination Sequence:
#
# PCOD9104590 Si02
#       8
#     2   2   2   2   2   2   2   2
#     4  10  20  39  61  90 122 154 199 255 306 351
#     4   9  19  38  65  82 115 165 201 238 302 357
#     4  10  21  41  58  83 121 155 195 256 300 342
#     4   9  19  38  58  86 112 153 205 242 287 362
#     4   9  18  36  60  81 122 156 192 244 299 361
#     4  11  22  38  64  91 120 158 203 240 304 374
#     4  11  22  40  61  89 123 159 207 241 300 373
#     4  11  22  39  61  90 126 158 192 256 312 343
#
# _framework density 21.100736000000001
#
# number of rings (size 3 to 8) (size 9 to 14) (size 15 to 20)
#    0.000    2.000    2.500    3.375    0.000    0.500 
#   15.750    0.625    0.000    0.000    0.000    0.000 
#    0.000    0.000    0.000    0.000    0.000    0.000 
#
# Total GULP energy -89175.445722 kJ/mol
# GULP energy per Si atom -5573.465358 kJ/mol
# Density = 2.105271 g / cm^3
# Si number density = 21.100736 Si / 1000 Ang^3
#
#
#
# Elastic Constant Matrix: (Units=GPa)
#
#
# Indices 1 2 3 4 5 6 
#
# 1 63.1145 33.0404 30.8328 -8.0965 -21.1722 -9.9749
# 2 33.0404 68.7532 13.3368 2.5010 -15.9194 -20.8095
# 3 30.8328 13.3368 125.9969 -15.9231 -39.4946 14.9441
# 4 -8.0965 2.5010 -15.9231 33.8330 0.8562 -6.5289
# 5 -21.1722 -15.9194 -39.4946 0.8562 34.6987 -6.8713
# 6 -9.9749 -20.8095 14.9441 -6.5289 -6.8713 31.4464
#
#
#
# Elastic Compliance Matrix: (Units=1/GPa)
#
#
# Indices 1 2 3 4 5 6 
#
# 1 0.027324 -0.007337 -0.002116 0.007528 0.012517 0.009116
# 2 -0.007337 0.025656 0.000571 -0.000436 0.011272 0.016751
# 3 -0.002116 0.000571 0.013716 0.005028 0.013918 -0.002726
# 4 0.007528 -0.000436 0.005028 0.035303 0.011120 0.009469
# 5 0.012517 0.011272 0.013918 0.011120 0.061257 0.020509
# 6 0.009116 0.016751 -0.002726 0.009469 0.020509 0.053520
#
#
# Mechanical properties :
#
#
# Convention : Reuss Voigt Hill
#
# Bulk Modulus (GPa) = 20.43694 45.80941 33.12318
# Shear Modulus (GPa) = 19.93217 32.03925 25.98571
#
# Velocity S-wave (km/s) = 3.07680 3.90089 3.51309
# Velocity P-wave (km/s) = 4.72533 6.48430 5.67340
#
# Compressibility (1/GPa) = 0.04893100
#
# Stress axis : x y z
#
# Youngs Moduli (GPa) = 36.59744 38.97742 72.90934
#
# Poissons Ratio (x) = 0.28598 0.15430
# Poissons Ratio (y) = 0.26852 -0.04163
# Poissons Ratio (z) = 0.07745 -0.02226
#
# Static dielectric constant tensor:
#      x y z
#    x 1.742660 0.004160 -0.012390 
#    y 0.004160 1.837550 0.034120 
#    z -0.012390 0.034120 1.864690 
# 
# From -- ./inp_files/214557.got.cif
#   From: 2010.05.17/outbox.cif.g08.bks.cpg/sg2_108_cif.got.tgz:214557.got - 2010.06.03 11:33:40.
