data_PCOD9104101
_publ_section_title
;
Structure prediction by ZEFSAII (Michael W. Deem and Ramdas Pophale) SiO2 
 PCOD9104101
Probable space group: P -1
;
_chemical_formula_sum "Si O2"
_cell_formula_units_Z 16
_cell_length_a 8.571603
_cell_length_b 7.912395
_cell_length_c 19.764475
_cell_angle_alpha 36.784055
_cell_angle_beta 92.149251
_cell_angle_gamma 92.786959
_cell_volume 801.719388
_symmetry_space_group_name_H-M "P -1"
_symmetry_group_IT_number 2
_symmetry_cell_setting 'triclinic'
loop_
_space_group_symop_operation_xyz
x,y,z
-x,-y,-z
loop_
_atom_site_type_symbol
_atom_site_label
_atom_site_fract_x
_atom_site_fract_y
_atom_site_fract_z
Si Si1 0.881097 0.448087 0.453692
Si Si2 0.045275 0.400693 0.741549
Si Si3 0.119440 0.159757 0.303338
Si Si4 0.321593 0.594281 0.979179
Si Si5 0.352575 0.648882 0.115605
Si Si6 0.174477 0.093464 0.058164
Si Si7 0.290130 0.456500 0.824848
Si Si8 0.799294 0.037992 0.263139
O O1 0.966798 0.506518 0.365311
O O2 0.000000 0.500000 0.500000
O O3 0.763299 0.705102 0.372551
O O4 0.829118 0.124876 0.567556
O O5 0.224826 0.403483 0.766834
O O6 0.965122 0.636192 0.710494
O O7 0.969876 0.096519 0.856849
O O8 0.268028 0.343200 0.221870
O O9 0.985434 0.089749 0.266540
O O10 0.309348 0.714062 0.016220
O O11 0.228073 0.302224 0.052376
O O12 0.500000 0.500000 0.000000
O O13 0.259088 0.820884 0.852085
O O14 0.289427 0.860791 0.103374
O O15 0.538246 0.644930 0.126063
O O16 0.168369 0.301623 0.925889
O O17 0.286106 0.785462 0.737335
#
# Coordination Sequence:
#
# PCOD9104101 Si02
#       8
#     2   2   2   2   2   2   2   2
#     4  10  21  38  60  87 117 155 206 255 296 343
#     4  10  21  37  63  85 116 159 201 252 298 353
#     4   9  21  40  59  86 116 156 209 250 290 353
#     4  11  22  37  61  90 130 159 194 245 304 366
#     4  11  22  38  62  88 128 162 193 249 305 360
#     4  10  22  37  57  92 121 161 197 240 303 364
#     4  10  20  39  57  88 127 155 195 242 301 369
#     4   9  20  37  56  88 118 157 202 242 298 354
#
# _framework density 19.957107000000001
#
# number of rings (size 3 to 8) (size 9 to 14) (size 15 to 20)
#    0.000    2.000    2.500    1.125    5.250    1.500 
#    0.000    1.250    0.000    0.000    0.000    0.000 
#    0.000    0.000    0.000    0.000    0.000    0.000 
#
# Total GULP energy -89189.305484 kJ/mol
# GULP energy per Si atom -5574.331593 kJ/mol
# Density = 1.991168 g / cm^3
# Si number density = 19.957107 Si / 1000 Ang^3
#
#
#
# Elastic Constant Matrix: (Units=GPa)
#
#
# Indices 1 2 3 4 5 6 
#
# 1 52.9581 28.6999 48.5666 5.7946 11.8739 12.3032
# 2 28.6999 75.7664 37.4496 7.5574 15.1813 14.1505
# 3 48.5666 37.4496 113.2568 -8.2632 20.8579 4.8914
# 4 5.7946 7.5574 -8.2632 48.1680 -4.3911 6.7050
# 5 11.8739 15.1813 20.8579 -4.3911 16.8190 1.6039
# 6 12.3032 14.1505 4.8914 6.7050 1.6039 20.9543
#
#
#
# Elastic Compliance Matrix: (Units=1/GPa)
#
#
# Indices 1 2 3 4 5 6 
#
# 1 0.039424 -0.002981 -0.014283 -0.005224 -0.007309 -0.015570
# 2 -0.002981 0.020373 -0.002980 -0.003193 -0.012533 -0.009331
# 3 -0.014283 -0.002980 0.017532 0.003602 -0.008582 0.005810
# 4 -0.005224 -0.003193 0.003602 0.023846 0.008702 -0.003914
# 5 -0.007309 -0.012533 -0.008582 0.008702 0.088347 0.005211
# 6 -0.015570 -0.009331 0.005810 -0.003914 0.005211 0.062663
#
#
# Mechanical properties :
#
#
# Convention : Reuss Voigt Hill
#
# Bulk Modulus (GPa) = 27.14315 52.37929 39.76122
# Shear Modulus (GPa) = 16.39592 25.67260 21.03426
#
# Velocity S-wave (km/s) = 2.86939 3.59052 3.25002
# Velocity P-wave (km/s) = 4.96066 6.59485 5.83524
#
# Compressibility (1/GPa) = 0.03684171
#
# Stress axis : x y z
#
# Youngs Moduli (GPa) = 25.36520 49.08465 57.03781
#
# Poissons Ratio (x) = 0.14630 0.81467
# Poissons Ratio (y) = 0.07560 0.16999
# Poissons Ratio (z) = 0.36229 0.14629
#
# Static dielectric constant tensor:
#      x y z
#    x 1.704590 0.000600 0.005550 
#    y 0.000600 1.761540 -0.025570 
#    z 0.005550 -0.025570 1.715470 
# 
# From -- ./inp_files/221579.got.cif
#   From: 2010.05.17/outbox.cif.g08.bks.cpg/sg2_111_cif.got.tgz:221579.got - 2010.06.03 11:33:40.
