data_PCOD9104443
_publ_section_title
;
Structure prediction by ZEFSAII (Michael W. Deem and Ramdas Pophale) SiO2 
 PCOD9104443
Probable space group: P -1
;
_chemical_formula_sum "Si O2"
_cell_formula_units_Z 14
_cell_length_a 7.845799
_cell_length_b 12.515452
_cell_length_c 8.722771
_cell_angle_alpha 61.517903
_cell_angle_beta 97.395245
_cell_angle_gamma 130.734183
_cell_volume 548.642519
_symmetry_space_group_name_H-M "P -1"
_symmetry_group_IT_number 2
_symmetry_cell_setting 'triclinic'
loop_
_space_group_symop_operation_xyz
x,y,z
-x,-y,-z
loop_
_atom_site_type_symbol
_atom_site_label
_atom_site_fract_x
_atom_site_fract_y
_atom_site_fract_z
Si Si1 0.128187 0.806468 0.175011
Si Si2 0.518646 0.195297 0.914940
Si Si3 0.205973 0.744301 0.526222
Si Si4 0.124861 0.206890 0.302076
Si Si5 0.328932 0.064895 0.420614
Si Si6 0.829741 0.512766 0.892613
Si Si7 0.311715 0.301578 0.615800
O O1 0.248903 0.781744 0.071710
O O2 0.150533 0.707884 0.369611
O O3 0.885022 0.750781 0.244884
O O4 0.305196 0.004687 0.056649
O O5 0.589954 0.332580 0.950179
O O6 0.434026 0.235585 0.731569
O O7 0.416138 0.773265 0.606766
O O8 0.973580 0.614863 0.684321
O O9 0.315571 0.934517 0.413240
O O10 0.213588 0.126886 0.291034
O O11 0.198354 0.366978 0.122089
O O12 0.211979 0.242716 0.468328
O O13 0.844430 0.059475 0.376893
O O14 0.000000 0.500000 0.000000
O O15 0.500000 0.500000 0.500000
#
# Coordination Sequence:
#
# PCOD9104443 Si02
#       7
#     2   2   2   2   2   2   2
#     4  11  24  44  67  97 130 174 229 262 332 383
#     4  11  26  43  66  98 132 176 215 281 319 386
#     4  10  20  40  66  95 123 176 212 267 327 388
#     4  10  20  39  60  97 125 168 213 266 326 379
#     4   9  19  34  64  95 120 162 217 259 321 385
#     4  11  24  42  62  92 133 165 214 268 328 388
#     4  12  22  43  68  96 133 170 221 271 324 394
#
# _framework density 25.517526
#
# number of rings (size 3 to 8) (size 9 to 14) (size 15 to 20)
#    0.000    1.429    4.286    1.286    6.000    3.429 
#    2.571    0.714    0.000    0.000    0.000    0.000 
#    0.000    0.000    0.000    0.000    0.000    0.000 
#
# Total GULP energy -78009.773152 kJ/mol
# GULP energy per Si atom -5572.126654 kJ/mol
# Density = 2.545945 g / cm^3
# Si number density = 25.517526 Si / 1000 Ang^3
#
#
#
# Elastic Constant Matrix: (Units=GPa)
#
#
# Indices 1 2 3 4 5 6 
#
# 1 120.2714 6.0538 22.0822 -16.2725 6.4351 4.5671
# 2 6.0538 52.2234 32.3334 -24.0495 -4.4093 9.2662
# 3 22.0822 32.3334 106.5498 -17.8323 19.2781 -9.2799
# 4 -16.2725 -24.0495 -17.8323 39.7986 5.9352 10.3585
# 5 6.4351 -4.4093 19.2781 5.9352 45.4586 -7.8060
# 6 4.5671 9.2662 -9.2799 10.3585 -7.8060 21.7341
#
#
#
# Elastic Compliance Matrix: (Units=1/GPa)
#
#
# Indices 1 2 3 4 5 6 
#
# 1 0.011072 0.009541 -0.003710 0.013178 -0.003451 -0.015498
# 2 0.009541 0.062689 -0.016848 0.051288 -0.005529 -0.062355
# 3 -0.003710 -0.016848 0.016059 -0.008489 -0.003806 0.017498
# 4 0.013178 0.051288 -0.008489 0.078655 -0.015826 -0.071431
# 5 -0.003451 -0.005529 -0.003806 -0.015826 0.028962 0.019402
# 6 -0.015498 -0.062355 0.017498 -0.071431 0.019402 0.124336
#
#
# Mechanical properties :
#
#
# Convention : Reuss Voigt Hill
#
# Bulk Modulus (GPa) = 14.75235 44.44260 29.59748
# Shear Modulus (GPa) = 13.64624 35.96994 24.80809
#
# Velocity S-wave (km/s) = 2.31504 3.75856 3.12139
# Velocity P-wave (km/s) = 3.59718 6.02412 4.96133
#
# Compressibility (1/GPa) = 0.06778579
#
# Stress axis : x y z
#
# Youngs Moduli (GPa) = 90.32178 15.95170 62.27201
#
# Poissons Ratio (x) = -0.15219 0.23101
# Poissons Ratio (y) = -0.86173 1.04914
# Poissons Ratio (z) = 0.33507 0.26875
#
# Static dielectric constant tensor:
#      x y z
#    x 2.154620 -0.050030 0.017640 
#    y -0.050030 2.133080 0.092060 
#    z 0.017640 0.092060 2.026500 
# 
# From -- ./inp_files/398428.got.cif
#   From: 2010.05.17/outbox.cif.g08.bks.cpg/sg2_200_cif.got.tgz:398428.got - 2010.06.03 11:33:40.
