data_PCOD9104726
_publ_section_title
;
Structure prediction by ZEFSAII (Michael W. Deem and Ramdas Pophale) SiO2 
 PCOD9104726
Probable space group: P -1
;
_chemical_formula_sum "Si O2"
_cell_formula_units_Z 16
_cell_length_a 9.964354
_cell_length_b 15.688975
_cell_length_c 12.446737
_cell_angle_alpha 156.369668
_cell_angle_beta 75.127375
_cell_angle_gamma 113.126554
_cell_volume 688.608628
_symmetry_space_group_name_H-M "P -1"
_symmetry_group_IT_number 2
_symmetry_cell_setting 'triclinic'
loop_
_space_group_symop_operation_xyz
x,y,z
-x,-y,-z
loop_
_atom_site_type_symbol
_atom_site_label
_atom_site_fract_x
_atom_site_fract_y
_atom_site_fract_z
Si Si1 0.130693 0.308727 0.279622
Si Si2 0.656860 0.617885 0.165638
Si Si3 0.565195 0.356895 0.103599
Si Si4 0.776360 0.999091 0.256898
Si Si5 0.211776 0.777319 0.689661
Si Si6 0.760400 0.082960 0.811396
Si Si7 0.076889 0.155968 0.766071
Si Si8 0.330277 0.208459 0.289426
O O1 0.219752 0.558081 0.493505
O O2 0.207541 0.285682 0.347920
O O3 0.954496 0.248162 0.265799
O O4 0.149823 0.127370 0.984684
O O5 0.647855 0.482351 0.121836
O O6 0.784383 0.630772 0.068620
O O7 0.693917 0.881345 0.501394
O O8 0.500000 0.500000 0.000000
O O9 0.546949 0.548622 0.408891
O O10 0.401185 0.164651 0.883881
O O11 0.670479 0.245075 0.006780
O O12 0.861392 0.995155 0.344678
O O13 0.787363 0.217761 0.434259
O O14 0.343336 0.023977 0.987434
O O15 0.942930 0.209115 0.908847
O O16 0.728987 0.951059 0.778441
O O17 0.000000 0.000000 0.500000
#
# Coordination Sequence:
#
# PCOD9104726 Si02
#       8
#     2   2   2   2   2   2   2   2
#     4  10  21  38  62  92 124 168 208 258 312 370
#     4  10  21  42  63  87 128 162 205 266 317 361
#     4  11  24  39  63  94 127 169 204 258 318 379
#     4  11  22  40  62  91 129 163 210 259 316 369
#     4  10  21  37  63  93 124 165 214 256 307 373
#     4  10  22  39  65  94 124 167 214 253 310 378
#     4  10  21  42  67  90 121 166 210 261 314 369
#     4  10  20  39  62  86 133 163 202 255 315 361
#
# _framework density 23.235258000000002
#
# number of rings (size 3 to 8) (size 9 to 14) (size 15 to 20)
#    0.000    1.750    1.250    3.750    0.000    6.000 
#    0.000    3.750    0.000    0.000    0.000    0.000 
#    0.000    0.000    0.000    0.000    0.000    0.000 
#
# Total GULP energy -89382.707942 kJ/mol
# GULP energy per Si atom -5586.419246 kJ/mol
# Density = 2.318237 g / cm^3
# Si number density = 23.235258 Si / 1000 Ang^3
#
#
#
# Elastic Constant Matrix: (Units=GPa)
#
#
# Indices 1 2 3 4 5 6 
#
# 1 116.3015 65.5703 27.5065 11.5505 13.8053 -16.2688
# 2 65.5703 128.0859 40.9778 11.1996 -1.8787 -30.5831
# 3 27.5065 40.9778 77.5543 8.3679 6.0481 -16.4637
# 4 11.5505 11.1996 8.3679 34.9047 -6.5729 5.1546
# 5 13.8053 -1.8787 6.0481 -6.5729 27.1581 -1.6806
# 6 -16.2688 -30.5831 -16.4637 5.1546 -1.6806 46.9423
#
#
#
# Elastic Compliance Matrix: (Units=1/GPa)
#
#
# Indices 1 2 3 4 5 6 
#
# 1 0.013898 -0.006697 -0.000179 -0.004076 -0.008442 0.000536
# 2 -0.006697 0.014116 -0.004162 -0.001148 0.005385 0.005735
# 3 -0.000179 -0.004162 0.016657 -0.003969 -0.004661 0.003338
# 4 -0.004076 -0.001148 -0.003969 0.034371 0.010766 -0.006942
# 5 -0.008442 0.005385 -0.004661 0.010766 0.045090 -0.000620
# 6 0.000536 0.005735 0.003338 -0.006942 -0.000620 0.027135
#
#
# Mechanical properties :
#
#
# Convention : Reuss Voigt Hill
#
# Bulk Modulus (GPa) = 44.25633 65.56122 54.90878
# Shear Modulus (GPa) = 27.64352 34.32683 30.98517
#
# Velocity S-wave (km/s) = 3.45298 3.84781 3.65573
# Velocity P-wave (km/s) = 5.91488 6.92953 6.44221
#
# Compressibility (1/GPa) = 0.02259564
#
# Stress axis : x y z
#
# Youngs Moduli (GPa) = 71.95119 70.84299 60.03546
#
# Poissons Ratio (x) = 0.47444 0.01074
# Poissons Ratio (y) = 0.48186 0.24985
# Poissons Ratio (z) = 0.01287 0.29483
#
# Static dielectric constant tensor:
#      x y z
#    x 1.903140 0.054150 -0.005690 
#    y 0.054150 1.977190 -0.004100 
#    z -0.005690 -0.004100 1.931590 
# 
# From -- ./inp_files/400012.got.cif
#   From: 2010.05.17/outbox.cif.g08.bks.cpg/sg2_201_cif.got.tgz:400012.got - 2010.06.03 11:33:40.
