data_PCOD9104452
_publ_section_title
;
Structure prediction by ZEFSAII (Michael W. Deem and Ramdas Pophale) SiO2 
 PCOD9104452
Probable space group: P -1
;
_chemical_formula_sum "Si O2"
_cell_formula_units_Z 15
_cell_length_a 25.402433
_cell_length_b 15.781011
_cell_length_c 11.664168
_cell_angle_alpha 150.368587
_cell_angle_beta 29.085717
_cell_angle_gamma 163.010345
_cell_volume 645.476087
_symmetry_space_group_name_H-M "P -1"
_symmetry_group_IT_number 2
_symmetry_cell_setting 'triclinic'
loop_
_space_group_symop_operation_xyz
x,y,z
-x,-y,-z
loop_
_atom_site_type_symbol
_atom_site_label
_atom_site_fract_x
_atom_site_fract_y
_atom_site_fract_z
Si Si1 0.065923 0.246883 0.400395
Si Si2 0.547523 0.353242 0.063961
Si Si3 0.282299 0.782855 0.508110
Si Si4 0.389839 0.531344 0.257617
Si Si5 0.000000 0.500000 0.500000
Si Si6 0.291147 0.301730 0.417622
Si Si7 0.879422 0.052429 0.285702
Si Si8 0.559362 0.878416 0.748466
O O1 0.147108 0.545384 0.589801
O O2 0.244930 0.368540 0.239359
O O3 0.904137 0.990791 0.494586
O O4 0.978551 0.115803 0.285771
O O5 0.395612 0.252858 0.156699
O O6 0.717605 0.709980 0.166901
O O7 0.461644 0.219929 0.198543
O O8 0.619011 0.262351 0.780746
O O9 0.151773 0.691158 0.549021
O O10 0.451519 0.119303 0.622783
O O11 0.278720 0.375648 0.406128
O O12 0.500000 0.500000 0.000000
O O13 0.021118 0.308695 0.224344
O O14 0.421352 0.591999 0.591863
O O15 0.777232 0.112803 0.570158
O O16 0.500000 0.000000 0.000000
#
# Coordination Sequence:
#
# PCOD9104452 Si02
#       8
#     2   2   2   2   1   2   2   2
#     4  11  23  44  66  95 136 172 228 270 315 398
#     4  11  20  40  71  94 133 170 207 269 343 396
#     4  11  25  44  67  99 133 174 223 268 342 392
#     4  12  27  48  67  90 131 183 227 273 329 391
#     4  10  22  38  64  96 136 156 218 272 326 394
#     4  11  22  44  68  99 128 173 225 271 331 388
#     4  10  20  39  61 100 132 171 212 263 335 391
#     4  11  20  37  66  99 137 167 209 268 339 393
#
# _framework density 23.238659999999999
#
# number of rings (size 3 to 8) (size 9 to 14) (size 15 to 20)
#    0.000    1.067    2.667    5.600    0.000    3.200 
#    7.200    2.667    0.000    0.000    0.000    0.000 
#    0.000    0.000    0.000    0.000    0.000    0.000 
#
# Total GULP energy -83712.950373 kJ/mol
# GULP energy per Si atom -5580.863358 kJ/mol
# Density = 2.318577 g / cm^3
# Si number density = 23.238660 Si / 1000 Ang^3
#
#
#
# Elastic Constant Matrix: (Units=GPa)
#
#
# Indices 1 2 3 4 5 6 
#
# 1 134.0229 43.8351 20.7683 -1.5543 -16.1853 11.7145
# 2 43.8351 109.0107 33.5376 -0.0767 -13.0567 15.9944
# 3 20.7683 33.5376 97.5945 10.0568 -19.9767 21.5610
# 4 -1.5543 -0.0767 10.0568 29.6842 -5.5036 -7.5240
# 5 -16.1853 -13.0567 -19.9767 -5.5036 28.9308 -11.8278
# 6 11.7145 15.9944 21.5610 -7.5240 -11.8278 44.2609
#
#
#
# Elastic Compliance Matrix: (Units=1/GPa)
#
#
# Indices 1 2 3 4 5 6 
#
# 1 0.008969 -0.003100 -0.000222 0.001244 0.003727 0.000062
# 2 -0.003100 0.011655 -0.002839 0.000603 0.001011 -0.001635
# 3 -0.000222 -0.002839 0.014010 -0.005138 0.005150 -0.005237
# 4 0.001244 0.000603 -0.005138 0.040183 0.009718 0.011384
# 5 0.003727 0.001011 0.005150 0.009718 0.046712 0.010274
# 6 0.000062 -0.001635 -0.005237 0.011384 0.010274 0.030400
#
#
# Mechanical properties :
#
#
# Convention : Reuss Voigt Hill
#
# Bulk Modulus (GPa) = 44.82124 59.65665 52.23894
# Shear Modulus (GPa) = 29.12261 36.74098 32.93180
#
# Velocity S-wave (km/s) = 3.54389 3.98053 3.76854
# Velocity P-wave (km/s) = 6.00623 6.84494 6.43925
#
# Compressibility (1/GPa) = 0.02231085
#
# Stress axis : x y z
#
# Youngs Moduli (GPa) = 111.49685 85.80021 71.37720
#
# Poissons Ratio (x) = 0.26598 0.01587
# Poissons Ratio (y) = 0.34564 0.20266
# Poissons Ratio (z) = 0.02479 0.24361
#
# Static dielectric constant tensor:
#      x y z
#    x 1.732450 0.217540 0.028780 
#    y 0.217540 1.447750 -0.057110 
#    z 0.028780 -0.057110 1.961360 
# 
# From -- ./inp_files/464333.got.cif
#   From: 2010.05.17/outbox.cif.g08.bks.cpg/sg2_233_cif.got.tgz:464333.got - 2010.06.03 11:33:40.
