data_PCOD9104388
_publ_section_title
;
Structure prediction by ZEFSAII (Michael W. Deem and Ramdas Pophale) SiO2 
 PCOD9104388
Probable space group: P -1
;
_chemical_formula_sum "Si O2"
_cell_formula_units_Z 16
_cell_length_a 7.226938
_cell_length_b 14.575405
_cell_length_c 9.640461
_cell_angle_alpha 59.092230
_cell_angle_beta 132.703181
_cell_angle_gamma 97.570369
_cell_volume 601.310855
_symmetry_space_group_name_H-M "P -1"
_symmetry_group_IT_number 2
_symmetry_cell_setting 'triclinic'
loop_
_space_group_symop_operation_xyz
x,y,z
-x,-y,-z
loop_
_atom_site_type_symbol
_atom_site_label
_atom_site_fract_x
_atom_site_fract_y
_atom_site_fract_z
Si Si1 0.881158 0.372782 0.185135
Si Si2 0.209605 0.130289 0.558273
Si Si3 0.102253 0.937563 0.784667
Si Si4 0.426216 0.390592 0.165119
Si Si5 0.786718 0.460690 0.515542
Si Si6 0.738966 0.747578 0.998218
Si Si7 0.420271 0.697253 0.141856
Si Si8 0.261000 0.001802 0.211824
O O1 0.626721 0.386070 0.143216
O O2 0.115357 0.262895 0.446834
O O3 0.856308 0.504013 0.070187
O O4 0.809564 0.339359 0.022927
O O5 0.971717 0.111026 0.359210
O O6 0.235325 0.033913 0.761107
O O7 0.476997 0.094190 0.633825
O O8 0.821484 0.998355 0.670603
O O9 0.283829 0.821420 0.043853
O O10 0.585240 0.417704 0.353063
O O11 0.373869 0.275662 0.190262
O O12 0.608096 0.581006 0.400398
O O13 0.000000 0.500000 0.500000
O O14 0.965492 0.347100 0.771773
O O15 0.592275 0.722132 0.081033
O O16 0.715947 0.876090 0.898935
O O17 0.000000 0.000000 0.000000
#
# Coordination Sequence:
#
# PCOD9104388 Si02
#       8
#     2   2   2   2   2   2   2   2
#     4   8  15  30  61  96 124 152 216 265 313 401
#     4  10  21  42  70  96 121 173 224 269 334 392
#     4  10  21  41  70  93 122 173 221 275 330 396
#     4   9  17  33  60 100 126 167 212 266 334 386
#     4   9  17  31  60  97 131 164 214 267 323 397
#     4  10  20  39  60  90 132 168 216 270 326 395
#     4   8  15  34  61  90 125 160 209 269 320 384
#     4  12  27  45  58  94 140 171 220 281 330 392
#
# _framework density 26.608533999999999
#
# number of rings (size 3 to 8) (size 9 to 14) (size 15 to 20)
#    0.000    2.500    1.250    2.625    1.750    1.500 
#    9.000    0.625    0.000    2.250    0.000    0.000 
#    0.000    0.000    0.000    0.000    0.000    0.000 
#
# Total GULP energy -89377.917240 kJ/mol
# GULP energy per Si atom -5586.119828 kJ/mol
# Density = 2.654797 g / cm^3
# Si number density = 26.608534 Si / 1000 Ang^3
#
#
#
# Elastic Constant Matrix: (Units=GPa)
#
#
# Indices 1 2 3 4 5 6 
#
# 1 94.0256 16.1411 23.3815 -28.5720 11.0045 -10.8587
# 2 16.1411 160.3686 53.3132 -24.4240 10.3531 -5.2817
# 3 23.3815 53.3132 110.8261 -33.2040 23.7471 -2.9694
# 4 -28.5720 -24.4240 -33.2040 51.0367 -17.7881 14.4841
# 5 11.0045 10.3531 23.7471 -17.7881 31.7577 -11.1805
# 6 -10.8587 -5.2817 -2.9694 14.4841 -11.1805 24.9895
#
#
#
# Elastic Compliance Matrix: (Units=1/GPa)
#
#
# Indices 1 2 3 4 5 6 
#
# 1 0.012940 -0.000018 -0.000894 0.006198 0.000402 0.002100
# 2 -0.000018 0.007558 -0.003403 0.001603 0.001276 0.000827
# 3 -0.000894 -0.003403 0.014270 0.006213 -0.008109 -0.006642
# 4 0.006198 0.001603 0.006213 0.034006 0.007263 -0.012690
# 5 0.000402 0.001276 -0.008109 0.007263 0.046767 0.016194
# 6 0.002100 0.000827 -0.006642 -0.012690 0.016194 0.054916
#
#
# Mechanical properties :
#
#
# Convention : Reuss Voigt Hill
#
# Bulk Modulus (GPa) = 38.25968 61.21023 49.73495
# Shear Modulus (GPa) = 26.62431 39.71576 33.17003
#
# Velocity S-wave (km/s) = 3.16665 3.86760 3.53454
# Velocity P-wave (km/s) = 5.27069 6.55732 5.94889
#
# Compressibility (1/GPa) = 0.02613718
#
# Stress axis : x y z
#
# Youngs Moduli (GPa) = 77.28159 132.31583 70.07732
#
# Poissons Ratio (x) = 0.00238 0.06267
# Poissons Ratio (y) = 0.00139 0.23846
# Poissons Ratio (z) = 0.06911 0.45025
#
# Static dielectric constant tensor:
#      x y z
#    x 2.118990 0.022080 -0.027430 
#    y 0.022080 2.133230 0.060530 
#    z -0.027430 0.060530 2.187370 
# 
# From -- ./inp_files/398843.got.cif
#   From: 2010.05.17/outbox.cif.g08.bks.cpg/sg2_200_cif.got.tgz:398843.got - 2010.06.03 11:33:40.
