data_PCOD9104407
_publ_section_title
;
Structure prediction by ZEFSAII (Michael W. Deem and Ramdas Pophale) SiO2 
 PCOD9104407
Probable space group: P -1
;
_chemical_formula_sum "Si O2"
_cell_formula_units_Z 11
_cell_length_a 6.205729
_cell_length_b 11.862687
_cell_length_c 10.853113
_cell_angle_alpha 148.186731
_cell_angle_beta 89.343626
_cell_angle_gamma 81.716247
_cell_volume 402.823123
_symmetry_space_group_name_H-M "P -1"
_symmetry_group_IT_number 2
_symmetry_cell_setting 'triclinic'
loop_
_space_group_symop_operation_xyz
x,y,z
-x,-y,-z
loop_
_atom_site_type_symbol
_atom_site_label
_atom_site_fract_x
_atom_site_fract_y
_atom_site_fract_z
Si Si1 0.241683 0.311307 0.318892
Si Si2 0.937721 0.895937 0.067958
Si Si3 0.419117 0.527811 0.710552
Si Si4 0.065358 0.135738 0.508667
Si Si5 0.500000 0.000000 0.500000
Si Si6 0.273436 0.399025 0.030703
O O1 0.357203 0.315995 0.454693
O O2 0.404748 0.400420 0.312199
O O3 0.000000 0.500000 0.500000
O O4 0.187110 0.097798 0.058142
O O5 0.186730 0.724738 0.898227
O O6 0.796941 0.776144 0.043554
O O7 0.961112 0.097661 0.340711
O O8 0.539415 0.503748 0.818004
O O9 0.331139 0.026220 0.405692
O O10 0.946132 0.390714 0.779229
O O11 0.000000 0.000000 0.500000
O O12 0.364425 0.254989 0.777634
#
# Coordination Sequence:
#
# PCOD9104407 Si02
#       6
#     2   2   2   2   1   2
#     4   8  16  32  64  95 124 161 205 251 306 375
#     4  10  20  39  60  92 127 165 208 256 308 372
#     4   9  17  36  63  91 125 168 198 256 315 361
#     4  12  26  42  62  92 127 166 212 264 311 371
#     4  12  24  42  62  88 124 170 210 262 316 360
#     4  11  24  41  63  94 125 164 217 256 309 377
#
# _framework density 27.307269999999999
#
# number of rings (size 3 to 8) (size 9 to 14) (size 15 to 20)
#    0.000    1.818    3.636    0.545    0.000    2.182 
#    0.000    0.909    0.000   37.091    0.000    0.000 
#    0.000    0.000    0.000    0.000    0.000    0.000 
#
# Total GULP energy -61317.340414 kJ/mol
# GULP energy per Si atom -5574.303674 kJ/mol
# Density = 2.724512 g / cm^3
# Si number density = 27.307270 Si / 1000 Ang^3
#
#
#
# Elastic Constant Matrix: (Units=GPa)
#
#
# Indices 1 2 3 4 5 6 
#
# 1 142.4815 44.6764 48.3125 -12.6662 0.2062 -21.2757
# 2 44.6764 58.4825 35.4451 -5.0644 6.1368 -21.0060
# 3 48.3125 35.4451 190.3123 -27.9215 6.3892 -36.2475
# 4 -12.6662 -5.0644 -27.9215 36.1002 -13.3862 9.9337
# 5 0.2062 6.1368 6.3892 -13.3862 41.0075 -20.2370
# 6 -21.2757 -21.0060 -36.2475 9.9337 -20.2370 60.8941
#
#
#
# Elastic Compliance Matrix: (Units=1/GPa)
#
#
# Indices 1 2 3 4 5 6 
#
# 1 0.009729 -0.006636 -0.000746 0.002505 0.002398 0.001054
# 2 -0.006636 0.025336 -0.002458 -0.002691 -0.001902 0.004765
# 3 -0.000746 -0.002458 0.007146 0.004955 0.002427 0.003143
# 4 0.002505 -0.002691 0.004955 0.036186 0.011898 0.000947
# 5 0.002398 -0.001902 0.002427 0.011898 0.033504 0.010820
# 6 0.001054 0.004765 0.003143 0.000947 0.010820 0.023747
#
#
# Mechanical properties :
#
#
# Convention : Reuss Voigt Hill
#
# Bulk Modulus (GPa) = 44.38188 72.01604 58.19896
# Shear Modulus (GPa) = 30.70564 45.12319 37.91441
#
# Velocity S-wave (km/s) = 3.35692 4.06941 3.73022
# Velocity P-wave (km/s) = 5.59583 6.96490 6.31756
#
# Compressibility (1/GPa) = 0.02253172
#
# Stress axis : x y z
#
# Youngs Moduli (GPa) = 102.78717 39.46916 139.94105
#
# Poissons Ratio (x) = 0.26192 0.10440
# Poissons Ratio (y) = 0.68210 0.34391
# Poissons Ratio (z) = 0.07668 0.09700
#
# Static dielectric constant tensor:
#      x y z
#    x 2.213470 0.034320 0.040500 
#    y 0.034320 2.112220 -0.105250 
#    z 0.040500 -0.105250 2.107770 
# 
# From -- ./inp_files/4014.got.cif
#   From: 2010.05.17/outbox.cif.g08.bks.cpg/sg2_3_cif.got.tgz:4014.got - 2010.06.03 11:33:40.
