data_PCOD9104711
_publ_section_title
;
Structure prediction by ZEFSAII (Michael W. Deem and Ramdas Pophale) SiO2 
 PCOD9104711
Probable space group: P -1
;
_chemical_formula_sum "Si O2"
_cell_formula_units_Z 16
_cell_length_a 9.035201
_cell_length_b 26.611048
_cell_length_c 11.630316
_cell_angle_alpha 150.931518
_cell_angle_beta 142.286597
_cell_angle_gamma 46.251809
_cell_volume 831.083669
_symmetry_space_group_name_H-M "P -1"
_symmetry_group_IT_number 2
_symmetry_cell_setting 'triclinic'
loop_
_space_group_symop_operation_xyz
x,y,z
-x,-y,-z
loop_
_atom_site_type_symbol
_atom_site_label
_atom_site_fract_x
_atom_site_fract_y
_atom_site_fract_z
Si Si1 0.879134 0.277347 0.599542
Si Si2 0.321396 0.263578 0.180097
Si Si3 0.057016 0.616284 0.920402
Si Si4 0.056786 0.383742 0.455126
Si Si5 0.764821 0.877809 0.361869
Si Si6 0.764725 0.122212 0.850669
Si Si7 0.120627 0.277352 0.509722
Si Si8 0.321591 0.736361 0.125787
O O1 0.602865 0.251339 0.350726
O O2 0.033880 0.183986 0.564958
O O3 0.999877 0.308133 0.616195
O O4 0.886236 0.365594 0.876522
O O5 0.200777 0.298783 0.297158
O O6 0.223768 0.356911 0.224947
O O7 0.238412 0.164869 0.856424
O O8 0.118742 0.500007 0.691308
O O9 0.201001 0.701225 0.102215
O O10 0.113370 0.365576 0.585539
O O11 0.776010 0.357012 0.202665
O O12 0.500051 0.856701 0.213399
O O13 0.807124 0.000009 0.635781
O O14 0.761453 0.164956 0.803214
O O15 0.965997 0.183966 0.170934
O O16 0.396948 0.251394 0.654634
#
# Coordination Sequence:
#
# PCOD9104711 Si02
#       8
#     2   2   2   2   2   2   2   2
#     4  11  22  37  60  92 122 152 194 248 292 343
#     4  10  20  39  62  86 119 155 196 244 291 344
#     4  10  23  41  63  85 116 162 200 238 292 351
#     4  10  23  41  63  85 116 162 200 238 292 351
#     4  10  21  38  62  89 118 156 196 238 295 353
#     4  10  21  38  62  89 118 156 196 238 295 353
#     4  11  22  37  60  92 122 152 194 248 292 343
#     4  10  20  39  62  86 119 155 196 244 291 344
#
# _framework density 19.251971999999999
#
# number of rings (size 3 to 8) (size 9 to 14) (size 15 to 20)
#    0.000    1.750    2.500    2.250    0.000    5.000 
#    0.000   11.250    0.000   15.000    0.000    0.000 
#    0.000    0.000    0.000    0.000    0.000    0.000 
#
# Total GULP energy -89134.181707 kJ/mol
# GULP energy per Si atom -5570.886357 kJ/mol
# Density = 1.920815 g / cm^3
# Si number density = 19.251972 Si / 1000 Ang^3
#
#
#
# Elastic Constant Matrix: (Units=GPa)
#
#
# Indices 1 2 3 4 5 6 
#
# 1 93.5855 19.8680 18.0910 -1.9801 -11.0203 14.7169
# 2 19.8680 -83.2070 -101.5325 -17.7745 -3.6409 14.9784
# 3 18.0910 -101.5325 -92.8156 -8.1169 -3.7029 10.9772
# 4 -1.9801 -17.7745 -8.1169 42.5450 -0.0363 -0.3744
# 5 -11.0203 -3.6409 -3.7029 -0.0363 30.0763 -11.3690
# 6 14.7169 14.9784 10.9772 -0.3744 -11.3690 33.5069
#
#
#
# Elastic Compliance Matrix: (Units=1/GPa)
#
#
# Indices 1 2 3 4 5 6 
#
# 1 0.011460 0.000728 0.000697 0.000931 0.002600 -0.004695
# 2 0.000728 0.038882 -0.043485 0.007945 -0.001885 -0.004005
# 3 0.000697 -0.043485 0.038619 -0.010701 0.002452 0.007193
# 4 0.000931 0.007945 -0.010701 0.024824 -0.000059 -0.000197
# 5 0.002600 -0.001885 0.002452 -0.000059 0.038839 0.012075
# 6 -0.004695 -0.004005 0.007193 -0.000197 0.012075 0.035436
#
#
# Mechanical properties :
#
#
# Convention : Reuss Voigt Hill
#
# Bulk Modulus (GPa) = 206.53901 -23.28709 91.62596
# Shear Modulus (GPa) = 18.26195 19.96806 19.11501
#
# Velocity S-wave (km/s) = 3.08324 3.22405 3.15443
# Velocity P-wave (km/s) = 10.96312 1.31799 7.80792
#
# Compressibility (1/GPa) = 0.00484170
#
# Stress axis : x y z
#
# Youngs Moduli (GPa) = 87.25821 25.71906 25.89379
#
# Poissons Ratio (x) = -0.01871 -0.01806
# Poissons Ratio (y) = -0.06349 1.12599
# Poissons Ratio (z) = -0.06086 1.11839
#
# Static dielectric constant tensor:
#      x y z
#    x 1.719310 -0.008040 0.009980 
#    y -0.008040 1.679720 -0.016150 
#    z 0.009980 -0.016150 1.676410 
# 
# From -- ./inp_files/407236.got.cif
#   From: 2010.05.17/outbox.cif.g08.bks.cpg/sg2_204_cif.got.tgz:407236.got - 2010.06.03 11:33:40.
