data_PCOD9104813
_publ_section_title
;
Structure prediction by ZEFSAII (Michael W. Deem and Ramdas Pophale) SiO2 
 PCOD9104813
Probable space group: P -1
;
_chemical_formula_sum "Si O2"
_cell_formula_units_Z 14
_cell_length_a 9.460808
_cell_length_b 8.225831
_cell_length_c 14.985939
_cell_angle_alpha 93.601420
_cell_angle_beta 63.107256
_cell_angle_gamma 44.513737
_cell_volume 574.254596
_symmetry_space_group_name_H-M "P -1"
_symmetry_group_IT_number 2
_symmetry_cell_setting 'triclinic'
loop_
_space_group_symop_operation_xyz
x,y,z
-x,-y,-z
loop_
_atom_site_type_symbol
_atom_site_label
_atom_site_fract_x
_atom_site_fract_y
_atom_site_fract_z
Si Si1 0.194355 0.174870 0.324136
Si Si2 0.409533 0.328581 0.672142
Si Si3 0.169157 0.276474 0.631173
Si Si4 0.771345 0.286629 0.509772
Si Si5 0.988626 0.897352 0.912298
Si Si6 0.270784 0.149532 0.913025
Si Si7 0.775399 0.035431 0.257030
O O1 0.034414 0.485715 0.379871
O O2 0.970331 0.217380 0.383092
O O3 0.361948 0.987735 0.360355
O O4 0.444167 0.986743 0.174303
O O5 0.154040 0.439916 0.710771
O O6 0.560412 0.313448 0.554396
O O7 0.283167 0.547972 0.794779
O O8 0.500000 0.000000 0.500000
O O9 0.116547 0.157723 0.695209
O O10 0.538898 0.615346 0.625403
O O11 0.000000 0.000000 0.500000
O O12 0.994020 0.021753 0.834646
O O13 0.756907 0.957794 0.003059
O O14 0.000000 0.000000 0.000000
O O15 0.258522 0.055618 0.821078
O O16 0.000000 0.500000 0.000000
#
# Coordination Sequence:
#
# PCOD9104813 Si02
#       7
#     2   2   2   2   2   2   2
#     4  11  22  38  65  94 125 165 219 250 324 378
#     4  10  21  42  64  90 131 165 207 263 320 368
#     4  12  24  39  63  98 131 165 205 263 321 387
#     4   9  20  37  62  92 121 167 205 261 317 378
#     4   9  19  38  70  88 118 174 210 254 317 365
#     4  11  20  38  67  91 124 171 213 262 314 368
#     4  10  20  39  62  90 131 160 211 266 312 374
#
# _framework density 24.379431
#
# number of rings (size 3 to 8) (size 9 to 14) (size 15 to 20)
#    0.000    1.714    4.286    0.000    0.000    4.000 
#    0.000    3.571    0.000    0.000    0.000    0.000 
#    0.000    0.000    0.000    0.000    0.000    0.000 
#
# Total GULP energy -78105.221682 kJ/mol
# GULP energy per Si atom -5578.944406 kJ/mol
# Density = 2.432394 g / cm^3
# Si number density = 24.379431 Si / 1000 Ang^3
#
#
#
# Elastic Constant Matrix: (Units=GPa)
#
#
# Indices 1 2 3 4 5 6 
#
# 1 67.6455 35.0327 51.3288 -6.3842 -7.6301 14.7248
# 2 35.0327 187.8871 72.3739 -22.8783 -17.0594 34.2556
# 3 51.3288 72.3739 155.4576 -18.3381 -26.6186 32.0952
# 4 -6.3842 -22.8783 -18.3381 59.7522 32.4859 -19.5203
# 5 -7.6301 -17.0594 -26.6186 32.4859 62.2067 -10.1859
# 6 14.7248 34.2556 32.0952 -19.5203 -10.1859 37.6292
#
#
#
# Elastic Compliance Matrix: (Units=1/GPa)
#
#
# Indices 1 2 3 4 5 6 
#
# 1 0.020188 -0.001241 -0.005753 -0.000630 -0.000372 -0.002291
# 2 -0.001241 0.007132 -0.002031 0.000750 -0.000098 -0.003912
# 3 -0.005753 -0.002031 0.010674 -0.001503 0.003288 -0.004893
# 4 -0.000630 0.000750 -0.001503 0.027241 -0.012858 0.011496
# 5 -0.000372 -0.000098 0.003288 -0.012858 0.023661 -0.002836
# 6 -0.002291 -0.003912 -0.004893 0.011496 -0.002836 0.040402
#
#
# Mechanical properties :
#
#
# Convention : Reuss Voigt Hill
#
# Bulk Modulus (GPa) = 50.14189 80.94013 65.54101
# Shear Modulus (GPa) = 32.46845 48.73459 40.60152
#
# Velocity S-wave (km/s) = 3.65334 4.47587 4.08536
# Velocity P-wave (km/s) = 6.19740 7.74490 7.01396
#
# Compressibility (1/GPa) = 0.01994341
#
# Stress axis : x y z
#
# Youngs Moduli (GPa) = 49.53380 140.21786 93.68763
#
# Poissons Ratio (x) = 0.17401 0.53899
# Poissons Ratio (y) = 0.06147 0.19029
# Poissons Ratio (z) = 0.28497 0.28480
#
# Static dielectric constant tensor:
#      x y z
#    x 1.994100 0.028230 0.022750 
#    y 0.028230 1.963100 -0.015800 
#    z 0.022750 -0.015800 1.969120 
# 
# From -- ./inp_files/251338.got.cif
#   From: 2010.05.17/outbox.cif.g08.bks.cpg/sg2_126_cif.got.tgz:251338.got - 2010.06.03 11:33:40.
