data_PCOD9104212
_publ_section_title
;
Structure prediction by ZEFSAII (Michael W. Deem and Ramdas Pophale) SiO2 
 PCOD9104212
Probable space group: P -1
;
_chemical_formula_sum "Si O2"
_cell_formula_units_Z 16
_cell_length_a 13.894667
_cell_length_b 20.275388
_cell_length_c 11.633499
_cell_angle_alpha 55.437758
_cell_angle_beta 33.152797
_cell_angle_gamma 31.519839
_cell_volume 804.862615
_symmetry_space_group_name_H-M "P -1"
_symmetry_group_IT_number 2
_symmetry_cell_setting 'triclinic'
loop_
_space_group_symop_operation_xyz
x,y,z
-x,-y,-z
loop_
_atom_site_type_symbol
_atom_site_label
_atom_site_fract_x
_atom_site_fract_y
_atom_site_fract_z
Si Si1 0.470886 0.122755 0.522604
Si Si2 0.671508 0.597918 0.170639
Si Si3 0.272651 0.302909 0.157879
Si Si4 0.807209 0.157412 0.170313
Si Si5 0.810923 0.420697 0.000749
Si Si6 0.347559 0.388263 0.207033
Si Si7 0.561936 0.908156 0.668447
Si Si8 0.518534 0.615108 0.550545
O O1 0.734288 0.092241 0.285133
O O2 0.324337 0.163865 0.500554
O O3 0.615594 0.982190 0.553670
O O4 0.183224 0.261295 0.755817
O O5 0.752767 0.501919 0.086506
O O6 0.474162 0.637045 0.435669
O O7 0.548535 0.724229 0.102156
O O8 0.000000 0.500000 0.000000
O O9 0.399690 0.300530 0.145428
O O10 0.302963 0.198146 0.259689
O O11 0.895647 0.467282 0.354092
O O12 0.618350 0.278375 0.141072
O O13 0.641381 0.247359 0.365893
O O14 0.177967 0.039441 0.919044
O O15 0.644616 0.400855 0.216757
O O16 0.669206 0.521561 0.932319
O O17 0.000000 0.500000 0.500000
#
# Coordination Sequence:
#
# PCOD9104212 Si02
#       8
#     2   2   2   2   2   2   2   2
#     4  11  22  37  58  85 128 160 192 244 294 365
#     4   9  20  39  65  87 113 155 201 259 304 340
#     4  10  20  39  59  85 121 155 203 251 294 358
#     4  12  22  39  62  87 126 164 197 243 305 359
#     4  11  21  37  62  93 120 152 202 256 297 359
#     4  11  19  34  59  88 120 154 199 248 301 351
#     4  11  24  39  57  89 127 164 201 234 304 371
#     4  11  22  38  64  92 115 156 206 254 303 347
#
# _framework density 19.879169999999998
#
# number of rings (size 3 to 8) (size 9 to 14) (size 15 to 20)
#    0.000    1.250    5.000    2.250    0.000    2.500 
#    2.250    0.625    0.000    3.750    0.000    0.000 
#    0.000    0.000    0.000    0.000    0.000    0.000 
#
# Total GULP energy -89370.024505 kJ/mol
# GULP energy per Si atom -5585.626532 kJ/mol
# Density = 1.983392 g / cm^3
# Si number density = 19.879170 Si / 1000 Ang^3
#
#
#
# Elastic Constant Matrix: (Units=GPa)
#
#
# Indices 1 2 3 4 5 6 
#
# 1 63.7468 27.1268 21.3531 -4.1815 20.2280 7.3293
# 2 27.1268 84.8150 26.0845 -33.2790 20.2559 14.1561
# 3 21.3531 26.0845 85.1794 -20.4216 13.5347 1.4513
# 4 -4.1815 -33.2790 -20.4216 40.5269 -1.2249 -7.3342
# 5 20.2280 20.2559 13.5347 -1.2249 32.2947 -10.8258
# 6 7.3293 14.1561 1.4513 -7.3342 -10.8258 27.1561
#
#
#
# Elastic Compliance Matrix: (Units=1/GPa)
#
#
# Indices 1 2 3 4 5 6 
#
# 1 0.024406 -0.001813 -0.003461 -0.003653 -0.017311 -0.013344
# 2 -0.001813 0.027788 0.000197 0.018918 -0.021516 -0.017475
# 3 -0.003461 0.000197 0.014879 0.007282 -0.003745 0.000510
# 4 -0.003653 0.018918 0.007282 0.042701 -0.011830 -0.002449
# 5 -0.017311 -0.021516 -0.003745 -0.011830 0.070116 0.040845
# 6 -0.013344 -0.017475 0.000510 -0.002449 0.040845 0.065129
#
#
# Mechanical properties :
#
#
# Convention : Reuss Voigt Hill
#
# Bulk Modulus (GPa) = 17.56880 42.54111 30.05495
# Shear Modulus (GPa) = 18.23853 30.60732 24.42292
#
# Velocity S-wave (km/s) = 3.03226 3.92812 3.50890
# Velocity P-wave (km/s) = 4.59526 6.48227 5.61855
#
# Compressibility (1/GPa) = 0.05691910
#
# Stress axis : x y z
#
# Youngs Moduli (GPa) = 40.97432 35.98722 67.20808
#
# Poissons Ratio (x) = 0.06525 0.23258
# Poissons Ratio (y) = 0.07430 -0.01325
# Poissons Ratio (z) = 0.14179 -0.00710
#
# Static dielectric constant tensor:
#      x y z
#    x 1.687880 0.013720 0.024550 
#    y 0.013720 1.730430 -0.020590 
#    z 0.024550 -0.020590 1.749320 
# 
# From -- ./inp_files/218573.got.cif
#   From: 2010.05.17/outbox.cif.g08.bks.cpg/sg2_110_cif.got.tgz:218573.got - 2010.06.03 11:33:40.
