data_PCOD9104543
_publ_section_title
;
Structure prediction by ZEFSAII (Michael W. Deem and Ramdas Pophale) SiO2 
 PCOD9104543
Probable space group: P -1
;
_chemical_formula_sum "Si O2"
_cell_formula_units_Z 16
_cell_length_a 7.479705
_cell_length_b 11.645827
_cell_length_c 8.766688
_cell_angle_alpha 124.961843
_cell_angle_beta 88.793480
_cell_angle_gamma 110.646616
_cell_volume 569.091983
_symmetry_space_group_name_H-M "P -1"
_symmetry_group_IT_number 2
_symmetry_cell_setting 'triclinic'
loop_
_space_group_symop_operation_xyz
x,y,z
-x,-y,-z
loop_
_atom_site_type_symbol
_atom_site_label
_atom_site_fract_x
_atom_site_fract_y
_atom_site_fract_z
Si Si1 0.550572 0.304806 0.720898
Si Si2 0.153847 0.702483 0.836606
Si Si3 0.546898 0.851817 0.084145
Si Si4 0.003916 0.333133 0.882785
Si Si5 0.690977 0.799542 0.733340
Si Si6 0.287766 0.797847 0.605989
Si Si7 0.172552 0.007591 0.392380
Si Si8 0.698338 0.564944 0.315118
O O1 0.536460 0.279506 0.882993
O O2 0.734711 0.302350 0.621295
O O3 0.505370 0.444330 0.763643
O O4 0.373250 0.143219 0.549133
O O5 0.118702 0.727662 0.681257
O O6 0.232319 0.568227 0.748775
O O7 0.352648 0.848181 0.998827
O O8 0.982140 0.677100 0.940192
O O9 0.661442 0.022766 0.280510
O O10 0.680146 0.819017 0.929063
O O11 0.834164 0.161184 0.731275
O O12 0.160765 0.343056 0.758607
O O13 0.000000 0.500000 0.000000
O O14 0.476351 0.787321 0.675111
O O15 0.705113 0.653510 0.540650
O O16 0.847631 0.941705 0.741663
O O17 0.000000 0.000000 0.500000
#
# Coordination Sequence:
#
# PCOD9104543 Si02
#       8
#     2   2   2   2   2   2   2   2
#     4  10  21  33  54  78 109 134 169 223 267 320
#     4  10  19  32  57  76 104 140 176 222 259 306
#     4  11  20  33  50  81 110 134 170 221 268 318
#     4  10  18  31  55  81 101 129 184 226 244 303
#     4   9  18  31  54  76 104 133 184 220 246 313
#     4   9  18  33  50  74 103 135 176 212 258 311
#     4  10  16  33  57  74 101 139 174 214 260 305
#     4   9  19  35  51  80 101 138 185 213 263 305
#
# _framework density 28.114961999999998
#
# number of rings (size 3 to 8) (size 9 to 14) (size 15 to 20)
#    0.000    2.500    2.500    4.125    0.000    5.000 
#    0.000    0.625    0.000    0.000    0.000    7.875 
#    0.000    0.000    0.000    0.000    0.000    0.000 
#
# Total GULP energy -89342.721790 kJ/mol
# GULP energy per Si atom -5583.920112 kJ/mol
# Density = 2.805097 g / cm^3
# Si number density = 28.114962 Si / 1000 Ang^3
#
#
#
# Elastic Constant Matrix: (Units=GPa)
#
#
# Indices 1 2 3 4 5 6 
#
# 1 61.0054 12.0964 29.8908 -1.2976 -0.2522 0.3791
# 2 12.0964 118.6229 48.1956 -7.6552 -5.2192 4.1355
# 3 29.8908 48.1956 168.9433 -11.1968 -38.0054 6.3433
# 4 -1.2976 -7.6552 -11.1968 73.1264 15.9599 -13.6897
# 5 -0.2522 -5.2192 -38.0054 15.9599 35.8257 -3.4528
# 6 0.3791 4.1355 6.3433 -13.6897 -3.4528 39.4460
#
#
#
# Elastic Compliance Matrix: (Units=1/GPa)
#
#
# Indices 1 2 3 4 5 6 
#
# 1 0.018507 -0.000358 -0.004185 0.000737 -0.004653 0.000381
# 2 -0.000358 0.009728 -0.003180 0.000986 -0.002434 -0.000376
# 3 -0.004185 -0.003180 0.009868 -0.001328 0.010494 -0.000756
# 4 0.000737 0.000986 -0.001328 0.016286 -0.008028 0.005052
# 5 -0.004653 -0.002434 0.010494 -0.008028 0.042189 -0.000481
# 6 0.000381 -0.000376 -0.000756 0.005052 -0.000481 0.027220
#
#
# Mechanical properties :
#
#
# Convention : Reuss Voigt Hill
#
# Bulk Modulus (GPa) = 44.13277 58.77078 51.45178
# Shear Modulus (GPa) = 34.06110 46.90554 40.48332
#
# Velocity S-wave (km/s) = 3.48443 4.08897 3.79875
# Velocity P-wave (km/s) = 5.64975 6.57587 6.13032
#
# Compressibility (1/GPa) = 0.02265890
#
# Stress axis : x y z
#
# Youngs Moduli (GPa) = 54.03287 102.79350 101.33870
#
# Poissons Ratio (x) = 0.03675 0.42406
# Poissons Ratio (y) = 0.01932 0.32227
# Poissons Ratio (z) = 0.22610 0.32690
#
# Static dielectric constant tensor:
#      x y z
#    x 2.253720 -0.002620 0.011180 
#    y -0.002620 2.207140 -0.055580 
#    z 0.011180 -0.055580 2.318760 
# 
# From -- ./inp_files/259986.got.cif
#   From: 2010.05.17/outbox.cif.g08.bks.cpg/sg2_130_cif.got.tgz:259986.got - 2010.06.03 11:33:40.
