data_PCOD9104918
_publ_section_title
;
Structure prediction by ZEFSAII (Michael W. Deem and Ramdas Pophale) SiO2 
 PCOD9104918
Probable space group: P -1
;
_chemical_formula_sum "Si O2"
_cell_formula_units_Z 16
_cell_length_a 8.177451
_cell_length_b 11.028791
_cell_length_c 11.810385
_cell_angle_alpha 59.981202
_cell_angle_beta 48.453471
_cell_angle_gamma 50.646542
_cell_volume 610.536841
_symmetry_space_group_name_H-M "P -1"
_symmetry_group_IT_number 2
_symmetry_cell_setting 'triclinic'
loop_
_space_group_symop_operation_xyz
x,y,z
-x,-y,-z
loop_
_atom_site_type_symbol
_atom_site_label
_atom_site_fract_x
_atom_site_fract_y
_atom_site_fract_z
Si Si1 0.655368 0.315536 0.990454
Si Si2 0.000521 0.683126 0.546698
Si Si3 0.679682 0.928885 0.058116
Si Si4 0.686690 0.652969 0.060931
Si Si5 0.187524 0.877226 0.775492
Si Si6 0.059981 0.335933 0.669230
Si Si7 0.166789 0.634924 0.732584
Si Si8 0.492342 0.979410 0.374500
O O1 0.535028 0.271755 0.961070
O O2 0.931780 0.277924 0.849039
O O3 0.500000 0.500000 0.000000
O O4 0.649937 0.239816 0.146761
O O5 0.057324 0.676843 0.390662
O O6 0.779015 0.863462 0.578584
O O7 0.972311 0.521444 0.643307
O O8 0.185323 0.650100 0.582928
O O9 0.735224 0.747520 0.095625
O O10 0.561720 0.982011 0.208711
O O11 0.916720 0.955200 0.916819
O O12 0.500000 0.000000 0.000000
O O13 0.653159 0.514453 0.204706
O O14 0.916737 0.622088 0.885951
O O15 0.160547 0.789196 0.719731
O O16 0.330792 0.977674 0.645089
O O17 0.356875 0.216828 0.585849
#
# Coordination Sequence:
#
# PCOD9104918 Si02
#       8
#     2   2   2   2   2   2   2   2
#     4  12  21  39  67 100 133 166 216 272 332 389
#     4  11  25  47  68  92 129 179 226 270 318 391
#     4  11  22  35  56  97 136 168 204 268 337 390
#     4  10  21  34  63  96 130 169 212 269 337 383
#     4  11  22  36  62 101 134 161 211 276 331 386
#     4  11  26  44  70  94 128 175 229 268 319 393
#     4  10  20  39  62  96 132 166 212 269 326 391
#     4  12  23  43  70  95 132 175 220 269 328 391
#
# _framework density 26.206444999999999
#
# number of rings (size 3 to 8) (size 9 to 14) (size 15 to 20)
#    0.000    1.000    2.500    6.000    3.500    0.000 
#    0.000    1.250    2.750    0.000    0.000    0.000 
#    0.000    0.000    0.000    0.000    0.000    0.000 
#
# Total GULP energy -89303.090408 kJ/mol
# GULP energy per Si atom -5581.443151 kJ/mol
# Density = 2.614680 g / cm^3
# Si number density = 26.206445 Si / 1000 Ang^3
#
#
#
# Elastic Constant Matrix: (Units=GPa)
#
#
# Indices 1 2 3 4 5 6 
#
# 1 104.0023 31.3889 16.2885 4.3156 29.9100 -9.4870
# 2 31.3889 120.9467 26.3215 2.4149 2.5488 -14.3085
# 3 16.2885 26.3215 36.1815 -6.3152 8.4718 0.1599
# 4 4.3156 2.4149 -6.3152 42.9433 -1.8514 13.3579
# 5 29.9100 2.5488 8.4718 -1.8514 46.0896 3.7397
# 6 -9.4870 -14.3085 0.1599 13.3579 3.7397 40.5738
#
#
#
# Elastic Compliance Matrix: (Units=1/GPa)
#
#
# Indices 1 2 3 4 5 6 
#
# 1 0.013837 -0.002089 -0.003293 -0.003529 -0.008764 0.004481
# 2 -0.002089 0.011080 -0.008047 -0.002833 0.001766 0.004221
# 3 -0.003293 -0.008047 0.037203 0.007994 -0.003443 -0.006069
# 4 -0.003529 -0.002833 0.007994 0.028714 0.003072 -0.011592
# 5 -0.008764 0.001766 -0.003443 0.003072 0.028452 -0.005047
# 6 0.004481 0.004221 -0.006069 -0.011592 -0.005047 0.031488
#
#
# Mechanical properties :
#
#
# Convention : Reuss Voigt Hill
#
# Bulk Modulus (GPa) = 28.35896 45.45868 36.90882
# Shear Modulus (GPa) = 26.40084 38.39680 32.39882
#
# Velocity S-wave (km/s) = 3.17743 3.83190 3.51991
# Velocity P-wave (km/s) = 4.93014 6.07964 5.53481
#
# Compressibility (1/GPa) = 0.03526223
#
# Stress axis : x y z
#
# Youngs Moduli (GPa) = 72.26911 90.25118 26.87949
#
# Poissons Ratio (x) = 0.18854 0.08852
# Poissons Ratio (y) = 0.15098 0.21629
# Poissons Ratio (z) = 0.23800 0.72623
#
# Static dielectric constant tensor:
#      x y z
#    x 2.026670 0.000540 -0.028900 
#    y 0.000540 2.277480 -0.012570 
#    z -0.028900 -0.012570 2.138540 
# 
# From -- ./inp_files/315908.got.cif
#   From: 2010.05.17/outbox.cif.g08.bks.cpg/sg2_158_cif.got.tgz:315908.got - 2010.06.03 11:33:40.
