data_PCOD9104697
_publ_section_title
;
Structure prediction by ZEFSAII (Michael W. Deem and Ramdas Pophale) SiO2 
 PCOD9104697
Probable space group: P -1
;
_chemical_formula_sum "Si O2"
_cell_formula_units_Z 16
_cell_length_a 5.962663
_cell_length_b 9.341542
_cell_length_c 27.122815
_cell_angle_alpha 135.021486
_cell_angle_beta 131.759921
_cell_angle_gamma 41.071607
_cell_volume 672.321407
_symmetry_space_group_name_H-M "P -1"
_symmetry_group_IT_number 2
_symmetry_cell_setting 'triclinic'
loop_
_space_group_symop_operation_xyz
x,y,z
-x,-y,-z
loop_
_atom_site_type_symbol
_atom_site_label
_atom_site_fract_x
_atom_site_fract_y
_atom_site_fract_z
Si Si1 0.381173 0.865897 0.050139
Si Si2 0.994066 0.962065 0.432013
Si Si3 0.097831 0.572017 0.480285
Si Si4 0.153286 0.488166 0.298712
Si Si5 0.421208 0.582970 0.084157
Si Si6 0.203600 0.206464 0.333023
Si Si7 0.251314 0.348681 0.171436
Si Si8 0.321991 0.729568 0.212645
O O1 0.352570 0.769660 0.076136
O O2 0.463742 0.073239 0.118231
O O3 0.628056 0.624207 0.995940
O O4 0.000000 0.000000 0.000000
O O5 0.213663 0.686904 0.380212
O O6 0.095781 0.143806 0.470771
O O7 0.590513 0.067793 0.381604
O O8 0.000000 0.000000 0.500000
O O9 0.500000 0.500000 0.500000
O O10 0.986102 0.450496 0.392363
O O11 0.000000 0.500000 0.500000
O O12 0.228977 0.290090 0.302310
O O13 0.339200 0.374881 0.246770
O O14 0.737886 0.632394 0.257627
O O15 0.236827 0.710501 0.138915
O O16 0.837218 0.440663 0.125856
O O17 0.110907 0.003011 0.267178
O O18 0.283847 0.538112 0.190530
#
# Coordination Sequence:
#
# PCOD9104697 Si02
#       8
#     2   2   2   2   2   2   2   2
#     4   9  18  36  60  85 112 153 193 237 296 349
#     4  10  20  39  62  85 115 155 208 255 314 376
#     4  10  22  41  63  91 123 163 211 265 326 382
#     4  10  21  39  57  82 118 153 198 248 304 364
#     4   9  19  38  59  80 119 150 188 245 290 355
#     4  10  21  39  58  84 119 155 199 251 312 368
#     4  10  21  36  58  85 113 151 197 236 296 363
#     4  10  22  37  55  87 116 155 195 242 301 362
#
# _framework density 23.79814
#
# number of rings (size 3 to 8) (size 9 to 14) (size 15 to 20)
#    0.000    2.250    1.250    0.750    1.750    1.500 
#    4.500    8.125    0.000    0.000    0.000    0.000 
#    0.000    0.000    0.000    0.000    0.000    0.000 
#
# Total GULP energy -89292.415529 kJ/mol
# GULP energy per Si atom -5580.775971 kJ/mol
# Density = 2.374397 g / cm^3
# Si number density = 23.798140 Si / 1000 Ang^3
#
#
#
# Elastic Constant Matrix: (Units=GPa)
#
#
# Indices 1 2 3 4 5 6 
#
# 1 83.1150 48.9276 63.8959 13.2218 -7.4878 10.0107
# 2 48.9276 110.4732 70.8586 10.7790 9.6364 21.8858
# 3 63.8959 70.8586 210.3182 27.9375 -1.1110 36.0167
# 4 13.2218 10.7790 27.9375 64.2404 23.9645 15.0389
# 5 -7.4878 9.6364 -1.1110 23.9645 24.4711 -6.2266
# 6 10.0107 21.8858 36.0167 15.0389 -6.2266 55.4449
#
#
#
# Elastic Compliance Matrix: (Units=1/GPa)
#
#
# Indices 1 2 3 4 5 6 
#
# 1 0.025832 -0.012573 -0.003087 -0.015571 0.030496 0.009953
# 2 -0.012573 0.019585 -0.002916 0.013023 -0.027024 -0.010134
# 3 -0.003087 -0.002916 0.007386 -0.002497 0.002441 -0.002138
# 4 -0.015571 0.013023 -0.002497 0.043566 -0.057500 -0.018981
# 5 0.030496 -0.027024 0.002441 -0.057500 0.125730 0.033292
# 6 0.009953 -0.010134 -0.002138 -0.018981 0.033292 0.030515
#
#
# Mechanical properties :
#
#
# Convention : Reuss Voigt Hill
#
# Bulk Modulus (GPa) = 63.89517 85.69675 74.79596
# Shear Modulus (GPa) = 16.95021 43.51288 30.23155
#
# Velocity S-wave (km/s) = 2.67170 4.28064 3.56804
# Velocity P-wave (km/s) = 6.03526 7.77945 6.96219
#
# Compressibility (1/GPa) = 0.01565064
#
# Stress axis : x y z
#
# Youngs Moduli (GPa) = 38.71210 51.05912 135.39961
#
# Poissons Ratio (x) = 0.64199 0.41792
# Poissons Ratio (y) = 0.48674 0.39481
# Poissons Ratio (z) = 0.11949 0.14888
#
# Static dielectric constant tensor:
#      x y z
#    x 1.932450 -0.025760 0.039550 
#    y -0.025760 1.857020 0.028620 
#    z 0.039550 0.028620 1.925830 
# 
# From -- ./inp_files/604082.got.cif
#   From: 2010.05.17/outbox.cif.g08.bks.cpg/sg2_303_cif.got.tgz:604082.got - 2010.06.03 11:33:40.
