data_PCOD9104752
_publ_section_title
;
Structure prediction by ZEFSAII (Michael W. Deem and Ramdas Pophale) SiO2 
 PCOD9104752
Probable space group: P -1
;
_chemical_formula_sum "Si O2"
_cell_formula_units_Z 14
_cell_length_a 8.576771
_cell_length_b 14.552062
_cell_length_c 15.953987
_cell_angle_alpha 40.998511
_cell_angle_beta 34.281041
_cell_angle_gamma 39.444174
_cell_volume 673.644178
_symmetry_space_group_name_H-M "P -1"
_symmetry_group_IT_number 2
_symmetry_cell_setting 'triclinic'
loop_
_space_group_symop_operation_xyz
x,y,z
-x,-y,-z
loop_
_atom_site_type_symbol
_atom_site_label
_atom_site_fract_x
_atom_site_fract_y
_atom_site_fract_z
Si Si1 0.914111 0.379041 0.699568
Si Si2 0.976527 0.679790 0.490029
Si Si3 0.290569 0.823873 0.756108
Si Si4 0.214259 0.590337 0.837580
Si Si5 0.182040 0.146048 0.278827
Si Si6 0.797615 0.159434 0.021121
Si Si7 0.944387 0.091713 0.598515
O O1 0.063821 0.498001 0.572601
O O2 0.565766 0.478054 0.758455
O O3 0.057616 0.277951 0.622903
O O4 0.906267 0.283580 0.849572
O O5 0.649573 0.750795 0.630782
O O6 0.177387 0.748178 0.406845
O O7 0.171035 0.699041 0.862117
O O8 0.202094 0.854847 0.869858
O O9 0.152113 0.972675 0.657028
O O10 0.112097 0.713198 0.722553
O O11 0.000000 0.500000 0.000000
O O12 0.455010 0.198804 0.117768
O O13 0.124015 0.106992 0.425893
O O14 0.252006 0.995627 0.293349
O O15 0.000000 0.000000 0.000000
#
# Coordination Sequence:
#
# PCOD9104752 Si02
#       7
#     2   2   2   2   2   2   2
#     4  10  23  38  63  92 123 157 201 252 297 354
#     4  10  20  39  62  88 120 160 201 245 299 354
#     4  10  22  37  66  88 119 166 201 242 304 357
#     4  10  20  41  60  86 126 162 196 244 305 359
#     4  10  22  38  63  89 119 162 202 244 302 353
#     4  12  24  40  62  96 120 155 202 256 299 359
#     4  10  20  39  62  89 119 162 202 246 294 363
#
# _framework density 20.782484
#
# number of rings (size 3 to 8) (size 9 to 14) (size 15 to 20)
#    0.000    1.714    2.857    1.286    2.000    3.429 
#    5.143    2.857    0.000    0.000    0.000    0.000 
#    0.000    0.000    0.000    0.000    0.000    0.000 
#
# Total GULP energy -78116.375749 kJ/mol
# GULP energy per Si atom -5579.741125 kJ/mol
# Density = 2.073518 g / cm^3
# Si number density = 20.782484 Si / 1000 Ang^3
#
#
#
# Elastic Constant Matrix: (Units=GPa)
#
#
# Indices 1 2 3 4 5 6 
#
# 1 96.9541 43.9922 33.5452 -6.8411 27.1445 29.9288
# 2 43.9922 68.8235 32.5034 -3.6173 16.6929 18.4066
# 3 33.5452 32.5034 86.5060 -13.3308 31.5454 13.2690
# 4 -6.8411 -3.6173 -13.3308 31.1386 13.5194 -1.9521
# 5 27.1445 16.6929 31.5454 13.5194 42.9563 -3.1922
# 6 29.9288 18.4066 13.2690 -1.9521 -3.1922 41.1754
#
#
#
# Elastic Compliance Matrix: (Units=1/GPa)
#
#
# Indices 1 2 3 4 5 6 
#
# 1 0.025630 -0.007853 0.008640 0.018877 -0.026848 -0.019089
# 2 -0.007853 0.022629 -0.005626 -0.001987 0.000730 -0.002632
# 3 0.008640 -0.005626 0.029759 0.028315 -0.035134 -0.014737
# 4 0.018877 -0.001987 0.028315 0.071033 -0.056010 -0.022932
# 5 -0.026848 0.000730 -0.035134 -0.056010 0.085956 0.034519
# 6 -0.019089 -0.002632 -0.014737 -0.022932 0.034519 0.045676
#
#
# Mechanical properties :
#
#
# Convention : Reuss Voigt Hill
#
# Bulk Modulus (GPa) = 14.63289 52.48502 33.55895
# Shear Modulus (GPa) = 15.96717 32.53692 24.25205
#
# Velocity S-wave (km/s) = 2.77483 3.96105 3.41977
# Velocity P-wave (km/s) = 4.16203 6.79920 5.63701
#
# Compressibility (1/GPa) = 0.06833919
#
# Stress axis : x y z
#
# Youngs Moduli (GPa) = 39.01702 44.19060 33.60298
#
# Poissons Ratio (x) = 0.34705 -0.29032
# Poissons Ratio (y) = 0.30642 0.18905
# Poissons Ratio (z) = -0.33710 0.24862
#
# Static dielectric constant tensor:
#      x y z
#    x 1.785700 0.016080 -0.023910 
#    y 0.016080 1.762740 -0.026700 
#    z -0.023910 -0.026700 1.738320 
# 
# From -- ./inp_files/158263.got.cif
#   From: 2010.05.17/outbox.cif.g08.bks.cpg/sg2_80_cif.got.tgz:158263.got - 2010.06.03 11:33:40.
