data_PCOD9104026
_publ_section_title
;
Structure prediction by ZEFSAII (Michael W. Deem and Ramdas Pophale) SiO2 
 PCOD9104026
Probable space group: P -1
;
_chemical_formula_sum "Si O2"
_cell_formula_units_Z 14
_cell_length_a 16.654502
_cell_length_b 8.931462
_cell_length_c 11.757985
_cell_angle_alpha 139.223476
_cell_angle_beta 31.593396
_cell_angle_gamma 120.711977
_cell_volume 550.399625
_symmetry_space_group_name_H-M "P -1"
_symmetry_group_IT_number 2
_symmetry_cell_setting 'triclinic'
loop_
_space_group_symop_operation_xyz
x,y,z
-x,-y,-z
loop_
_atom_site_type_symbol
_atom_site_label
_atom_site_fract_x
_atom_site_fract_y
_atom_site_fract_z
Si Si1 0.075592 0.263623 0.689782
Si Si2 0.174391 0.905876 0.034829
Si Si3 0.480951 0.455211 0.363258
Si Si4 0.006025 0.198702 0.198841
Si Si5 0.736963 0.681399 0.724433
Si Si6 0.356107 0.202171 0.709504
Si Si7 0.400599 0.010675 0.283436
O O1 0.147514 0.337529 0.533952
O O2 0.230537 0.058744 0.451075
O O3 0.922075 0.183184 0.805669
O O4 0.000000 0.500000 0.000000
O O5 0.036427 0.074867 0.213039
O O6 0.269069 0.071003 0.061666
O O7 0.299384 0.668113 0.678917
O O8 0.500000 0.500000 0.500000
O O9 0.608308 0.545968 0.197205
O O10 0.474318 0.186409 0.224789
O O11 0.835736 0.438804 0.537470
O O12 0.171755 0.252044 0.005031
O O13 0.000000 0.000000 0.000000
O O14 0.547416 0.736939 0.952768
O O15 0.364297 0.101931 0.511347
O O16 0.500000 0.000000 0.500000
#
# Coordination Sequence:
#
# PCOD9104026 Si02
#       7
#     2   2   2   2   2   2   2
#     4  12  25  43  71 103 139 180 226 283 351 404
#     4  12  23  45  68 104 139 178 233 282 331 407
#     4  10  20  38  72  98 140 172 225 277 338 401
#     4  12  27  46  68 101 139 184 230 280 350 405
#     4  12  26  44  70  98 139 182 230 288 336 409
#     4  11  21  41  70 101 131 183 226 268 340 413
#     4  11  23  44  68 104 141 174 229 282 338 403
#
# _framework density 25.436063000000001
#
# number of rings (size 3 to 8) (size 9 to 14) (size 15 to 20)
#    0.000    0.571    5.714    3.857    2.000    1.143 
#    0.000    4.286    0.000    0.000    0.000    0.000 
#    0.000    0.000    0.000    0.000    0.000    0.000 
#
# Total GULP energy -78430.771826 kJ/mol
# GULP energy per Si atom -5602.197988 kJ/mol
# Density = 2.537817 g / cm^3
# Si number density = 25.436063 Si / 1000 Ang^3
#
#
#
# Elastic Constant Matrix: (Units=GPa)
#
#
# Indices 1 2 3 4 5 6 
#
# 1 53.9193 10.1823 -6.3742 11.7894 -11.5312 -7.0421
# 2 10.1823 91.5903 28.9352 -3.3849 -15.7048 5.5369
# 3 -6.3742 28.9352 111.0496 20.7540 -25.5822 -0.1146
# 4 11.7894 -3.3849 20.7540 48.5815 -7.0149 -11.4501
# 5 -11.5312 -15.7048 -25.5822 -7.0149 56.3811 3.2756
# 6 -7.0421 5.5369 -0.1146 -11.4501 3.2756 47.3844
#
#
#
# Elastic Compliance Matrix: (Units=1/GPa)
#
#
# Indices 1 2 3 4 5 6 
#
# 1 0.022399 -0.003445 0.004488 -0.006472 0.004745 0.001850
# 2 -0.003445 0.012997 -0.003816 0.003293 0.001673 -0.001360
# 3 0.004488 -0.003816 0.012516 -0.006168 0.004806 -0.000680
# 4 -0.006472 0.003293 -0.006168 0.026157 -0.000240 0.004976
# 5 0.004745 0.001673 0.004806 -0.000240 0.021383 -0.001015
# 6 0.001850 -0.001360 -0.000680 0.004976 -0.001015 0.022809
#
#
# Mechanical properties :
#
#
# Convention : Reuss Voigt Hill
#
# Bulk Modulus (GPa) = 23.60395 35.78287 29.69341
# Shear Modulus (GPa) = 36.25050 45.39047 40.82048
#
# Velocity S-wave (km/s) = 3.77923 4.22891 4.01038
# Velocity P-wave (km/s) = 5.32384 6.15980 5.75702
#
# Compressibility (1/GPa) = 0.04236579
#
# Stress axis : x y z
#
# Youngs Moduli (GPa) = 44.64523 76.93794 79.89775
#
# Poissons Ratio (x) = 0.26508 -0.35857
# Poissons Ratio (y) = 0.15382 0.30487
# Poissons Ratio (z) = -0.20036 0.29358
#
# Static dielectric constant tensor:
#      x y z
#    x 2.124750 0.027250 -0.045050 
#    y 0.027250 1.996850 0.013310 
#    z -0.045050 0.013310 2.096950 
# 
# From -- ./inp_files/158602.got.cif
#   From: 2010.05.17/outbox.cif.g08.bks.cpg/sg2_80_cif.got.tgz:158602.got - 2010.06.03 11:33:40.
