data_PCOD9104588
_publ_section_title
;
Structure prediction by ZEFSAII (Michael W. Deem and Ramdas Pophale) SiO2 
 PCOD9104588
Probable space group: P -1
;
_chemical_formula_sum "Si O2"
_cell_formula_units_Z 16
_cell_length_a 8.381303
_cell_length_b 22.966559
_cell_length_c 5.071966
_cell_angle_alpha 73.528930
_cell_angle_beta 124.350274
_cell_angle_gamma 129.957797
_cell_volume 613.028328
_symmetry_space_group_name_H-M "P -1"
_symmetry_group_IT_number 2
_symmetry_cell_setting 'triclinic'
loop_
_space_group_symop_operation_xyz
x,y,z
-x,-y,-z
loop_
_atom_site_type_symbol
_atom_site_label
_atom_site_fract_x
_atom_site_fract_y
_atom_site_fract_z
Si Si1 0.179190 0.530836 0.377655
Si Si2 0.155971 0.654299 0.270859
Si Si3 0.826500 0.735055 0.376151
Si Si4 0.261597 0.077819 0.205667
Si Si5 0.379523 0.930863 0.178620
Si Si6 0.646805 0.193494 0.031432
Si Si7 0.830323 0.820124 0.790043
Si Si8 0.181058 0.401657 0.465866
O O1 0.303917 0.620247 0.404382
O O2 0.313281 0.491339 0.542654
O O3 0.000000 0.500000 0.500000
O O4 0.000000 0.500000 0.000000
O O5 0.043257 0.639298 0.476231
O O6 0.308421 0.739311 0.192915
O O7 0.926698 0.611353 0.910918
O O8 0.740439 0.758309 0.018371
O O9 0.704189 0.643935 0.361536
O O10 0.115429 0.770924 0.601384
O O11 0.813704 0.776305 0.567587
O O12 0.432709 0.052252 0.444140
O O13 0.400626 0.143174 0.031301
O O14 0.259364 0.127300 0.373179
O O15 0.000000 0.000000 0.000000
O O16 0.105000 0.889708 0.055371
O O17 0.345266 0.862959 0.070678
O O18 0.500000 0.000000 0.000000
#
# Coordination Sequence:
#
# PCOD9104588 Si02
#       8
#     2   2   2   2   2   2   2   2
#     4   8  14  24  42  80 123 155 195 250 299 353
#     4   9  17  28  52  84 119 162 201 253 304 363
#     4  10  20  39  61  90 119 167 203 256 307 374
#     4  12  28  43  66  93 124 162 214 268 325 384
#     4  11  25  44  67  89 122 164 205 263 327 386
#     4  10  22  38  62  85 122 163 210 252 316 378
#     4  11  25  42  65  90 126 157 215 254 317 375
#     4   9  15  28  52  83 123 161 203 246 306 361
#
# _framework density 26.099937000000001
#
# number of rings (size 3 to 8) (size 9 to 14) (size 15 to 20)
#    0.000    2.000    1.250    3.000    7.000    2.000 
#    0.000    0.000    0.000    0.000    0.000    1.750 
#    0.000    0.000    0.000    0.000    0.000    0.000 
#
# Total GULP energy -89384.280023 kJ/mol
# GULP energy per Si atom -5586.517501 kJ/mol
# Density = 2.604053 g / cm^3
# Si number density = 26.099937 Si / 1000 Ang^3
#
#
#
# Elastic Constant Matrix: (Units=GPa)
#
#
# Indices 1 2 3 4 5 6 
#
# 1 90.4913 33.7256 26.0296 -3.0624 -4.2262 -35.3417
# 2 33.7256 165.4927 18.8174 -26.3879 10.5032 -36.2018
# 3 26.0296 18.8174 91.2548 -11.5164 -13.5332 -5.5281
# 4 -3.0624 -26.3879 -11.5164 40.6930 -7.7776 9.4861
# 5 -4.2262 10.5032 -13.5332 -7.7776 41.1595 -0.1297
# 6 -35.3417 -36.2018 -5.5281 9.4861 -0.1297 52.1553
#
#
#
# Elastic Compliance Matrix: (Units=1/GPa)
#
#
# Indices 1 2 3 4 5 6 
#
# 1 0.016782 -0.001087 -0.004308 -0.003160 0.000021 0.010736
# 2 -0.001087 0.007918 -0.000893 0.003530 -0.001746 0.004019
# 3 -0.004308 -0.000893 0.013527 0.004580 0.005089 -0.002926
# 4 -0.003160 0.003530 0.004580 0.030151 0.005963 -0.004675
# 5 0.000021 -0.001746 0.005089 0.005963 0.027538 -0.001675
# 6 0.010736 0.004019 -0.002926 -0.004675 -0.001675 0.029774
#
#
# Mechanical properties :
#
#
# Convention : Reuss Voigt Hill
#
# Bulk Modulus (GPa) = 38.98426 56.04268 47.51347
# Shear Modulus (GPa) = 34.05625 44.71265 39.38445
#
# Velocity S-wave (km/s) = 3.61618 4.14349 3.88878
# Velocity P-wave (km/s) = 5.69250 6.66411 6.19737
#
# Compressibility (1/GPa) = 0.02565138
#
# Stress axis : x y z
#
# Youngs Moduli (GPa) = 59.58804 126.28951 73.92753
#
# Poissons Ratio (x) = 0.13725 0.31849
# Poissons Ratio (y) = 0.06476 0.06601
# Poissons Ratio (z) = 0.25671 0.11276
#
# Static dielectric constant tensor:
#      x y z
#    x 2.843900 -0.403300 -0.119360 
#    y -0.403300 2.334100 0.134890 
#    z -0.119360 0.134890 2.145590 
# 
# From -- ./inp_files/55430.got.cif
#   From: 2010.05.17/outbox.cif.g08.bks.cpg/sg2_28_cif.got.tgz:55430.got - 2010.06.03 11:33:40.
