data_PCOD9104397
_publ_section_title
;
Structure prediction by ZEFSAII (Michael W. Deem and Ramdas Pophale) SiO2 
 PCOD9104397
Probable space group: P -1
;
_chemical_formula_sum "Si O2"
_cell_formula_units_Z 14
_cell_length_a 12.345360
_cell_length_b 21.009640
_cell_length_c 17.646282
_cell_angle_alpha 17.814666
_cell_angle_beta 34.737982
_cell_angle_gamma 28.353917
_cell_volume 660.930450
_symmetry_space_group_name_H-M "P -1"
_symmetry_group_IT_number 2
_symmetry_cell_setting 'triclinic'
loop_
_space_group_symop_operation_xyz
x,y,z
-x,-y,-z
loop_
_atom_site_type_symbol
_atom_site_label
_atom_site_fract_x
_atom_site_fract_y
_atom_site_fract_z
Si Si1 0.700649 0.615345 0.526783
Si Si2 0.630084 0.178993 0.643125
Si Si3 0.183193 0.631321 0.095762
Si Si4 0.873601 0.858809 0.239751
Si Si5 0.038517 0.154423 0.518813
Si Si6 0.477320 0.082555 0.505384
Si Si7 0.207925 0.352653 0.794439
O O1 0.471233 0.703788 0.513616
O O2 0.753737 0.453517 0.756418
O O3 0.720222 0.848349 0.272880
O O4 0.908550 0.427493 0.565169
O O5 0.423660 0.320919 0.662590
O O6 0.841132 0.187413 0.540417
O O7 0.699453 0.893331 0.928405
O O8 0.385094 0.374942 0.230538
O O9 0.958480 0.662180 0.152471
O O10 0.136552 0.899886 0.800235
O O11 0.710190 0.933016 0.321855
O O12 0.000000 0.000000 0.000000
O O13 0.932024 0.393397 0.364341
O O14 0.263669 0.093412 0.413232
O O15 0.500000 0.000000 0.500000
#
# Coordination Sequence:
#
# PCOD9104397 Si02
#       7
#     2   2   2   2   2   2   2
#     4  10  22  40  65  96 134 163 219 268 321 393
#     4  10  22  39  59  92 132 178 210 268 323 392
#     4  10  22  40  65  98 128 171 215 276 321 378
#     4  10  23  41  64  96 128 171 218 270 329 377
#     4  11  23  39  65  95 131 173 215 266 332 381
#     4  11  22  40  65  97 132 164 223 275 315 391
#     4  10  20  39  60  91 132 169 228 265 312 385
#
# _framework density 21.182258999999998
#
# number of rings (size 3 to 8) (size 9 to 14) (size 15 to 20)
#    0.000    1.714    1.429    3.429    2.000    1.143 
#    2.571    2.857    0.000    4.286    0.000    0.000 
#    0.000    0.000    0.000    0.000    0.000    0.000 
#
# Total GULP energy -78057.500038 kJ/mol
# GULP energy per Si atom -5575.535717 kJ/mol
# Density = 2.113405 g / cm^3
# Si number density = 21.182259 Si / 1000 Ang^3
#
#
#
# Elastic Constant Matrix: (Units=GPa)
#
#
# Indices 1 2 3 4 5 6 
#
# 1 135.8427 62.2916 49.7644 9.8571 11.8499 -19.3690
# 2 62.2916 154.2035 48.4117 -6.6766 -10.8981 -0.8239
# 3 49.7644 48.4117 77.1274 -2.7759 -6.3074 18.6076
# 4 9.8571 -6.6766 -2.7759 32.4901 -5.2234 -6.2668
# 5 11.8499 -10.8981 -6.3074 -5.2234 39.4475 -7.5790
# 6 -19.3690 -0.8239 18.6076 -6.2668 -7.5790 35.1076
#
#
#
# Elastic Compliance Matrix: (Units=1/GPa)
#
#
# Indices 1 2 3 4 5 6 
#
# 1 0.015983 -0.003216 -0.012085 -0.004961 -0.005779 0.013015
# 2 -0.003216 0.009437 -0.003883 0.003573 0.003803 0.001964
# 3 -0.012085 -0.003883 0.028571 0.001829 0.003362 -0.020849
# 4 -0.004961 0.003573 0.001829 0.035377 0.008317 0.004488
# 5 -0.005779 0.003803 0.003362 0.008317 0.030383 0.003163
# 6 0.013015 0.001964 -0.020849 0.004488 0.003163 0.048245
#
#
# Mechanical properties :
#
#
# Convention : Reuss Voigt Hill
#
# Bulk Modulus (GPa) = 64.00496 76.45654 70.23075
# Shear Modulus (GPa) = 23.63270 35.18945 29.41108
#
# Velocity S-wave (km/s) = 3.34381 4.08029 3.73027
# Velocity P-wave (km/s) = 6.72235 7.64011 7.19588
#
# Compressibility (1/GPa) = 0.01562379
#
# Stress axis : x y z
#
# Youngs Moduli (GPa) = 62.56558 105.96598 35.00054
#
# Poissons Ratio (x) = 0.34080 0.42298
# Poissons Ratio (y) = 0.20122 0.13589
# Poissons Ratio (z) = 0.75611 0.41141
#
# Static dielectric constant tensor:
#      x y z
#    x 1.826840 -0.042690 -0.014150 
#    y -0.042690 1.846100 0.062050 
#    z -0.014150 0.062050 1.839630 
# 
# From -- ./inp_files/570675.got.cif
#   From: 2010.05.17/outbox.cif.g08.bks.cpg/sg2_286_cif.got.tgz:570675.got - 2010.06.03 11:33:40.
