data_PCOD9104966
_publ_section_title
;
Structure prediction by ZEFSAII (Michael W. Deem and Ramdas Pophale) SiO2 
 PCOD9104966
Probable space group: P -1
;
_chemical_formula_sum "Si O2"
_cell_formula_units_Z 12
_cell_length_a 15.756883
_cell_length_b 7.214252
_cell_length_c 12.538851
_cell_angle_alpha 82.465529
_cell_angle_beta 25.180525
_cell_angle_gamma 96.000813
_cell_volume 510.132110
_symmetry_space_group_name_H-M "P -1"
_symmetry_group_IT_number 2
_symmetry_cell_setting 'triclinic'
loop_
_space_group_symop_operation_xyz
x,y,z
-x,-y,-z
loop_
_atom_site_type_symbol
_atom_site_label
_atom_site_fract_x
_atom_site_fract_y
_atom_site_fract_z
Si Si1 0.836943 0.169486 0.647213
Si Si2 0.376895 0.951780 0.314146
Si Si3 0.233366 0.421883 0.332719
Si Si4 0.716071 0.854642 0.267619
Si Si5 0.806996 0.805796 0.391528
Si Si6 0.254326 0.717289 0.687239
O O1 0.810764 0.092767 0.561342
O O2 0.806880 0.378641 0.652807
O O3 0.066759 0.241105 0.448250
O O4 0.609647 0.998380 0.986992
O O5 0.304862 0.774320 0.500830
O O6 0.399254 0.159577 0.334391
O O7 0.166682 0.334293 0.536302
O O8 0.500000 0.500000 0.000000
O O9 0.739883 0.729440 0.351515
O O10 0.470281 0.718122 0.497776
O O11 0.737761 0.074845 0.278479
O O12 0.943550 0.960758 0.923973
O O13 0.000000 0.500000 0.000000
#
# Coordination Sequence:
#
# PCOD9104966 Si02
#       6
#     2   2   2   2   2   2
#     4  10  23  40  61  87 126 158 200 253 299 362
#     4  10  21  41  59  88 123 158 200 253 306 357
#     4  11  22  39  62  91 118 162 206 243 305 366
#     4   9  21  40  61  87 124 161 199 257 306 361
#     4  10  20  39  63  85 123 161 202 250 310 359
#     4  10  21  38  63  90 119 162 206 248 311 365
#
# _framework density 23.523316999999999
#
# number of rings (size 3 to 8) (size 9 to 14) (size 15 to 20)
#    0.000    2.000    1.667    1.000    2.333    2.000 
#    3.000    7.500    0.000    0.000    0.000    0.000 
#    0.000    0.000    0.000    0.000    0.000    0.000 
#
# Total GULP energy -67073.981135 kJ/mol
# GULP energy per Si atom -5589.498428 kJ/mol
# Density = 2.346978 g / cm^3
# Si number density = 23.523317 Si / 1000 Ang^3
#
#
#
# Elastic Constant Matrix: (Units=GPa)
#
#
# Indices 1 2 3 4 5 6 
#
# 1 218.7538 30.2206 128.8237 -20.2648 -0.8526 -16.7524
# 2 30.2206 40.4832 12.1918 -1.3240 0.2106 6.8022
# 3 128.8237 12.1918 129.2269 -13.7834 5.6439 -0.8241
# 4 -20.2648 -1.3240 -13.7834 34.1941 -2.8185 1.3863
# 5 -0.8526 0.2106 5.6439 -2.8185 57.3962 -2.2458
# 6 -16.7524 6.8022 -0.8241 1.3863 -2.2458 36.4913
#
#
#
# Elastic Compliance Matrix: (Units=1/GPa)
#
#
# Indices 1 2 3 4 5 6 
#
# 1 0.014372 -0.007948 -0.013328 0.002685 0.001990 0.007799
# 2 -0.007948 0.030688 0.004883 -0.001271 -0.001136 -0.009280
# 3 -0.013328 0.004883 0.020705 0.000705 -0.002481 -0.006741
# 4 0.002685 -0.001271 0.000705 0.031180 0.001522 0.000395
# 5 0.001990 -0.001136 -0.002481 0.001522 0.017858 0.002111
# 6 0.007799 -0.009280 -0.006741 0.000395 0.002111 0.032677
#
#
# Mechanical properties :
#
#
# Convention : Reuss Voigt Hill
#
# Bulk Modulus (GPa) = 30.32321 81.21514 55.76917
# Shear Modulus (GPa) = 26.14262 40.09818 33.12040
#
# Velocity S-wave (km/s) = 3.33731 4.13318 3.75638
# Velocity P-wave (km/s) = 5.26962 7.57482 6.52483
#
# Compressibility (1/GPa) = 0.03297804
#
# Stress axis : x y z
#
# Youngs Moduli (GPa) = 69.58007 32.58619 48.29814
#
# Poissons Ratio (x) = 0.25899 0.64372
# Poissons Ratio (y) = 0.55300 -0.23582
# Poissons Ratio (z) = 0.92737 -0.15910
#
# Static dielectric constant tensor:
#      x y z
#    x 1.914240 0.045560 0.004770 
#    y 0.045560 2.067690 0.021220 
#    z 0.004770 0.021220 1.858210 
# 
# From -- ./inp_files/396879.got.cif
#   From: 2010.05.17/outbox.cif.g08.bks.cpg/sg2_199_cif.got.tgz:396879.got - 2010.06.03 11:33:40.
