data_PCOD9104600
_publ_section_title
;
Structure prediction by ZEFSAII (Michael W. Deem and Ramdas Pophale) SiO2 
 PCOD9104600
Probable space group: P -1
;
_chemical_formula_sum "Si O2"
_cell_formula_units_Z 16
_cell_length_a 7.750954
_cell_length_b 12.621473
_cell_length_c 19.314295
_cell_angle_alpha 154.912212
_cell_angle_beta 76.332227
_cell_angle_gamma 95.944935
_cell_volume 749.984802
_symmetry_space_group_name_H-M "P -1"
_symmetry_group_IT_number 2
_symmetry_cell_setting 'triclinic'
loop_
_space_group_symop_operation_xyz
x,y,z
-x,-y,-z
loop_
_atom_site_type_symbol
_atom_site_label
_atom_site_fract_x
_atom_site_fract_y
_atom_site_fract_z
Si Si1 0.723749 0.636668 0.560301
Si Si2 0.461272 0.030769 0.353032
Si Si3 0.296133 0.795751 0.931421
Si Si4 0.769569 0.725438 0.049797
Si Si5 0.183088 0.803670 0.336445
Si Si6 0.005607 0.911412 0.765834
Si Si7 0.536880 0.248059 0.606107
Si Si8 0.580811 0.063669 0.137908
O O1 0.638099 0.757814 0.568307
O O2 0.867664 0.798498 0.665849
O O3 0.438927 0.300095 0.330336
O O4 0.831683 0.336727 0.374165
O O5 0.579001 0.157560 0.469719
O O6 0.597372 0.791456 0.157855
O O7 0.307411 0.942223 0.359640
O O8 0.358513 0.492095 0.763919
O O9 0.303613 0.843578 0.877429
O O10 0.107139 0.947994 0.074224
O O11 0.452198 0.910443 0.020146
O O12 0.694460 0.879125 0.076834
O O13 0.848287 0.428807 0.845153
O O14 0.916500 0.871168 0.149591
O O15 0.305477 0.687645 0.324026
O O16 0.000000 0.000000 0.500000
O O17 0.500000 0.000000 0.500000
#
# Coordination Sequence:
#
# PCOD9104600 Si02
#       8
#     2   2   2   2   2   2   2   2
#     4   9  21  44  60  94 133 167 209 260 320 371
#     4  10  24  43  69  89 127 177 208 257 323 383
#     4  10  20  39  61  90 125 170 207 254 317 371
#     4  11  23  41  64  98 126 167 213 264 317 381
#     4  11  25  46  66  94 127 164 216 272 314 374
#     4  10  23  37  64  95 134 162 209 267 308 374
#     4  10  23  42  66  90 125 169 212 259 319 381
#     4   9  20  37  65  87 123 171 206 253 317 383
#
# _framework density 21.333766000000001
#
# number of rings (size 3 to 8) (size 9 to 14) (size 15 to 20)
#    0.000    2.000    1.250    0.375    7.000    3.500 
#    2.250    1.250    0.000    0.000    0.000    0.000 
#    0.000    0.000    0.000    0.000    0.000    0.000 
#
# Total GULP energy -89390.557289 kJ/mol
# GULP energy per Si atom -5586.909831 kJ/mol
# Density = 2.128521 g / cm^3
# Si number density = 21.333766 Si / 1000 Ang^3
#
#
#
# Elastic Constant Matrix: (Units=GPa)
#
#
# Indices 1 2 3 4 5 6 
#
# 1 55.9368 18.4405 31.3164 -7.5834 4.2012 17.2366
# 2 18.4405 86.9057 45.9332 -17.5581 -4.1438 4.9123
# 3 31.3164 45.9332 163.7445 0.9007 -7.4084 13.0450
# 4 -7.5834 -17.5581 0.9007 25.4295 0.7448 4.3301
# 5 4.2012 -4.1438 -7.4084 0.7448 30.6834 -3.7751
# 6 17.2366 4.9123 13.0450 4.3301 -3.7751 32.4940
#
#
#
# Elastic Compliance Matrix: (Units=1/GPa)
#
#
# Indices 1 2 3 4 5 6 
#
# 1 0.026878 -0.001006 -0.004059 0.010155 -0.006842 -0.014624
# 2 -0.001006 0.016452 -0.004316 0.011469 0.000836 -0.001652
# 3 -0.004059 -0.004316 0.008185 -0.004607 0.002107 0.000378
# 4 0.010155 0.011469 -0.004607 0.052715 -0.003801 -0.012738
# 5 -0.006842 0.000836 0.002107 -0.003801 0.035133 0.007245
# 6 -0.014624 -0.001652 0.000378 -0.012738 0.007245 0.041170
#
#
# Mechanical properties :
#
#
# Convention : Reuss Voigt Hill
#
# Bulk Modulus (GPa) = 30.53163 55.32971 42.93067
# Shear Modulus (GPa) = 23.78543 31.78115 27.78329
#
# Velocity S-wave (km/s) = 3.34266 3.86386 3.61268
# Velocity P-wave (km/s) = 5.40743 6.77477 6.12935
#
# Compressibility (1/GPa) = 0.03275292
#
# Stress axis : x y z
#
# Youngs Moduli (GPa) = 37.20476 60.78295 122.17988
#
# Poissons Ratio (x) = 0.06115 0.49589
# Poissons Ratio (y) = 0.03743 0.52737
# Poissons Ratio (z) = 0.15100 0.26236
#
# Static dielectric constant tensor:
#      x y z
#    x 1.811430 0.003870 0.050160 
#    y 0.003870 1.753060 -0.006950 
#    z 0.050160 -0.006950 1.773920 
# 
# From -- ./inp_files/590346.got.cif
#   From: 2010.05.17/outbox.cif.g08.bks.cpg/sg2_296_cif.got.tgz:590346.got - 2010.06.03 11:33:40.
