data_PCOD9104102
_publ_section_title
;
Structure prediction by ZEFSAII (Michael W. Deem and Ramdas Pophale) SiO2 
 PCOD9104102
Probable space group: P -1
;
_chemical_formula_sum "Si O2"
_cell_formula_units_Z 13
_cell_length_a 11.999998
_cell_length_b 7.811251
_cell_length_c 9.110935
_cell_angle_alpha 83.357714
_cell_angle_beta 78.126233
_cell_angle_gamma 38.122663
_cell_volume 514.431303
_symmetry_space_group_name_H-M "P -1"
_symmetry_group_IT_number 2
_symmetry_cell_setting 'triclinic'
loop_
_space_group_symop_operation_xyz
x,y,z
-x,-y,-z
loop_
_atom_site_type_symbol
_atom_site_label
_atom_site_fract_x
_atom_site_fract_y
_atom_site_fract_z
Si Si1 0.000000 0.500000 0.500000
Si Si2 0.339501 0.049401 0.470525
Si Si3 0.555649 0.341694 0.297957
Si Si4 0.025239 0.373363 0.163036
Si Si5 0.407008 0.852979 0.996978
Si Si6 0.646331 0.706325 0.177652
Si Si7 0.183788 0.883234 0.502700
O O1 0.012240 0.503397 0.299784
O O2 0.797423 0.632142 0.523182
O O3 0.419623 0.877666 0.613013
O O4 0.495624 0.862088 0.329395
O O5 0.163479 0.121069 0.479024
O O6 0.579119 0.293538 0.125738
O O7 0.355812 0.641905 0.373110
O O8 0.715932 0.254366 0.351565
O O9 0.853381 0.448432 0.201184
O O10 0.000000 0.500000 0.000000
O O11 0.224909 0.049405 0.125578
O O12 0.384762 0.067023 0.905339
O O13 0.585149 0.652535 0.070256
O O14 0.000000 0.000000 0.500000
#
# Coordination Sequence:
#
# PCOD9104102 Si02
#       7
#     1   2   2   2   2   2   2
#     4  12  22  38  64  98 128 164 214 260 318 392
#     4  10  21  38  59  96 119 156 214 259 306 382
#     4   9  21  41  65  88 122 166 214 261 310 378
#     4  10  22  38  55  88 132 165 205 247 312 386
#     4  10  20  39  57  88 128 163 200 247 322 382
#     4  10  21  37  57  88 132 158 195 256 317 380
#     4   9  21  42  63  90 121 164 221 264 311 372
#
# _framework density 25.270623000000001
#
# number of rings (size 3 to 8) (size 9 to 14) (size 15 to 20)
#    0.923    1.231    1.538    1.846    0.000    6.154 
#    0.000    0.769    0.000    1.846    0.000    0.000 
#    0.000    0.000    0.000    0.000    0.000    0.000 
#
# Total GULP energy -72437.432418 kJ/mol
# GULP energy per Si atom -5572.110186 kJ/mol
# Density = 2.521311 g / cm^3
# Si number density = 25.270623 Si / 1000 Ang^3
#
#
#
# Elastic Constant Matrix: (Units=GPa)
#
#
# Indices 1 2 3 4 5 6 
#
# 1 161.8409 76.6527 69.4613 10.1265 19.4610 -42.7466
# 2 76.6527 128.7137 70.6835 8.0135 10.8916 -28.3568
# 3 69.4613 70.6835 195.1716 10.9124 32.0424 -24.3362
# 4 10.1265 8.0135 10.9124 44.0787 0.6617 -7.4380
# 5 19.4610 10.8916 32.0424 0.6617 39.9318 0.2046
# 6 -42.7466 -28.3568 -24.3362 -7.4380 0.2046 52.7560
#
#
#
# Elastic Compliance Matrix: (Units=1/GPa)
#
#
# Indices 1 2 3 4 5 6 
#
# 1 0.010501 -0.004153 -0.000957 -0.000395 -0.003240 0.005791
# 2 -0.004153 0.012131 -0.002838 -0.000259 0.000987 0.001806
# 3 -0.000957 -0.002838 0.007444 -0.000862 -0.004724 0.001030
# 4 -0.000395 -0.000259 -0.000862 0.023442 0.000554 0.002446
# 5 -0.003240 0.000987 -0.004724 0.000554 0.030156 -0.004313
# 6 0.005791 0.001806 0.001030 0.002446 -0.004313 0.025455
#
#
# Mechanical properties :
#
#
# Convention : Reuss Voigt Hill
#
# Bulk Modulus (GPa) = 70.52017 102.14679 86.33348
# Shear Modulus (GPa) = 38.53473 45.28189 41.90831
#
# Velocity S-wave (km/s) = 3.90921 4.23765 4.07674
# Velocity P-wave (km/s) = 6.95288 8.02823 7.50983
#
# Compressibility (1/GPa) = 0.01418034
#
# Stress axis : x y z
#
# Youngs Moduli (GPa) = 95.23144 82.43031 134.33234
#
# Poissons Ratio (x) = 0.34236 0.12854
# Poissons Ratio (y) = 0.39553 0.38121
# Poissons Ratio (z) = 0.09112 0.23392
#
# Static dielectric constant tensor:
#      x y z
#    x 2.194130 0.036460 0.001930 
#    y 0.036460 2.078430 -0.018460 
#    z 0.001930 -0.018460 1.978940 
# 
# From -- ./inp_files/300934.got.cif
#   From: 2010.05.17/outbox.cif.g08.bks.cpg/sg2_151_cif.got.tgz:300934.got - 2010.06.03 11:33:40.
