data_PCOD9104360
_publ_section_title
;
Structure prediction by ZEFSAII (Michael W. Deem and Ramdas Pophale) SiO2 
 PCOD9104360
Probable space group: P -1
;
_chemical_formula_sum "Si O2"
_cell_formula_units_Z 16
_cell_length_a 19.040324
_cell_length_b 11.977793
_cell_length_c 5.402099
_cell_angle_alpha 81.899148
_cell_angle_beta 56.945719
_cell_angle_gamma 47.597546
_cell_volume 709.424836
_symmetry_space_group_name_H-M "P -1"
_symmetry_group_IT_number 2
_symmetry_cell_setting 'triclinic'
loop_
_space_group_symop_operation_xyz
x,y,z
-x,-y,-z
loop_
_atom_site_type_symbol
_atom_site_label
_atom_site_fract_x
_atom_site_fract_y
_atom_site_fract_z
Si Si1 0.868930 0.688209 0.832508
Si Si2 0.358878 0.561305 0.062155
Si Si3 0.037729 0.615626 0.132174
Si Si4 0.282556 0.508694 0.734610
Si Si5 0.661992 0.829731 0.853576
Si Si6 0.469346 0.174931 0.290337
Si Si7 0.618199 0.239024 0.789411
Si Si8 0.778719 0.920059 0.303790
O O1 0.903773 0.561046 0.009395
O O2 0.784786 0.699477 0.806373
O O3 0.983334 0.631844 0.497600
O O4 0.790139 0.871067 0.014575
O O5 0.317132 0.537788 0.401971
O O6 0.333386 0.716323 0.124341
O O7 0.301517 0.566788 0.922289
O O8 0.504394 0.404988 0.813671
O O9 0.918030 0.773458 0.172181
O O10 0.145748 0.598518 0.945514
O O11 0.376633 0.311435 0.630263
O O12 0.616142 0.770713 0.798214
O O13 0.696091 0.899846 0.580777
O O14 0.555318 0.982172 0.182908
O O15 0.558431 0.192368 0.062020
O O16 0.717394 0.093491 0.457080
#
# Coordination Sequence:
#
# PCOD9104360 Si02
#       8
#     2   2   2   2   2   2   2   2
#     4  10  21  35  63  88 125 167 208 257 296 386
#     4  10  24  44  66  99 120 165 207 274 315 376
#     4  10  23  38  58  92 123 171 207 255 306 376
#     4  11  24  41  68  90 130 163 213 258 320 370
#     4   9  19  36  54  96 128 159 207 248 318 370
#     4   9  19  36  60  90 130 164 199 260 311 388
#     4   9  21  41  65  90 124 158 213 259 326 369
#     4  10  20  39  60  88 125 169 204 258 309 377
#
# _framework density 22.55348
#
# number of rings (size 3 to 8) (size 9 to 14) (size 15 to 20)
#    0.000    2.250    0.000    1.125    7.000    5.500 
#    4.500    3.750    0.000    0.000    0.000    0.000 
#    0.000    0.000    0.000    0.000    0.000    0.000 
#
# Total GULP energy -89321.197367 kJ/mol
# GULP energy per Si atom -5582.574835 kJ/mol
# Density = 2.250215 g / cm^3
# Si number density = 22.553480 Si / 1000 Ang^3
#
#
#
# Elastic Constant Matrix: (Units=GPa)
#
#
# Indices 1 2 3 4 5 6 
#
# 1 179.9985 52.7121 68.1913 16.9490 2.5036 9.3973
# 2 52.7121 58.4557 28.2027 22.4709 5.4863 11.6240
# 3 68.1913 28.2027 113.8122 22.5065 -1.2144 9.7567
# 4 16.9490 22.4709 22.5065 31.1121 0.7610 2.1889
# 5 2.5036 5.4863 -1.2144 0.7610 31.5369 9.5549
# 6 9.3973 11.6240 9.7567 2.1889 9.5549 37.1160
#
#
#
# Elastic Compliance Matrix: (Units=1/GPa)
#
#
# Indices 1 2 3 4 5 6 
#
# 1 0.009049 -0.007698 -0.004331 0.003690 0.000054 0.001027
# 2 -0.007698 0.032694 0.000928 -0.019555 -0.002530 -0.006729
# 3 -0.004331 0.000928 0.012867 -0.007479 0.001633 -0.002556
# 4 0.003690 -0.019555 -0.007479 0.049365 0.000373 0.004149
# 5 0.000054 -0.002530 0.001633 0.000373 0.034815 -0.008635
# 6 0.001027 -0.006729 -0.002556 0.004149 -0.008635 0.031440
#
#
# Mechanical properties :
#
#
# Convention : Reuss Voigt Hill
#
# Bulk Modulus (GPa) = 30.85778 72.27538 51.56658
# Shear Modulus (GPa) = 24.60210 33.49701 29.04956
#
# Velocity S-wave (km/s) = 3.30636 3.85804 3.59281
# Velocity P-wave (km/s) = 5.31863 7.20845 6.33441
#
# Compressibility (1/GPa) = 0.03240674
#
# Stress axis : x y z
#
# Youngs Moduli (GPa) = 110.50955 30.58691 77.71762
#
# Poissons Ratio (x) = 0.23545 0.33662
# Poissons Ratio (y) = 0.85068 -0.07209
# Poissons Ratio (z) = 0.47866 -0.02837
#
# Static dielectric constant tensor:
#      x y z
#    x 1.820310 -0.014950 0.047620 
#    y -0.014950 1.941470 -0.001360 
#    z 0.047620 -0.001360 1.892360 
# 
# From -- ./inp_files/109704.got.cif
#   From: 2010.05.17/outbox.cif.g08.bks.cpg/sg2_55_cif.got.tgz:109704.got - 2010.06.03 11:33:40.
