data_PCOD9104010
_publ_section_title
;
Structure prediction by ZEFSAII (Michael W. Deem and Ramdas Pophale) SiO2 
 PCOD9104010
Probable space group: P -1
;
_chemical_formula_sum "Si O2"
_cell_formula_units_Z 16
_cell_length_a 9.201961
_cell_length_b 13.887779
_cell_length_c 12.163968
_cell_angle_alpha 53.918934
_cell_angle_beta 37.092697
_cell_angle_gamma 58.506654
_cell_volume 753.261797
_symmetry_space_group_name_H-M "P -1"
_symmetry_group_IT_number 2
_symmetry_cell_setting 'triclinic'
loop_
_space_group_symop_operation_xyz
x,y,z
-x,-y,-z
loop_
_atom_site_type_symbol
_atom_site_label
_atom_site_fract_x
_atom_site_fract_y
_atom_site_fract_z
Si Si1 0.707069 0.514404 0.451588
Si Si2 0.695159 0.786973 0.280024
Si Si3 0.210309 0.385418 0.238792
Si Si4 0.498660 0.858772 0.713648
Si Si5 0.887524 0.176743 0.839362
Si Si6 0.629833 0.436091 0.792619
Si Si7 0.729444 0.107172 0.410351
Si Si8 0.762952 0.960079 0.918752
O O1 0.500000 0.500000 0.500000
O O2 0.784823 0.647974 0.302084
O O3 0.615287 0.498481 0.641785
O O4 0.930190 0.414372 0.362711
O O5 0.416594 0.805321 0.473735
O O6 0.849876 0.831991 0.257812
O O7 0.733059 0.866496 0.097674
O O8 0.302839 0.255006 0.316228
O O9 0.260302 0.479579 0.241016
O O10 0.376359 0.408341 0.017826
O O11 0.356513 0.854644 0.686961
O O12 0.627144 0.978508 0.571408
O O13 0.299350 0.850803 0.933615
O O14 0.801629 0.311285 0.762457
O O15 0.865508 0.077625 0.827839
O O16 0.019407 0.096726 0.252166
O O17 0.500000 0.000000 0.000000
#
# Coordination Sequence:
#
# PCOD9104010 Si02
#       8
#     2   2   2   2   2   2   2   2
#     4  12  28  44  66 102 143 184 222 277 350 411
#     4  12  25  46  69  99 135 178 234 280 327 407
#     4  10  22  43  69 100 131 176 234 286 330 395
#     4  10  20  38  72 103 130 169 231 288 326 390
#     4  11  21  44  71  98 135 171 233 280 330 398
#     4  10  23  41  69 100 128 179 233 281 328 397
#     4  11  23  40  68 101 132 176 224 281 337 393
#     4  12  28  44  66 101 143 182 215 276 350 407
#
# _framework density 21.240955
#
# number of rings (size 3 to 8) (size 9 to 14) (size 15 to 20)
#    0.000    1.000    3.750    3.000    5.250    2.000 
#    4.500    0.000    0.000    0.000    0.000    0.000 
#    0.000    0.000    0.000    0.000    0.000    0.000 
#
# Total GULP energy -89571.830847 kJ/mol
# GULP energy per Si atom -5598.239428 kJ/mol
# Density = 2.119261 g / cm^3
# Si number density = 21.240955 Si / 1000 Ang^3
#
#
#
# Elastic Constant Matrix: (Units=GPa)
#
#
# Indices 1 2 3 4 5 6 
#
# 1 76.4152 18.5110 30.1673 -2.8185 -16.5150 -29.9245
# 2 18.5110 107.9316 27.4163 1.5267 -1.2969 -25.3304
# 3 30.1673 27.4163 54.8457 13.5121 -2.3915 -22.0126
# 4 -2.8185 1.5267 13.5121 42.1631 -11.9741 -5.1120
# 5 -16.5150 -1.2969 -2.3915 -11.9741 22.2633 7.1979
# 6 -29.9245 -25.3304 -22.0126 -5.1120 7.1979 29.1324
#
#
#
# Elastic Compliance Matrix: (Units=1/GPa)
#
#
# Indices 1 2 3 4 5 6 
#
# 1 0.031997 0.003204 -0.012835 0.015594 0.023534 0.022876
# 2 0.003204 0.012369 -0.003976 0.002519 0.000339 0.011400
# 3 -0.012835 -0.003976 0.034976 -0.015682 -0.018155 0.011521
# 4 0.015594 0.002519 -0.015682 0.038618 0.028859 0.006004
# 5 0.023534 0.000339 -0.018155 0.028859 0.077004 -0.003211
# 6 0.022876 0.011400 0.011521 0.006004 -0.003211 0.078288
#
#
# Mechanical properties :
#
#
# Convention : Reuss Voigt Hill
#
# Bulk Modulus (GPa) = 19.18360 43.48687 31.33523
# Shear Modulus (GPa) = 15.73099 29.58495 22.65797
#
# Velocity S-wave (km/s) = 2.72434 3.73611 3.26960
# Velocity P-wave (km/s) = 4.35283 6.25531 5.38869
#
# Compressibility (1/GPa) = 0.05212787
#
# Stress axis : x y z
#
# Youngs Moduli (GPa) = 31.25271 80.84407 28.59089
#
# Poissons Ratio (x) = -0.25899 0.36698
# Poissons Ratio (y) = -0.10012 0.11367
# Poissons Ratio (z) = 0.40114 0.32141
#
# Static dielectric constant tensor:
#      x y z
#    x 1.722180 -0.009210 -0.009940 
#    y -0.009210 1.776930 0.024450 
#    z -0.009940 0.024450 1.785220 
# 
# From -- ./inp_files/398502.got.cif
#   From: 2010.05.17/outbox.cif.g08.bks.cpg/sg2_200_cif.got.tgz:398502.got - 2010.06.03 11:33:40.
