data_PCOD9104035
_publ_section_title
;
Structure prediction by ZEFSAII (Michael W. Deem and Ramdas Pophale) SiO2 
 PCOD9104035
Probable space group: P -1
;
_chemical_formula_sum "Si O2"
_cell_formula_units_Z 13
_cell_length_a 8.265196
_cell_length_b 9.390438
_cell_length_c 14.184998
_cell_angle_alpha 35.389196
_cell_angle_beta 50.747945
_cell_angle_gamma 61.969678
_cell_volume 491.140010
_symmetry_space_group_name_H-M "P -1"
_symmetry_group_IT_number 2
_symmetry_cell_setting 'triclinic'
loop_
_space_group_symop_operation_xyz
x,y,z
-x,-y,-z
loop_
_atom_site_type_symbol
_atom_site_label
_atom_site_fract_x
_atom_site_fract_y
_atom_site_fract_z
Si Si1 0.722239 0.661212 0.349165
Si Si2 0.500000 0.000000 0.500000
Si Si3 0.857188 0.119733 0.146661
Si Si4 0.633101 0.501878 0.667589
Si Si5 0.751871 0.021648 0.817179
Si Si6 0.959427 0.671037 0.610649
Si Si7 0.288730 0.368228 0.105776
O O1 0.500000 0.500000 0.500000
O O2 0.771581 0.601977 0.472021
O O3 0.889611 0.527439 0.301621
O O4 0.754371 0.958184 0.182273
O O5 0.699739 0.048551 0.330451
O O6 0.531114 0.298433 0.364395
O O7 0.849155 0.411313 0.985688
O O8 0.088917 0.048879 0.122829
O O9 0.594185 0.216235 0.804802
O O10 0.777730 0.529269 0.690925
O O11 0.903205 0.149141 0.608374
O O12 0.658155 0.781931 0.924517
O O13 0.831998 0.783870 0.681547
O O14 0.500000 0.500000 0.000000
#
# Coordination Sequence:
#
# PCOD9104035 Si02
#       7
#     2   1   2   2   2   2   2
#     4  10  21  38  73 106 132 172 245 295 333 415
#     4  10  20  38  74 104 126 174 236 284 336 418
#     4  11  23  44  68  97 143 182 234 287 351 416
#     4  10  20  42  72  99 132 179 235 284 341 422
#     4  11  22  47  73  92 135 196 234 276 349 430
#     4  11  21  46  72  98 137 187 230 286 358 418
#     4  12  29  41  64 108 148 177 230 305 346 404
#
# _framework density 26.469028999999999
#
# number of rings (size 3 to 8) (size 9 to 14) (size 15 to 20)
#    0.000    1.231    4.615    2.769    4.308    3.077 
#    0.000    4.615    0.000    0.000    0.000    0.000 
#    0.000    0.000    0.000    0.000    0.000    0.000 
#
# Total GULP energy -72377.308979 kJ/mol
# GULP energy per Si atom -5567.485306 kJ/mol
# Density = 2.640878 g / cm^3
# Si number density = 26.469029 Si / 1000 Ang^3
#
#
#
# Elastic Constant Matrix: (Units=GPa)
#
#
# Indices 1 2 3 4 5 6 
#
# 1 67.6266 60.0033 7.3083 -8.3136 -10.3616 22.4910
# 2 60.0033 185.9507 20.7168 -14.4324 -6.5611 22.0072
# 3 7.3083 20.7168 66.5892 -5.6649 -4.3430 6.0275
# 4 -8.3136 -14.4324 -5.6649 53.3580 0.1675 -12.8271
# 5 -10.3616 -6.5611 -4.3430 0.1675 24.2183 -15.5004
# 6 22.4910 22.0072 6.0275 -12.8271 -15.5004 29.6759
#
#
#
# Elastic Compliance Matrix: (Units=1/GPa)
#
#
# Indices 1 2 3 4 5 6 
#
# 1 0.025427 -0.006562 0.000481 -0.001495 -0.000748 -0.015539
# 2 -0.006562 0.007798 -0.001663 0.000660 -0.001678 -0.001064
# 3 0.000481 -0.001663 0.015782 0.001110 0.002087 -0.000768
# 4 -0.001495 0.000660 0.001110 0.022335 0.009059 0.014804
# 5 -0.000748 -0.001678 0.002087 0.009059 0.066430 0.040001
# 6 -0.015539 -0.001064 -0.000768 0.014804 0.040001 0.073712
#
#
# Mechanical properties :
#
#
# Convention : Reuss Voigt Hill
#
# Bulk Modulus (GPa) = 29.83271 55.13591 42.48431
# Shear Modulus (GPa) = 20.99573 36.92630 28.96101
#
# Velocity S-wave (km/s) = 2.81947 3.73912 3.31138
# Velocity P-wave (km/s) = 4.67915 6.28625 5.54127
#
# Compressibility (1/GPa) = 0.03352026
#
# Stress axis : x y z
#
# Youngs Moduli (GPa) = 39.32857 128.23279 63.36338
#
# Poissons Ratio (x) = 0.84144 -0.03050
# Poissons Ratio (y) = 0.25807 0.10538
# Poissons Ratio (z) = -0.01893 0.21326
#
# Static dielectric constant tensor:
#      x y z
#    x 2.102220 -0.032950 0.088790 
#    y -0.032950 2.149750 -0.164780 
#    z 0.088790 -0.164780 2.330620 
# 
# From -- ./inp_files/491798.got.cif
#   From: 2010.05.17/outbox.cif.g08.bks.cpg/sg2_246_cif.got.tgz:491798.got - 2010.06.03 11:33:40.
