data_PCOD9104309
_publ_section_title
;
Structure prediction by ZEFSAII (Michael W. Deem and Ramdas Pophale) SiO2 
 PCOD9104309
Probable space group: P -1
;
_chemical_formula_sum "Si O2"
_cell_formula_units_Z 14
_cell_length_a 15.968333
_cell_length_b 15.736924
_cell_length_c 8.246204
_cell_angle_alpha 121.356443
_cell_angle_beta 75.505468
_cell_angle_gamma 153.631966
_cell_volume 646.105366
_symmetry_space_group_name_H-M "P -1"
_symmetry_group_IT_number 2
_symmetry_cell_setting 'triclinic'
loop_
_space_group_symop_operation_xyz
x,y,z
-x,-y,-z
loop_
_atom_site_type_symbol
_atom_site_label
_atom_site_fract_x
_atom_site_fract_y
_atom_site_fract_z
Si Si1 0.862387 0.909859 0.203891
Si Si2 0.484494 0.574676 0.310078
Si Si3 0.882917 0.667838 0.704876
Si Si4 0.366391 0.868970 0.103605
Si Si5 0.823510 0.391249 0.546303
Si Si6 0.997593 0.644451 0.065167
Si Si7 0.124332 0.987796 0.221458
O O1 0.679336 0.759648 0.267374
O O2 0.981620 0.938433 0.247980
O O3 0.719230 0.719496 0.925917
O O4 0.042986 0.184938 0.334692
O O5 0.355751 0.542134 0.320810
O O6 0.616055 0.713498 0.554428
O O7 0.850113 0.517368 0.546838
O O8 0.075703 0.891508 0.971557
O O9 0.176467 0.581744 0.940047
O O10 0.567061 0.078159 0.346153
O O11 0.231881 0.830374 0.146011
O O12 0.500000 0.000000 0.000000
O O13 0.888332 0.494048 0.797184
O O14 0.000000 0.500000 0.500000
O O15 0.038605 0.806250 0.198921
#
# Coordination Sequence:
#
# PCOD9104309 Si02
#       7
#     2   2   2   2   2   2   2
#     4  10  22  39  59  91 122 153 200 243 293 363
#     4  10  20  39  60  84 122 159 190 246 299 349
#     4  10  23  40  59  88 122 156 200 247 295 354
#     4  11  22  41  63  88 123 159 206 253 302 358
#     4  11  22  43  62  89 125 161 207 252 305 363
#     4  10  23  41  62  91 125 162 200 254 305 359
#     4  10  20  39  62  89 122 154 201 241 295 365
#
# _framework density 21.668295000000001
#
# number of rings (size 3 to 8) (size 9 to 14) (size 15 to 20)
#    0.000    1.714    1.429    3.429    0.000    3.429 
#   12.857    1.429    0.000    0.000    0.000    0.000 
#    0.000    0.000    0.000    0.000    0.000    0.000 
#
# Total GULP energy -78196.346442 kJ/mol
# GULP energy per Si atom -5585.453317 kJ/mol
# Density = 2.161898 g / cm^3
# Si number density = 21.668295 Si / 1000 Ang^3
#
#
#
# Elastic Constant Matrix: (Units=GPa)
#
#
# Indices 1 2 3 4 5 6 
#
# 1 145.1101 57.3578 12.7081 20.4414 -17.0025 -3.2296
# 2 57.3578 89.0779 2.6513 9.9500 -15.2683 -7.8289
# 3 12.7081 2.6513 87.2938 7.7268 19.3274 15.6135
# 4 20.4414 9.9500 7.7268 22.4432 2.8979 2.3211
# 5 -17.0025 -15.2683 19.3274 2.8979 37.4186 10.6433
# 6 -3.2296 -7.8289 15.6135 2.3211 10.6433 26.6046
#
#
#
# Elastic Compliance Matrix: (Units=1/GPa)
#
#
# Indices 1 2 3 4 5 6 
#
# 1 0.010633 -0.005305 -0.001599 -0.007283 0.004159 -0.000361
# 2 -0.005305 0.015921 -0.000903 -0.002750 0.003833 0.003277
# 3 -0.001599 -0.000903 0.014433 -0.001617 -0.006685 -0.006114
# 4 -0.007283 -0.002750 -0.001617 0.054149 -0.007035 -0.002654
# 5 0.004159 0.003833 -0.006685 -0.007035 0.036585 -0.008466
# 6 -0.000361 0.003277 -0.006114 -0.002654 -0.008466 0.045715
#
#
# Mechanical properties :
#
#
# Convention : Reuss Voigt Hill
#
# Bulk Modulus (GPa) = 39.40928 51.87958 45.64443
# Shear Modulus (GPa) = 24.81326 33.87758 29.34542
#
# Velocity S-wave (km/s) = 3.38767 3.95835 3.68408
# Velocity P-wave (km/s) = 5.79040 6.69970 6.26158
#
# Compressibility (1/GPa) = 0.02537474
#
# Stress axis : x y z
#
# Youngs Moduli (GPa) = 94.04447 62.81065 69.28763
#
# Poissons Ratio (x) = 0.33318 0.11077
# Poissons Ratio (y) = 0.49886 0.06255
# Poissons Ratio (z) = 0.15035 0.05670
#
# Static dielectric constant tensor:
#      x y z
#    x 1.776600 -0.041230 0.022440 
#    y -0.041230 1.779300 -0.033430 
#    z 0.022440 -0.033430 1.834840 
# 
# From -- ./inp_files/313605.got.cif
#   From: 2010.05.17/outbox.cif.g08.bks.cpg/sg2_157_cif.got.tgz:313605.got - 2010.06.03 11:33:40.
