data_PCOD9104900
_publ_section_title
;
Structure prediction by ZEFSAII (Michael W. Deem and Ramdas Pophale) SiO2 
 PCOD9104900
Probable space group: P -1
;
_chemical_formula_sum "Si O2"
_cell_formula_units_Z 16
_cell_length_a 14.870318
_cell_length_b 11.315270
_cell_length_c 14.146837
_cell_angle_alpha 52.980540
_cell_angle_beta 30.026066
_cell_angle_gamma 73.827696
_cell_volume 755.342108
_symmetry_space_group_name_H-M "P -1"
_symmetry_group_IT_number 2
_symmetry_cell_setting 'triclinic'
loop_
_space_group_symop_operation_xyz
x,y,z
-x,-y,-z
loop_
_atom_site_type_symbol
_atom_site_label
_atom_site_fract_x
_atom_site_fract_y
_atom_site_fract_z
Si Si1 0.528840 0.437958 0.735282
Si Si2 0.172786 0.597398 0.665385
Si Si3 0.672906 0.691756 0.816865
Si Si4 0.594215 0.988121 0.717370
Si Si5 0.890467 0.270662 0.627906
Si Si6 0.958644 0.636808 0.336288
Si Si7 0.313882 0.590187 0.751578
Si Si8 0.598526 0.999486 0.311911
O O1 0.662425 0.395838 0.563615
O O2 0.368315 0.459487 0.808886
O O3 0.739294 0.617626 0.513154
O O4 0.401995 0.319137 0.000983
O O5 0.243512 0.562601 0.719209
O O6 0.223988 0.798639 0.520419
O O7 0.901100 0.445862 0.980526
O O8 0.667645 0.855353 0.704120
O O9 0.925510 0.752355 0.566718
O O10 0.500000 0.500000 0.000000
O O11 0.525248 0.001061 0.668343
O O12 0.376106 0.891872 0.033067
O O13 0.980172 0.323180 0.628854
O O14 0.921516 0.439819 0.460969
O O15 0.155790 0.809450 0.014803
O O16 0.544850 0.798836 0.451803
O O17 0.500000 0.000000 0.500000
#
# Coordination Sequence:
#
# PCOD9104900 Si02
#       8
#     2   2   2   2   2   2   2   2
#     4  12  24  38  69  96 127 171 214 265 318 383
#     4  10  24  48  65  88 130 173 223 263 313 375
#     4  12  23  38  65 100 132 167 206 262 328 387
#     4  10  23  43  65  92 128 174 210 266 319 375
#     4  10  20  40  62  91 136 165 204 256 327 382
#     4  10  20  39  62  94 132 170 199 264 325 380
#     4  10  24  44  67  92 125 176 218 268 315 374
#     4  10  21  36  65  96 127 166 211 261 323 383
#
# _framework density 21.182455000000001
#
# number of rings (size 3 to 8) (size 9 to 14) (size 15 to 20)
#    0.000    1.500    2.500    2.625    5.250    2.000 
#    0.000   11.250    0.000    0.000    0.000    0.000 
#    0.000    0.000    0.000    0.000    0.000    0.000 
#
# Total GULP energy -89082.731370 kJ/mol
# GULP energy per Si atom -5567.670711 kJ/mol
# Density = 2.113424 g / cm^3
# Si number density = 21.182455 Si / 1000 Ang^3
#
#
#
# Elastic Constant Matrix: (Units=GPa)
#
#
# Indices 1 2 3 4 5 6 
#
# 1 38.0221 30.3986 18.2280 5.6494 -2.2110 -5.8055
# 2 30.3986 34.6002 10.7434 12.7340 11.1647 -9.6330
# 3 18.2280 10.7434 92.0516 10.1295 7.8996 -0.1605
# 4 5.6494 12.7340 10.1295 35.9225 3.5522 4.4013
# 5 -2.2110 11.1647 7.8996 3.5522 25.6531 10.6028
# 6 -5.8055 -9.6330 -0.1605 4.4013 10.6028 24.6614
#
#
#
# Elastic Compliance Matrix: (Units=1/GPa)
#
#
# Indices 1 2 3 4 5 6 
#
# 1 -0.093059 0.159298 0.015133 -0.046696 -0.116372 0.098781
# 2 0.159298 -0.204647 -0.026921 0.054461 0.152225 -0.117779
# 3 0.015133 -0.026921 0.009122 0.004825 0.015504 -0.014421
# 4 -0.046696 0.054461 0.004825 0.015529 -0.041931 0.025568
# 5 -0.116372 0.152225 0.015504 -0.041931 -0.064035 0.067181
# 6 0.098781 -0.117779 -0.014421 0.025568 0.067181 -0.015743
#
#
# Mechanical properties :
#
#
# Convention : Reuss Voigt Hill
#
# Bulk Modulus (GPa) = 155.38414 31.49043 93.43729
# Shear Modulus (GPa) = -7.74346 24.26767 8.26211
#
# Velocity S-wave (km/s) = -1.91404 3.38842 1.97710
# Velocity P-wave (km/s) = 8.28430 5.49609 7.02982
#
# Compressibility (1/GPa) = 0.00643566
#
# Stress axis : x y z
#
# Youngs Moduli (GPa) = -10.74587 -4.88647 109.62222
#
# Poissons Ratio (x) = 0.77840 -1.65893
# Poissons Ratio (y) = 1.71179 2.95118
# Poissons Ratio (z) = 0.16262 -0.13155
#
# Static dielectric constant tensor:
#      x y z
#    x 1.797510 0.054620 0.012670 
#    y 0.054620 1.804360 0.012420 
#    z 0.012670 0.012420 1.899950 
# 
# From -- ./inp_files/532390.got.cif
#   From: 2010.05.17/outbox.cif.g08.bks.cpg/sg2_267_cif.got.tgz:532390.got - 2010.06.03 11:33:40.
