data_PCOD9104461
_publ_section_title
;
Structure prediction by ZEFSAII (Michael W. Deem and Ramdas Pophale) SiO2 
 PCOD9104461
Probable space group: P -1
;
_chemical_formula_sum "Si O2"
_cell_formula_units_Z 16
_cell_length_a 15.028831
_cell_length_b 9.374539
_cell_length_c 7.561957
_cell_angle_alpha 62.484446
_cell_angle_beta 54.412198
_cell_angle_gamma 91.997615
_cell_volume 696.949996
_symmetry_space_group_name_H-M "P -1"
_symmetry_group_IT_number 2
_symmetry_cell_setting 'triclinic'
loop_
_space_group_symop_operation_xyz
x,y,z
-x,-y,-z
loop_
_atom_site_type_symbol
_atom_site_label
_atom_site_fract_x
_atom_site_fract_y
_atom_site_fract_z
Si Si1 0.264961 0.564917 0.341646
Si Si2 0.631447 0.874611 0.136849
Si Si3 0.536914 0.567390 0.689382
Si Si4 0.634228 0.203543 0.594166
Si Si5 0.283280 0.501409 0.974370
Si Si6 0.338961 0.076295 0.532018
Si Si7 0.134749 0.134989 0.221986
Si Si8 0.121752 0.171547 0.800021
O O1 0.374523 0.516016 0.305630
O O2 0.289773 0.727917 0.352358
O O3 0.269854 0.600227 0.107982
O O4 0.148049 0.374398 0.606565
O O5 0.589144 0.676380 0.385348
O O6 0.511377 0.862878 0.185699
O O7 0.655906 0.982019 0.234802
O O8 0.754148 0.923091 0.859090
O O9 0.550626 0.730140 0.710370
O O10 0.396323 0.452324 0.906691
O O11 0.655314 0.054971 0.544763
O O12 0.683028 0.372752 0.307020
O O13 0.169916 0.317161 0.181731
O O14 0.224261 0.122307 0.622999
O O15 0.138038 0.176648 0.987632
O O16 0.000000 0.000000 0.500000
O O17 0.000000 0.000000 0.000000
#
# Coordination Sequence:
#
# PCOD9104461 Si02
#       8
#     2   2   2   2   2   2   2   2
#     4  11  20  34  56  87 119 149 197 241 283 341
#     4   8  17  32  58  85 113 155 188 230 292 343
#     4   8  17  34  56  85 118 150 196 234 292 333
#     4  11  19  36  63  86 124 153 183 233 309 348
#     4  11  21  32  58  89 117 151 194 242 287 344
#     4   8  18  34  61  86 113 161 186 232 298 350
#     4  11  20  35  56  86 116 151 201 241 284 334
#     4  10  20  39  61  82 113 157 200 242 283 339
#
# _framework density 22.957170999999999
#
# number of rings (size 3 to 8) (size 9 to 14) (size 15 to 20)
#    0.750    1.500    2.500    2.250    0.000    2.000 
#    0.000    1.250   16.500    3.750    0.000    0.000 
#    0.000    0.000    0.000    0.000    0.000    0.000 
#
# Total GULP energy -89301.195606 kJ/mol
# GULP energy per Si atom -5581.324725 kJ/mol
# Density = 2.290492 g / cm^3
# Si number density = 22.957171 Si / 1000 Ang^3
#
#
#
# Elastic Constant Matrix: (Units=GPa)
#
#
# Indices 1 2 3 4 5 6 
#
# 1 47.5353 32.6209 30.6895 -2.7494 -3.6004 21.5841
# 2 32.6209 180.7070 37.2868 1.7976 -11.4360 36.2422
# 3 30.6895 37.2868 111.3311 3.0298 -29.2657 6.4287
# 4 -2.7494 1.7976 3.0298 32.8743 16.3820 1.2527
# 5 -3.6004 -11.4360 -29.2657 16.3820 38.4596 -6.9899
# 6 21.5841 36.2422 6.4287 1.2527 -6.9899 33.5336
#
#
#
# Elastic Compliance Matrix: (Units=1/GPa)
#
#
# Indices 1 2 3 4 5 6 
#
# 1 0.045473 -0.000012 -0.016895 0.017341 -0.021656 -0.031179
# 2 -0.000012 0.007552 -0.002466 0.000839 -0.001446 -0.008014
# 3 -0.016895 -0.002466 0.019629 -0.014317 0.021405 0.014774
# 4 0.017341 0.000839 -0.014317 0.050770 -0.033973 -0.018302
# 5 -0.021656 -0.001446 0.021405 -0.033973 0.058834 0.024932
# 6 -0.031179 -0.008014 0.014774 -0.018302 0.024932 0.061599
#
#
# Mechanical properties :
#
#
# Convention : Reuss Voigt Hill
#
# Bulk Modulus (GPa) = 29.49289 60.08532 44.78911
# Shear Modulus (GPa) = 17.01211 36.90522 26.95867
#
# Velocity S-wave (km/s) = 2.72515 4.01380 3.43053
# Velocity P-wave (km/s) = 4.77250 6.90727 5.93663
#
# Compressibility (1/GPa) = 0.03390647
#
# Stress axis : x y z
#
# Youngs Moduli (GPa) = 21.99091 132.40743 50.94554
#
# Poissons Ratio (x) = 0.00165 0.86074
# Poissons Ratio (y) = 0.00027 0.12564
# Poissons Ratio (z) = 0.37154 0.32655
#
# Static dielectric constant tensor:
#      x y z
#    x 1.919800 0.027230 0.035140 
#    y 0.027230 1.927490 -0.005980 
#    z 0.035140 -0.005980 1.910780 
# 
# From -- ./inp_files/328692.got.cif
#   From: 2010.05.17/outbox.cif.g08.bks.cpg/sg2_165_cif.got.tgz:328692.got - 2010.06.03 11:33:40.
