data_PCOD9104189
_publ_section_title
;
Structure prediction by ZEFSAII (Michael W. Deem and Ramdas Pophale) SiO2 
 PCOD9104189
Probable space group: P -1
;
_chemical_formula_sum "Si O2"
_cell_formula_units_Z 14
_cell_length_a 9.378159
_cell_length_b 7.150287
_cell_length_c 8.361340
_cell_angle_alpha 71.981947
_cell_angle_beta 94.018464
_cell_angle_gamma 107.166785
_cell_volume 509.293496
_symmetry_space_group_name_H-M "P -1"
_symmetry_group_IT_number 2
_symmetry_cell_setting 'triclinic'
loop_
_space_group_symop_operation_xyz
x,y,z
-x,-y,-z
loop_
_atom_site_type_symbol
_atom_site_label
_atom_site_fract_x
_atom_site_fract_y
_atom_site_fract_z
Si Si1 0.042156 0.104380 0.217609
Si Si2 0.271443 0.411171 0.960408
Si Si3 0.425760 0.970048 0.698276
Si Si4 0.115633 0.788223 0.540499
Si Si5 0.522553 0.567061 0.741581
Si Si6 0.293282 0.634724 0.367941
Si Si7 0.784437 0.217084 0.014478
O O1 0.183303 0.203741 0.092592
O O2 0.012981 0.244624 0.327293
O O3 0.906063 0.100683 0.091776
O O4 0.060948 0.907876 0.361550
O O5 0.393061 0.499695 0.085119
O O6 0.354555 0.417188 0.797475
O O7 0.179556 0.577720 0.921996
O O8 0.269906 0.933100 0.596866
O O9 0.498795 0.788171 0.707602
O O10 0.368564 0.927696 0.886583
O O11 0.556095 0.178785 0.635331
O O12 0.174939 0.614361 0.506085
O O13 0.632659 0.547009 0.614109
O O14 0.224682 0.709833 0.184879
#
# Coordination Sequence:
#
# PCOD9104189 Si02
#       7
#     2   2   2   2   2   2   2
#     4  10  20  39  59  81 122 164 195 238 289 350
#     4   9  17  35  60  86 119 153 190 248 301 340
#     4  10  20  39  61  86 123 157 190 243 298 347
#     4  10  23  37  56  86 120 163 200 227 291 366
#     4   9  20  36  60  93 116 145 199 247 295 348
#     4  11  21  37  61  93 120 148 196 249 296 343
#     4   9  20  35  60  91 114 151 204 243 290 351
#
# _framework density 27.489062000000001
#
# number of rings (size 3 to 8) (size 9 to 14) (size 15 to 20)
#    0.000    2.286    0.000    3.000    0.000    2.286 
#    0.000    7.143    0.000    0.000    0.000    0.000 
#    0.000    0.000    0.000    0.000    0.000    0.000 
#
# Total GULP energy -78228.761543 kJ/mol
# GULP energy per Si atom -5587.768682 kJ/mol
# Density = 2.742650 g / cm^3
# Si number density = 27.489062 Si / 1000 Ang^3
#
#
#
# Elastic Constant Matrix: (Units=GPa)
#
#
# Indices 1 2 3 4 5 6 
#
# 1 122.4550 26.6664 51.9148 3.2417 -6.2822 -27.4073
# 2 26.6664 50.4946 0.8776 -2.5651 1.2377 -20.3514
# 3 51.9148 0.8776 86.9593 9.4556 18.2195 -13.7180
# 4 3.2417 -2.5651 9.4556 25.3398 -22.5558 -6.3079
# 5 -6.2822 1.2377 18.2195 -22.5558 67.5834 -7.1521
# 6 -27.4073 -20.3514 -13.7180 -6.3079 -7.1521 41.9797
#
#
#
# Elastic Compliance Matrix: (Units=1/GPa)
#
#
# Indices 1 2 3 4 5 6 
#
# 1 0.016105 -0.004704 -0.011716 0.012493 0.009752 0.007944
# 2 -0.004704 0.027706 0.003421 0.006927 0.001802 0.012827
# 3 -0.011716 0.003421 0.023225 -0.021096 -0.014888 -0.004107
# 4 0.012493 0.006927 -0.021096 0.086332 0.038083 0.024082
# 5 0.009752 0.001802 -0.014888 0.038083 0.033861 0.013867
# 6 0.007944 0.012827 -0.004107 0.024082 0.013867 0.039865
#
#
# Mechanical properties :
#
#
# Convention : Reuss Voigt Hill
#
# Bulk Modulus (GPa) = 24.36701 46.53627 35.45164
# Shear Modulus (GPa) = 18.74267 39.01059 28.87663
#
# Velocity S-wave (km/s) = 2.61401 3.77122 3.24462
# Velocity P-wave (km/s) = 4.24196 5.99405 5.19244
#
# Compressibility (1/GPa) = 0.04103910
#
# Stress axis : x y z
#
# Youngs Moduli (GPa) = 62.09192 36.09298 43.05767
#
# Poissons Ratio (x) = 0.16978 0.50445
# Poissons Ratio (y) = 0.29208 -0.14731
# Poissons Ratio (z) = 0.72745 -0.12349
#
# Static dielectric constant tensor:
#      x y z
#    x 2.217280 0.030820 -0.029220 
#    y 0.030820 2.221710 0.082370 
#    z -0.029220 0.082370 2.203940 
# 
# From -- ./inp_files/154321.got.cif
#   From: 2010.05.17/outbox.cif.g08.bks.cpg/sg2_78_cif.got.tgz:154321.got - 2010.06.03 11:33:40.
