data_PCOD9104386
_publ_section_title
;
Structure prediction by ZEFSAII (Michael W. Deem and Ramdas Pophale) SiO2 
 PCOD9104386
Probable space group: P -1
;
_chemical_formula_sum "Si O2"
_cell_formula_units_Z 16
_cell_length_a 9.005495
_cell_length_b 7.859303
_cell_length_c 16.210073
_cell_angle_alpha 143.552441
_cell_angle_beta 75.801952
_cell_angle_gamma 101.235021
_cell_volume 660.768891
_symmetry_space_group_name_H-M "P -1"
_symmetry_group_IT_number 2
_symmetry_cell_setting 'triclinic'
loop_
_space_group_symop_operation_xyz
x,y,z
-x,-y,-z
loop_
_atom_site_type_symbol
_atom_site_label
_atom_site_fract_x
_atom_site_fract_y
_atom_site_fract_z
Si Si1 0.718700 0.579972 0.431068
Si Si2 0.439957 0.294648 0.665044
Si Si3 0.677168 0.796184 0.863259
Si Si4 0.873947 0.819777 0.992183
Si Si5 0.936792 0.291669 0.854509
Si Si6 0.539616 0.067134 0.327586
Si Si7 0.017856 0.783364 0.730600
Si Si8 0.417709 0.775940 0.081050
O O1 0.676875 0.572586 0.335613
O O2 0.646796 0.343008 0.412209
O O3 0.628130 0.860419 0.583208
O O4 0.897507 0.518943 0.396162
O O5 0.574198 0.526023 0.748860
O O6 0.500000 0.000000 0.500000
O O7 0.391903 0.184760 0.721236
O O8 0.717801 0.809164 0.959314
O O9 0.846134 0.770271 0.786316
O O10 0.604587 0.093678 0.956139
O O11 0.945623 0.501311 0.858614
O O12 0.871151 0.999563 0.147224
O O13 0.000000 0.000000 0.000000
O O14 0.757095 0.266458 0.884729
O O15 0.002997 0.973334 0.723917
O O16 0.000000 0.500000 0.000000
O O17 0.500494 0.011537 0.216570
O O18 0.500000 0.500000 0.000000
#
# Coordination Sequence:
#
# PCOD9104386 Si02
#       8
#     2   2   2   2   2   2   2   2
#     4  10  21  42  64  85 123 162 209 252 300 367
#     4  10  21  40  65  85 121 166 205 256 306 360
#     4  10  20  39  60  90 130 158 201 261 307 364
#     4   9  18  34  56  85 124 160 191 249 313 362
#     4   9  19  35  55  81 120 154 195 245 298 360
#     4  10  22  40  63  87 122 164 204 253 305 356
#     4   9  20  37  61  87 120 163 203 252 309 366
#     4  11  23  37  61  90 119 159 203 248 307 369
#
# _framework density 24.214214999999999
#
# number of rings (size 3 to 8) (size 9 to 14) (size 15 to 20)
#    0.000    2.250    1.250    1.500    3.500    1.000 
#    4.500    6.875    0.000    0.000    0.000    0.000 
#    0.000    0.000    0.000    0.000    0.000    0.000 
#
# Total GULP energy -89117.703229 kJ/mol
# GULP energy per Si atom -5569.856452 kJ/mol
# Density = 2.415910 g / cm^3
# Si number density = 24.214215 Si / 1000 Ang^3
#
#
#
# Elastic Constant Matrix: (Units=GPa)
#
#
# Indices 1 2 3 4 5 6 
#
# 1 99.2731 26.2012 17.3489 16.2518 -13.6254 -19.6895
# 2 26.2012 157.9052 17.0078 31.0576 -5.7681 -28.3011
# 3 17.3489 17.0078 44.6166 9.6734 1.7034 -10.3070
# 4 16.2518 31.0576 9.6734 36.7586 -3.4841 -2.2177
# 5 -13.6254 -5.7681 1.7034 -3.4841 35.1409 9.3509
# 6 -19.6895 -28.3011 -10.3070 -2.2177 9.3509 36.3490
#
#
#
# Elastic Compliance Matrix: (Units=1/GPa)
#
#
# Indices 1 2 3 4 5 6 
#
# 1 0.012729 0.000066 -0.003030 -0.004269 0.003349 0.004965
# 2 0.000066 0.008938 -0.000279 -0.007196 -0.000999 0.006734
# 3 -0.003030 -0.000279 0.026590 -0.005480 -0.004805 0.006583
# 4 -0.004269 -0.007196 -0.005480 0.036430 0.003187 -0.008067
# 5 0.003349 -0.000999 -0.004805 0.003187 0.032393 -0.008465
# 6 0.004965 0.006734 0.006583 -0.008067 -0.008465 0.038996
#
#
# Mechanical properties :
#
#
# Convention : Reuss Voigt Hill
#
# Bulk Modulus (GPa) = 23.94001 46.99008 35.46505
# Shear Modulus (GPa) = 28.33139 37.73216 33.03178
#
# Velocity S-wave (km/s) = 3.42428 3.95177 3.69744
# Velocity P-wave (km/s) = 5.05396 6.34587 5.73640
#
# Compressibility (1/GPa) = 0.04177107
#
# Stress axis : x y z
#
# Youngs Moduli (GPa) = 78.56362 111.88658 37.60804
#
# Poissons Ratio (x) = -0.00741 0.11395
# Poissons Ratio (y) = -0.00520 0.01049
# Poissons Ratio (z) = 0.23803 0.03121
#
# Static dielectric constant tensor:
#      x y z
#    x 1.942710 -0.025570 0.032750 
#    y -0.025570 2.087680 0.014170 
#    z 0.032750 0.014170 1.880010 
# 
# From -- ./inp_files/234164.got.cif
#   From: 2010.05.17/outbox.cif.g08.bks.cpg/sg2_118_cif.got.tgz:234164.got - 2010.06.03 11:33:40.
