data_PCOD9104987
_publ_section_title
;
Structure prediction by ZEFSAII (Michael W. Deem and Ramdas Pophale) SiO2 
 PCOD9104987
Probable space group: P -1
;
_chemical_formula_sum "Si O2"
_cell_formula_units_Z 16
_cell_length_a 11.993816
_cell_length_b 8.760837
_cell_length_c 11.586047
_cell_angle_alpha 58.547970
_cell_angle_beta 130.774773
_cell_angle_gamma 86.815825
_cell_volume 621.091027
_symmetry_space_group_name_H-M "P -1"
_symmetry_group_IT_number 2
_symmetry_cell_setting 'triclinic'
loop_
_space_group_symop_operation_xyz
x,y,z
-x,-y,-z
loop_
_atom_site_type_symbol
_atom_site_label
_atom_site_fract_x
_atom_site_fract_y
_atom_site_fract_z
Si Si1 0.304496 0.736321 0.249144
Si Si2 0.993535 0.542710 0.324441
Si Si3 0.588336 0.997563 0.907153
Si Si4 0.678164 0.447824 0.903883
Si Si5 0.559848 0.226398 0.038719
Si Si6 0.156048 0.652873 0.585625
Si Si7 0.872652 0.668170 0.947099
Si Si8 0.245308 0.863743 0.399979
O O1 0.500000 0.500000 0.500000
O O2 0.233182 0.696529 0.098903
O O3 0.187593 0.821157 0.254090
O O4 0.369510 0.891297 0.206655
O O5 0.989492 0.332564 0.431378
O O6 0.134947 0.545908 0.497637
O O7 0.789917 0.755164 0.150251
O O8 0.996597 0.599726 0.172409
O O9 0.437371 0.951350 0.807560
O O10 0.544667 0.143474 0.934621
O O11 0.744310 0.595315 0.922782
O O12 0.457399 0.640914 0.653752
O O13 0.702980 0.278342 0.086466
O O14 0.366672 0.468964 0.843460
O O15 0.134717 0.866783 0.433965
O O16 0.771915 0.914435 0.726732
O O17 0.000000 0.500000 0.000000
#
# Coordination Sequence:
#
# PCOD9104987 Si02
#       8
#     2   2   2   2   2   2   2   2
#     4   9  17  31  59  88 115 143 192 247 284 337
#     4  10  21  39  59  85 121 159 192 249 290 352
#     4   9  15  31  56  89 114 141 193 242 293 334
#     4   9  20  38  58  86 121 155 188 245 302 352
#     4   8  16  32  59  88 116 142 191 249 288 346
#     4   9  20  38  63  88 115 150 204 246 296 337
#     4  12  26  40  56  85 128 160 197 237 301 361
#     4  10  20  39  63  87 113 155 203 246 289 352
#
# _framework density 25.761122
#
# number of rings (size 3 to 8) (size 9 to 14) (size 15 to 20)
#    0.000    2.500    1.250    1.125    1.750    2.500 
#    0.000    6.250    0.000    0.000    0.000    0.000 
#    0.000    0.000    0.000    0.000    0.000    0.000 
#
# Total GULP energy -89297.616176 kJ/mol
# GULP energy per Si atom -5581.101011 kJ/mol
# Density = 2.570249 g / cm^3
# Si number density = 25.761122 Si / 1000 Ang^3
#
#
#
# Elastic Constant Matrix: (Units=GPa)
#
#
# Indices 1 2 3 4 5 6 
#
# 1 97.6089 36.2358 13.6106 -15.4709 -30.7642 29.9336
# 2 36.2358 82.9874 10.4029 -12.7766 -11.0610 24.2694
# 3 13.6106 10.4029 40.0140 -7.4602 -10.8364 7.3560
# 4 -15.4709 -12.7766 -7.4602 28.1224 15.2566 -8.7505
# 5 -30.7642 -11.0610 -10.8364 15.2566 41.0478 -17.9635
# 6 29.9336 24.2694 7.3560 -8.7505 -17.9635 67.2433
#
#
#
# Elastic Compliance Matrix: (Units=1/GPa)
#
#
# Indices 1 2 3 4 5 6 
#
# 1 0.015914 -0.004704 -0.001150 0.000611 0.008902 -0.002803
# 2 -0.004704 0.015678 -0.001785 0.004601 -0.003052 -0.003586
# 3 -0.001150 -0.001785 0.027767 0.003331 0.004661 -0.000203
# 4 0.000611 0.004601 0.003331 0.046918 -0.014942 -0.000183
# 5 0.008902 -0.003052 0.004661 -0.014942 0.039259 0.005172
# 6 -0.002803 -0.003586 -0.000203 -0.000183 0.005172 0.018793
#
#
# Mechanical properties :
#
#
# Convention : Reuss Voigt Hill
#
# Bulk Modulus (GPa) = 22.68617 37.90099 30.29358
# Shear Modulus (GPa) = 25.73323 37.97342 31.85333
#
# Velocity S-wave (km/s) = 3.16399 3.84351 3.52019
# Velocity P-wave (km/s) = 4.70885 5.86866 5.32046
#
# Compressibility (1/GPa) = 0.04407972
#
# Stress axis : x y z
#
# Youngs Moduli (GPa) = 62.83852 63.78308 36.01401
#
# Poissons Ratio (x) = 0.30005 0.04142
# Poissons Ratio (y) = 0.29561 0.06430
# Poissons Ratio (z) = 0.07227 0.11387
#
# Static dielectric constant tensor:
#      x y z
#    x 1.876820 -0.476650 0.211150 
#    y -0.476650 1.016580 0.386860 
#    z 0.211150 0.386860 1.862540 
# 
# From -- ./inp_files/294810.got.cif
#   From: 2010.05.17/outbox.cif.g08.bks.cpg/sg2_148_cif.got.tgz:294810.got - 2010.06.03 11:33:40.
