data_PCOD9104117
_publ_section_title
;
Structure prediction by ZEFSAII (Michael W. Deem and Ramdas Pophale) SiO2 
 PCOD9104117
Probable space group: P -1
;
_chemical_formula_sum "Si O2"
_cell_formula_units_Z 14
_cell_length_a 8.430697
_cell_length_b 12.480061
_cell_length_c 14.469470
_cell_angle_alpha 148.040494
_cell_angle_beta 85.266005
_cell_angle_gamma 72.171128
_cell_volume 562.980924
_symmetry_space_group_name_H-M "P -1"
_symmetry_group_IT_number 2
_symmetry_cell_setting 'triclinic'
loop_
_space_group_symop_operation_xyz
x,y,z
-x,-y,-z
loop_
_atom_site_type_symbol
_atom_site_label
_atom_site_fract_x
_atom_site_fract_y
_atom_site_fract_z
Si Si1 0.081335 0.600098 0.676227
Si Si2 0.006433 0.161839 0.537841
Si Si3 0.677160 0.279276 0.139414
Si Si4 0.865343 0.657562 0.022096
Si Si5 0.494603 0.131032 0.690135
Si Si6 0.301319 0.343213 0.278308
Si Si7 0.159839 0.751430 0.079214
O O1 0.243101 0.575801 0.719704
O O2 0.228823 0.426240 0.449666
O O3 0.935334 0.532438 0.662239
O O4 0.877314 0.941439 0.910638
O O5 0.256512 0.025063 0.417174
O O6 0.863462 0.474166 0.816942
O O7 0.992935 0.046516 0.360292
O O8 0.000000 0.000000 0.500000
O O9 0.436376 0.418949 0.291225
O O10 0.690862 0.277194 0.026533
O O11 0.994656 0.731084 0.028356
O O12 0.000000 0.500000 0.000000
O O13 0.612008 0.909563 0.254781
O O14 0.335444 0.471759 0.931705
O O15 0.500000 0.000000 0.500000
O O16 0.500000 0.000000 0.000000
#
# Coordination Sequence:
#
# PCOD9104117 Si02
#       7
#     2   2   2   2   2   2   2
#     4   9  19  40  67  85 120 170 189 240 316 370
#     4  12  21  39  63  80 116 166 202 248 305 361
#     4  10  21  40  60  92 124 151 207 252 303 357
#     4  10  20  39  58  81 116 158 199 248 298 359
#     4  11  20  39  61  81 117 164 201 239 313 358
#     4   9  18  38  65  89 119 158 200 237 304 382
#     4  11  23  40  58  92 121 152 209 263 287 362
#
# _framework density 24.867629000000001
#
# number of rings (size 3 to 8) (size 9 to 14) (size 15 to 20)
#    0.000    1.714    5.714    0.857    0.000    0.000 
#   15.429    0.000    0.000    0.000    0.000    0.000 
#    0.000    0.000    0.000    0.000    0.000    0.000 
#
# Total GULP energy -78226.951923 kJ/mol
# GULP energy per Si atom -5587.639423 kJ/mol
# Density = 2.481103 g / cm^3
# Si number density = 24.867629 Si / 1000 Ang^3
#
#
#
# Elastic Constant Matrix: (Units=GPa)
#
#
# Indices 1 2 3 4 5 6 
#
# 1 147.2139 28.7766 65.5162 -16.0191 -18.6789 30.0376
# 2 28.7766 58.3892 35.7897 -7.8297 -10.7373 2.1104
# 3 65.5162 35.7897 186.3765 -17.9083 -1.9148 6.2336
# 4 -16.0191 -7.8297 -17.9083 44.3178 7.5946 -15.8703
# 5 -18.6789 -10.7373 -1.9148 7.5946 61.9476 -7.4393
# 6 30.0376 2.1104 6.2336 -15.8703 -7.4393 26.3512
#
#
#
# Elastic Compliance Matrix: (Units=1/GPa)
#
#
# Indices 1 2 3 4 5 6 
#
# 1 0.011465 -0.003295 -0.003202 -0.002746 0.001530 -0.013269
# 2 -0.003295 0.021172 -0.002783 0.002800 0.002873 0.005216
# 3 -0.003202 -0.002783 0.007155 0.002681 -0.001138 0.003473
# 4 -0.002746 0.002800 0.002681 0.030695 -0.001584 0.020310
# 5 0.001530 0.002873 -0.001138 -0.001584 0.017536 0.002292
# 6 -0.013269 0.005216 0.003473 0.020310 0.002292 0.064714
#
#
# Mechanical properties :
#
#
# Convention : Reuss Voigt Hill
#
# Bulk Modulus (GPa) = 47.09936 72.46051 59.77993
# Shear Modulus (GPa) = 28.03118 43.98313 36.00716
#
# Velocity S-wave (km/s) = 3.36105 4.21014 3.80933
# Velocity P-wave (km/s) = 5.83467 7.26880 6.59086
#
# Compressibility (1/GPa) = 0.02123171
#
# Stress axis : x y z
#
# Youngs Moduli (GPa) = 87.22560 47.23305 139.75918
#
# Poissons Ratio (x) = 0.15563 0.44746
# Poissons Ratio (y) = 0.28741 0.38897
# Poissons Ratio (z) = 0.27927 0.13146
#
# Static dielectric constant tensor:
#      x y z
#    x 2.050960 0.026990 0.048380 
#    y 0.026990 2.015440 0.094590 
#    z 0.048380 0.094590 1.886320 
# 
# From -- ./inp_files/505730.got.cif
#   From: 2010.05.17/outbox.cif.g08.bks.cpg/sg2_253_cif.got.tgz:505730.got - 2010.06.03 11:33:40.
