data_PCOD9104991
_publ_section_title
;
Structure prediction by ZEFSAII (Michael W. Deem and Ramdas Pophale) SiO2 
 PCOD9104991
Probable space group: P -1
;
_chemical_formula_sum "Si O2"
_cell_formula_units_Z 16
_cell_length_a 5.294226
_cell_length_b 6.269865
_cell_length_c 22.097565
_cell_angle_alpha 85.179879
_cell_angle_beta 106.776902
_cell_angle_gamma 85.705722
_cell_volume 696.015497
_symmetry_space_group_name_H-M "P -1"
_symmetry_group_IT_number 2
_symmetry_cell_setting 'triclinic'
loop_
_space_group_symop_operation_xyz
x,y,z
-x,-y,-z
loop_
_atom_site_type_symbol
_atom_site_label
_atom_site_fract_x
_atom_site_fract_y
_atom_site_fract_z
Si Si1 0.336687 0.699989 0.369957
Si Si2 0.177941 0.685785 0.486674
Si Si3 0.752954 0.048999 0.400415
Si Si4 0.041875 0.986574 0.074200
Si Si5 0.064699 0.995372 0.258873
Si Si6 0.344795 0.688950 0.178345
Si Si7 0.384836 0.965922 0.858449
Si Si8 0.475415 0.338176 0.289280
O O1 0.326853 0.601220 0.438261
O O2 0.438927 0.523349 0.332730
O O3 0.535688 0.881867 0.384474
O O4 0.070433 0.822138 0.317824
O O5 0.304896 0.787711 0.551256
O O6 0.000000 0.500000 0.500000
O O7 0.015340 0.899612 0.440543
O O8 0.736593 0.190838 0.334644
O O9 0.303400 0.104166 0.108211
O O10 0.783577 0.068637 0.092784
O O11 0.127559 0.740518 0.109300
O O12 0.000000 0.000000 0.000000
O O13 0.240916 0.185667 0.281155
O O14 0.787615 0.094895 0.208941
O O15 0.224272 0.854405 0.219068
O O16 0.430712 0.463886 0.220207
O O17 0.598788 0.781731 0.163442
#
# Coordination Sequence:
#
# PCOD9104991 Si02
#       8
#     2   2   2   2   2   2   2   2
#     4  10  22  40  60  86 117 156 204 256 317 379
#     4  11  24  40  58  86 119 159 205 255 316 382
#     4  10  23  40  60  83 120 157 203 255 319 377
#     4   9  17  33  63  95 124 170 213 256 312 375
#     4   9  19  36  56  85 120 162 203 262 318 378
#     4   8  19  35  57  88 124 155 209 256 312 376
#     4   9  18  34  59  89 128 165 213 260 309 374
#     4  10  20  39  63  87 118 160 209 261 318 376
#
# _framework density 22.987995000000002
#
# number of rings (size 3 to 8) (size 9 to 14) (size 15 to 20)
#    0.750    1.750    0.000    1.500    0.000   10.000 
#    0.000   10.000    0.000    3.750    0.000    0.000 
#    0.000    0.000    0.000    0.000    0.000    0.000 
#
# Total GULP energy -89137.920057 kJ/mol
# GULP energy per Si atom -5571.120004 kJ/mol
# Density = 2.293567 g / cm^3
# Si number density = 22.987995 Si / 1000 Ang^3
#
#
#
# Elastic Constant Matrix: (Units=GPa)
#
#
# Indices 1 2 3 4 5 6 
#
# 1 68.1257 14.0434 16.8782 -1.5534 -1.0085 0.0682
# 2 14.0434 77.3980 30.5068 -13.2812 8.1828 -6.2839
# 3 16.8782 30.5068 176.9634 -9.9747 -9.3491 1.4826
# 4 -1.5534 -13.2812 -9.9747 28.5918 5.7958 5.0736
# 5 -1.0085 8.1828 -9.3491 5.7958 36.0672 -3.7365
# 6 0.0682 -6.2839 1.4826 5.0736 -3.7365 29.1130
#
#
#
# Elastic Compliance Matrix: (Units=1/GPa)
#
#
# Indices 1 2 3 4 5 6 
#
# 1 0.015475 -0.002678 -0.001015 -0.000885 0.000889 -0.000294
# 2 -0.002678 0.016351 -0.002447 0.007401 -0.005435 0.001673
# 3 -0.001015 -0.002447 0.006322 0.000742 0.001971 -0.000724
# 4 -0.000885 0.007401 0.000742 0.041644 -0.008912 -0.006840
# 5 0.000889 -0.005435 0.001971 -0.008912 0.031373 0.004304
# 6 -0.000294 0.001673 -0.000724 -0.006840 0.004304 0.036492
#
#
# Mechanical properties :
#
#
# Convention : Reuss Voigt Hill
#
# Bulk Modulus (GPa) = 38.65722 49.48265 44.06994
# Shear Modulus (GPa) = 29.66312 36.15831 32.91071
#
# Velocity S-wave (km/s) = 3.59608 3.97031 3.78782
# Velocity P-wave (km/s) = 5.83910 6.52610 6.19214
#
# Compressibility (1/GPa) = 0.02586839
#
# Stress axis : x y z
#
# Youngs Moduli (GPa) = 64.61861 61.15805 158.18690
#
# Poissons Ratio (x) = 0.16376 0.16054
# Poissons Ratio (y) = 0.17303 0.38714
# Poissons Ratio (z) = 0.06558 0.14968
#
# Static dielectric constant tensor:
#      x y z
#    x 1.987820 -0.106600 0.017850 
#    y -0.106600 1.876080 -0.009510 
#    z 0.017850 -0.009510 1.925690 
# 
# From -- ./inp_files/603170.got.cif
#   From: 2010.05.17/outbox.cif.g08.bks.cpg/sg2_302_cif.got.tgz:603170.got - 2010.06.03 11:33:40.
