data_PCOD9104202
_publ_section_title
;
Structure prediction by ZEFSAII (Michael W. Deem and Ramdas Pophale) SiO2 
 PCOD9104202
Probable space group: P -1
;
_chemical_formula_sum "Si O2"
_cell_formula_units_Z 14
_cell_length_a 5.610229
_cell_length_b 18.790785
_cell_length_c 5.246913
_cell_angle_alpha 101.928318
_cell_angle_beta 105.993071
_cell_angle_gamma 86.863602
_cell_volume 520.240758
_symmetry_space_group_name_H-M "P -1"
_symmetry_group_IT_number 2
_symmetry_cell_setting 'triclinic'
loop_
_space_group_symop_operation_xyz
x,y,z
-x,-y,-z
loop_
_atom_site_type_symbol
_atom_site_label
_atom_site_fract_x
_atom_site_fract_y
_atom_site_fract_z
Si Si1 0.060537 0.932596 0.280544
Si Si2 0.298734 0.658955 0.555980
Si Si3 0.667204 0.487201 0.791043
Si Si4 0.113465 0.363855 0.140763
Si Si5 0.365690 0.039788 0.212265
Si Si6 0.533459 0.800252 0.678889
Si Si7 0.842981 0.780930 0.257928
O O1 0.004509 0.854513 0.327034
O O2 0.897662 0.933078 0.971043
O O3 0.000000 0.000000 0.500000
O O4 0.321217 0.966780 0.307920
O O5 0.266643 0.597789 0.284287
O O6 0.592372 0.649490 0.711484
O O7 0.303947 0.744718 0.558131
O O8 0.092995 0.643001 0.701279
O O9 0.500000 0.500000 0.500000
O O10 0.868939 0.551530 0.873793
O O11 0.500000 0.500000 0.000000
O O12 0.071903 0.297791 0.881411
O O13 0.499083 0.116713 0.348157
O O14 0.500000 0.000000 0.000000
O O15 0.732307 0.773708 0.504068
O O16 0.623902 0.798690 0.997814
#
# Coordination Sequence:
#
# PCOD9104202 Si02
#       7
#     2   2   2   2   2   2   2
#     4  10  20  39  59  84 120 164 206 266 313 384
#     4  10  22  42  67  97 134 171 220 266 327 385
#     4  10  21  42  68  98 134 173 218 267 324 387
#     4  10  22  42  67  98 132 174 216 270 323 389
#     4  10  22  37  60  86 122 160 214 257 324 377
#     4  10  21  41  60  91 127 167 211 270 321 389
#     4  10  21  40  63  88 128 166 215 263 329 381
#
# _framework density 26.910619000000001
#
# number of rings (size 3 to 8) (size 9 to 14) (size 15 to 20)
#    0.000    2.000    1.429    1.286    2.000    0.571 
#    0.000   28.571    0.000    0.000    0.000    0.000 
#    0.000    0.000    0.000    0.000    0.000    0.000 
#
# Total GULP energy -78140.598620 kJ/mol
# GULP energy per Si atom -5581.471330 kJ/mol
# Density = 2.684937 g / cm^3
# Si number density = 26.910619 Si / 1000 Ang^3
#
#
#
# Elastic Constant Matrix: (Units=GPa)
#
#
# Indices 1 2 3 4 5 6 
#
# 1 113.0039 74.7100 45.4562 19.4682 -7.8526 56.7928
# 2 74.7100 308.9649 61.8952 34.2658 -12.9494 37.9780
# 3 45.4562 61.8952 122.8107 37.3811 -26.5589 31.5744
# 4 19.4682 34.2658 37.3811 66.5160 9.8958 12.2496
# 5 -7.8526 -12.9494 -26.5589 9.8958 85.8353 1.4648
# 6 56.7928 37.9780 31.5744 12.2496 1.4648 77.4142
#
#
#
# Elastic Compliance Matrix: (Units=1/GPa)
#
#
# Indices 1 2 3 4 5 6 
#
# 1 0.016291 -0.002201 -0.001921 -0.000842 0.000831 -0.009971
# 2 -0.002201 0.004053 -0.000912 -0.000995 0.000240 0.000151
# 3 -0.001921 -0.000912 0.012854 -0.006400 0.004444 -0.002457
# 4 -0.000842 -0.000995 -0.006400 0.019943 -0.004518 0.000646
# 5 0.000831 0.000240 0.004444 -0.004518 0.013694 -0.002084
# 6 -0.009971 0.000151 -0.002457 0.000646 -0.002084 0.021098
#
#
# Mechanical properties :
#
#
# Convention : Reuss Voigt Hill
#
# Bulk Modulus (GPa) = 43.23365 100.98915 72.11140
# Shear Modulus (GPa) = 47.29879 70.13430 58.71654
#
# Velocity S-wave (km/s) = 4.19695 5.11063 4.67616
# Velocity P-wave (km/s) = 6.29177 8.51080 7.48399
#
# Compressibility (1/GPa) = 0.02313013
#
# Stress axis : x y z
#
# Youngs Moduli (GPa) = 61.38487 246.70997 77.79438
#
# Poissons Ratio (x) = 0.54289 0.14945
# Poissons Ratio (y) = 0.13508 0.07099
# Poissons Ratio (z) = 0.11793 0.22512
#
# Static dielectric constant tensor:
#      x y z
#    x 2.128250 -0.023630 0.049000 
#    y -0.023630 2.009100 0.073980 
#    z 0.049000 0.073980 1.895810 
# 
# From -- ./inp_files/9447.got.cif
#   From: 2010.05.17/outbox.cif.g08.bks.cpg/sg2_5_cif.got.tgz:9447.got - 2010.06.03 11:33:40.
