data_PCOD9104566
_publ_section_title
;
Structure prediction by ZEFSAII (Michael W. Deem and Ramdas Pophale) SiO2 
 PCOD9104566
Probable space group: P -1
;
_chemical_formula_sum "Si O2"
_cell_formula_units_Z 14
_cell_length_a 10.340218
_cell_length_b 10.006808
_cell_length_c 11.240568
_cell_angle_alpha 100.123132
_cell_angle_beta 153.620402
_cell_angle_gamma 84.832882
_cell_volume 502.658617
_symmetry_space_group_name_H-M "P -1"
_symmetry_group_IT_number 2
_symmetry_cell_setting 'triclinic'
loop_
_space_group_symop_operation_xyz
x,y,z
-x,-y,-z
loop_
_atom_site_type_symbol
_atom_site_label
_atom_site_fract_x
_atom_site_fract_y
_atom_site_fract_z
Si Si1 0.324514 0.405585 0.638802
Si Si2 0.626320 0.158605 0.780123
Si Si3 0.859638 0.697624 0.896232
Si Si4 0.419641 0.860637 0.624975
Si Si5 0.791202 0.194012 0.196900
Si Si6 0.798007 0.885682 0.178616
Si Si7 0.039189 0.477279 0.822503
O O1 0.430661 0.280780 0.629018
O O2 0.637792 0.471624 0.961473
O O3 0.039342 0.320985 0.454885
O O4 0.201124 0.522261 0.478416
O O5 0.768970 0.181014 0.033513
O O6 0.440831 0.007799 0.602208
O O7 0.888472 0.174383 0.904107
O O8 0.543066 0.745415 0.631893
O O9 0.899879 0.634755 0.048582
O O10 0.928553 0.588630 0.838559
O O11 0.100235 0.827190 0.413682
O O12 0.651662 0.881637 0.927315
O O13 0.457052 0.195260 0.963185
O O14 0.861172 0.049247 0.284209
#
# Coordination Sequence:
#
# PCOD9104566 Si02
#       7
#     2   2   2   2   2   2   2
#     4  11  19  38  60  90 116 145 201 249 281 340
#     4  10  21  37  61  95 115 157 186 250 296 348
#     4  10  22  42  59  89 121 155 197 243 288 360
#     4  11  23  39  58  90 126 154 187 239 307 353
#     4  10  20  39  61  89 122 149 204 239 283 353
#     4  10  24  36  61  88 121 161 188 237 298 351
#     4  10  24  37  61  88 113 162 201 235 291 338
#
# _framework density 27.851904000000001
#
# number of rings (size 3 to 8) (size 9 to 14) (size 15 to 20)
#    0.000    1.714    4.286    0.429    2.000   10.286 
#    0.000    2.857    0.000    5.143    0.000    0.000 
#    0.000    0.000    0.000    0.000    0.000    0.000 
#
# Total GULP energy -78449.553167 kJ/mol
# GULP energy per Si atom -5603.539512 kJ/mol
# Density = 2.778851 g / cm^3
# Si number density = 27.851904 Si / 1000 Ang^3
#
#
#
# Elastic Constant Matrix: (Units=GPa)
#
#
# Indices 1 2 3 4 5 6 
#
# 1 68.7780 37.0333 42.4317 4.1292 23.5625 12.4761
# 2 37.0333 82.7054 42.9540 -18.9760 25.3174 17.0360
# 3 42.4317 42.9540 187.2386 -26.8194 44.6489 13.2825
# 4 4.1292 -18.9760 -26.8194 43.9363 6.9468 7.8041
# 5 23.5625 25.3174 44.6489 6.9468 60.5762 8.6077
# 6 12.4761 17.0360 13.2825 7.8041 8.6077 39.6068
#
#
#
# Elastic Compliance Matrix: (Units=1/GPa)
#
#
# Indices 1 2 3 4 5 6 
#
# 1 0.023301 -0.010221 -0.004059 -0.009019 -0.000819 0.000373
# 2 -0.010221 0.023238 0.001386 0.014498 -0.007209 -0.008531
# 3 -0.004059 0.001386 0.008600 0.007587 -0.005865 -0.002422
# 4 -0.009019 0.014498 0.007587 0.038201 -0.010949 -0.011087
# 5 -0.000819 -0.007209 -0.005865 -0.010949 0.025131 0.002021
# 6 0.000373 -0.008531 -0.002422 -0.011087 0.002021 0.031358
#
#
# Mechanical properties :
#
#
# Convention : Reuss Voigt Hill
#
# Bulk Modulus (GPa) = 34.06919 64.84000 49.45460
# Shear Modulus (GPa) = 26.96859 43.24406 35.10633
#
# Velocity S-wave (km/s) = 3.11510 3.94463 3.55415
# Velocity P-wave (km/s) = 5.01969 6.63910 5.88536
#
# Compressibility (1/GPa) = 0.02935204
#
# Stress axis : x y z
#
# Youngs Moduli (GPa) = 42.91584 43.03227 116.28297
#
# Poissons Ratio (x) = 0.43984 0.47195
# Poissons Ratio (y) = 0.43865 -0.16117
# Poissons Ratio (z) = 0.17418 -0.05964
#
# Static dielectric constant tensor:
#      x y z
#    x 2.172540 -0.058900 -0.019830 
#    y -0.058900 2.245200 0.059800 
#    z -0.019830 0.059800 2.134330 
# 
# From -- ./inp_files/92832.got.cif
#   From: 2010.05.17/outbox.cif.g08.bks.cpg/sg2_47_cif.got.tgz:92832.got - 2010.06.03 11:33:40.
