data_PCOD9104632
_publ_section_title
;
Structure prediction by ZEFSAII (Michael W. Deem and Ramdas Pophale) SiO2 
 PCOD9104632
Probable space group: P -1
;
_chemical_formula_sum "Si O2"
_cell_formula_units_Z 16
_cell_length_a 8.557197
_cell_length_b 14.479060
_cell_length_c 9.552483
_cell_angle_alpha 68.900634
_cell_angle_beta 134.393708
_cell_angle_gamma 123.142083
_cell_volume 707.625713
_symmetry_space_group_name_H-M "P -1"
_symmetry_group_IT_number 2
_symmetry_cell_setting 'triclinic'
loop_
_space_group_symop_operation_xyz
x,y,z
-x,-y,-z
loop_
_atom_site_type_symbol
_atom_site_label
_atom_site_fract_x
_atom_site_fract_y
_atom_site_fract_z
Si Si1 0.426250 0.445543 0.333382
Si Si2 0.871020 0.846892 0.358173
Si Si3 0.556532 0.039019 0.352944
Si Si4 0.273943 0.195429 0.402286
Si Si5 0.729206 0.598051 0.019742
Si Si6 0.095467 0.375710 0.593860
Si Si7 0.442529 0.738924 0.710726
Si Si8 0.866670 0.014756 0.049099
O O1 0.500000 0.500000 0.500000
O O2 0.292357 0.316923 0.355984
O O3 0.248618 0.447348 0.094751
O O4 0.690869 0.508465 0.387547
O O5 0.745530 0.842515 0.430265
O O6 0.844895 0.726022 0.361160
O O7 0.788390 0.905983 0.154859
O O8 0.161136 0.925251 0.515845
O O9 0.527648 0.151424 0.254739
O O10 0.500000 0.000000 0.500000
O O11 0.353639 0.961462 0.159487
O O12 0.513356 0.221459 0.445725
O O13 0.053142 0.111839 0.213065
O O14 0.640510 0.694288 0.891603
O O15 0.500000 0.500000 0.000000
O O16 0.925414 0.630150 0.247091
O O17 0.831232 0.351055 0.383454
O O18 0.000000 0.000000 0.000000
#
# Coordination Sequence:
#
# PCOD9104632 Si02
#       8
#     2   2   2   2   2   2   2   2
#     4  10  20  39  61  92 128 163 206 258 319 365
#     4  11  23  40  65  93 130 167 208 260 331 370
#     4  11  22  39  64  94 123 165 211 262 314 382
#     4  11  23  39  64  92 131 168 206 264 324 374
#     4   9  20  35  61  89 118 163 213 252 305 369
#     4  10  21  39  68  90 124 172 212 262 304 377
#     4  10  21  38  64  94 124 162 220 254 312 379
#     4  12  23  41  66  94 127 165 213 267 311 384
#
# _framework density 22.610821999999999
#
# number of rings (size 3 to 8) (size 9 to 14) (size 15 to 20)
#    0.000    1.500    3.750    1.125    1.750    5.000 
#    0.000    2.500    2.750    4.500    0.000    0.000 
#    0.000    0.000    0.000    0.000    0.000    0.000 
#
# Total GULP energy -89137.185157 kJ/mol
# GULP energy per Si atom -5571.074072 kJ/mol
# Density = 2.255936 g / cm^3
# Si number density = 22.610822 Si / 1000 Ang^3
#
#
#
# Elastic Constant Matrix: (Units=GPa)
#
#
# Indices 1 2 3 4 5 6 
#
# 1 41.2149 12.5469 29.8166 -9.7310 -26.6371 10.1257
# 2 12.5469 84.9788 27.2078 -13.1737 -12.7852 0.1840
# 3 29.8166 27.2078 123.5572 -5.3542 -30.8715 4.8481
# 4 -9.7310 -13.1737 -5.3542 33.5770 1.3698 -10.1917
# 5 -26.6371 -12.7852 -30.8715 1.3698 47.3496 4.9960
# 6 10.1257 0.1840 4.8481 -10.1917 4.9960 42.6884
#
#
#
# Elastic Compliance Matrix: (Units=1/GPa)
#
#
# Indices 1 2 3 4 5 6 
#
# 1 0.049308 -0.000618 -0.004501 0.008600 0.025669 -0.012133
# 2 -0.000618 0.013623 -0.002299 0.005162 0.001535 0.001402
# 3 -0.004501 -0.002299 0.010653 -0.000912 0.003905 -0.000807
# 4 0.008600 0.005162 -0.000912 0.035857 0.003953 0.006139
# 5 0.025669 0.001535 0.003905 0.003953 0.039484 -0.010216
# 6 -0.012133 0.001402 -0.000807 0.006139 -0.010216 0.029051
#
#
# Mechanical properties :
#
#
# Convention : Reuss Voigt Hill
#
# Bulk Modulus (GPa) = 17.02096 43.21037 30.11566
# Shear Modulus (GPa) = 23.54114 36.73498 30.13806
#
# Velocity S-wave (km/s) = 3.23018 4.03508 3.65486
# Velocity P-wave (km/s) = 4.63208 6.39227 5.58200
#
# Compressibility (1/GPa) = 0.05875108
#
# Stress axis : x y z
#
# Youngs Moduli (GPa) = 20.28049 73.40561 93.86593
#
# Poissons Ratio (x) = 0.04535 0.42245
# Poissons Ratio (y) = 0.01253 0.21575
# Poissons Ratio (z) = 0.09127 0.16872
#
# Static dielectric constant tensor:
#      x y z
#    x 1.889360 -0.069690 -0.029160 
#    y -0.069690 1.952160 0.013840 
#    z -0.029160 0.013840 1.890620 
# 
# From -- ./inp_files/217372.got.cif
#   From: 2010.05.17/outbox.cif.g08.bks.cpg/sg2_109_cif.got.tgz:217372.got - 2010.06.03 11:33:40.
