data_PCOD9104948
_publ_section_title
;
Structure prediction by ZEFSAII (Michael W. Deem and Ramdas Pophale) SiO2 
 PCOD9104948
Probable space group: P -1
;
_chemical_formula_sum "Si O2"
_cell_formula_units_Z 16
_cell_length_a 8.899436
_cell_length_b 8.209655
_cell_length_c 16.424161
_cell_angle_alpha 55.331232
_cell_angle_beta 60.736006
_cell_angle_gamma 94.087633
_cell_volume 752.017610
_symmetry_space_group_name_H-M "P -1"
_symmetry_group_IT_number 2
_symmetry_cell_setting 'triclinic'
loop_
_space_group_symop_operation_xyz
x,y,z
-x,-y,-z
loop_
_atom_site_type_symbol
_atom_site_label
_atom_site_fract_x
_atom_site_fract_y
_atom_site_fract_z
Si Si1 0.500995 0.183255 0.641774
Si Si2 0.792496 0.647016 0.680875
Si Si3 0.763458 0.053406 0.506903
Si Si4 0.137333 0.452500 0.038689
Si Si5 0.598741 0.761927 0.034765
Si Si6 0.147115 0.007688 0.674530
Si Si7 0.151503 0.409188 0.499872
Si Si8 0.576933 0.062751 0.095908
O O1 0.591475 0.086554 0.578994
O O2 0.286136 0.114683 0.685335
O O3 0.665276 0.443517 0.532264
O O4 0.493594 0.077184 0.762192
O O5 0.623075 0.448203 0.833444
O O6 0.756138 0.574003 0.617600
O O7 0.020470 0.723257 0.615388
O O8 0.781354 0.879186 0.614694
O O9 0.731002 0.970741 0.446149
O O10 0.265809 0.354203 0.985956
O O11 0.266691 0.684920 0.987173
O O12 0.001342 0.250449 0.192961
O O13 0.000000 0.500000 0.000000
O O14 0.648505 0.928696 0.052634
O O15 0.585670 0.904579 0.921307
O O16 0.044487 0.155703 0.634899
O O17 0.000000 0.500000 0.500000
#
# Coordination Sequence:
#
# PCOD9104948 Si02
#       8
#     2   2   2   2   2   2   2   2
#     4  12  22  44  68 100 138 179 224 286 351 416
#     4  10  20  39  63 101 131 168 228 289 338 405
#     4  10  22  38  69  98 132 177 225 282 352 411
#     4  12  26  48  69 103 145 192 234 289 351 419
#     4  11  25  44  74 103 140 187 242 294 349 414
#     4  11  26  44  64 100 142 180 233 275 356 419
#     4  11  23  41  71  99 135 177 226 287 344 411
#     4  11  25  44  73 106 138 188 243 289 354 417
#
# _framework density 21.276097
#
# number of rings (size 3 to 8) (size 9 to 14) (size 15 to 20)
#    0.000    1.000    3.750    2.625    1.750    0.500 
#    2.250    0.000    0.000    0.000    0.000    0.000 
#    0.000    0.000    0.000    0.000    0.000    0.000 
#
# Total GULP energy -89305.458114 kJ/mol
# GULP energy per Si atom -5581.591132 kJ/mol
# Density = 2.122767 g / cm^3
# Si number density = 21.276097 Si / 1000 Ang^3
#
#
#
# Elastic Constant Matrix: (Units=GPa)
#
#
# Indices 1 2 3 4 5 6 
#
# 1 82.5447 59.2592 35.2663 3.6080 7.6682 -6.9814
# 2 59.2592 110.3298 34.0991 -2.7564 6.4955 5.3352
# 3 35.2663 34.0991 105.6600 -2.7766 29.1608 -3.8702
# 4 3.6080 -2.7564 -2.7766 29.9298 1.3325 -4.8176
# 5 7.6682 6.4955 29.1608 1.3325 25.1851 -5.8316
# 6 -6.9814 5.3352 -3.8702 -4.8176 -5.8316 29.8641
#
#
#
# Elastic Compliance Matrix: (Units=1/GPa)
#
#
# Indices 1 2 3 4 5 6 
#
# 1 0.022643 -0.011336 -0.004587 -0.003241 0.003088 0.006804
# 2 -0.011336 0.015916 -0.001394 0.001843 -0.000400 -0.005455
# 3 -0.004587 -0.001394 0.016326 0.002442 -0.017685 -0.001767
# 4 -0.003241 0.001843 0.002442 0.035026 -0.003183 0.004258
# 5 0.003088 -0.000400 -0.017685 -0.003183 0.061844 0.010064
# 6 0.006804 -0.005455 -0.001767 0.004258 0.010064 0.038473
#
#
# Mechanical properties :
#
#
# Convention : Reuss Voigt Hill
#
# Bulk Modulus (GPa) = 49.38145 61.75374 55.56759
# Shear Modulus (GPa) = 21.58777 28.32313 24.95545
#
# Velocity S-wave (km/s) = 3.18881 3.65254 3.42853
# Velocity P-wave (km/s) = 6.06780 6.84661 6.46894
#
# Compressibility (1/GPa) = 0.02025052
#
# Stress axis : x y z
#
# Youngs Moduli (GPa) = 44.16431 62.82813 61.25341
#
# Poissons Ratio (x) = 0.71220 0.28100
# Poissons Ratio (y) = 0.50063 0.08539
# Poissons Ratio (z) = 0.20260 0.08759
#
# Static dielectric constant tensor:
#      x y z
#    x 1.762130 -0.002000 -0.001530 
#    y -0.002000 1.831770 -0.032710 
#    z -0.001530 -0.032710 1.763290 
# 
# From -- ./inp_files/184132.got.cif
#   From: 2010.05.17/outbox.cif.g08.bks.cpg/sg2_93_cif.got.tgz:184132.got - 2010.06.03 11:33:40.
