data_PCOD9104911
_publ_section_title
;
Structure prediction by ZEFSAII (Michael W. Deem and Ramdas Pophale) SiO2 
 PCOD9104911
Probable space group: P -1
;
_chemical_formula_sum "Si O2"
_cell_formula_units_Z 16
_cell_length_a 23.960397
_cell_length_b 6.996036
_cell_length_c 5.145937
_cell_angle_alpha 101.478952
_cell_angle_beta 97.591469
_cell_angle_gamma 121.118370
_cell_volume 694.744616
_symmetry_space_group_name_H-M "P -1"
_symmetry_group_IT_number 2
_symmetry_cell_setting 'triclinic'
loop_
_space_group_symop_operation_xyz
x,y,z
-x,-y,-z
loop_
_atom_site_type_symbol
_atom_site_label
_atom_site_fract_x
_atom_site_fract_y
_atom_site_fract_z
Si Si1 0.134233 0.947142 0.648054
Si Si2 0.686800 0.111196 0.856120
Si Si3 0.781091 0.936485 0.744216
Si Si4 0.009241 0.687591 0.844751
Si Si5 0.439763 0.889917 0.735038
Si Si6 0.466050 0.230028 0.459054
Si Si7 0.063172 0.124211 0.376225
Si Si8 0.291686 0.601838 0.573861
O O1 0.166066 0.899441 0.405853
O O2 0.060151 0.734393 0.650574
O O3 0.122527 0.147792 0.594282
O O4 0.182562 0.021721 0.945404
O O5 0.720846 0.973714 0.758839
O O6 0.604530 0.932829 0.790222
O O7 0.700933 0.286388 0.674396
O O8 0.722961 0.266694 0.178275
O O9 0.752940 0.675080 0.558283
O O10 0.049641 0.938358 0.093541
O O11 0.941823 0.672133 0.700065
O O12 0.000000 0.500000 0.000000
O O13 0.468486 0.786939 0.523112
O O14 0.367197 0.679966 0.724543
O O15 0.436864 0.104317 0.683710
O O16 0.500000 0.000000 0.000000
O O17 0.500000 0.500000 0.500000
O O18 0.000000 0.000000 0.500000
#
# Coordination Sequence:
#
# PCOD9104911 Si02
#       8
#     2   2   2   2   2   2   2   2
#     4  11  23  45  70 100 139 180 236 279 332 423
#     4  11  24  45  65 100 135 179 242 288 334 436
#     4  12  25  46  69  95 141 192 233 285 343 405
#     4  10  21  43  73 106 141 177 219 283 352 393
#     4  10  20  39  62  95 129 163 227 296 341 427
#     4  10  21  38  62  95 131 171 221 286 365 411
#     4   9  20  41  69 100 139 171 218 280 335 396
#     4  11  24  45  69  94 137 185 233 292 361 401
#
# _framework density 23.030042999999999
#
# number of rings (size 3 to 8) (size 9 to 14) (size 15 to 20)
#    0.000    1.500    2.500    2.250    0.000    2.500 
#    6.750    6.250    0.000    0.000    0.000    0.000 
#    0.000    0.000    0.000    0.000    0.000    0.000 
#
# Total GULP energy -89217.551332 kJ/mol
# GULP energy per Si atom -5576.096958 kJ/mol
# Density = 2.297763 g / cm^3
# Si number density = 23.030043 Si / 1000 Ang^3
#
#
#
# Elastic Constant Matrix: (Units=GPa)
#
#
# Indices 1 2 3 4 5 6 
#
# 1 104.9701 30.9410 22.5064 -9.7480 -2.4258 -2.6483
# 2 30.9410 136.6527 22.0768 -13.8604 -0.1732 -4.2066
# 3 22.5064 22.0768 104.2332 -13.8625 -5.0376 1.5597
# 4 -9.7480 -13.8604 -13.8625 28.2978 -5.0787 3.9075
# 5 -2.4258 -0.1732 -5.0376 -5.0787 45.7406 -0.2044
# 6 -2.6483 -4.2066 1.5597 3.9075 -0.2044 25.9481
#
#
#
# Elastic Compliance Matrix: (Units=1/GPa)
#
#
# Indices 1 2 3 4 5 6 
#
# 1 0.010652 -0.001934 -0.001609 0.001962 0.000601 0.000580
# 2 -0.001934 0.008219 -0.000954 0.002810 0.000139 0.000770
# 3 -0.001609 -0.000954 0.010892 0.004842 0.001641 -0.001690
# 4 0.001962 0.002810 0.004842 0.041509 0.005231 -0.005845
# 5 0.000601 0.000139 0.001641 0.005231 0.022654 -0.000624
# 6 0.000580 0.000770 -0.001690 -0.005845 -0.000624 0.039699
#
#
# Mechanical properties :
#
#
# Convention : Reuss Voigt Hill
#
# Bulk Modulus (GPa) = 48.15132 55.21162 51.68147
# Shear Modulus (GPa) = 33.43530 38.01941 35.72736
#
# Velocity S-wave (km/s) = 3.81440 4.06749 3.94297
# Velocity P-wave (km/s) = 6.35240 6.78860 6.57412
#
# Compressibility (1/GPa) = 0.02076786
#
# Stress axis : x y z
#
# Youngs Moduli (GPa) = 93.87571 121.67083 91.81102
#
# Poissons Ratio (x) = 0.23536 0.14774
# Poissons Ratio (y) = 0.18159 0.08760
# Poissons Ratio (z) = 0.15106 0.11609
#
# Static dielectric constant tensor:
#      x y z
#    x 1.780070 0.102640 0.022940 
#    y 0.102640 1.903230 -0.023420 
#    z 0.022940 -0.023420 1.945560 
# 
# From -- ./inp_files/114680.got.cif
#   From: 2010.05.17/outbox.cif.g08.bks.cpg/sg2_58_cif.got.tgz:114680.got - 2010.06.03 11:33:40.
