data_PCOD9104778
_publ_section_title
;
Structure prediction by ZEFSAII (Michael W. Deem and Ramdas Pophale) SiO2 
 PCOD9104778
Probable space group: P -1
;
_chemical_formula_sum "Si O2"
_cell_formula_units_Z 14
_cell_length_a 11.989264
_cell_length_b 8.178807
_cell_length_c 15.671803
_cell_angle_alpha 58.845520
_cell_angle_beta 153.025726
_cell_angle_gamma 118.515027
_cell_volume 595.992505
_symmetry_space_group_name_H-M "P -1"
_symmetry_group_IT_number 2
_symmetry_cell_setting 'triclinic'
loop_
_space_group_symop_operation_xyz
x,y,z
-x,-y,-z
loop_
_atom_site_type_symbol
_atom_site_label
_atom_site_fract_x
_atom_site_fract_y
_atom_site_fract_z
Si Si1 0.963953 0.897928 0.093084
Si Si2 0.783899 0.202481 0.212752
Si Si3 0.387827 0.838442 0.718048
Si Si4 0.281135 0.386720 0.766321
Si Si5 0.163709 0.488943 0.479941
Si Si6 0.461171 0.771279 0.507022
Si Si7 0.110134 0.078262 0.324347
O O1 0.010213 0.017357 0.179410
O O2 0.190022 0.756263 0.284865
O O3 0.680527 0.835563 0.918854
O O4 0.000000 0.000000 0.000000
O O5 0.724795 0.085311 0.290848
O O6 0.008188 0.357077 0.343361
O O7 0.875675 0.098429 0.219677
O O8 0.526174 0.298690 0.990864
O O9 0.310602 0.616071 0.726421
O O10 0.284340 0.948503 0.536994
O O11 0.228088 0.352567 0.640093
O O12 0.037390 0.358375 0.665790
O O13 0.411047 0.609586 0.588212
O O14 0.696269 0.745414 0.614927
O O15 0.500000 0.000000 0.500000
#
# Coordination Sequence:
#
# PCOD9104778 Si02
#       7
#     2   2   2   2   2   2   2
#     4  11  22  38  64  92 118 165 214 262 306 366
#     4  11  24  41  61  96 132 165 205 258 327 379
#     4  11  22  41  68  92 122 169 217 260 307 372
#     4  10  21  39  66  92 122 167 217 259 303 376
#     4  10  21  39  64  89 123 171 211 258 312 371
#     4  10  20  39  62  89 123 160 213 260 304 370
#     4  11  25  40  61  97 132 161 207 267 317 373
#
# _framework density 23.490227999999998
#
# number of rings (size 3 to 8) (size 9 to 14) (size 15 to 20)
#    0.000    1.429    1.429    5.571    2.000    4.571 
#    0.000    0.714    0.000    0.000    0.000    0.000 
#    0.000    0.000    0.000    0.000    0.000    0.000 
#
# Total GULP energy -78095.894859 kJ/mol
# GULP energy per Si atom -5578.278204 kJ/mol
# Density = 2.343676 g / cm^3
# Si number density = 23.490228 Si / 1000 Ang^3
#
#
#
# Elastic Constant Matrix: (Units=GPa)
#
#
# Indices 1 2 3 4 5 6 
#
# 1 142.7675 26.5933 33.8732 7.8867 -12.0182 30.1727
# 2 26.5933 39.8976 22.0267 16.0922 -0.7843 24.0984
# 3 33.8732 22.0267 100.2260 13.1867 -14.8536 5.3659
# 4 7.8867 16.0922 13.1867 26.4271 9.1429 7.4557
# 5 -12.0182 -0.7843 -14.8536 9.1429 42.7365 10.4193
# 6 30.1727 24.0984 5.3659 7.4557 10.4193 42.0446
#
#
#
# Elastic Compliance Matrix: (Units=1/GPa)
#
#
# Indices 1 2 3 4 5 6 
#
# 1 0.009431 -0.000526 -0.002020 -0.000833 0.003828 -0.007010
# 2 -0.000526 0.058710 -0.005452 -0.028597 0.012621 -0.030634
# 3 -0.002020 -0.005452 0.012960 -0.004763 0.004191 0.002726
# 4 -0.000833 -0.028597 -0.004763 0.060995 -0.018218 0.011295
# 5 0.003828 0.012621 0.004191 -0.018218 0.033885 -0.015683
# 6 -0.007010 -0.030634 0.002726 0.011295 -0.015683 0.047908
#
#
# Mechanical properties :
#
#
# Convention : Reuss Voigt Hill
#
# Bulk Modulus (GPa) = 15.35952 49.76418 32.56185
# Shear Modulus (GPa) = 19.11413 35.60150 27.35782
#
# Velocity S-wave (km/s) = 2.85565 3.89728 3.41639
# Velocity P-wave (km/s) = 4.17443 6.44071 5.42718
#
# Compressibility (1/GPa) = 0.06510618
#
# Stress axis : x y z
#
# Youngs Moduli (GPa) = 106.02993 17.03290 77.16043
#
# Poissons Ratio (x) = 0.00896 0.15584
# Poissons Ratio (y) = 0.05577 0.42067
# Poissons Ratio (z) = 0.21414 0.09286
#
# Static dielectric constant tensor:
#      x y z
#    x 2.094510 -0.011370 -0.045090 
#    y -0.011370 2.013280 0.008420 
#    z -0.045090 0.008420 1.901590 
# 
# From -- ./inp_files/514150.got.cif
#   From: 2010.05.17/outbox.cif.g08.bks.cpg/sg2_258_cif.got.tgz:514150.got - 2010.06.03 11:33:40.
