data_PCOD9104319
_publ_section_title
;
Structure prediction by ZEFSAII (Michael W. Deem and Ramdas Pophale) SiO2 
 PCOD9104319
Probable space group: P -1
;
_chemical_formula_sum "Si O2"
_cell_formula_units_Z 16
_cell_length_a 14.200743
_cell_length_b 13.034066
_cell_length_c 12.923133
_cell_angle_alpha 36.320737
_cell_angle_beta 147.223677
_cell_angle_gamma 127.645824
_cell_volume 750.236084
_symmetry_space_group_name_H-M "P -1"
_symmetry_group_IT_number 2
_symmetry_cell_setting 'triclinic'
loop_
_space_group_symop_operation_xyz
x,y,z
-x,-y,-z
loop_
_atom_site_type_symbol
_atom_site_label
_atom_site_fract_x
_atom_site_fract_y
_atom_site_fract_z
Si Si1 0.481685 0.695286 0.373261
Si Si2 0.805886 0.229646 0.114193
Si Si3 0.813283 0.840934 0.482557
Si Si4 0.036580 0.627269 0.340212
Si Si5 0.403478 0.751287 0.608100
Si Si6 0.228273 0.296203 0.672501
Si Si7 0.309080 0.128113 0.105100
Si Si8 0.455561 0.509245 0.209295
O O1 0.500000 0.500000 0.500000
O O2 0.650360 0.778854 0.436370
O O3 0.461184 0.656053 0.505332
O O4 0.315192 0.796356 0.074026
O O5 0.992858 0.257452 0.222353
O O6 0.814459 0.047156 0.332165
O O7 0.722619 0.390684 0.981714
O O8 0.810978 0.795910 0.394510
O O9 0.211146 0.699846 0.476232
O O10 0.094861 0.487241 0.414155
O O11 0.000000 0.500000 0.500000
O O12 0.856696 0.778304 0.049947
O O13 0.512534 0.795252 0.772443
O O14 0.538276 0.582222 0.820630
O O15 0.366668 0.926506 0.359665
O O16 0.417918 0.350382 0.788017
O O17 0.244067 0.174365 0.889411
#
# Coordination Sequence:
#
# PCOD9104319 Si02
#       8
#     2   2   2   2   2   2   2   2
#     4  10  20  39  60  85 121 154 191 243 292 339
#     4  10  23  38  59  85 119 157 196 242 290 338
#     4  11  22  39  60  88 120 157 201 236 287 358
#     4   9  20  38  60  86 115 154 189 240 291 340
#     4  10  22  40  62  90 117 150 202 237 297 358
#     4  10  21  38  60  89 117 158 197 235 294 350
#     4  10  22  40  63  86 120 155 190 251 293 343
#     4  10  22  38  61  90 116 159 193 241 296 346
#
# _framework density 21.326619999999998
#
# number of rings (size 3 to 8) (size 9 to 14) (size 15 to 20)
#    0.000    2.000    2.500    0.750    3.500    6.500 
#    2.250    0.000    5.500    0.000    0.000    0.000 
#    0.000    0.000    0.000    0.000    0.000    0.000 
#
# Total GULP energy -89173.753283 kJ/mol
# GULP energy per Si atom -5573.359580 kJ/mol
# Density = 2.127808 g / cm^3
# Si number density = 21.326620 Si / 1000 Ang^3
#
#
#
# Elastic Constant Matrix: (Units=GPa)
#
#
# Indices 1 2 3 4 5 6 
#
# 1 18.5586 13.6335 29.2655 19.7410 -52.9946 -30.0385
# 2 13.6335 95.0129 17.6378 11.4147 -2.7258 8.8167
# 3 29.2655 17.6378 30.2348 -14.9655 74.3652 40.6876
# 4 19.7410 11.4147 -14.9655 11.6484 43.8114 38.0817
# 5 -52.9946 -2.7258 74.3652 43.8114 -113.4842 -99.9400
# 6 -30.0385 8.8167 40.6876 38.0817 -99.9400 -34.9958
#
#
#
# Elastic Compliance Matrix: (Units=1/GPa)
#
#
# Indices 1 2 3 4 5 6 
#
# 1 0.027351 -0.003527 -0.000225 0.001937 -0.005112 -0.007921
# 2 -0.003527 0.012276 -0.003102 -0.003102 0.000739 -0.002971
# 3 -0.000225 -0.003102 0.017232 -0.007019 0.001081 0.008722
# 4 0.001937 -0.003102 -0.007019 0.039513 0.012345 -0.002862
# 5 -0.005112 0.000739 0.001081 0.012345 0.011838 -0.014541
# 6 -0.007921 -0.002971 0.008722 -0.002862 -0.014541 0.026029
#
#
# Mechanical properties :
#
#
# Convention : Reuss Voigt Hill
#
# Bulk Modulus (GPa) = 23.17412 29.43109 26.30261
# Shear Modulus (GPa) = 30.80133 -21.81501 4.49316
#
# Velocity S-wave (km/s) = 3.80447 -3.20175 1.45307
# Velocity P-wave (km/s) = 5.49441 0.40230 3.89554
#
# Compressibility (1/GPa) = 0.04315158
#
# Stress axis : x y z
#
# Youngs Moduli (GPa) = 36.56144 81.45714 58.03172
#
# Poissons Ratio (x) = 0.28731 0.01307
# Poissons Ratio (y) = 0.12896 0.17999
# Poissons Ratio (z) = 0.00823 0.25265
#
# Static dielectric constant tensor:
#      x y z
#    x 1.834070 -0.046750 0.008230 
#    y -0.046750 1.766540 0.018840 
#    z 0.008230 0.018840 1.904800 
# 
# From -- ./inp_files/348357.got.cif
#   From: 2010.05.17/outbox.cif.g08.bks.cpg/sg2_175_cif.got.tgz:348357.got - 2010.06.03 11:33:40.
