data_PCOD9104877
_publ_section_title
;
Structure prediction by ZEFSAII (Michael W. Deem and Ramdas Pophale) SiO2 
 PCOD9104877
Probable space group: P -1
;
_chemical_formula_sum "Si O2"
_cell_formula_units_Z 16
_cell_length_a 31.589851
_cell_length_b 25.038841
_cell_length_c 11.238833
_cell_angle_alpha 151.336870
_cell_angle_beta 152.777201
_cell_angle_gamma 9.422710
_cell_volume 665.763937
_symmetry_space_group_name_H-M "P -1"
_symmetry_group_IT_number 2
_symmetry_cell_setting 'triclinic'
loop_
_space_group_symop_operation_xyz
x,y,z
-x,-y,-z
loop_
_atom_site_type_symbol
_atom_site_label
_atom_site_fract_x
_atom_site_fract_y
_atom_site_fract_z
Si Si1 0.802696 0.159085 0.147489
Si Si2 0.483167 0.335787 0.949405
Si Si3 0.042875 0.581281 0.112653
Si Si4 0.858582 0.022880 0.470336
Si Si5 0.004483 0.754359 0.703515
Si Si6 0.834664 0.739499 0.659003
Si Si7 0.696663 0.786243 0.716631
Si Si8 0.425060 0.626655 0.309302
O O1 0.722557 0.287864 0.332278
O O2 0.500000 0.500000 0.000000
O O3 0.987754 0.040932 0.313194
O O4 0.931892 0.890842 0.917658
O O5 0.263595 0.527990 0.860373
O O6 0.655585 0.042783 0.750840
O O7 0.703342 0.147263 0.213513
O O8 0.342403 0.589366 0.014671
O O9 0.035405 0.552510 0.900327
O O10 0.758906 0.845098 0.962297
O O11 0.246383 0.302751 0.174949
O O12 0.050909 0.705345 0.377043
O O13 0.640574 0.282293 0.538359
O O14 0.085764 0.536559 0.444681
O O15 0.755457 0.079024 0.634799
O O16 0.000000 0.500000 0.500000
O O17 0.605693 0.913605 0.476311
#
# Coordination Sequence:
#
# PCOD9104877 Si02
#       8
#     2   2   2   2   2   2   2   2
#     4  10  24  36  60  95 122 165 215 255 319 385
#     4  10  22  38  65  90 126 177 206 259 336 381
#     4  10  22  42  67  93 127 174 221 269 324 393
#     4  11  22  43  61  92 136 164 214 270 320 386
#     4  10  20  39  62  93 127 163 216 262 312 392
#     4  10  23  42  63  98 134 168 217 278 324 385
#     4  10  21  41  70  95 122 179 225 255 337 390
#     4  11  21  38  64  89 128 169 205 259 320 382
#
# _framework density 24.032543
#
# number of rings (size 3 to 8) (size 9 to 14) (size 15 to 20)
#    0.000    1.750    2.500    1.125    1.750    2.000 
#    4.500    1.250    0.000    0.000    0.000    0.000 
#    0.000    0.000    0.000    0.000    0.000    0.000 
#
# Total GULP energy -89280.041476 kJ/mol
# GULP energy per Si atom -5580.002592 kJ/mol
# Density = 2.397784 g / cm^3
# Si number density = 24.032543 Si / 1000 Ang^3
#
#
#
# Elastic Constant Matrix: (Units=GPa)
#
#
# Indices 1 2 3 4 5 6 
#
# 1 99.4097 30.2516 31.9199 21.9890 -11.7329 -11.3856
# 2 30.2516 90.2162 33.8558 23.3360 -21.4116 -20.4788
# 3 31.9199 33.8558 96.8103 10.3538 -3.0623 -16.9790
# 4 21.9890 23.3360 10.3538 42.7067 -3.8317 -8.7398
# 5 -11.7329 -21.4116 -3.0623 -3.8317 35.5216 7.8935
# 6 -11.3856 -20.4788 -16.9790 -8.7398 7.8935 40.4791
#
#
#
# Elastic Compliance Matrix: (Units=1/GPa)
#
#
# Indices 1 2 3 4 5 6 
#
# 1 0.012869 -0.001168 -0.003204 -0.004950 0.002717 0.000086
# 2 -0.001168 0.017520 -0.004124 -0.006452 0.008279 0.003798
# 3 -0.003204 -0.004124 0.013206 0.001122 -0.003037 0.003386
# 4 -0.004950 -0.006452 0.001122 0.029523 -0.002853 0.002745
# 5 0.002717 0.008279 -0.003037 -0.002853 0.034275 -0.003621
# 6 0.000086 0.003798 0.003386 0.002745 -0.003621 0.029369
#
#
# Mechanical properties :
#
#
# Convention : Reuss Voigt Hill
#
# Bulk Modulus (GPa) = 37.59038 53.16566 45.37802
# Shear Modulus (GPa) = 30.74629 36.43540 33.59084
#
# Velocity S-wave (km/s) = 3.58070 3.89792 3.74267
# Velocity P-wave (km/s) = 5.72456 6.51374 6.13186
#
# Compressibility (1/GPa) = 0.02660255
#
# Stress axis : x y z
#
# Youngs Moduli (GPa) = 77.70542 57.07887 75.72366
#
# Poissons Ratio (x) = 0.06667 0.24264
# Poissons Ratio (y) = 0.09077 0.31227
# Poissons Ratio (z) = 0.24899 0.23538
#
# Static dielectric constant tensor:
#      x y z
#    x 2.051250 0.086630 -0.032380 
#    y 0.086630 1.946960 0.024230 
#    z -0.032380 0.024230 1.978680 
# 
# From -- ./inp_files/477774.got.cif
#   From: 2010.05.17/outbox.cif.g08.bks.cpg/sg2_239_cif.got.tgz:477774.got - 2010.06.03 11:33:40.
