data_PCOD9104474
_publ_section_title
;
Structure prediction by ZEFSAII (Michael W. Deem and Ramdas Pophale) SiO2 
 PCOD9104474
Probable space group: P -1
;
_chemical_formula_sum "Si O2"
_cell_formula_units_Z 16
_cell_length_a 13.744620
_cell_length_b 10.503323
_cell_length_c 27.609880
_cell_angle_alpha 146.886294
_cell_angle_beta 159.827362
_cell_angle_gamma 33.892980
_cell_volume 730.263732
_symmetry_space_group_name_H-M "P -1"
_symmetry_group_IT_number 2
_symmetry_cell_setting 'triclinic'
loop_
_space_group_symop_operation_xyz
x,y,z
-x,-y,-z
loop_
_atom_site_type_symbol
_atom_site_label
_atom_site_fract_x
_atom_site_fract_y
_atom_site_fract_z
Si Si1 0.463297 0.762531 0.616161
Si Si2 0.901137 0.462332 0.520281
Si Si3 0.987250 0.233797 0.001740
Si Si4 0.044998 0.496626 0.701712
Si Si5 0.234057 0.593984 0.285515
Si Si6 0.543322 0.131053 0.843192
Si Si7 0.124566 0.129369 0.435054
Si Si8 0.293071 0.985142 0.277305
O O1 0.225791 0.615295 0.446357
O O2 0.741239 0.576125 0.709616
O O3 0.540045 0.900477 0.649999
O O4 0.377904 0.951348 0.680595
O O5 0.101872 0.415314 0.646403
O O6 0.570602 0.552387 0.412976
O O7 0.972357 0.675146 0.589539
O O8 0.951066 0.233861 0.435637
O O9 0.767649 0.187596 0.926196
O O10 0.067976 0.481865 0.131237
O O11 0.848344 0.206691 0.876527
O O12 0.273270 0.018574 0.075774
O O13 0.949479 0.782607 0.746317
O O14 0.311128 0.376668 0.821658
O O15 0.107096 0.866601 0.327022
O O16 0.465670 0.112612 0.601048
#
# Coordination Sequence:
#
# PCOD9104474 Si02
#       8
#     2   2   2   2   2   2   2   2
#     4   9  18  34  53  86 114 145 190 233 287 330
#     4  10  22  39  62  90 108 145 198 241 287 329
#     4   9  20  37  52  80 119 155 186 223 289 339
#     4  11  20  33  58  88 112 150 197 236 283 334
#     4  10  20  39  61  84 115 153 186 238 284 338
#     4   9  18  34  54  73 119 157 183 232 279 340
#     4  11  22  39  65  84 114 145 193 246 284 329
#     4  11  21  35  57  86 121 155 182 235 286 339
#
# _framework density 21.909893
#
# number of rings (size 3 to 8) (size 9 to 14) (size 15 to 20)
#    0.000    2.000    2.500    3.375    0.000    2.500 
#    2.250    0.625    0.000    2.250    0.000    0.000 
#    0.000    0.000    0.000    0.000    0.000    0.000 
#
# Total GULP energy -89384.422185 kJ/mol
# GULP energy per Si atom -5586.526387 kJ/mol
# Density = 2.186003 g / cm^3
# Si number density = 21.909893 Si / 1000 Ang^3
#
#
#
# Elastic Constant Matrix: (Units=GPa)
#
#
# Indices 1 2 3 4 5 6 
#
# 1 42.9301 17.3970 0.1114 4.5513 -8.4905 -2.6711
# 2 17.3970 105.0042 24.3447 10.3291 -7.2157 -13.1119
# 3 0.1114 24.3447 77.5769 7.9203 -23.0423 1.5290
# 4 4.5513 10.3291 7.9203 25.1518 -3.8042 -3.7952
# 5 -8.4905 -7.2157 -23.0423 -3.8042 14.1691 -2.7272
# 6 -2.6711 -13.1119 1.5290 -3.7952 -2.7272 22.3619
#
#
#
# Elastic Compliance Matrix: (Units=1/GPa)
#
#
# Indices 1 2 3 4 5 6 
#
# 1 0.033781 -0.005261 0.013592 -0.001450 0.040178 0.004675
# 2 -0.005261 0.012220 -0.005111 -0.002275 -0.004712 0.005925
# 3 0.013592 -0.005111 0.031468 -0.001156 0.057029 0.003234
# 4 -0.001450 -0.002275 -0.001156 0.043790 0.009221 0.007128
# 5 0.040178 -0.004712 0.057029 0.009221 0.191919 0.023108
# 6 0.004675 0.005925 0.003234 0.007128 0.023108 0.052558
#
#
# Mechanical properties :
#
#
# Convention : Reuss Voigt Hill
#
# Bulk Modulus (GPa) = 11.91753 34.35749 23.13751
# Shear Modulus (GPa) = 12.91103 24.58044 18.74574
#
# Velocity S-wave (km/s) = 2.43014 3.35309 2.92821
# Velocity P-wave (km/s) = 3.65038 5.54133 4.69210
#
# Compressibility (1/GPa) = 0.08390998
#
# Stress axis : x y z
#
# Youngs Moduli (GPa) = 29.60235 81.83319 31.77805
#
# Poissons Ratio (x) = 0.43050 -0.43194
# Poissons Ratio (y) = 0.15573 0.16242
# Poissons Ratio (z) = -0.40236 0.41827
#
# Static dielectric constant tensor:
#      x y z
#    x 1.830560 -0.037940 -0.004940 
#    y -0.037940 1.846610 -0.004620 
#    z -0.004940 -0.004620 1.811840 
# 
# From -- ./inp_files/460402.got.cif
#   From: 2010.05.17/outbox.cif.g08.bks.cpg/sg2_231_cif.got.tgz:460402.got - 2010.06.03 11:33:40.
