data_PCOD9104684
_publ_section_title
;
Structure prediction by ZEFSAII (Michael W. Deem and Ramdas Pophale) SiO2 
 PCOD9104684
Probable space group: P -1
;
_chemical_formula_sum "Si O2"
_cell_formula_units_Z 16
_cell_length_a 12.175074
_cell_length_b 14.299949
_cell_length_c 12.602481
_cell_angle_alpha 59.140236
_cell_angle_beta 83.723857
_cell_angle_gamma 31.372290
_cell_volume 664.489624
_symmetry_space_group_name_H-M "P -1"
_symmetry_group_IT_number 2
_symmetry_cell_setting 'triclinic'
loop_
_space_group_symop_operation_xyz
x,y,z
-x,-y,-z
loop_
_atom_site_type_symbol
_atom_site_label
_atom_site_fract_x
_atom_site_fract_y
_atom_site_fract_z
Si Si1 0.243046 0.981648 0.125527
Si Si2 0.221591 0.152892 0.521388
Si Si3 0.910746 0.375607 0.116567
Si Si4 0.630684 0.766575 0.078918
Si Si5 0.421306 0.197551 0.513099
Si Si6 0.765668 0.265950 0.772304
Si Si7 0.539358 0.406433 0.933273
Si Si8 0.797997 0.427502 0.544274
O O1 0.354691 0.937747 0.035094
O O2 0.207657 0.886007 0.168191
O O3 0.543784 0.711347 0.326460
O O4 0.969740 0.295075 0.034006
O O5 0.511149 0.860827 0.585030
O O6 0.939793 0.451611 0.298749
O O7 0.110260 0.152500 0.602395
O O8 0.307263 0.181590 0.561835
O O9 0.726950 0.652095 0.014197
O O10 0.736935 0.426519 0.147435
O O11 0.248108 0.078359 0.307662
O O12 0.500000 0.000000 0.000000
O O13 0.184728 0.506187 0.398156
O O14 0.583096 0.442619 0.801322
O O15 0.641215 0.461297 0.582951
O O16 0.131142 0.960518 0.898719
O O17 0.500000 0.500000 0.000000
#
# Coordination Sequence:
#
# PCOD9104684 Si02
#       8
#     2   2   2   2   2   2   2   2
#     4  10  20  40  61  87 126 159 202 255 306 368
#     4   9  19  38  60  86 126 161 203 253 311 360
#     4  10  20  39  62  83 121 161 202 255 312 354
#     4  10  21  37  61  91 124 165 206 251 303 369
#     4   9  19  37  59  86 123 162 201 256 304 361
#     4  11  23  39  62  90 120 162 210 252 310 372
#     4  11  23  41  62  85 122 167 203 255 306 367
#     4  10  21  36  62  92 119 158 205 254 307 364
#
# _framework density 24.07863
#
# number of rings (size 3 to 8) (size 9 to 14) (size 15 to 20)
#    0.000    2.000    2.500    0.750    0.000    2.500 
#    0.000    5.000    0.000    0.000    0.000    0.000 
#    0.000    0.000    0.000    0.000    0.000    0.000 
#
# Total GULP energy -89137.187388 kJ/mol
# GULP energy per Si atom -5571.074212 kJ/mol
# Density = 2.402383 g / cm^3
# Si number density = 24.078630 Si / 1000 Ang^3
#
#
#
# Elastic Constant Matrix: (Units=GPa)
#
#
# Indices 1 2 3 4 5 6 
#
# 1 110.9579 51.1026 -0.8730 17.4931 13.0830 17.3353
# 2 51.1026 156.3198 14.9877 -1.1569 -4.1320 14.6513
# 3 -0.8730 14.9877 33.3261 5.8252 3.7732 -2.1767
# 4 17.4931 -1.1569 5.8252 2.8554 -3.2629 -1.7175
# 5 13.0830 -4.1320 3.7732 -3.2629 25.1606 -7.9665
# 6 17.3353 14.6513 -2.1767 -1.7175 -7.9665 41.4243
#
#
#
# Elastic Compliance Matrix: (Units=1/GPa)
#
#
# Indices 1 2 3 4 5 6 
#
# 1 -0.002207 0.002105 -0.011143 0.052226 0.011175 0.003908
# 2 0.002105 0.005709 0.001538 -0.021864 -0.004689 -0.004628
# 3 -0.011143 0.001538 0.019776 0.048449 0.012388 0.009550
# 4 0.052226 -0.021864 0.048449 -0.178963 -0.071596 -0.032766
# 5 0.011175 -0.004689 0.012388 -0.071596 0.021650 -0.001172
# 6 0.003908 -0.004628 0.009550 -0.032766 -0.001172 0.023060
#
#
# Mechanical properties :
#
#
# Convention : Reuss Voigt Hill
#
# Bulk Modulus (GPa) = 120.80388 47.89318 84.34853
# Shear Modulus (GPa) = -53.63959 29.58048 -12.02956
#
# Velocity S-wave (km/s) = -4.72496 3.50879 -2.23759
# Velocity P-wave (km/s) = 4.52908 6.02901 5.33205
#
# Compressibility (1/GPa) = 0.00827788
#
# Stress axis : x y z
#
# Youngs Moduli (GPa) = -453.13899 175.14965 50.56710
#
# Poissons Ratio (x) = -0.36878 0.56349
# Poissons Ratio (y) = 0.95408 -0.07776
# Poissons Ratio (z) = -5.04955 -0.26935
#
# Static dielectric constant tensor:
#      x y z
#    x 1.974380 -0.005280 -0.003180 
#    y -0.005280 2.033390 0.069650 
#    z -0.003180 0.069650 2.061830 
# 
# From -- ./inp_files/520807.got.cif
#   From: 2010.05.17/outbox.cif.g08.bks.cpg/sg2_261_cif.got.tgz:520807.got - 2010.06.03 11:33:40.
