data_PCOD9104297
_publ_section_title
;
Structure prediction by ZEFSAII (Michael W. Deem and Ramdas Pophale) SiO2 
 PCOD9104297
Probable space group: P -1
;
_chemical_formula_sum "Si O2"
_cell_formula_units_Z 14
_cell_length_a 15.878414
_cell_length_b 7.558049
_cell_length_c 12.116330
_cell_angle_alpha 103.879966
_cell_angle_beta 149.648104
_cell_angle_gamma 65.954857
_cell_volume 651.038858
_symmetry_space_group_name_H-M "P -1"
_symmetry_group_IT_number 2
_symmetry_cell_setting 'triclinic'
loop_
_space_group_symop_operation_xyz
x,y,z
-x,-y,-z
loop_
_atom_site_type_symbol
_atom_site_label
_atom_site_fract_x
_atom_site_fract_y
_atom_site_fract_z
Si Si1 0.183910 0.083374 0.416221
Si Si2 0.995801 0.473517 0.621435
Si Si3 0.522274 0.152746 0.435362
Si Si4 0.251292 0.680783 0.553064
Si Si5 0.187116 0.805945 0.091917
Si Si6 0.202185 0.481845 0.240203
Si Si7 0.625298 0.551585 0.889565
O O1 0.106740 0.305540 0.409059
O O2 0.374866 0.031795 0.559809
O O3 0.202656 0.910603 0.499230
O O4 0.025308 0.074575 0.154601
O O5 0.883746 0.346211 0.514215
O O6 0.000000 0.500000 0.500000
O O7 0.206902 0.387005 0.887858
O O8 0.678765 0.103033 0.697439
O O9 0.342532 0.265905 0.323219
O O10 0.481713 0.327513 0.322118
O O11 0.231003 0.553794 0.404706
O O12 0.468633 0.593418 0.809192
O O13 0.210931 0.642752 0.187816
O O14 0.278162 0.680938 0.066514
O O15 0.000000 0.500000 0.000000
#
# Coordination Sequence:
#
# PCOD9104297 Si02
#       7
#     2   2   2   2   2   2   2
#     4  10  22  37  65  95 123 167 209 248 307 375
#     4  11  26  46  64  88 119 158 222 284 315 356
#     4  10  17  33  58  89 128 163 193 235 298 375
#     4  11  21  41  64  87 128 166 207 254 312 375
#     4  10  16  33  55  88 130 161 188 235 295 368
#     4  11  19  31  57  91 132 172 197 235 303 372
#     4   9  18  37  63  89 123 166 201 247 319 372
#
# _framework density 21.504093000000001
#
# number of rings (size 3 to 8) (size 9 to 14) (size 15 to 20)
#    0.000    1.714    4.286    3.857    0.000    1.143 
#    0.000   14.286    0.000    0.000    0.000    0.000 
#    0.000    0.000    0.000    0.000    0.000    0.000 
#
# Total GULP energy -77948.453395 kJ/mol
# GULP energy per Si atom -5567.746671 kJ/mol
# Density = 2.145515 g / cm^3
# Si number density = 21.504093 Si / 1000 Ang^3
#
#
#
# Elastic Constant Matrix: (Units=GPa)
#
#
# Indices 1 2 3 4 5 6 
#
# 1 73.6331 5.2730 8.6311 -10.1233 11.7119 18.8189
# 2 5.2730 57.4982 3.4850 -11.2298 8.4415 13.4685
# 3 8.6311 3.4850 38.2175 -23.0359 25.0127 -6.2323
# 4 -10.1233 -11.2298 -23.0359 19.1444 -7.5014 7.7908
# 5 11.7119 8.4415 25.0127 -7.5014 28.0314 -3.0554
# 6 18.8189 13.4685 -6.2323 7.7908 -3.0554 30.1681
#
#
#
# Elastic Compliance Matrix: (Units=1/GPa)
#
#
# Indices 1 2 3 4 5 6 
#
# 1 0.010633 -0.007951 -0.033128 -0.031473 0.019105 0.000135
# 2 -0.007951 0.006184 -0.042623 -0.043739 0.028615 0.007587
# 3 -0.033128 -0.042623 -0.071916 -0.130854 0.062916 0.065002
# 4 -0.031473 -0.043739 -0.130854 -0.125006 0.115750 0.056133
# 5 0.019105 0.028615 0.062916 0.115750 -0.010741 -0.042675
# 6 0.000135 0.007587 0.065002 0.056133 -0.042675 0.024286
#
#
# Mechanical properties :
#
#
# Convention : Reuss Voigt Hill
#
# Bulk Modulus (GPa) = -4.49432 22.68079 9.09323
# Shear Modulus (GPa) = -68.19030 25.59943 -21.29544
#
# Velocity S-wave (km/s) = -5.63731 3.45402 -3.15031
# Velocity P-wave (km/s) = 6.66834 5.14559 2.99914
#
# Compressibility (1/GPa) = -0.22250296
#
# Stress axis : x y z
#
# Youngs Moduli (GPa) = 94.04521 161.71940 -13.90511
#
# Poissons Ratio (x) = 1.28575 -0.46065
# Poissons Ratio (y) = 0.74771 -0.59268
# Poissons Ratio (z) = 3.11557 6.89296
#
# Static dielectric constant tensor:
#      x y z
#    x 3.352840 0.517810 1.461240 
#    y 0.517810 2.023330 0.521690 
#    z 1.461240 0.521690 3.155370 
# 
# From -- ./inp_files/197437.got.cif
#   From: 2010.05.17/outbox.cif.g08.bks.cpg/sg2_99_cif.got.tgz:197437.got - 2010.06.03 11:33:40.
