data_PCOD9104417
_publ_section_title
;
Structure prediction by ZEFSAII (Michael W. Deem and Ramdas Pophale) SiO2 
 PCOD9104417
Probable space group: P -1
;
_chemical_formula_sum "Si O2"
_cell_formula_units_Z 16
_cell_length_a 8.268976
_cell_length_b 8.141552
_cell_length_c 14.338052
_cell_angle_alpha 103.081448
_cell_angle_beta 107.936189
_cell_angle_gamma 124.798693
_cell_volume 646.576109
_symmetry_space_group_name_H-M "P -1"
_symmetry_group_IT_number 2
_symmetry_cell_setting 'triclinic'
loop_
_space_group_symop_operation_xyz
x,y,z
-x,-y,-z
loop_
_atom_site_type_symbol
_atom_site_label
_atom_site_fract_x
_atom_site_fract_y
_atom_site_fract_z
Si Si1 0.672588 0.602922 0.411390
Si Si2 0.458906 0.770624 0.958787
Si Si3 0.864657 0.965221 0.164174
Si Si4 0.686153 0.844302 0.817002
Si Si5 0.063298 0.937866 0.375288
Si Si6 0.793963 0.374304 0.520018
Si Si7 0.391267 0.930217 0.305535
Si Si8 0.968467 0.543591 0.781372
O O1 0.431217 0.393839 0.289174
O O2 0.747220 0.828957 0.500190
O O3 0.676311 0.468358 0.477828
O O4 0.875759 0.723370 0.383654
O O5 0.604079 0.792626 0.901152
O O6 0.181486 0.573904 0.862801
O O7 0.500000 0.000000 0.000000
O O8 0.586237 0.770395 0.069182
O O9 0.037277 0.966048 0.132451
O O10 0.926853 0.969626 0.283434
O O11 0.943843 0.205393 0.175275
O O12 0.570590 0.933895 0.762713
O O13 0.203727 0.910053 0.329369
O O14 0.891196 0.455386 0.650248
O O15 0.000000 0.500000 0.500000
O O16 0.622230 0.100935 0.431414
O O17 0.267896 0.668309 0.231965
#
# Coordination Sequence:
#
# PCOD9104417 Si02
#       8
#     2   2   2   2   2   2   2   2
#     4  10  21  36  62  90 126 158 198 254 300 371
#     4  10  22  42  65  85 122 163 206 255 303 358
#     4  10  22  39  64  90 122 163 208 252 300 361
#     4  10  21  40  62  88 120 159 207 253 311 355
#     4  10  20  39  60  93 123 161 204 244 309 359
#     4  11  21  35  58  89 123 164 197 246 306 363
#     4  10  22  36  62  88 128 159 200 248 306 368
#     4  11  21  39  59  91 123 164 204 246 305 354
#
# _framework density 24.745736000000001
#
# number of rings (size 3 to 8) (size 9 to 14) (size 15 to 20)
#    0.000    1.750    1.250    3.750    1.750    1.500 
#    2.250    9.375    0.000    0.000    0.000    0.000 
#    0.000    0.000    0.000    0.000    0.000    0.000 
#
# Total GULP energy -89429.193972 kJ/mol
# GULP energy per Si atom -5589.324623 kJ/mol
# Density = 2.468941 g / cm^3
# Si number density = 24.745736 Si / 1000 Ang^3
#
#
#
# Elastic Constant Matrix: (Units=GPa)
#
#
# Indices 1 2 3 4 5 6 
#
# 1 45.0099 5.1081 28.6930 -2.1501 19.3395 -2.1683
# 2 5.1081 89.3897 24.9360 7.7700 12.0090 -3.3272
# 3 28.6930 24.9360 117.6653 13.5306 24.3556 -4.0147
# 4 -2.1501 7.7700 13.5306 27.9152 9.8943 6.6024
# 5 19.3395 12.0090 24.3556 9.8943 26.4122 2.4104
# 6 -2.1683 -3.3272 -4.0147 6.6024 2.4104 32.8634
#
#
#
# Elastic Compliance Matrix: (Units=1/GPa)
#
#
# Indices 1 2 3 4 5 6 
#
# 1 0.039549 0.002090 -0.005463 0.015765 -0.030891 0.001252
# 2 0.002090 0.012447 -0.001893 -0.000936 -0.005252 0.001740
# 3 -0.005463 -0.001893 0.011749 -0.004501 -0.004480 0.002116
# 4 0.015765 -0.000936 -0.004501 0.050221 -0.025064 -0.007856
# 5 -0.030891 -0.005252 -0.004480 -0.025064 0.076728 -0.003710
# 6 0.001252 0.001740 0.002116 -0.007856 -0.003710 0.032797
#
#
# Mechanical properties :
#
#
# Convention : Reuss Voigt Hill
#
# Bulk Modulus (GPa) = 18.79223 41.05992 29.92607
# Shear Modulus (GPa) = 19.86003 30.32669 25.09336
#
# Velocity S-wave (km/s) = 2.83603 3.50456 3.18787
# Velocity P-wave (km/s) = 4.28190 5.74497 5.06652
#
# Compressibility (1/GPa) = 0.05321347
#
# Stress axis : x y z
#
# Youngs Moduli (GPa) = 25.28487 80.33780 85.11126
#
# Poissons Ratio (x) = -0.16793 0.46497
# Poissons Ratio (y) = -0.05285 0.16115
# Poissons Ratio (z) = 0.13813 0.15212
#
# Static dielectric constant tensor:
#      x y z
#    x 2.039570 -0.089210 0.065210 
#    y -0.089210 2.089190 -0.031970 
#    z 0.065210 -0.031970 2.010950 
# 
# From -- ./inp_files/187220.got.cif
#   From: 2010.05.17/outbox.cif.g08.bks.cpg/sg2_94_cif.got.tgz:187220.got - 2010.06.03 11:33:40.
