data_PCOD9104366
_publ_section_title
;
Structure prediction by ZEFSAII (Michael W. Deem and Ramdas Pophale) SiO2 
 PCOD9104366
Probable space group: P -1
;
_chemical_formula_sum "Si O2"
_cell_formula_units_Z 14
_cell_length_a 5.322425
_cell_length_b 12.711767
_cell_length_c 19.280208
_cell_angle_alpha 146.169756
_cell_angle_beta 104.399914
_cell_angle_gamma 58.465120
_cell_volume 569.572367
_symmetry_space_group_name_H-M "P -1"
_symmetry_group_IT_number 2
_symmetry_cell_setting 'triclinic'
loop_
_space_group_symop_operation_xyz
x,y,z
-x,-y,-z
loop_
_atom_site_type_symbol
_atom_site_label
_atom_site_fract_x
_atom_site_fract_y
_atom_site_fract_z
Si Si1 0.271615 0.692910 0.813537
Si Si2 0.638739 0.768096 0.293654
Si Si3 0.820219 0.718410 0.919216
Si Si4 0.672980 0.461796 0.917805
Si Si5 0.628996 0.165401 0.540476
Si Si6 0.192623 0.013473 0.183375
Si Si7 0.214356 0.069550 0.818551
O O1 0.493652 0.776897 0.896271
O O2 0.513891 0.424862 0.656843
O O3 0.053990 0.709991 0.872381
O O4 0.029363 0.845242 0.819063
O O5 0.413401 0.691516 0.213877
O O6 0.600272 0.783242 0.382128
O O7 0.998609 0.544940 0.181256
O O8 0.584305 0.007126 0.398992
O O9 0.803621 0.860717 0.062630
O O10 0.041729 0.286403 0.871875
O O11 0.500000 0.500000 0.000000
O O12 0.462184 0.734904 0.030438
O O13 0.000000 0.000000 0.500000
O O14 0.414639 0.095786 0.262015
O O15 0.990634 0.031846 0.245573
#
# Coordination Sequence:
#
# PCOD9104366 Si02
#       7
#     2   2   2   2   2   2   2
#     4  11  24  38  61  90 130 158 200 256 314 369
#     4  10  20  39  60  89 120 158 212 251 303 354
#     4  11  21  37  59  93 121 160 201 248 311 366
#     4  10  21  41  63  92 121 166 206 252 298 372
#     4  10  21  38  60  87 122 160 208 257 302 360
#     4  11  23  39  58  91 129 162 197 251 314 368
#     4  11  23  40  60  90 125 163 206 243 302 374
#
# _framework density 24.579846
#
# number of rings (size 3 to 8) (size 9 to 14) (size 15 to 20)
#    0.000    1.429    4.286    2.143    2.000    3.429 
#    5.143    0.000    0.000    4.286    0.000    0.000 
#    0.000    0.000    0.000    0.000    0.000    0.000 
#
# Total GULP energy -78163.102170 kJ/mol
# GULP energy per Si atom -5583.078726 kJ/mol
# Density = 2.452390 g / cm^3
# Si number density = 24.579846 Si / 1000 Ang^3
#
#
#
# Elastic Constant Matrix: (Units=GPa)
#
#
# Indices 1 2 3 4 5 6 
#
# 1 124.5123 25.8401 -3.4429 7.9490 14.2601 -21.8943
# 2 25.8401 156.2467 2.8628 15.5083 1.4422 -22.3909
# 3 -3.4429 2.8628 62.5588 20.6907 8.1334 -2.0476
# 4 7.9490 15.5083 20.6907 29.3092 -2.0263 -0.9978
# 5 14.2601 1.4422 8.1334 -2.0263 25.9152 -4.2877
# 6 -21.8943 -22.3909 -2.0476 -0.9978 -4.2877 46.8493
#
#
#
# Elastic Compliance Matrix: (Units=1/GPa)
#
#
# Indices 1 2 3 4 5 6 
#
# 1 0.009930 -0.000613 0.003106 -0.004857 -0.006153 0.003817
# 2 -0.000613 0.007389 0.001280 -0.004560 -0.000307 0.003175
# 3 0.003106 0.001280 0.023788 -0.018975 -0.010441 0.001743
# 4 -0.004857 -0.004560 -0.018975 0.052001 0.012446 -0.003032
# 5 -0.006153 -0.000307 -0.010441 0.012446 0.046411 0.001034
# 6 0.003817 0.003175 0.001743 -0.003032 0.001034 0.024753
#
#
# Mechanical properties :
#
#
# Convention : Reuss Voigt Hill
#
# Bulk Modulus (GPa) = 20.55436 43.75975 32.15705
# Shear Modulus (GPa) = 28.91103 41.61860 35.26482
#
# Velocity S-wave (km/s) = 3.43331 4.11932 3.79186
# Velocity P-wave (km/s) = 4.90890 6.36135 5.68173
#
# Compressibility (1/GPa) = 0.04865148
#
# Stress axis : x y z
#
# Youngs Moduli (GPa) = 100.70058 135.34383 42.03878
#
# Poissons Ratio (x) = 0.08302 -0.13056
# Poissons Ratio (y) = 0.06177 -0.05381
# Poissons Ratio (z) = -0.31275 -0.17325
#
# Static dielectric constant tensor:
#      x y z
#    x 2.105070 0.024190 0.036570 
#    y 0.024190 2.007670 0.037380 
#    z 0.036570 0.037380 1.999050 
# 
# From -- ./inp_files/583653.got.cif
#   From: 2010.05.17/outbox.cif.g08.bks.cpg/sg2_292_cif.got.tgz:583653.got - 2010.06.03 11:33:40.
