data_PCOD9104702
_publ_section_title
;
Structure prediction by ZEFSAII (Michael W. Deem and Ramdas Pophale) SiO2 
 PCOD9104702
Probable space group: P -1
;
_chemical_formula_sum "Si O2"
_cell_formula_units_Z 16
_cell_length_a 24.769376
_cell_length_b 8.314144
_cell_length_c 8.608440
_cell_angle_alpha 54.826892
_cell_angle_beta 146.982793
_cell_angle_gamma 122.889521
_cell_volume 782.406942
_symmetry_space_group_name_H-M "P -1"
_symmetry_group_IT_number 2
_symmetry_cell_setting 'triclinic'
loop_
_space_group_symop_operation_xyz
x,y,z
-x,-y,-z
loop_
_atom_site_type_symbol
_atom_site_label
_atom_site_fract_x
_atom_site_fract_y
_atom_site_fract_z
Si Si1 0.138872 0.590237 0.908073
Si Si2 0.774636 0.161931 0.551521
Si Si3 0.937868 0.405609 0.627281
Si Si4 0.418225 0.101512 0.841500
Si Si5 0.547283 0.170858 0.406460
Si Si6 0.663635 0.524574 0.679896
Si Si7 0.761174 0.574685 0.218090
Si Si8 0.750194 0.016248 0.901709
O O1 0.090304 0.617995 0.607772
O O2 0.055831 0.469003 0.885487
O O3 0.234094 0.476193 0.170960
O O4 0.177029 0.810471 0.936254
O O5 0.878841 0.217599 0.680462
O O6 0.682187 0.053872 0.288560
O O7 0.746726 0.384087 0.404411
O O8 0.784470 0.026012 0.799747
O O9 0.877549 0.580621 0.446674
O O10 0.383670 0.275302 0.559392
O O11 0.500000 0.000000 0.000000
O O12 0.467975 0.194740 0.067261
O O13 0.586395 0.355139 0.508003
O O14 0.642642 0.091900 0.602336
O O15 0.500000 0.000000 0.500000
O O16 0.695412 0.500439 0.948522
O O17 0.743051 0.798397 0.081661
#
# Coordination Sequence:
#
# PCOD9104702 Si02
#       8
#     2   2   2   2   2   2   2   2
#     4   9  19  38  63  87 124 149 197 242 303 345
#     4  10  21  38  61  86 120 153 202 243 289 351
#     4   8  19  39  64  84 118 163 185 246 295 357
#     4  12  22  39  62  85 119 159 201 245 293 348
#     4  11  24  39  57  88 121 155 201 244 299 350
#     4  10  20  39  62  85 119 160 193 247 293 353
#     4   9  19  38  62  85 118 158 194 236 303 338
#     4  11  21  39  61  88 120 155 195 255 283 353
#
# _framework density 20.449715000000001
#
# number of rings (size 3 to 8) (size 9 to 14) (size 15 to 20)
#    0.750    1.250    2.500    1.125    1.750    2.000 
#    4.500    3.125    0.000    0.000    0.000    0.000 
#    0.000    0.000    0.000    0.000    0.000    0.000 
#
# Total GULP energy -89138.954711 kJ/mol
# GULP energy per Si atom -5571.184669 kJ/mol
# Density = 2.040317 g / cm^3
# Si number density = 20.449715 Si / 1000 Ang^3
#
#
#
# Elastic Constant Matrix: (Units=GPa)
#
#
# Indices 1 2 3 4 5 6 
#
# 1 19.9907 14.8947 -10.9073 1.4003 -4.9369 4.7669
# 2 14.8947 82.6858 13.6818 7.9854 25.4623 4.9115
# 3 -10.9073 13.6818 33.4971 -2.6335 7.2731 -1.7627
# 4 1.4003 7.9854 -2.6335 24.9135 6.0908 -1.9388
# 5 -4.9369 25.4623 7.2731 6.0908 0.0059 -5.8566
# 6 4.7669 4.9115 -1.7627 -1.9388 -5.8566 28.6392
#
#
#
# Elastic Compliance Matrix: (Units=1/GPa)
#
#
# Indices 1 2 3 4 5 6 
#
# 1 0.061198 -0.002837 0.030351 0.009935 -0.042937 -0.015940
# 2 -0.002837 0.005738 -0.010342 -0.009791 0.030090 0.004342
# 3 0.030351 -0.010342 0.047197 0.009371 -0.012045 -0.002202
# 4 0.009935 -0.009791 0.009371 0.042448 0.006702 0.004847
# 5 -0.042937 0.030090 -0.012045 0.006702 -0.065953 -0.011788
# 6 -0.015940 0.004342 -0.002202 0.004847 -0.011788 0.034608
#
#
# Mechanical properties :
#
#
# Convention : Reuss Voigt Hill
#
# Bulk Modulus (GPa) = 6.73500 19.05687 12.89594
# Shear Modulus (GPa) = 35.61667 18.61204 27.11435
#
# Velocity S-wave (km/s) = 4.17786 3.02012 3.64525
# Velocity P-wave (km/s) = 5.15493 4.63688 4.90275
#
# Compressibility (1/GPa) = 0.14847812
#
# Stress axis : x y z
#
# Youngs Moduli (GPa) = 16.34029 174.27615 21.18796
#
# Poissons Ratio (x) = 0.49437 -0.64308
# Poissons Ratio (y) = 0.04635 0.21913
# Poissons Ratio (z) = -0.49595 1.80237
#
# Static dielectric constant tensor:
#      x y z
#    x 1.779330 -0.010380 0.024900 
#    y -0.010380 1.759710 0.085000 
#    z 0.024900 0.085000 1.903480 
# 
# From -- ./inp_files/189431.got.cif
#   From: 2010.05.17/outbox.cif.g08.bks.cpg/sg2_95_cif.got.tgz:189431.got - 2010.06.03 11:33:40.
