data_PCOD9104200
_publ_section_title
;
Structure prediction by ZEFSAII (Michael W. Deem and Ramdas Pophale) SiO2 
 PCOD9104200
Probable space group: P -1
;
_chemical_formula_sum "Si O2"
_cell_formula_units_Z 13
_cell_length_a 8.680589
_cell_length_b 11.569978
_cell_length_c 20.303160
_cell_angle_alpha 148.725519
_cell_angle_beta 43.803107
_cell_angle_gamma 113.861557
_cell_volume 591.150887
_symmetry_space_group_name_H-M "P -1"
_symmetry_group_IT_number 2
_symmetry_cell_setting 'triclinic'
loop_
_space_group_symop_operation_xyz
x,y,z
-x,-y,-z
loop_
_atom_site_type_symbol
_atom_site_label
_atom_site_fract_x
_atom_site_fract_y
_atom_site_fract_z
Si Si1 0.353634 0.727072 0.711167
Si Si2 0.085215 0.961896 0.566863
Si Si3 0.500000 0.000000 0.000000
Si Si4 0.990620 0.457117 0.905048
Si Si5 0.344607 0.018304 0.207045
Si Si6 0.402777 0.620204 0.179497
Si Si7 0.778900 0.252824 0.098240
O O1 0.500000 0.500000 0.500000
O O2 0.362327 0.601270 0.717918
O O3 0.498355 0.878732 0.752687
O O4 0.040686 0.948465 0.891957
O O5 0.146189 0.141188 0.679850
O O6 0.945567 0.861967 0.609185
O O7 0.848799 0.178543 0.693361
O O8 0.322869 0.735984 0.335125
O O9 0.401324 0.802587 0.917532
O O10 0.657190 0.918837 0.838607
O O11 0.108634 0.597078 0.898720
O O12 0.666683 0.600566 0.063357
O O13 0.000000 0.500000 0.000000
O O14 0.516674 0.686314 0.995884
#
# Coordination Sequence:
#
# PCOD9104200 Si02
#       7
#     2   2   1   2   2   2   2
#     4  10  22  38  61  88 112 149 195 239 284 333
#     4  10  21  37  63  90 112 148 192 237 288 340
#     4  10  22  40  58  80 114 160 192 226 284 338
#     4  11  22  38  58  86 122 153 185 233 289 344
#     4  10  20  39  59  84 120 151 188 235 284 339
#     4  10  21  38  62  88 114 148 192 238 286 338
#     4  10  21  39  60  83 117 151 190 238 283 336
#
# _framework density 21.991
#
# number of rings (size 3 to 8) (size 9 to 14) (size 15 to 20)
#    0.000    1.846    0.000    5.538    0.000    8.000 
#    0.000   11.538    0.000    0.000    0.000    0.000 
#    0.000    0.000    0.000    0.000    0.000    0.000 
#
# Total GULP energy -72433.302851 kJ/mol
# GULP energy per Si atom -5571.792527 kJ/mol
# Density = 2.194095 g / cm^3
# Si number density = 21.991000 Si / 1000 Ang^3
#
#
#
# Elastic Constant Matrix: (Units=GPa)
#
#
# Indices 1 2 3 4 5 6 
#
# 1 79.6070 43.5010 47.5240 -3.3669 42.1612 0.3766
# 2 43.5010 172.5725 49.1471 -26.4649 22.6683 19.3216
# 3 47.5240 49.1471 108.0125 -29.0877 45.9866 3.3830
# 4 -3.3669 -26.4649 -29.0877 25.1414 -11.4027 5.4451
# 5 42.1612 22.6683 45.9866 -11.4027 45.2918 -6.2671
# 6 0.3766 19.3216 3.3830 5.4451 -6.2671 27.8839
#
#
#
# Elastic Compliance Matrix: (Units=1/GPa)
#
#
# Indices 1 2 3 4 5 6 
#
# 1 0.033102 -0.007085 -0.006900 -0.023520 -0.025612 0.004136
# 2 -0.007085 0.010144 0.002069 0.015074 0.001868 -0.009708
# 3 -0.006900 0.002069 0.025665 0.026646 -0.015790 -0.013207
# 4 -0.023520 0.015074 0.026646 0.092769 0.006497 -0.030016
# 5 -0.025612 0.001868 -0.015790 0.006497 0.064621 0.014222
# 6 0.004136 -0.009708 -0.013207 -0.030016 0.014222 0.053195
#
#
# Mechanical properties :
#
#
# Convention : Reuss Voigt Hill
#
# Bulk Modulus (GPa) = 22.18262 71.17069 46.67665
# Shear Modulus (GPa) = 15.70576 34.33140 25.01858
#
# Velocity S-wave (km/s) = 2.67533 3.95543 3.37660
# Velocity P-wave (km/s) = 4.43309 7.30030 6.03932
#
# Compressibility (1/GPa) = 0.04508035
#
# Stress axis : x y z
#
# Youngs Moduli (GPa) = 30.20922 98.57580 38.96422
#
# Poissons Ratio (x) = 0.69840 0.26886
# Poissons Ratio (y) = 0.21403 -0.08063
# Poissons Ratio (z) = 0.20845 -0.20399
#
# Static dielectric constant tensor:
#      x y z
#    x 1.822020 -0.035400 -0.015380 
#    y -0.035400 1.782440 -0.012990 
#    z -0.015380 -0.012990 1.795800 
# 
# From -- ./inp_files/253865.got.cif
#   From: 2010.05.17/outbox.cif.g08.bks.cpg/sg2_127_cif.got.tgz:253865.got - 2010.06.03 11:33:40.
