data_PCOD9104485
_publ_section_title
;
Structure prediction by ZEFSAII (Michael W. Deem and Ramdas Pophale) SiO2 
 PCOD9104485
Probable space group: P -1
;
_chemical_formula_sum "Si O2"
_cell_formula_units_Z 16
_cell_length_a 11.857332
_cell_length_b 18.744947
_cell_length_c 8.073757
_cell_angle_alpha 51.787037
_cell_angle_beta 61.946382
_cell_angle_gamma 35.344518
_cell_volume 813.339169
_symmetry_space_group_name_H-M "P -1"
_symmetry_group_IT_number 2
_symmetry_cell_setting 'triclinic'
loop_
_space_group_symop_operation_xyz
x,y,z
-x,-y,-z
loop_
_atom_site_type_symbol
_atom_site_label
_atom_site_fract_x
_atom_site_fract_y
_atom_site_fract_z
Si Si1 0.033446 0.526083 0.260350
Si Si2 0.726618 0.557209 0.323233
Si Si3 0.550854 0.666812 0.651715
Si Si4 0.698965 0.203086 0.814369
Si Si5 0.016312 0.743153 0.952342
Si Si6 0.824580 0.035478 0.655933
Si Si7 0.327131 0.668765 0.057349
Si Si8 0.712103 0.391122 0.361935
O O1 0.268780 0.401993 0.254972
O O2 0.000000 0.500000 0.500000
O O3 0.905208 0.530971 0.224660
O O4 0.954818 0.671590 0.110056
O O5 0.655332 0.586817 0.520749
O O6 0.530854 0.697975 0.165763
O O7 0.774102 0.434863 0.386496
O O8 0.379198 0.828810 0.488147
O O9 0.437937 0.646483 0.850301
O O10 0.805593 0.074828 0.805757
O O11 0.752685 0.202834 0.964189
O O12 0.720388 0.286150 0.579094
O O13 0.149393 0.676272 0.793715
O O14 0.154859 0.696677 0.077076
O O15 0.864690 0.906866 0.804607
O O16 0.000000 0.000000 0.500000
O O17 0.493327 0.532835 0.249493
#
# Coordination Sequence:
#
# PCOD9104485 Si02
#       8
#     2   2   2   2   2   2   2   2
#     4  10  23  38  62  89 113 158 204 245 286 346
#     4   9  20  38  57  87 120 152 194 245 294 344
#     4  10  20  39  61  85 120 154 198 243 294 348
#     4  10  22  36  59  91 124 153 188 253 302 346
#     4  12  23  36  61  92 118 157 197 239 300 359
#     4  11  21  40  59  88 125 157 190 241 306 355
#     4  11  21  33  61  90 121 147 200 249 299 343
#     4  11  21  34  61  93 121 146 193 260 303 338
#
# _framework density 19.671990999999998
#
# number of rings (size 3 to 8) (size 9 to 14) (size 15 to 20)
#    0.000    1.500    3.750    2.625    8.750    1.000 
#    0.000    5.625    0.000    0.750    0.000    0.000 
#    0.000    0.000    0.000    0.000    0.000    0.000 
#
# Total GULP energy -89308.855900 kJ/mol
# GULP energy per Si atom -5581.803494 kJ/mol
# Density = 1.962722 g / cm^3
# Si number density = 19.671991 Si / 1000 Ang^3
#
#
#
# Elastic Constant Matrix: (Units=GPa)
#
#
# Indices 1 2 3 4 5 6 
#
# 1 139.3674 38.6010 26.4331 -16.8318 -12.2692 5.2717
# 2 38.6010 97.4008 23.8150 -12.1370 -2.6876 14.4567
# 3 26.4331 23.8150 68.4033 -18.5902 -13.1038 4.9517
# 4 -16.8318 -12.1370 -18.5902 37.5910 8.1704 7.7843
# 5 -12.2692 -2.6876 -13.1038 8.1704 25.3721 0.7715
# 6 5.2717 14.4567 4.9517 7.7843 0.7715 25.4332
#
#
#
# Elastic Compliance Matrix: (Units=1/GPa)
#
#
# Indices 1 2 3 4 5 6 
#
# 1 0.008663 -0.002696 -0.001339 0.001916 0.002615 -0.000669
# 2 -0.002696 0.013537 -0.002417 0.004069 -0.002190 -0.007844
# 3 -0.001339 -0.002417 0.019804 0.007910 0.006925 -0.004836
# 4 0.001916 0.004069 0.007910 0.037205 -0.006068 -0.015453
# 5 0.002615 -0.002190 0.006925 -0.006068 0.045982 -0.000183
# 6 -0.000669 -0.007844 -0.004836 -0.015453 -0.000183 0.049593
#
#
# Mechanical properties :
#
#
# Convention : Reuss Voigt Hill
#
# Bulk Modulus (GPa) = 34.36308 53.65218 44.00763
# Shear Modulus (GPa) = 25.33091 32.10076 28.71583
#
# Velocity S-wave (km/s) = 3.59230 4.04394 3.82479
# Velocity P-wave (km/s) = 5.89169 7.00979 6.47492
#
# Compressibility (1/GPa) = 0.02910100
#
# Stress axis : x y z
#
# Youngs Moduli (GPa) = 115.43614 73.87164 50.49359
#
# Poissons Ratio (x) = 0.19913 0.06760
# Poissons Ratio (y) = 0.31117 0.12205
# Poissons Ratio (z) = 0.15455 0.17856
#
# Static dielectric constant tensor:
#      x y z
#    x 1.751560 0.012740 0.038110 
#    y 0.012740 1.724780 0.002050 
#    z 0.038110 0.002050 1.721910 
# 
# From -- ./inp_files/277433.got.cif
#   From: 2010.05.17/outbox.cif.g08.bks.cpg/sg2_139_cif.got.tgz:277433.got - 2010.06.03 11:33:40.
