data_PCOD9104825
_publ_section_title
;
Structure prediction by ZEFSAII (Michael W. Deem and Ramdas Pophale) SiO2 
 PCOD9104825
Probable space group: P -1
;
_chemical_formula_sum "Si O2"
_cell_formula_units_Z 16
_cell_length_a 24.909591
_cell_length_b 27.444739
_cell_length_c 17.304820
_cell_angle_alpha 23.021738
_cell_angle_beta 158.677396
_cell_angle_gamma 169.940181
_cell_volume 750.489916
_symmetry_space_group_name_H-M "P -1"
_symmetry_group_IT_number 2
_symmetry_cell_setting 'triclinic'
loop_
_space_group_symop_operation_xyz
x,y,z
-x,-y,-z
loop_
_atom_site_type_symbol
_atom_site_label
_atom_site_fract_x
_atom_site_fract_y
_atom_site_fract_z
Si Si1 0.072065 0.407552 0.232400
Si Si2 0.330933 0.138192 0.507320
Si Si3 0.024201 0.077034 0.295251
Si Si4 0.486285 0.355170 0.651147
Si Si5 0.786067 0.313153 0.408412
Si Si6 0.437305 0.593096 0.006910
Si Si7 0.830613 0.865581 0.856372
Si Si8 0.276195 0.499180 0.751378
O O1 0.358580 0.611478 0.384332
O O2 0.197832 0.462568 0.234586
O O3 0.777018 0.086455 0.323937
O O4 0.000000 0.500000 0.000000
O O5 0.018119 0.965840 0.384168
O O6 0.387589 0.260970 0.326509
O O7 0.237922 0.183591 0.496637
O O8 0.229947 0.341463 0.146492
O O9 0.679593 0.852983 0.199961
O O10 0.500000 0.500000 0.500000
O O11 0.601720 0.302516 0.156804
O O12 0.000000 0.500000 0.500000
O O13 0.032348 0.429701 0.508988
O O14 0.500000 0.000000 0.500000
O O15 0.279645 0.487623 0.864915
O O16 0.806174 0.830379 0.132179
O O17 0.642806 0.793614 0.778800
O O18 0.837228 0.725689 0.095422
#
# Coordination Sequence:
#
# PCOD9104825 Si02
#       8
#     2   2   2   2   2   2   2   2
#     4  11  24  44  68  92 132 173 206 261 337 399
#     4  11  22  41  66  94 128 166 215 265 325 388
#     4  10  21  36  63  93 121 160 215 269 319 376
#     4  10  20  39  62  91 124 160 210 269 320 384
#     4  10  21  41  59  86 127 170 209 261 329 386
#     4  11  21  38  64  89 128 170 222 267 328 385
#     4  11  21  37  64  92 125 164 223 269 314 377
#     4  10  22  38  60  90 126 172 215 268 319 382
#
# _framework density 21.319406000000001
#
# number of rings (size 3 to 8) (size 9 to 14) (size 15 to 20)
#    0.000    1.500    3.750    2.250    0.000    0.000 
#    2.250    0.000    0.000    0.000    0.000    0.000 
#    0.000    0.000    0.000    0.000    0.000    0.000 
#
# Total GULP energy -89153.516793 kJ/mol
# GULP energy per Si atom -5572.094800 kJ/mol
# Density = 2.127088 g / cm^3
# Si number density = 21.319406 Si / 1000 Ang^3
#
#
#
# Elastic Constant Matrix: (Units=GPa)
#
#
# Indices 1 2 3 4 5 6 
#
# 1 71.7074 27.0792 35.6631 -15.2335 13.6273 19.0116
# 2 27.0792 89.3718 29.7371 -18.7539 7.8810 9.1494
# 3 35.6631 29.7371 82.0306 -23.5209 19.2285 19.4607
# 4 -15.2335 -18.7539 -23.5209 29.1822 -0.4574 -0.6582
# 5 13.6273 7.8810 19.2285 -0.4574 42.5123 2.2190
# 6 19.0116 9.1494 19.4607 -0.6582 2.2190 42.3103
#
#
#
# Elastic Compliance Matrix: (Units=1/GPa)
#
#
# Indices 1 2 3 4 5 6 
#
# 1 0.020601 -0.002748 -0.003838 0.005684 -0.003953 -0.006602
# 2 -0.002748 0.014055 -0.001730 0.006171 -0.000830 -0.000869
# 3 -0.003838 -0.001730 0.022329 0.014587 -0.007999 -0.007525
# 4 0.005684 0.006171 0.014587 0.052613 -0.008510 -0.009333
# 5 -0.003953 -0.000830 -0.007999 -0.008510 0.028260 0.004020
# 6 -0.006602 -0.000869 -0.007525 -0.009333 0.004020 0.029895
#
#
# Mechanical properties :
#
#
# Convention : Reuss Voigt Hill
#
# Bulk Modulus (GPa) = 24.78135 47.56317 36.17226
# Shear Modulus (GPa) = 25.27365 32.84300 29.05832
#
# Velocity S-wave (km/s) = 3.44681 3.92921 3.69589
# Velocity P-wave (km/s) = 5.24307 6.55310 5.93434
#
# Compressibility (1/GPa) = 0.04035292
#
# Stress axis : x y z
#
# Youngs Moduli (GPa) = 48.54177 71.15141 44.78470
#
# Poissons Ratio (x) = 0.19552 0.17187
# Poissons Ratio (y) = 0.13339 0.07748
# Poissons Ratio (z) = 0.18629 0.12310
#
# Static dielectric constant tensor:
#      x y z
#    x 1.848540 -0.005020 0.038390 
#    y -0.005020 1.859000 0.023670 
#    z 0.038390 0.023670 1.823580 
# 
# From -- ./inp_files/483877.got.cif
#   From: 2010.05.17/outbox.cif.g08.bks.cpg/sg2_242_cif.got.tgz:483877.got - 2010.06.03 11:33:40.
