data_PCOD9104184
_publ_section_title
;
Structure prediction by ZEFSAII (Michael W. Deem and Ramdas Pophale) SiO2 
 PCOD9104184
Probable space group: P -1
;
_chemical_formula_sum "Si O2"
_cell_formula_units_Z 16
_cell_length_a 9.588700
_cell_length_b 17.441105
_cell_length_c 6.686388
_cell_angle_alpha 72.178649
_cell_angle_beta 48.890838
_cell_angle_gamma 90.534227
_cell_volume 766.767217
_symmetry_space_group_name_H-M "P -1"
_symmetry_group_IT_number 2
_symmetry_cell_setting 'triclinic'
loop_
_space_group_symop_operation_xyz
x,y,z
-x,-y,-z
loop_
_atom_site_type_symbol
_atom_site_label
_atom_site_fract_x
_atom_site_fract_y
_atom_site_fract_z
Si Si1 0.137266 0.334791 0.113365
Si Si2 0.819750 0.066764 0.779074
Si Si3 0.742720 0.201548 0.473957
Si Si4 0.854939 0.380764 0.668050
Si Si5 0.086164 0.460212 0.765290
Si Si6 0.759900 0.926058 0.688751
Si Si7 0.708634 0.059220 0.320254
Si Si8 0.484480 0.258762 0.940790
O O1 0.961220 0.261597 0.238921
O O2 0.028475 0.363482 0.383287
O O3 0.198132 0.405296 0.825017
O O4 0.318136 0.304287 0.035335
O O5 0.721437 0.131488 0.724555
O O6 0.031805 0.087269 0.469069
O O7 0.709277 0.970106 0.901497
O O8 0.837558 0.078266 0.987289
O O9 0.705137 0.145990 0.355632
O O10 0.593625 0.252715 0.632188
O O11 0.812229 0.461898 0.537971
O O12 0.658999 0.305427 0.885509
O O13 0.927616 0.401756 0.809329
O O14 0.000000 0.500000 0.000000
O O15 0.780366 0.000312 0.451488
O O16 0.620618 0.837505 0.824374
O O17 0.500000 0.000000 0.500000
#
# Coordination Sequence:
#
# PCOD9104184 Si02
#       8
#     2   2   2   2   2   2   2   2
#     4  10  21  39  61  92 123 159 195 244 302 359
#     4  10  20  39  59  77 118 161 208 251 297 349
#     4  10  22  39  59  83 122 162 197 253 306 345
#     4   9  21  41  66  91 119 159 195 243 297 361
#     4   9  19  42  68  88 123 158 192 239 302 359
#     4  10  21  37  58  84 114 162 202 251 302 348
#     4  11  22  36  56  85 113 160 214 252 298 356
#     4  11  21  39  63  89 126 158 202 251 303 357
#
# _framework density 20.866828999999999
#
# number of rings (size 3 to 8) (size 9 to 14) (size 15 to 20)
#    0.000    2.000    1.250    1.875    0.000    5.500 
#    2.250   11.875    0.000    0.000    0.000    0.000 
#    0.000    0.000    0.000    0.000    0.000    0.000 
#
# Total GULP energy -89242.920813 kJ/mol
# GULP energy per Si atom -5577.682551 kJ/mol
# Density = 2.081933 g / cm^3
# Si number density = 20.866829 Si / 1000 Ang^3
#
#
#
# Elastic Constant Matrix: (Units=GPa)
#
#
# Indices 1 2 3 4 5 6 
#
# 1 80.1903 41.4106 35.4645 16.4765 -6.0506 4.4485
# 2 41.4106 99.0125 27.9449 14.5260 -0.7137 15.0770
# 3 35.4645 27.9449 50.2080 14.0289 10.7589 2.1581
# 4 16.4765 14.5260 14.0289 22.5139 6.6044 0.2733
# 5 -6.0506 -0.7137 10.7589 6.6044 35.3012 8.3132
# 6 4.4485 15.0770 2.1581 0.2733 8.3132 46.6230
#
#
#
# Elastic Compliance Matrix: (Units=1/GPa)
#
#
# Indices 1 2 3 4 5 6 
#
# 1 0.023505 -0.004232 -0.013909 -0.008802 0.010304 -0.002016
# 2 -0.004232 0.014397 -0.004207 -0.004313 0.002718 -0.004517
# 3 -0.013909 -0.004207 0.036446 -0.005968 -0.013261 0.003400
# 4 -0.008802 -0.004313 -0.005968 0.060883 -0.012186 0.004327
# 5 0.010304 0.002718 -0.013261 -0.012186 0.038358 -0.008016
# 6 -0.002016 -0.004517 0.003400 0.004327 -0.008016 0.024348
#
#
# Mechanical properties :
#
#
# Convention : Reuss Voigt Hill
#
# Bulk Modulus (GPa) = 33.72445 48.78341 41.25393
# Shear Modulus (GPa) = 19.80049 29.19366 24.49708
#
# Velocity S-wave (km/s) = 3.08376 3.74444 3.43004
# Velocity P-wave (km/s) = 5.37366 6.49027 5.95818
#
# Compressibility (1/GPa) = 0.02965208
#
# Stress axis : x y z
#
# Youngs Moduli (GPa) = 42.54387 69.45705 27.43749
#
# Poissons Ratio (x) = 0.29398 0.38163
# Poissons Ratio (y) = 0.18007 0.11543
# Poissons Ratio (z) = 0.59174 0.29220
#
# Static dielectric constant tensor:
#      x y z
#    x 1.855630 0.000810 0.086920 
#    y 0.000810 1.822160 -0.022630 
#    z 0.086920 -0.022630 1.839500 
# 
# From -- ./inp_files/44069.got.cif
#   From: 2010.05.17/outbox.cif.g08.bks.cpg/sg2_23_cif.got.tgz:44069.got - 2010.06.03 11:33:40.
