data_PCOD9104391
_publ_section_title
;
Structure prediction by ZEFSAII (Michael W. Deem and Ramdas Pophale) SiO2 
 PCOD9104391
Probable space group: P -1
;
_chemical_formula_sum "Si O2"
_cell_formula_units_Z 16
_cell_length_a 8.914261
_cell_length_b 8.205471
_cell_length_c 10.984064
_cell_angle_alpha 103.069427
_cell_angle_beta 78.103493
_cell_angle_gamma 81.023019
_cell_volume 748.307402
_symmetry_space_group_name_H-M "P -1"
_symmetry_group_IT_number 2
_symmetry_cell_setting 'triclinic'
loop_
_space_group_symop_operation_xyz
x,y,z
-x,-y,-z
loop_
_atom_site_type_symbol
_atom_site_label
_atom_site_fract_x
_atom_site_fract_y
_atom_site_fract_z
Si Si1 0.976457 0.337595 0.611465
Si Si2 0.786090 0.699645 0.623160
Si Si3 0.872356 0.842265 0.888711
Si Si4 0.177700 0.567286 0.757768
Si Si5 0.483987 0.620988 0.716810
Si Si6 0.309905 0.662878 0.203362
Si Si7 0.387109 0.865254 0.006926
Si Si8 0.814842 0.567393 0.015929
O O1 0.104325 0.232083 0.480758
O O2 0.078702 0.438580 0.696311
O O3 0.865119 0.497057 0.587349
O O4 0.856081 0.248482 0.690327
O O5 0.801935 0.783864 0.765450
O O6 0.603881 0.706777 0.633677
O O7 0.054292 0.746583 0.832726
O O8 0.798141 0.041131 0.948060
O O9 0.802705 0.756382 0.000304
O O10 0.329312 0.598467 0.667357
O O11 0.252568 0.475236 0.852846
O O12 0.582476 0.446101 0.730439
O O13 0.428025 0.741904 0.863988
O O14 0.400849 0.770692 0.119481
O O15 0.252811 0.531900 0.096395
O O16 0.500000 0.000000 0.000000
O O17 0.000000 0.500000 0.000000
#
# Coordination Sequence:
#
# PCOD9104391 Si02
#       8
#     2   2   2   2   2   2   2   2
#     4   9  18  35  58  80 103 145 189 223 262 317
#     4   9  17  35  57  77 110 141 185 228 261 313
#     4  10  20  36  53  82 114 143 179 226 273 323
#     4  10  20  32  56  85 112 141 177 228 271 326
#     4  11  21  34  56  83 113 145 176 226 275 326
#     4  11  20  36  56  82 107 144 188 218 270 335
#     4  12  23  33  54  83 115 142 178 230 281 320
#     4  10  16  33  56  79 110 132 178 228 270 317
#
# _framework density 21.381587
#
# number of rings (size 3 to 8) (size 9 to 14) (size 15 to 20)
#    0.000    1.750    7.500    0.375    1.750    1.000 
#    0.000    0.625    0.000    0.000    0.000    4.375 
#    0.000    0.000    0.000    0.000    0.000    0.000 
#
# Total GULP energy -89137.719817 kJ/mol
# GULP energy per Si atom -5571.107489 kJ/mol
# Density = 2.133292 g / cm^3
# Si number density = 21.381587 Si / 1000 Ang^3
#
#
#
# Elastic Constant Matrix: (Units=GPa)
#
#
# Indices 1 2 3 4 5 6 
#
# 1 112.2362 6.4775 20.0875 2.2442 -27.7444 5.9539
# 2 6.4775 34.4000 6.6802 1.4896 -6.0922 -3.0693
# 3 20.0875 6.6802 65.5145 1.0069 -28.1541 0.2724
# 4 2.2442 1.4896 1.0069 14.6056 1.6778 -5.8100
# 5 -27.7444 -6.0922 -28.1541 1.6778 34.2113 -3.7052
# 6 5.9539 -3.0693 0.2724 -5.8100 -3.7052 27.7173
#
#
#
# Elastic Compliance Matrix: (Units=1/GPa)
#
#
# Indices 1 2 3 4 5 6 
#
# 1 0.011392 -0.000593 0.000838 -0.003660 0.009788 -0.001980
# 2 -0.000593 0.030615 -0.000884 -0.002030 0.004748 0.003735
# 3 0.000838 -0.000884 0.023999 -0.003457 0.020606 0.001516
# 4 -0.003660 -0.002030 -0.003457 0.076608 -0.008247 0.015551
# 5 0.009788 0.004748 0.020606 -0.008247 0.055803 0.003952
# 6 -0.001980 0.003735 0.001516 0.015551 0.003952 0.040691
#
#
# Mechanical properties :
#
#
# Convention : Reuss Voigt Hill
#
# Bulk Modulus (GPa) = 15.44908 30.96013 23.20460
# Shear Modulus (GPa) = 19.08686 27.23388 23.16037
#
# Velocity S-wave (km/s) = 2.99101 3.57278 3.29476
# Velocity P-wave (km/s) = 4.37828 5.61524 5.03489
#
# Compressibility (1/GPa) = 0.06472879
#
# Stress axis : x y z
#
# Youngs Moduli (GPa) = 87.78383 32.66367 41.66859
#
# Poissons Ratio (x) = 0.01936 -0.03493
# Poissons Ratio (y) = 0.05202 0.03683
# Poissons Ratio (z) = -0.07358 0.02887
#
# Static dielectric constant tensor:
#      x y z
#    x 1.840330 0.015510 -0.059670 
#    y 0.015510 1.799270 -0.033790 
#    z -0.059670 -0.033790 1.872920 
# 
# From -- ./inp_files/338866.got.cif
#   From: 2010.05.17/outbox.cif.g08.bks.cpg/sg2_170_cif.got.tgz:338866.got - 2010.06.03 11:33:40.
