data_PCOD9104020
_publ_section_title
;
Structure prediction by ZEFSAII (Michael W. Deem and Ramdas Pophale) SiO2 
 PCOD9104020
Probable space group: P -1
;
_chemical_formula_sum "Si O2"
_cell_formula_units_Z 9
_cell_length_a 8.688288
_cell_length_b 6.986444
_cell_length_c 11.096125
_cell_angle_alpha 61.467993
_cell_angle_beta 139.450908
_cell_angle_gamma 129.413221
_cell_volume 338.274444
_symmetry_space_group_name_H-M "P -1"
_symmetry_group_IT_number 2
_symmetry_cell_setting 'triclinic'
loop_
_space_group_symop_operation_xyz
x,y,z
-x,-y,-z
loop_
_atom_site_type_symbol
_atom_site_label
_atom_site_fract_x
_atom_site_fract_y
_atom_site_fract_z
Si Si1 0.063576 0.328095 0.357459
Si Si2 0.500000 0.000000 0.000000
Si Si3 0.243163 0.068288 0.218392
Si Si4 0.299323 0.572769 0.196899
Si Si5 0.182965 0.879758 0.495605
O O1 0.266230 0.557690 0.327369
O O2 0.022807 0.335595 0.473447
O O3 0.153484 0.118418 0.448728
O O4 0.768875 0.224870 0.154716
O O5 0.483150 0.815425 0.157779
O O6 0.335057 0.341090 0.244310
O O7 0.516671 0.085523 0.324267
O O8 0.129228 0.878439 0.320679
O O9 0.000000 0.000000 0.000000
O O10 0.000000 0.500000 0.000000
#
# Coordination Sequence:
#
# PCOD9104020 Si02
#       5
#     2   1   2   2   2
#     4   9  19  38  66  97 131 169 222 271 323 396
#     4  10  20  38  72  92 128 180 218 266 326 384
#     4  10  21  39  69  99 137 173 214 276 338 387
#     4   9  20  39  66  99 124 178 227 260 325 401
#     4   9  20  38  63 101 136 164 224 274 323 404
#
# _framework density 26.605615
#
# number of rings (size 3 to 8) (size 9 to 14) (size 15 to 20)
#    0.000    2.667    0.000    0.000    9.333    0.000 
#    0.000   15.556    9.778    0.000    0.000    0.000 
#    0.000    0.000    0.000    0.000    0.000    0.000 
#
# Total GULP energy -50110.735807 kJ/mol
# GULP energy per Si atom -5567.859534 kJ/mol
# Density = 2.654506 g / cm^3
# Si number density = 26.605615 Si / 1000 Ang^3
#
#
#
# Elastic Constant Matrix: (Units=GPa)
#
#
# Indices 1 2 3 4 5 6 
#
# 1 193.3157 64.1638 72.2473 -30.2657 -38.8968 8.2614
# 2 64.1638 150.0283 4.9327 -34.6012 -45.1727 44.6586
# 3 72.2473 4.9327 186.1216 -1.8647 -29.5722 21.4316
# 4 -30.2657 -34.6012 -1.8647 46.5870 17.2738 -7.9268
# 5 -38.8968 -45.1727 -29.5722 17.2738 41.8241 -24.2787
# 6 8.2614 44.6586 21.4316 -7.9268 -24.2787 55.1124
#
#
#
# Elastic Compliance Matrix: (Units=1/GPa)
#
#
# Indices 1 2 3 4 5 6 
#
# 1 0.008260 -0.003057 -0.002995 0.002286 0.003902 0.004451
# 2 -0.003057 0.013330 0.002957 0.003914 0.007636 -0.007566
# 3 -0.002995 0.002957 0.007533 -0.001695 0.004652 -0.003071
# 4 0.002286 0.003914 -0.001695 0.028315 -0.007837 -0.002235
# 5 0.003902 0.007636 0.004652 -0.007837 0.049278 0.012000
# 6 0.004451 -0.007566 -0.003071 -0.002235 0.012000 0.029767
#
#
# Mechanical properties :
#
#
# Convention : Reuss Voigt Hill
#
# Bulk Modulus (GPa) = 43.60579 90.23925 66.92252
# Shear Modulus (GPa) = 33.26333 54.57948 43.92140
#
# Velocity S-wave (km/s) = 3.53971 4.53418 4.06745
# Velocity P-wave (km/s) = 5.75598 7.83599 6.87510
#
# Compressibility (1/GPa) = 0.02293273
#
# Stress axis : x y z
#
# Youngs Moduli (GPa) = 121.07197 75.02146 132.75359
#
# Poissons Ratio (x) = 0.22932 0.39757
# Poissons Ratio (y) = 0.37009 -0.39255
# Poissons Ratio (z) = 0.36258 -0.22184
#
# Static dielectric constant tensor:
#      x y z
#    x 2.244110 -0.273650 0.030470 
#    y -0.273650 2.247820 -0.144780 
#    z 0.030470 -0.144780 2.121570 
# 
# From -- ./inp_files/373714.got.cif
#   From: 2010.05.17/outbox.cif.g08.bks.cpg/sg2_187_cif.got.tgz:373714.got - 2010.06.03 11:33:40.
