data_PCOD9104637
_publ_section_title
;
Structure prediction by ZEFSAII (Michael W. Deem and Ramdas Pophale) SiO2 
 PCOD9104637
Probable space group: P -1
;
_chemical_formula_sum "Si O2"
_cell_formula_units_Z 16
_cell_length_a 7.307920
_cell_length_b 8.901074
_cell_length_c 11.941727
_cell_angle_alpha 58.477139
_cell_angle_beta 94.455924
_cell_angle_gamma 109.226061
_cell_volume 620.907011
_symmetry_space_group_name_H-M "P -1"
_symmetry_group_IT_number 2
_symmetry_cell_setting 'triclinic'
loop_
_space_group_symop_operation_xyz
x,y,z
-x,-y,-z
loop_
_atom_site_type_symbol
_atom_site_label
_atom_site_fract_x
_atom_site_fract_y
_atom_site_fract_z
Si Si1 0.266304 0.370281 0.715789
Si Si2 0.926676 0.508811 0.726573
Si Si3 0.481006 0.253557 0.342522
Si Si4 0.659536 0.152141 0.736211
Si Si5 0.640752 0.778454 0.002648
Si Si6 0.987908 0.821004 0.423138
Si Si7 0.712110 0.018242 0.365788
Si Si8 0.258849 0.430896 0.094260
O O1 0.436207 0.568477 0.643337
O O2 0.184925 0.301354 0.618353
O O3 0.088127 0.416206 0.746859
O O4 0.321874 0.235638 0.858372
O O5 0.733406 0.349626 0.727719
O O6 0.971300 0.696713 0.581298
O O7 0.905802 0.546784 0.841427
O O8 0.348448 0.087641 0.477068
O O9 0.360649 0.311408 0.219686
O O10 0.656497 0.203073 0.312424
O O11 0.448049 0.091286 0.692103
O O12 0.812904 0.158509 0.640444
O O13 0.668239 0.985886 0.883009
O O14 0.777340 0.683095 0.978389
O O15 0.424509 0.636778 0.015181
O O16 0.924057 0.004829 0.357771
#
# Coordination Sequence:
#
# PCOD9104637 Si02
#       8
#     2   2   2   2   2   2   2   2
#     4  10  23  42  63  90 130 167 206 262 315 376
#     4  11  23  41  65  96 124 165 209 266 324 368
#     4  10  20  39  61  93 125 161 214 260 308 379
#     4  11  24  42  62  97 134 161 212 262 309 383
#     4  10  23  43  60  87 130 172 209 259 301 379
#     4  11  24  42  65  99 129 162 209 265 324 374
#     4  11  22  38  66  95 125 167 206 261 325 363
#     4  10  21  42  64  87 129 165 213 256 311 376
#
# _framework density 25.768757000000001
#
# number of rings (size 3 to 8) (size 9 to 14) (size 15 to 20)
#    0.000    1.500    2.500    3.000    3.500    5.000 
#    2.250    2.500    0.000    0.000    0.000    0.000 
#    0.000    0.000    0.000    0.000    0.000    0.000 
#
# Total GULP energy -89623.888617 kJ/mol
# GULP energy per Si atom -5601.493039 kJ/mol
# Density = 2.571011 g / cm^3
# Si number density = 25.768757 Si / 1000 Ang^3
#
#
#
# Elastic Constant Matrix: (Units=GPa)
#
#
# Indices 1 2 3 4 5 6 
#
# 1 97.0086 12.8057 3.6338 -7.2836 0.3877 -29.8241
# 2 12.8057 66.9671 3.3405 -4.4067 -1.7160 2.3971
# 3 3.6338 3.3405 62.9588 -8.4322 -7.0416 4.6889
# 4 -7.2836 -4.4067 -8.4322 42.0181 -1.5042 4.6506
# 5 0.3877 -1.7160 -7.0416 -1.5042 34.9464 9.7608
# 6 -29.8241 2.3971 4.6889 4.6506 9.7608 44.0143
#
#
#
# Elastic Compliance Matrix: (Units=1/GPa)
#
#
# Indices 1 2 3 4 5 6 
#
# 1 0.014109 -0.003054 -0.001792 0.000454 -0.003629 0.010674
# 2 -0.003054 0.015793 0.000021 0.001587 0.001863 -0.003512
# 3 -0.001792 0.000021 0.017401 0.003869 0.004973 -0.004581
# 4 0.000454 0.001587 0.003869 0.025314 0.002923 -0.003514
# 5 -0.003629 0.001863 0.004973 0.002923 0.032860 -0.010687
# 6 0.010674 -0.003512 -0.004581 -0.003514 -0.010687 0.033373
#
#
# Mechanical properties :
#
#
# Convention : Reuss Voigt Hill
#
# Bulk Modulus (GPa) = 26.55838 29.61050 28.08444
# Shear Modulus (GPa) = 31.04570 38.00606 34.52588
#
# Velocity S-wave (km/s) = 3.47476 3.84459 3.66435
# Velocity P-wave (km/s) = 5.14076 5.58782 5.36894
#
# Compressibility (1/GPa) = 0.03765290
#
# Stress axis : x y z
#
# Youngs Moduli (GPa) = 70.87705 63.31721 57.46696
#
# Poissons Ratio (x) = 0.19336 0.10300
# Poissons Ratio (y) = 0.21644 -0.00119
# Poissons Ratio (z) = 0.12704 -0.00131
#
# Static dielectric constant tensor:
#      x y z
#    x 2.079990 0.007710 -0.039600 
#    y 0.007710 2.096930 0.024570 
#    z -0.039600 0.024570 1.953900 
# 
# From -- ./inp_files/262578.got.cif
#   From: 2010.05.17/outbox.cif.g08.bks.cpg/sg2_132_cif.got.tgz:262578.got - 2010.06.03 11:33:40.
