data_PCOD9104638
_publ_section_title
;
Structure prediction by ZEFSAII (Michael W. Deem and Ramdas Pophale) SiO2 
 PCOD9104638
Probable space group: P -1
;
_chemical_formula_sum "Si O2"
_cell_formula_units_Z 14
_cell_length_a 5.115686
_cell_length_b 18.157697
_cell_length_c 11.148795
_cell_angle_alpha 119.948168
_cell_angle_beta 75.755682
_cell_angle_gamma 134.180066
_cell_volume 634.815827
_symmetry_space_group_name_H-M "P -1"
_symmetry_group_IT_number 2
_symmetry_cell_setting 'triclinic'
loop_
_space_group_symop_operation_xyz
x,y,z
-x,-y,-z
loop_
_atom_site_type_symbol
_atom_site_label
_atom_site_fract_x
_atom_site_fract_y
_atom_site_fract_z
Si Si1 0.326958 0.872435 0.441349
Si Si2 0.550461 0.759202 0.455824
Si Si3 0.760545 0.666444 0.192456
Si Si4 0.666020 0.458598 0.087258
Si Si5 0.395635 0.266444 0.139341
Si Si6 0.283793 0.775706 0.720618
Si Si7 0.154929 0.977452 0.072650
O O1 0.568221 0.854266 0.465549
O O2 0.944151 0.811428 0.504994
O O3 0.160647 0.792984 0.275648
O O4 0.500000 0.000000 0.500000
O O5 0.483881 0.675713 0.291038
O O6 0.266557 0.709978 0.555468
O O7 0.685828 0.630751 0.034041
O O8 0.708123 0.567797 0.190600
O O9 0.624355 0.388452 0.147011
O O10 0.000000 0.500000 0.000000
O O11 0.631559 0.258843 0.196063
O O12 0.073032 0.243614 0.233158
O O13 0.175880 0.160232 0.979808
O O14 0.646401 0.914794 0.771452
O O15 0.500000 0.000000 0.000000
O O16 0.000000 0.000000 0.000000
#
# Coordination Sequence:
#
# PCOD9104638 Si02
#       7
#     2   2   2   2   2   2   2
#     4  10  21  40  64  97 128 167 214 254 321 389
#     4  10  21  40  64  92 135 162 201 266 325 379
#     4   9  24  40  66  90 128 169 209 271 326 361
#     4  11  23  44  66  90 129 169 223 273 313 373
#     4  10  22  37  63  91 120 165 219 253 318 379
#     4  10  20  39  61  93 127 164 201 262 323 383
#     4   8  16  33  53  82 120 153 197 248 300 367
#
# _framework density 22.053640999999999
#
# number of rings (size 3 to 8) (size 9 to 14) (size 15 to 20)
#    0.857    1.429    0.000    2.143    4.000    1.143 
#    2.571    2.857    0.000    0.000    0.000    0.000 
#    0.000    0.000    0.000    0.000    0.000    0.000 
#
# Total GULP energy -78032.358972 kJ/mol
# GULP energy per Si atom -5573.739927 kJ/mol
# Density = 2.200345 g / cm^3
# Si number density = 22.053641 Si / 1000 Ang^3
#
#
#
# Elastic Constant Matrix: (Units=GPa)
#
#
# Indices 1 2 3 4 5 6 
#
# 1 89.9990 6.2925 11.6570 6.4883 -12.8684 -20.4546
# 2 6.2925 73.5934 18.5440 25.0380 -8.0487 -25.6088
# 3 11.6570 18.5440 71.1684 17.3798 -11.5407 -7.7712
# 4 6.4883 25.0380 17.3798 23.5698 -1.5897 -10.8575
# 5 -12.8684 -8.0487 -11.5407 -1.5897 29.2268 4.6405
# 6 -20.4546 -25.6088 -7.7712 -10.8575 4.6405 32.6068
#
#
#
# Elastic Compliance Matrix: (Units=1/GPa)
#
#
# Indices 1 2 3 4 5 6 
#
# 1 0.014201 0.003972 -0.000783 -0.002465 0.005273 0.010270
# 2 0.003972 0.026676 0.000432 -0.022316 0.005620 0.015315
# 3 -0.000783 0.000432 0.018387 -0.013986 0.006488 -0.001350
# 4 -0.002465 -0.022316 -0.013986 0.078886 -0.009285 0.005183
# 5 0.005273 0.005620 0.006488 -0.009285 0.040066 0.000474
# 6 0.010270 0.015315 -0.001350 0.005183 0.000474 0.050476
#
#
# Mechanical properties :
#
#
# Convention : Reuss Voigt Hill
#
# Bulk Modulus (GPa) = 15.03619 34.19419 24.61519
# Shear Modulus (GPa) = 20.52403 30.29850 25.41126
#
# Velocity S-wave (km/s) = 3.05395 3.71058 3.39816
# Velocity P-wave (km/s) = 4.38957 5.82207 5.15581
#
# Compressibility (1/GPa) = 0.06650622
#
# Stress axis : x y z
#
# Youngs Moduli (GPa) = 70.41931 37.48708 54.38633
#
# Poissons Ratio (x) = -0.14890 0.04256
# Poissons Ratio (y) = -0.27971 -0.02349
# Poissons Ratio (z) = 0.05511 -0.01619
#
# Static dielectric constant tensor:
#      x y z
#    x 1.839880 0.039830 0.029190 
#    y 0.039830 1.811670 0.056250 
#    z 0.029190 0.056250 1.876460 
# 
# From -- ./inp_files/367772.got.cif
#   From: 2010.05.17/outbox.cif.g08.bks.cpg/sg2_184_cif.got.tgz:367772.got - 2010.06.03 11:33:40.
