data_PCOD9104191
_publ_section_title
;
Structure prediction by ZEFSAII (Michael W. Deem and Ramdas Pophale) SiO2 
 PCOD9104191
Probable space group: P -1
;
_chemical_formula_sum "Si O2"
_cell_formula_units_Z 16
_cell_length_a 20.801065
_cell_length_b 12.427423
_cell_length_c 11.125007
_cell_angle_alpha 36.200088
_cell_angle_beta 23.381538
_cell_angle_gamma 34.331091
_cell_volume 628.056250
_symmetry_space_group_name_H-M "P -1"
_symmetry_group_IT_number 2
_symmetry_cell_setting 'triclinic'
loop_
_space_group_symop_operation_xyz
x,y,z
-x,-y,-z
loop_
_atom_site_type_symbol
_atom_site_label
_atom_site_fract_x
_atom_site_fract_y
_atom_site_fract_z
Si Si1 0.449956 0.162216 0.580432
Si Si2 0.672371 0.745860 0.617614
Si Si3 0.034353 0.619344 0.098400
Si Si4 0.283316 0.871283 0.191614
Si Si5 0.178203 0.536041 0.670937
Si Si6 0.526876 0.283317 0.599296
Si Si7 0.201578 0.297041 0.284795
Si Si8 0.873076 0.038681 0.356850
O O1 0.354388 0.357171 0.492873
O O2 0.507800 0.243070 0.528838
O O3 0.611612 0.959079 0.463026
O O4 0.297672 0.070739 0.938063
O O5 0.734839 0.740248 0.654611
O O6 0.854505 0.595905 0.390562
O O7 0.485910 0.724425 0.970586
O O8 0.109038 0.509685 0.192691
O O9 0.176394 0.551289 0.809350
O O10 0.993945 0.849915 0.974136
O O11 0.177005 0.743740 0.436893
O O12 0.211712 0.929701 0.394837
O O13 0.000000 0.500000 0.000000
O O14 0.500000 0.500000 0.500000
O O15 0.718245 0.151912 0.430435
O O16 0.380901 0.218947 0.971879
O O17 0.074900 0.183533 0.568732
#
# Coordination Sequence:
#
# PCOD9104191 Si02
#       8
#     2   2   2   2   2   2   2   2
#     4  10  20  39  59  82 118 150 195 232 284 340
#     4  10  22  38  56  85 126 154 181 226 292 353
#     4  11  24  38  53  88 123 145 193 247 278 328
#     4   9  19  37  61  82 113 149 194 230 292 343
#     4  11  23  41  66  86 104 146 204 249 289 337
#     4  12  17  30  57  85 114 157 197 228 261 337
#     4  12  19  34  56  83 122 159 188 220 281 341
#     4  11  18  33  56  82 114 160 196 223 269 340
#
# _framework density 25.475425000000001
#
# number of rings (size 3 to 8) (size 9 to 14) (size 15 to 20)
#    0.750    0.500    6.250    1.500    0.000    1.000 
#    2.250    1.250    0.000    0.000    0.000    0.000 
#    0.000    0.000    0.000    0.000    0.000    0.000 
#
# Total GULP energy -89206.665119 kJ/mol
# GULP energy per Si atom -5575.416570 kJ/mol
# Density = 2.541744 g / cm^3
# Si number density = 25.475425 Si / 1000 Ang^3
#
#
#
# Elastic Constant Matrix: (Units=GPa)
#
#
# Indices 1 2 3 4 5 6 
#
# 1 59.5255 -2.0372 10.5531 -7.6509 2.8033 -2.5340
# 2 -2.0372 80.4269 11.6841 -17.3035 -4.3250 5.0909
# 3 10.5531 11.6841 61.4955 -18.6472 -9.9987 6.7475
# 4 -7.6509 -17.3035 -18.6472 54.6781 8.6575 -6.0142
# 5 2.8033 -4.3250 -9.9987 8.6575 33.8110 -0.8062
# 6 -2.5340 5.0909 6.7475 -6.0142 -0.8062 30.5828
#
#
#
# Elastic Compliance Matrix: (Units=1/GPa)
#
#
# Indices 1 2 3 4 5 6 
#
# 1 0.017982 0.001159 -0.003290 0.002487 -0.002894 0.002436
# 2 0.001159 0.013575 -0.001472 0.003804 0.000205 -0.001085
# 3 -0.003290 -0.001472 0.019638 0.004675 0.004616 -0.003319
# 4 0.002487 0.003804 0.004675 0.022381 -0.004000 0.002837
# 5 -0.002894 0.000205 0.004616 -0.004000 0.032202 -0.001230
# 6 0.002436 -0.001085 -0.003319 0.002837 -0.001230 0.034338
#
#
# Mechanical properties :
#
#
# Convention : Reuss Voigt Hill
#
# Bulk Modulus (GPa) = 22.73309 26.87199 24.80254
# Shear Modulus (GPa) = 30.86700 35.89758 33.38229
#
# Velocity S-wave (km/s) = 3.48464 3.75788 3.62383
# Velocity P-wave (km/s) = 5.01330 5.42217 5.22174
#
# Compressibility (1/GPa) = 0.04398873
#
# Stress axis : x y z
#
# Youngs Moduli (GPa) = 55.61103 73.66459 50.92205
#
# Poissons Ratio (x) = -0.08535 0.16752
# Poissons Ratio (y) = -0.06443 0.07496
# Poissons Ratio (z) = 0.18294 0.10844
#
# Static dielectric constant tensor:
#      x y z
#    x 2.078530 0.096990 0.004060 
#    y 0.096990 2.061920 -0.009350 
#    z 0.004060 -0.009350 2.018760 
# 
# From -- ./inp_files/544125.got.cif
#   From: 2010.05.17/outbox.cif.g08.bks.cpg/sg2_273_cif.got.tgz:544125.got - 2010.06.03 11:33:40.
