data_PCOD9104675
_publ_section_title
;
Structure prediction by ZEFSAII (Michael W. Deem and Ramdas Pophale) SiO2 
 PCOD9104675
Probable space group: P -1
;
_chemical_formula_sum "Si O2"
_cell_formula_units_Z 16
_cell_length_a 15.403936
_cell_length_b 5.343949
_cell_length_c 30.458236
_cell_angle_alpha 101.897080
_cell_angle_beta 160.989093
_cell_angle_gamma 77.605383
_cell_volume 797.657246
_symmetry_space_group_name_H-M "P -1"
_symmetry_group_IT_number 2
_symmetry_cell_setting 'triclinic'
loop_
_space_group_symop_operation_xyz
x,y,z
-x,-y,-z
loop_
_atom_site_type_symbol
_atom_site_label
_atom_site_fract_x
_atom_site_fract_y
_atom_site_fract_z
Si Si1 0.502415 0.323808 0.927621
Si Si2 0.022992 0.987269 0.175359
Si Si3 0.250432 0.205775 0.887177
Si Si4 0.925400 0.286848 0.991497
Si Si5 0.643928 0.725400 0.242149
Si Si6 0.881079 0.164148 0.408652
Si Si7 0.212729 0.511770 0.544441
Si Si8 0.236805 0.414151 0.232934
O O1 0.257374 0.290387 0.842835
O O2 0.401932 0.367097 0.832192
O O3 0.667851 0.551852 0.035748
O O4 0.717354 0.078831 0.019424
O O5 0.186740 0.217404 0.241958
O O6 0.126971 0.709427 0.197625
O O7 0.991929 0.931524 0.210876
O O8 0.500000 0.000000 0.000000
O O9 0.612382 0.328782 0.854005
O O10 0.000000 0.500000 0.000000
O O11 0.080448 0.315022 0.112492
O O12 0.000000 0.000000 0.000000
O O13 0.927533 0.613254 0.391818
O O14 0.677102 0.029495 0.275307
O O15 0.746410 0.392711 0.382332
O O16 0.143922 0.219866 0.508484
O O17 0.000000 0.000000 0.500000
O O18 0.455030 0.575175 0.632566
#
# Coordination Sequence:
#
# PCOD9104675 Si02
#       8
#     2   2   2   2   2   2   2   2
#     4  10  20  39  62 102 125 165 205 267 324 390
#     4  11  21  40  63  94 126 161 208 264 318 385
#     4   9  19  36  66  96 130 159 203 258 334 392
#     4  12  27  40  60  92 130 167 212 273 328 364
#     4  11  23  40  64  91 130 165 219 266 316 382
#     4   9  21  39  59  81 120 169 225 259 304 361
#     4  10  24  40  60  88 123 180 222 261 312 378
#     4  12  25  40  65  90 130 168 219 260 324 386
#
# _framework density 20.05874
#
# number of rings (size 3 to 8) (size 9 to 14) (size 15 to 20)
#    0.000    1.500    2.500    1.500   10.500    2.000 
#    0.000    0.000    0.000    1.500    0.000    0.000 
#    0.000    0.000    0.000    0.000    0.000    0.000 
#
# Total GULP energy -89105.942812 kJ/mol
# GULP energy per Si atom -5569.121426 kJ/mol
# Density = 2.001309 g / cm^3
# Si number density = 20.058740 Si / 1000 Ang^3
#
#
#
# Elastic Constant Matrix: (Units=GPa)
#
#
# Indices 1 2 3 4 5 6 
#
# 1 154.2592 57.8548 64.9524 10.5341 35.2487 16.6532
# 2 57.8548 110.6079 30.6475 0.0296 12.8793 2.8492
# 3 64.9524 30.6475 93.7375 -1.6216 26.7047 0.6001
# 4 10.5341 0.0296 -1.6216 24.2140 7.4811 8.3039
# 5 35.2487 12.8793 26.7047 7.4811 35.8430 11.4275
# 6 16.6532 2.8492 0.6001 8.3039 11.4275 37.1766
#
#
#
# Elastic Compliance Matrix: (Units=1/GPa)
#
#
# Indices 1 2 3 4 5 6 
#
# 1 0.011974 -0.004082 -0.005733 -0.003230 -0.004449 -0.002870
# 2 -0.004082 0.011400 -0.000903 0.001463 0.000089 0.000615
# 3 -0.005733 -0.000903 0.017761 0.005254 -0.009693 0.004156
# 4 -0.003230 0.001463 0.005254 0.048186 -0.009189 -0.006689
# 5 -0.004449 0.000089 -0.009693 -0.009189 0.044395 -0.009451
# 6 -0.002870 0.000615 0.004156 -0.006689 -0.009451 0.032469
#
#
# Mechanical properties :
#
#
# Convention : Reuss Voigt Hill
#
# Bulk Modulus (GPa) = 50.76065 73.94599 62.35332
# Shear Modulus (GPa) = 25.74842 33.12338 29.43590
#
# Velocity S-wave (km/s) = 3.58669 4.06805 3.83493
# Velocity P-wave (km/s) = 6.52023 7.68181 7.12473
#
# Compressibility (1/GPa) = 0.01970030
#
# Stress axis : x y z
#
# Youngs Moduli (GPa) = 83.51242 87.72252 56.30308
#
# Poissons Ratio (x) = 0.35809 0.32276
# Poissons Ratio (y) = 0.34090 0.05082
# Poissons Ratio (z) = 0.47875 0.07918
#
# Static dielectric constant tensor:
#      x y z
#    x 1.805900 0.104300 0.044600 
#    y 0.104300 2.069150 0.037660 
#    z 0.044600 0.037660 1.695370 
# 
# From -- ./inp_files/623313.got.cif
#   From: 2010.05.17/outbox.cif.g08.bks.cpg/sg2_312_cif.got.tgz:623313.got - 2010.06.03 11:33:40.
