data_PCOD9104789
_publ_section_title
;
Structure prediction by ZEFSAII (Michael W. Deem and Ramdas Pophale) SiO2 
 PCOD9104789
Probable space group: P -1
;
_chemical_formula_sum "Si O2"
_cell_formula_units_Z 12
_cell_length_a 12.651890
_cell_length_b 6.336848
_cell_length_c 8.954750
_cell_angle_alpha 60.041394
_cell_angle_beta 103.698955
_cell_angle_gamma 71.088497
_cell_volume 514.128560
_symmetry_space_group_name_H-M "P -1"
_symmetry_group_IT_number 2
_symmetry_cell_setting 'triclinic'
loop_
_space_group_symop_operation_xyz
x,y,z
-x,-y,-z
loop_
_atom_site_type_symbol
_atom_site_label
_atom_site_fract_x
_atom_site_fract_y
_atom_site_fract_z
Si Si1 0.352069 0.780925 0.271098
Si Si2 0.152625 0.857024 0.949820
Si Si3 0.402412 0.775806 0.960688
Si Si4 0.077551 0.906287 0.404716
Si Si5 0.318547 0.344012 0.583147
Si Si6 0.213541 0.250449 0.277593
O O1 0.384703 0.495275 0.469887
O O2 0.331539 0.022397 0.293919
O O3 0.207975 0.903720 0.105992
O O4 0.428280 0.727931 0.162875
O O5 0.260508 0.824771 0.881906
O O6 0.158424 0.560004 0.077065
O O7 0.015254 0.085564 0.759950
O O8 0.397538 0.056181 0.804044
O O9 0.500000 0.500000 0.000000
O O10 0.205259 0.592765 0.557141
O O11 0.119862 0.132080 0.303413
O O12 0.000000 0.000000 0.500000
O O13 0.260535 0.263006 0.453403
#
# Coordination Sequence:
#
# PCOD9104789 Si02
#       6
#     2   2   2   2   2   2
#     4   8  21  40  61  89 123 159 201 247 306 356
#     4   9  21  38  58  89 124 155 204 242 302 359
#     4  10  22  43  66  85 121 165 205 256 300 349
#     4  11  23  35  62  95 123 162 198 247 307 364
#     4  10  22  41  62  91 126 156 205 249 302 367
#     4  10  20  39  62  89 128 160 195 250 306 368
#
# _framework density 23.340465999999999
#
# number of rings (size 3 to 8) (size 9 to 14) (size 15 to 20)
#    1.000    1.333    0.000    1.500    2.333   10.667 
#    0.000    1.667    0.000    0.000    0.000    0.000 
#    0.000    0.000    0.000    0.000    0.000    0.000 
#
# Total GULP energy -67073.967929 kJ/mol
# GULP energy per Si atom -5589.497327 kJ/mol
# Density = 2.328734 g / cm^3
# Si number density = 23.340466 Si / 1000 Ang^3
#
#
#
# Elastic Constant Matrix: (Units=GPa)
#
#
# Indices 1 2 3 4 5 6 
#
# 1 99.3311 44.0744 34.7991 0.3551 -21.5686 -8.4605
# 2 44.0744 124.8893 46.5997 -0.6979 -25.2844 -19.3900
# 3 34.7991 46.5997 136.5395 -10.3913 -23.1850 -10.4772
# 4 0.3551 -0.6979 -10.3913 34.6702 -0.9112 1.3999
# 5 -21.5686 -25.2844 -23.1850 -0.9112 34.5724 18.3015
# 6 -8.4605 -19.3900 -10.4772 1.3999 18.3015 34.8913
#
#
#
# Elastic Compliance Matrix: (Units=1/GPa)
#
#
# Indices 1 2 3 4 5 6 
#
# 1 0.013116 -0.003222 -0.001417 -0.000378 0.006019 -0.002177
# 2 -0.003222 0.011060 -0.002259 -0.000476 0.002852 0.003210
# 3 -0.001417 -0.002259 0.009343 0.002937 0.004472 -0.001257
# 4 -0.000378 -0.000476 0.002937 0.029912 0.003504 -0.002512
# 5 0.006019 0.002852 0.004472 0.003504 0.049297 -0.021611
# 6 -0.002177 0.003210 -0.001257 -0.002512 -0.021611 0.040975
#
#
# Mechanical properties :
#
#
# Convention : Reuss Voigt Hill
#
# Bulk Modulus (GPa) = 50.70287 67.96736 59.33511
# Shear Modulus (GPa) = 28.72361 36.51255 32.61808
#
# Velocity S-wave (km/s) = 3.51185 3.95947 3.74236
# Velocity P-wave (km/s) = 6.18178 7.07717 6.64458
#
# Compressibility (1/GPa) = 0.01972275
#
# Stress axis : x y z
#
# Youngs Moduli (GPa) = 76.24204 90.41474 107.03703
#
# Poissons Ratio (x) = 0.29128 0.15168
# Poissons Ratio (y) = 0.24562 0.24183
# Poissons Ratio (z) = 0.10804 0.20427
#
# Static dielectric constant tensor:
#      x y z
#    x 1.993820 0.004370 0.059390 
#    y 0.004370 1.806710 0.030070 
#    z 0.059390 0.030070 1.882130 
# 
# From -- ./inp_files/32665.got.cif
#   From: 2010.05.17/outbox.cif.g08.bks.cpg/sg2_17_cif.got.tgz:32665.got - 2010.06.03 11:33:40.
