data_PCOD9104601
_publ_section_title
;
Structure prediction by ZEFSAII (Michael W. Deem and Ramdas Pophale) SiO2 
 PCOD9104601
Probable space group: P -1
;
_chemical_formula_sum "Si O2"
_cell_formula_units_Z 16
_cell_length_a 9.155700
_cell_length_b 8.520569
_cell_length_c 19.388505
_cell_angle_alpha 83.863005
_cell_angle_beta 130.223307
_cell_angle_gamma 133.463288
_cell_volume 665.069035
_symmetry_space_group_name_H-M "P -1"
_symmetry_group_IT_number 2
_symmetry_cell_setting 'triclinic'
loop_
_space_group_symop_operation_xyz
x,y,z
-x,-y,-z
loop_
_atom_site_type_symbol
_atom_site_label
_atom_site_fract_x
_atom_site_fract_y
_atom_site_fract_z
Si Si1 0.445412 0.845865 0.928398
Si Si2 0.114713 0.159532 0.156851
Si Si3 0.795000 0.132992 0.649693
Si Si4 0.231103 0.934490 0.569944
Si Si5 0.025662 0.809780 0.731224
Si Si6 0.153320 0.333575 0.876540
Si Si7 0.245643 0.572239 0.447210
Si Si8 0.268527 0.220786 0.674905
O O1 0.292426 0.847481 0.821175
O O2 0.179891 0.537220 0.887574
O O3 0.500000 0.000000 0.000000
O O4 0.804602 0.007208 0.022663
O O5 0.451032 0.472492 0.228444
O O6 0.051517 0.172640 0.217267
O O7 0.116742 0.970680 0.163457
O O8 0.875030 0.332448 0.614463
O O9 0.106462 0.295835 0.781872
O O10 0.521780 0.025583 0.622822
O O11 0.603499 0.854961 0.573352
O O12 0.985329 0.666143 0.555611
O O13 0.012582 0.867803 0.446351
O O14 0.380633 0.172977 0.651989
O O15 0.745539 0.533845 0.612524
O O16 0.167287 0.039734 0.714740
O O17 0.500000 0.500000 0.000000
#
# Coordination Sequence:
#
# PCOD9104601 Si02
#       8
#     2   2   2   2   2   2   2   2
#     4   9  19  37  65  88 117 160 206 250 305 361
#     4  10  21  38  64  86 123 165 200 256 310 354
#     4  11  21  37  63  87 123 166 200 243 322 354
#     4  10  22  38  55  87 127 159 201 253 298 364
#     4  10  20  39  61  90 126 160 208 252 300 366
#     4  10  21  39  64  93 121 157 209 255 298 365
#     4  10  21  35  59  93 120 161 203 250 292 375
#     4  10  22  37  58  90 123 161 207 248 302 363
#
# _framework density 24.057649999999999
#
# number of rings (size 3 to 8) (size 9 to 14) (size 15 to 20)
#    0.000    2.000    1.250    1.875    1.750    3.500 
#    0.000    5.625    0.000    8.250    0.000    0.000 
#    0.000    0.000    0.000    0.000    0.000    0.000 
#
# Total GULP energy -89433.953280 kJ/mol
# GULP energy per Si atom -5589.622080 kJ/mol
# Density = 2.400289 g / cm^3
# Si number density = 24.057650 Si / 1000 Ang^3
#
#
#
# Elastic Constant Matrix: (Units=GPa)
#
#
# Indices 1 2 3 4 5 6 
#
# 1 84.9766 39.0978 18.7373 1.8636 -7.2655 -1.2863
# 2 39.0978 202.4550 63.9349 11.0269 -3.6998 -20.7605
# 3 18.7373 63.9349 145.6804 -2.9471 1.0212 -17.7337
# 4 1.8636 11.0269 -2.9471 53.6394 -18.0681 -16.4032
# 5 -7.2655 -3.6998 1.0212 -18.0681 23.0211 0.8209
# 6 -1.2863 -20.7605 -17.7337 -16.4032 0.8209 30.2334
#
#
#
# Elastic Compliance Matrix: (Units=1/GPa)
#
#
# Indices 1 2 3 4 5 6 
#
# 1 0.013442 -0.002429 -0.000784 0.001391 0.005012 -0.000937
# 2 -0.002429 0.006402 -0.002180 -0.000596 -0.000205 0.002697
# 3 -0.000784 -0.002180 0.008583 0.002843 0.001074 0.005017
# 4 0.001391 -0.000596 0.002843 0.033197 0.025608 0.018634
# 5 0.005012 -0.000205 0.001074 0.025608 0.064580 0.012843
# 6 -0.000937 0.002697 0.005017 0.018634 0.012843 0.047592
#
#
# Mechanical properties :
#
#
# Convention : Reuss Voigt Hill
#
# Bulk Modulus (GPa) = 56.68352 75.18356 65.93354
# Shear Modulus (GPa) = 26.25211 42.13491 34.19351
#
# Velocity S-wave (km/s) = 3.30694 4.18953 3.77412
# Velocity P-wave (km/s) = 6.18012 7.39744 6.81601
#
# Compressibility (1/GPa) = 0.01764181
#
# Stress axis : x y z
#
# Youngs Moduli (GPa) = 74.39345 156.20344 116.51583
#
# Poissons Ratio (x) = 0.37934 0.09137
# Poissons Ratio (y) = 0.18067 0.25396
# Poissons Ratio (z) = 0.05834 0.34046
#
# Static dielectric constant tensor:
#      x y z
#    x 1.959850 -0.026310 0.010320 
#    y -0.026310 1.909470 -0.020940 
#    z 0.010320 -0.020940 1.955510 
# 
# From -- ./inp_files/594093.got.cif
#   From: 2010.05.17/outbox.cif.g08.bks.cpg/sg2_298_cif.got.tgz:594093.got - 2010.06.03 11:33:40.
