data_PCOD9104320
_publ_section_title
;
Structure prediction by ZEFSAII (Michael W. Deem and Ramdas Pophale) SiO2 
 PCOD9104320
Probable space group: P -1
;
_chemical_formula_sum "Si O2"
_cell_formula_units_Z 16
_cell_length_a 9.787101
_cell_length_b 13.573884
_cell_length_c 14.792712
_cell_angle_alpha 144.891786
_cell_angle_beta 38.107195
_cell_angle_gamma 126.165165
_cell_volume 689.507703
_symmetry_space_group_name_H-M "P -1"
_symmetry_group_IT_number 2
_symmetry_cell_setting 'triclinic'
loop_
_space_group_symop_operation_xyz
x,y,z
-x,-y,-z
loop_
_atom_site_type_symbol
_atom_site_label
_atom_site_fract_x
_atom_site_fract_y
_atom_site_fract_z
Si Si1 0.036786 0.567085 0.727226
Si Si2 0.374369 0.388197 0.139398
Si Si3 0.845841 0.718257 0.272871
Si Si4 0.920541 0.968654 0.119695
Si Si5 0.647415 0.089229 0.061230
Si Si6 0.805681 0.501191 0.968269
Si Si7 0.481265 0.546426 0.685922
Si Si8 0.506313 0.989036 0.718403
O O1 0.297534 0.528167 0.541793
O O2 0.950462 0.459988 0.772724
O O3 0.881292 0.551954 0.709973
O O4 0.957064 0.761901 0.949560
O O5 0.544553 0.502110 0.090345
O O6 0.452043 0.193133 0.917432
O O7 0.419407 0.399113 0.229922
O O8 0.680378 0.595138 0.313844
O O9 0.093433 0.651579 0.129597
O O10 0.749362 0.909918 0.497278
O O11 0.837038 0.672515 0.137477
O O12 0.662549 0.051111 0.305287
O O13 0.100898 0.016061 0.133229
O O14 0.000000 0.000000 0.000000
O O15 0.643036 0.282631 0.170299
O O16 0.543116 0.091508 0.218543
O O17 0.500000 0.000000 0.000000
#
# Coordination Sequence:
#
# PCOD9104320 Si02
#       8
#     2   2   2   2   2   2   2   2
#     4  11  21  38  64  88 119 160 206 247 297 357
#     4  10  22  39  59  87 128 160 194 249 306 356
#     4  10  22  40  64  86 118 159 206 244 302 359
#     4   9  20  35  57  85 123 159 191 242 305 355
#     4  11  20  34  56  90 127 151 193 251 304 353
#     4  10  22  40  60  87 118 160 205 250 292 356
#     4  11  21  37  62  93 117 157 202 253 298 356
#     4  10  20  39  60  85 121 163 196 242 304 361
#
# _framework density 23.20496
#
# number of rings (size 3 to 8) (size 9 to 14) (size 15 to 20)
#    0.000    1.750    1.250    3.750    0.000    2.000 
#    4.500    2.500    0.000    0.000    0.000    0.000 
#    0.000    0.000    0.000    0.000    0.000    0.000 
#
# Total GULP energy -89345.932109 kJ/mol
# GULP energy per Si atom -5584.120757 kJ/mol
# Density = 2.315214 g / cm^3
# Si number density = 23.204960 Si / 1000 Ang^3
#
#
#
# Elastic Constant Matrix: (Units=GPa)
#
#
# Indices 1 2 3 4 5 6 
#
# 1 153.7903 21.9749 11.9318 -0.6987 -6.7946 -1.1861
# 2 21.9749 38.2097 2.0730 -8.5806 1.4077 -3.9662
# 3 11.9318 2.0730 71.7031 -10.2817 1.8320 -6.0288
# 4 -0.6987 -8.5806 -10.2817 25.8969 1.6391 -0.8989
# 5 -6.7946 1.4077 1.8320 1.6391 26.7324 -5.3014
# 6 -1.1861 -3.9662 -6.0288 -0.8989 -5.3014 27.9018
#
#
#
# Elastic Compliance Matrix: (Units=1/GPa)
#
#
# Indices 1 2 3 4 5 6 
#
# 1 0.007387 -0.004762 -0.001481 -0.002123 0.002298 -0.000315
# 2 -0.004762 0.031990 0.001991 0.011601 -0.002828 0.004611
# 3 -0.001481 0.001991 0.015464 0.006962 -0.001265 0.003545
# 4 -0.002123 0.011601 0.006962 0.045530 -0.003659 0.003835
# 5 0.002298 -0.002828 -0.001265 -0.003659 0.039814 0.006869
# 6 -0.000315 0.004611 0.003545 0.003835 0.006869 0.038677
#
#
# Mechanical properties :
#
#
# Convention : Reuss Voigt Hill
#
# Bulk Modulus (GPa) = 21.58116 37.29583 29.43850
# Shear Modulus (GPa) = 24.65331 31.28778 27.97054
#
# Velocity S-wave (km/s) = 3.26301 3.67594 3.47561
# Velocity P-wave (km/s) = 4.84940 5.84157 5.36846
#
# Compressibility (1/GPa) = 0.04633671
#
# Stress axis : x y z
#
# Youngs Moduli (GPa) = 135.36962 31.25964 64.66592
#
# Poissons Ratio (x) = 0.14886 0.09578
# Poissons Ratio (y) = 0.64466 -0.12875
# Poissons Ratio (z) = 0.20051 -0.06224
#
# Static dielectric constant tensor:
#      x y z
#    x 1.877090 0.127870 -0.006520 
#    y 0.127870 1.747700 -0.000140 
#    z -0.006520 -0.000140 1.846630 
# 
# From -- ./inp_files/504321.got.cif
#   From: 2010.05.17/outbox.cif.g08.bks.cpg/sg2_253_cif.got.tgz:504321.got - 2010.06.03 11:33:40.
