data_PCOD9104887
_publ_section_title
;
Structure prediction by ZEFSAII (Michael W. Deem and Ramdas Pophale) SiO2 
 PCOD9104887
Probable space group: P -1
;
_chemical_formula_sum "Si O2"
_cell_formula_units_Z 14
_cell_length_a 12.429766
_cell_length_b 14.744491
_cell_length_c 10.157124
_cell_angle_alpha 129.198119
_cell_angle_beta 144.732839
_cell_angle_gamma 30.828214
_cell_volume 535.572586
_symmetry_space_group_name_H-M "P -1"
_symmetry_group_IT_number 2
_symmetry_cell_setting 'triclinic'
loop_
_space_group_symop_operation_xyz
x,y,z
-x,-y,-z
loop_
_atom_site_type_symbol
_atom_site_label
_atom_site_fract_x
_atom_site_fract_y
_atom_site_fract_z
Si Si1 0.406461 0.073890 0.827344
Si Si2 0.821502 0.621625 0.592353
Si Si3 0.372383 0.692536 0.630215
Si Si4 0.226030 0.993065 0.348039
Si Si5 0.824458 0.389151 0.207639
Si Si6 0.934862 0.956990 0.193670
Si Si7 0.174613 0.533230 0.319545
O O1 0.279294 0.028447 0.576153
O O2 0.153567 0.288225 0.800516
O O3 0.691437 0.977193 0.946035
O O4 0.500000 0.000000 0.000000
O O5 0.878663 0.470489 0.438252
O O6 0.729989 0.624738 0.647983
O O7 0.082861 0.587370 0.810887
O O8 0.532130 0.819953 0.426152
O O9 0.255026 0.848967 0.750240
O O10 0.320291 0.590042 0.546741
O O11 0.702672 0.545604 0.776326
O O12 0.169164 0.801640 0.394491
O O13 0.030688 0.181189 0.251972
O O14 0.073987 0.944267 0.190383
O O15 0.500000 0.500000 0.000000
#
# Coordination Sequence:
#
# PCOD9104887 Si02
#       7
#     2   2   2   2   2   2   2
#     4  12  24  40  64 100 141 185 225 268 331 409
#     4  11  25  47  73 100 138 179 224 291 352 394
#     4  10  20  39  62  93 138 186 226 277 321 401
#     4  12  25  47  69 101 144 176 225 289 337 402
#     4  11  27  49  75 102 130 172 239 293 346 408
#     4  11  21  38  65  91 134 185 225 265 339 397
#     4  11  21  40  63  95 140 179 225 278 328 400
#
# _framework density 26.140248
#
# number of rings (size 3 to 8) (size 9 to 14) (size 15 to 20)
#    0.000    0.857    5.714    1.286    2.000    2.286 
#    0.000    0.000    0.000    0.000    0.000    0.000 
#    0.000    0.000    0.000    0.000    0.000    0.000 
#
# Total GULP energy -78396.039617 kJ/mol
# GULP energy per Si atom -5599.717115 kJ/mol
# Density = 2.608075 g / cm^3
# Si number density = 26.140248 Si / 1000 Ang^3
#
#
#
# Elastic Constant Matrix: (Units=GPa)
#
#
# Indices 1 2 3 4 5 6 
#
# 1 138.6861 18.6413 51.2088 6.5210 40.6159 30.2389
# 2 18.6413 119.4937 40.3054 -18.1459 -1.8223 1.0778
# 3 51.2088 40.3054 76.4033 4.2305 25.7668 12.0496
# 4 6.5210 -18.1459 4.2305 35.1451 -1.9672 2.1120
# 5 40.6159 -1.8223 25.7668 -1.9672 47.5726 2.3620
# 6 30.2389 1.0778 12.0496 2.1120 2.3620 48.7342
#
#
#
# Elastic Compliance Matrix: (Units=1/GPa)
#
#
# Indices 1 2 3 4 5 6 
#
# 1 0.012907 -0.001160 -0.003932 -0.002620 -0.008722 -0.006475
# 2 -0.001160 0.012938 -0.009055 0.008236 0.006632 0.001994
# 3 -0.003932 -0.009055 0.024929 -0.007382 -0.010664 -0.002687
# 4 -0.002620 0.008236 -0.007382 0.034439 0.007905 0.001393
# 5 -0.008722 0.006632 -0.010664 0.007905 0.034532 0.005886
# 6 -0.006475 0.001994 -0.002687 0.001393 0.005886 0.024812
#
#
# Mechanical properties :
#
#
# Convention : Reuss Voigt Hill
#
# Bulk Modulus (GPa) = 44.48022 61.65488 53.06755
# Shear Modulus (GPa) = 27.72487 41.25223 34.48855
#
# Velocity S-wave (km/s) = 3.26025 3.97686 3.63625
# Velocity P-wave (km/s) = 5.58795 6.68764 6.16238
#
# Compressibility (1/GPa) = 0.02248190
#
# Stress axis : x y z
#
# Youngs Moduli (GPa) = 77.47543 77.29381 40.11330
#
# Poissons Ratio (x) = 0.08965 0.15771
# Poissons Ratio (y) = 0.08986 0.36322
# Poissons Ratio (z) = 0.30461 0.69987
#
# Static dielectric constant tensor:
#      x y z
#    x 2.108480 0.058700 -0.084660 
#    y 0.058700 1.702570 -0.098610 
#    z -0.084660 -0.098610 2.137100 
# 
# From -- ./inp_files/433024.got.cif
#   From: 2010.05.17/outbox.cif.g08.bks.cpg/sg2_217_cif.got.tgz:433024.got - 2010.06.03 11:33:40.
