data_PCOD9104604
_publ_section_title
;
Structure prediction by ZEFSAII (Michael W. Deem and Ramdas Pophale) SiO2 
 PCOD9104604
Probable space group: P -1
;
_chemical_formula_sum "Si O2"
_cell_formula_units_Z 16
_cell_length_a 8.945397
_cell_length_b 14.793167
_cell_length_c 13.751158
_cell_angle_alpha 134.902883
_cell_angle_beta 51.575804
_cell_angle_gamma 92.560774
_cell_volume 711.000338
_symmetry_space_group_name_H-M "P -1"
_symmetry_group_IT_number 2
_symmetry_cell_setting 'triclinic'
loop_
_space_group_symop_operation_xyz
x,y,z
-x,-y,-z
loop_
_atom_site_type_symbol
_atom_site_label
_atom_site_fract_x
_atom_site_fract_y
_atom_site_fract_z
Si Si1 0.574243 0.845623 0.980596
Si Si2 0.565640 0.238220 0.512286
Si Si3 0.105574 0.479601 0.263817
Si Si4 0.451068 0.382148 0.469362
Si Si5 0.685692 0.908713 0.538312
Si Si6 0.455635 0.791360 0.284967
Si Si7 0.197775 0.995289 0.059823
Si Si8 0.817829 0.320159 0.721969
O O1 0.380010 0.903779 0.014141
O O2 0.400559 0.971127 0.239723
O O3 0.755739 0.640574 0.787002
O O4 0.750462 0.887288 0.914314
O O5 0.434516 0.390351 0.599376
O O6 0.498934 0.127319 0.419406
O O7 0.455565 0.291022 0.706265
O O8 0.883372 0.117689 0.297109
O O9 0.082948 0.643083 0.382309
O O10 0.819701 0.549581 0.414561
O O11 0.302391 0.345435 0.993133
O O12 0.500000 0.500000 0.500000
O O13 0.687481 0.170734 0.182896
O O14 0.996106 0.728506 0.299902
O O15 0.640960 0.018417 0.546704
O O16 0.197565 0.824335 0.390628
O O17 0.500000 0.500000 0.000000
#
# Coordination Sequence:
#
# PCOD9104604 Si02
#       8
#     2   2   2   2   2   2   2   2
#     4  10  22  42  72  92 125 170 228 278 310 384
#     4  12  24  41  65  97 135 172 216 268 321 396
#     4  10  22  43  66  96 130 171 213 269 334 378
#     4  12  26  42  66  95 139 173 208 268 334 389
#     4  11  21  42  65  93 129 173 215 273 326 380
#     4  10  24  39  67  96 127 173 222 263 321 391
#     4  11  24  42  66  99 125 172 228 270 319 378
#     4  10  20  39  61  90 130 169 212 265 317 384
#
# _framework density 22.503508
#
# number of rings (size 3 to 8) (size 9 to 14) (size 15 to 20)
#    0.000    1.250    2.500    2.625    3.500    5.000 
#    0.000    0.000    0.000    0.000    0.000    0.000 
#    0.000    0.000    0.000    0.000    0.000    0.000 
#
# Total GULP energy -89451.069476 kJ/mol
# GULP energy per Si atom -5590.691842 kJ/mol
# Density = 2.245229 g / cm^3
# Si number density = 22.503508 Si / 1000 Ang^3
#
#
#
# Elastic Constant Matrix: (Units=GPa)
#
#
# Indices 1 2 3 4 5 6 
#
# 1 76.3967 38.1153 14.9780 -5.4973 -17.2160 8.1985
# 2 38.1153 169.7682 13.6392 10.5802 -10.8321 8.5442
# 3 14.9780 13.6392 49.1243 -3.1060 -13.4012 2.7470
# 4 -5.4973 10.5802 -3.1060 24.9362 -3.2015 -0.8158
# 5 -17.2160 -10.8321 -13.4012 -3.2015 32.4131 -10.7713
# 6 8.1985 8.5442 2.7470 -0.8158 -10.7713 48.6954
#
#
#
# Elastic Compliance Matrix: (Units=1/GPa)
#
#
# Indices 1 2 3 4 5 6 
#
# 1 0.017512 -0.003656 -0.001776 0.006184 0.007833 -0.000370
# 2 -0.003656 0.007058 -0.001270 -0.004084 -0.000775 -0.000791
# 3 -0.001776 -0.001270 0.024030 0.004397 0.009444 0.001329
# 4 0.006184 -0.004084 0.004397 0.044958 0.008892 0.002147
# 5 0.007833 -0.000775 0.009444 0.008892 0.042111 0.007748
# 6 -0.000370 -0.000791 0.001329 0.002147 0.007748 0.022412
#
#
# Mechanical properties :
#
#
# Convention : Reuss Voigt Hill
#
# Bulk Modulus (GPa) = 28.41188 47.63934 38.02561
# Shear Modulus (GPa) = 27.29005 36.44606 31.86805
#
# Velocity S-wave (km/s) = 3.48617 4.02876 3.76724
# Velocity P-wave (km/s) = 5.37191 6.54652 5.98808
#
# Compressibility (1/GPa) = 0.03519654
#
# Stress axis : x y z
#
# Youngs Moduli (GPa) = 57.10506 141.67988 41.61378
#
# Poissons Ratio (x) = 0.51797 0.07389
# Poissons Ratio (y) = 0.20877 0.05286
# Poissons Ratio (z) = 0.10140 0.17997
#
# Static dielectric constant tensor:
#      x y z
#    x 1.836350 -0.010320 0.055570 
#    y -0.010320 1.860260 0.037750 
#    z 0.055570 0.037750 1.892720 
# 
# From -- ./inp_files/222159.got.cif
#   From: 2010.05.17/outbox.cif.g08.bks.cpg/sg2_112_cif.got.tgz:222159.got - 2010.06.03 11:33:40.
