data_PCOD9104829
_publ_section_title
;
Structure prediction by ZEFSAII (Michael W. Deem and Ramdas Pophale) SiO2 
 PCOD9104829
Probable space group: P -1
;
_chemical_formula_sum "Si O2"
_cell_formula_units_Z 14
_cell_length_a 7.994342
_cell_length_b 11.613919
_cell_length_c 15.086253
_cell_angle_alpha 44.304627
_cell_angle_beta 132.551917
_cell_angle_gamma 139.422553
_cell_volume 608.635665
_symmetry_space_group_name_H-M "P -1"
_symmetry_group_IT_number 2
_symmetry_cell_setting 'triclinic'
loop_
_space_group_symop_operation_xyz
x,y,z
-x,-y,-z
loop_
_atom_site_type_symbol
_atom_site_label
_atom_site_fract_x
_atom_site_fract_y
_atom_site_fract_z
Si Si1 0.872691 0.671805 0.124272
Si Si2 0.982157 0.897727 0.706262
Si Si3 0.616084 0.632120 0.598789
Si Si4 0.539546 0.248697 0.703201
Si Si5 0.295908 0.886584 0.569823
Si Si6 0.824426 0.476271 0.367902
Si Si7 0.358446 0.220866 0.166816
O O1 0.875577 0.670594 0.233023
O O2 0.611140 0.448621 0.138299
O O3 0.169404 0.714152 0.190479
O O4 0.805308 0.800289 0.968452
O O5 0.914378 0.741824 0.688308
O O6 0.832742 0.831818 0.785400
O O7 0.897062 0.033447 0.548416
O O8 0.297905 0.035061 0.760979
O O9 0.522971 0.416168 0.656161
O O10 0.522772 0.719514 0.439055
O O11 0.467543 0.633577 0.633774
O O12 0.129594 0.659562 0.606648
O O13 0.495675 0.900569 0.710213
O O14 0.500000 0.000000 0.500000
O O15 0.000000 0.500000 0.500000
#
# Coordination Sequence:
#
# PCOD9104829 Si02
#       7
#     2   2   2   2   2   2   2
#     4  10  20  39  62  91 124 166 209 256 303 373
#     4  11  21  41  64  97 124 165 200 264 314 371
#     4  11  22  39  61  93 129 162 202 256 322 362
#     4  11  25  37  62  97 127 158 210 264 305 367
#     4   9  17  33  61  88 113 151 206 250 296 359
#     4  11  18  34  63  87 118 162 205 251 305 365
#     4   9  20  37  66  86 124 170 206 249 317 364
#
# _framework density 23.002268000000001
#
# number of rings (size 3 to 8) (size 9 to 14) (size 15 to 20)
#    0.000    1.714    5.714    1.286    6.000    0.571 
#    0.000    0.714    0.000   13.714    0.000    0.000 
#    0.000    0.000    0.000    0.000    0.000    0.000 
#
# Total GULP energy -77942.120778 kJ/mol
# GULP energy per Si atom -5567.294341 kJ/mol
# Density = 2.294991 g / cm^3
# Si number density = 23.002268 Si / 1000 Ang^3
#
#
#
# Elastic Constant Matrix: (Units=GPa)
#
#
# Indices 1 2 3 4 5 6 
#
# 1 54.5345 26.2736 20.5719 7.6663 -0.8862 17.4254
# 2 26.2736 83.3653 26.7810 14.0283 -3.3380 13.2938
# 3 20.5719 26.7810 179.0383 20.6721 -4.4694 8.9404
# 4 7.6663 14.0283 20.6721 22.7912 2.4543 3.9583
# 5 -0.8862 -3.3380 -4.4694 2.4543 22.7687 8.1863
# 6 17.4254 13.2938 8.9404 3.9583 8.1863 36.8879
#
#
#
# Elastic Compliance Matrix: (Units=1/GPa)
#
#
# Indices 1 2 3 4 5 6 
#
# 1 0.025031 -0.005260 -0.001159 -0.002781 0.003952 -0.010227
# 2 -0.005260 0.015726 -0.000667 -0.007181 0.003861 -0.003107
# 3 -0.001159 -0.000667 0.006498 -0.005187 0.001928 -0.000658
# 4 -0.002781 -0.007181 -0.005187 0.054646 -0.008494 0.001180
# 5 0.003952 0.003861 0.001928 -0.008494 0.051016 -0.014136
# 6 -0.010227 -0.003107 -0.000658 0.001180 -0.014136 0.036230
#
#
# Mechanical properties :
#
#
# Convention : Reuss Voigt Hill
#
# Bulk Modulus (GPa) = 30.22652 51.57680 40.90166
# Shear Modulus (GPa) = 23.32659 32.71034 28.01846
#
# Velocity S-wave (km/s) = 3.18795 3.77510 3.49388
# Velocity P-wave (km/s) = 5.16913 6.43995 5.83921
#
# Compressibility (1/GPa) = 0.03308353
#
# Stress axis : x y z
#
# Youngs Moduli (GPa) = 39.95048 63.58928 153.88682
#
# Poissons Ratio (x) = 0.33445 0.17835
# Poissons Ratio (y) = 0.21012 0.10268
# Poissons Ratio (z) = 0.04630 0.04243
#
# Static dielectric constant tensor:
#      x y z
#    x 1.991180 0.113170 -0.039260 
#    y 0.113170 2.119440 0.027510 
#    z -0.039260 0.027510 1.922200 
# 
# From -- ./inp_files/500089.got.cif
#   From: 2010.05.17/outbox.cif.g08.bks.cpg/sg2_251_cif.got.tgz:500089.got - 2010.06.03 11:33:40.
