data_PCOD9104422
_publ_section_title
;
Structure prediction by ZEFSAII (Michael W. Deem and Ramdas Pophale) SiO2 
 PCOD9104422
Probable space group: P -1
;
_chemical_formula_sum "Si O2"
_cell_formula_units_Z 16
_cell_length_a 9.854183
_cell_length_b 15.889351
_cell_length_c 9.985388
_cell_angle_alpha 127.027944
_cell_angle_beta 56.153299
_cell_angle_gamma 147.022154
_cell_volume 674.564754
_symmetry_space_group_name_H-M "P -1"
_symmetry_group_IT_number 2
_symmetry_cell_setting 'triclinic'
loop_
_space_group_symop_operation_xyz
x,y,z
-x,-y,-z
loop_
_atom_site_type_symbol
_atom_site_label
_atom_site_fract_x
_atom_site_fract_y
_atom_site_fract_z
Si Si1 0.709820 0.862053 0.066696
Si Si2 0.115610 0.831273 0.125779
Si Si3 0.115285 0.771674 0.516816
Si Si4 0.072059 0.433552 0.812120
Si Si5 0.264554 0.227891 0.581655
Si Si6 0.649640 0.062842 0.177824
Si Si7 0.423748 0.407686 0.269371
Si Si8 0.219744 0.024997 0.568928
O O1 0.609114 0.917352 0.095964
O O2 0.704429 0.885731 0.247609
O O3 0.604009 0.694237 0.929709
O O4 0.000000 0.000000 0.000000
O O5 0.393739 0.980450 0.175383
O O6 0.993939 0.687445 0.156597
O O7 0.931440 0.838497 0.255326
O O8 0.147765 0.825451 0.946233
O O9 0.073580 0.650765 0.328914
O O10 0.849527 0.699980 0.625705
O O11 0.243480 0.828733 0.644847
O O12 0.261687 0.923129 0.482869
O O13 0.361947 0.550467 0.724577
O O14 0.000000 0.500000 0.000000
O O15 0.458858 0.418630 0.651837
O O16 0.363312 0.163033 0.509895
O O17 0.073338 0.121926 0.460758
#
# Coordination Sequence:
#
# PCOD9104422 Si02
#       8
#     2   2   2   2   2   2   2   2
#     4  11  20  35  61  96 127 165 221 267 320 384
#     4  10  21  41  62  91 127 179 215 266 332 396
#     4  11  22  42  70  99 128 173 229 270 323 394
#     4  11  24  44  64  95 136 175 217 268 338 398
#     4  10  22  38  63  96 134 169 214 275 335 389
#     4  10  22  39  64  92 133 174 224 271 323 396
#     4  11  22  39  66 101 132 171 220 272 329 391
#     4  10  20  39  60  93 132 166 216 271 323 390
#
# _framework density 23.718997999999999
#
# number of rings (size 3 to 8) (size 9 to 14) (size 15 to 20)
#    0.000    1.500    5.000    1.875    0.000    1.000 
#    4.500    0.625    0.000    0.000    0.000    0.000 
#    0.000    0.000    0.000    0.000    0.000    0.000 
#
# Total GULP energy -89216.581828 kJ/mol
# GULP energy per Si atom -5576.036364 kJ/mol
# Density = 2.366501 g / cm^3
# Si number density = 23.718998 Si / 1000 Ang^3
#
#
#
# Elastic Constant Matrix: (Units=GPa)
#
#
# Indices 1 2 3 4 5 6 
#
# 1 81.5077 16.6396 31.6912 -1.8399 2.7606 6.6965
# 2 16.6396 79.5238 32.1605 15.2918 -0.0850 8.1126
# 3 31.6912 32.1605 151.6286 23.4746 13.7282 6.8018
# 4 -1.8399 15.2918 23.4746 46.6980 0.7851 -10.6078
# 5 2.7606 -0.0850 13.7282 0.7851 44.8170 -3.3293
# 6 6.6965 8.1126 6.8018 -10.6078 -3.3293 30.1487
#
#
#
# Elastic Compliance Matrix: (Units=1/GPa)
#
#
# Indices 1 2 3 4 5 6 
#
# 1 0.013930 -0.002150 -0.002768 0.002406 -0.000135 -0.001059
# 2 -0.002150 0.015291 -0.001775 -0.005360 0.000422 -0.005076
# 3 -0.002768 -0.001775 0.008587 -0.004410 -0.002585 -0.002682
# 4 0.002406 -0.005360 -0.004410 0.028179 0.001590 0.011993
# 5 -0.000135 0.000422 -0.002585 0.001590 0.023356 0.003638
# 6 -0.001059 -0.005076 -0.002682 0.011993 0.003638 0.039997
#
#
# Mechanical properties :
#
#
# Convention : Reuss Voigt Hill
#
# Bulk Modulus (GPa) = 40.94488 52.62698 46.78593
# Shear Modulus (GPa) = 33.14172 39.81066 36.47619
#
# Velocity S-wave (km/s) = 3.74206 4.10131 3.92579
# Velocity P-wave (km/s) = 5.99755 6.68308 6.34957
#
# Compressibility (1/GPa) = 0.02442308
#
# Stress axis : x y z
#
# Youngs Moduli (GPa) = 71.78804 65.39626 116.45210
#
# Poissons Ratio (x) = 0.14060 0.32236
# Poissons Ratio (y) = 0.15434 0.20666
# Poissons Ratio (z) = 0.19872 0.11605
#
# Static dielectric constant tensor:
#      x y z
#    x 2.025050 0.012700 -0.066410 
#    y 0.012700 1.948720 0.021430 
#    z -0.066410 0.021430 1.996530 
# 
# From -- ./inp_files/278218.got.cif
#   From: 2010.05.17/outbox.cif.g08.bks.cpg/sg2_140_cif.got.tgz:278218.got - 2010.06.03 11:33:40.
