data_PCOD9104826
_publ_section_title
;
Structure prediction by ZEFSAII (Michael W. Deem and Ramdas Pophale) SiO2 
 PCOD9104826
Probable space group: P -1
;
_chemical_formula_sum "Si O2"
_cell_formula_units_Z 16
_cell_length_a 11.315837
_cell_length_b 9.371557
_cell_length_c 11.989593
_cell_angle_alpha 85.983439
_cell_angle_beta 48.954253
_cell_angle_gamma 114.594588
_cell_volume 754.764647
_symmetry_space_group_name_H-M "P -1"
_symmetry_group_IT_number 2
_symmetry_cell_setting 'triclinic'
loop_
_space_group_symop_operation_xyz
x,y,z
-x,-y,-z
loop_
_atom_site_type_symbol
_atom_site_label
_atom_site_fract_x
_atom_site_fract_y
_atom_site_fract_z
Si Si1 0.611371 0.678965 0.846969
Si Si2 0.623954 0.928578 0.405732
Si Si3 0.055003 0.805645 0.244596
Si Si4 0.535689 0.537730 0.273978
Si Si5 0.345789 0.078757 0.868518
Si Si6 0.650484 0.010806 0.767433
Si Si7 0.708134 0.502056 0.361870
Si Si8 0.073021 0.970236 0.597589
O O1 0.545746 0.607978 0.764529
O O2 0.846213 0.796526 0.723239
O O3 0.557277 0.815817 0.892546
O O4 0.500000 0.500000 0.000000
O O5 0.701182 0.964932 0.230049
O O6 0.450014 0.712996 0.542329
O O7 0.500000 0.000000 0.500000
O O8 0.810367 0.017609 0.366487
O O9 0.217120 0.839211 0.228591
O O10 0.926028 0.611239 0.274625
O O11 0.944616 0.868326 0.381153
O O12 0.163261 0.953975 0.071037
O O13 0.569136 0.712421 0.190537
O O14 0.723750 0.585861 0.226437
O O15 0.389071 0.467258 0.474952
O O16 0.502473 0.042251 0.805162
O O17 0.792187 0.017883 0.585822
#
# Coordination Sequence:
#
# PCOD9104826 Si02
#       8
#     2   2   2   2   2   2   2   2
#     4  11  23  39  63  95 126 166 210 257 305 373
#     4  11  23  44  64  91 127 164 216 258 316 374
#     4  11  22  39  63  98 123 163 217 254 318 370
#     4  10  20  39  62  91 124 160 212 249 309 373
#     4  11  24  40  64  94 132 166 197 274 321 358
#     4  11  22  42  64  91 132 171 205 255 314 376
#     4  10  21  38  65  89 118 165 210 266 293 376
#     4  11  22  41  70  89 123 175 211 249 308 384
#
# _framework density 21.198661999999999
#
# number of rings (size 3 to 8) (size 9 to 14) (size 15 to 20)
#    0.000    1.250    1.250    7.875    0.000    3.000 
#    4.500    2.500    0.000    0.000    0.000    0.000 
#    0.000    0.000    0.000    0.000    0.000    0.000 
#
# Total GULP energy -89197.748362 kJ/mol
# GULP energy per Si atom -5574.859273 kJ/mol
# Density = 2.115041 g / cm^3
# Si number density = 21.198662 Si / 1000 Ang^3
#
#
#
# Elastic Constant Matrix: (Units=GPa)
#
#
# Indices 1 2 3 4 5 6 
#
# 1 143.7428 52.2087 16.1856 -2.6037 20.7097 31.7385
# 2 52.2087 90.9271 22.3034 -4.1287 -0.6849 22.4756
# 3 16.1856 22.3034 57.6117 -1.2296 15.1481 9.1244
# 4 -2.6037 -4.1287 -1.2296 23.5264 -4.3498 -2.1976
# 5 20.7097 -0.6849 15.1481 -4.3498 19.6342 1.0938
# 6 31.7385 22.4756 9.1244 -2.1976 1.0938 39.7740
#
#
#
# Elastic Compliance Matrix: (Units=1/GPa)
#
#
# Indices 1 2 3 4 5 6 
#
# 1 0.013293 -0.007388 0.005098 -0.003683 -0.018621 -0.007293
# 2 -0.007388 0.018411 -0.008859 0.004746 0.016469 -0.002667
# 3 0.005098 -0.008859 0.027266 -0.005118 -0.027587 -0.004841
# 4 -0.003683 0.004746 -0.005118 0.046330 0.018068 0.003494
# 5 -0.018621 0.016469 -0.027587 0.018068 0.095863 0.010243
# 6 -0.007293 -0.002667 -0.004841 0.003494 0.010243 0.033491
#
#
# Mechanical properties :
#
#
# Convention : Reuss Voigt Hill
#
# Bulk Modulus (GPa) = 27.26761 52.63079 39.94920
# Shear Modulus (GPa) = 18.57526 30.02586 24.30056
#
# Velocity S-wave (km/s) = 2.96336 3.76760 3.38942
# Velocity P-wave (km/s) = 4.95979 6.61874 5.84838
#
# Compressibility (1/GPa) = 0.03667355
#
# Stress axis : x y z
#
# Youngs Moduli (GPa) = 75.22978 54.31394 36.67605
#
# Poissons Ratio (x) = 0.40125 -0.18698
# Poissons Ratio (y) = 0.55577 0.32491
# Poissons Ratio (z) = -0.38354 0.48116
#
# Static dielectric constant tensor:
#      x y z
#    x 1.857560 0.025480 -0.025650 
#    y 0.025480 1.791020 -0.023660 
#    z -0.025650 -0.023660 1.814660 
# 
# From -- ./inp_files/419421.got.cif
#   From: 2010.05.17/outbox.cif.g08.bks.cpg/sg2_210_cif.got.tgz:419421.got - 2010.06.03 11:33:40.
