data_PCOD9104105
_publ_section_title
;
Structure prediction by ZEFSAII (Michael W. Deem and Ramdas Pophale) SiO2 
 PCOD9104105
Probable space group: P -1
;
_chemical_formula_sum "Si O2"
_cell_formula_units_Z 16
_cell_length_a 9.280991
_cell_length_b 12.097872
_cell_length_c 14.254559
_cell_angle_alpha 120.537670
_cell_angle_beta 142.382603
_cell_angle_gamma 76.933003
_cell_volume 792.651698
_symmetry_space_group_name_H-M "P -1"
_symmetry_group_IT_number 2
_symmetry_cell_setting 'triclinic'
loop_
_space_group_symop_operation_xyz
x,y,z
-x,-y,-z
loop_
_atom_site_type_symbol
_atom_site_label
_atom_site_fract_x
_atom_site_fract_y
_atom_site_fract_z
Si Si1 0.404322 0.345761 0.425181
Si Si2 0.183488 0.514267 0.189730
Si Si3 0.501326 0.274042 0.004889
Si Si4 0.990837 0.718383 0.635873
Si Si5 0.232504 0.022194 0.864623
Si Si6 0.265166 0.707532 0.068261
Si Si7 0.539046 0.534073 0.231542
Si Si8 0.085491 0.125494 0.027379
O O1 0.500000 0.500000 0.500000
O O2 0.649143 0.347778 0.613297
O O3 0.175725 0.308189 0.365975
O O4 0.307662 0.241065 0.245600
O O5 0.397908 0.469978 0.228004
O O6 0.000000 0.500000 0.000000
O O7 0.992938 0.421520 0.126828
O O8 0.458176 0.417014 0.061526
O O9 0.738249 0.287476 0.200760
O O10 0.273361 0.140994 0.860320
O O11 0.593819 0.259079 0.942579
O O12 0.831594 0.603871 0.432449
O O13 0.034444 0.870661 0.685530
O O14 0.174284 0.080800 0.957500
O O15 0.500000 0.000000 0.000000
O O16 0.440763 0.658106 0.206809
O O17 0.150085 0.822238 0.089043
O O18 0.000000 0.000000 0.000000
#
# Coordination Sequence:
#
# PCOD9104105 Si02
#       8
#     2   2   2   2   2   2   2   2
#     4  11  19  34  62  92 115 149 198 250 289 347
#     4   9  19  36  58  84 120 149 187 240 299 341
#     4  11  20  37  61  86 116 162 198 238 296 354
#     4  10  20  39  57  89 120 151 203 243 289 354
#     4  10  22  39  58  86 120 156 194 247 299 348
#     4  11  21  39  59  88 122 153 196 248 299 350
#     4  10  22  36  62  86 121 154 195 247 302 343
#     4  12  21  38  64  87 119 156 200 249 297 350
#
# _framework density 20.185409
#
# number of rings (size 3 to 8) (size 9 to 14) (size 15 to 20)
#    0.000    1.500    3.750    2.250    1.750    0.000 
#    4.500    1.250    5.500    0.000    0.000    0.000 
#    0.000    0.000    0.000    0.000    0.000    0.000 
#
# Total GULP energy -89102.974922 kJ/mol
# GULP energy per Si atom -5568.935933 kJ/mol
# Density = 2.013947 g / cm^3
# Si number density = 20.185409 Si / 1000 Ang^3
#
#
#
# Elastic Constant Matrix: (Units=GPa)
#
#
# Indices 1 2 3 4 5 6 
#
# 1 116.7654 33.8138 4.7749 18.6157 2.2428 11.6154
# 2 33.8138 91.8001 26.5416 11.7241 3.8671 7.0349
# 3 4.7749 26.5416 66.7715 16.1011 7.8878 12.5217
# 4 18.6157 11.7241 16.1011 36.0466 2.5188 6.8467
# 5 2.2428 3.8671 7.8878 2.5188 25.5319 8.2528
# 6 11.6154 7.0349 12.5217 6.8467 8.2528 32.3989
#
#
#
# Elastic Compliance Matrix: (Units=1/GPa)
#
#
# Indices 1 2 3 4 5 6 
#
# 1 0.010615 -0.003783 0.002421 -0.004788 0.000332 -0.002993
# 2 -0.003783 0.013802 -0.005208 -0.000285 -0.000284 0.000505
# 3 0.002421 -0.005208 0.019966 -0.007282 -0.003228 -0.005093
# 4 -0.004788 -0.000285 -0.007282 0.034050 0.000213 -0.002657
# 5 0.000332 -0.000284 -0.003228 0.000213 0.043356 -0.009899
# 6 -0.002993 0.000505 -0.005093 -0.002657 -0.009899 0.036880
#
#
# Mechanical properties :
#
#
# Convention : Reuss Voigt Hill
#
# Bulk Modulus (GPa) = 32.00709 45.06639 38.53674
# Shear Modulus (GPa) = 27.43870 32.80926 30.12398
#
# Velocity S-wave (km/s) = 3.69091 4.03599 3.86730
# Velocity P-wave (km/s) = 5.83565 6.64031 6.25094
#
# Compressibility (1/GPa) = 0.03124308
#
# Stress axis : x y z
#
# Youngs Moduli (GPa) = 94.20236 72.45174 50.08551
#
# Poissons Ratio (x) = 0.27411 -0.12127
# Poissons Ratio (y) = 0.35640 0.26086
# Poissons Ratio (z) = -0.22809 0.37735
#
# Static dielectric constant tensor:
#      x y z
#    x 1.727070 0.021810 -0.003070 
#    y 0.021810 1.835660 -0.030440 
#    z -0.003070 -0.030440 1.759940 
# 
# From -- ./inp_files/284598.got.cif
#   From: 2010.05.17/outbox.cif.g08.bks.cpg/sg2_143_cif.got.tgz:284598.got - 2010.06.03 11:33:40.
