data_PCOD9104980
_publ_section_title
;
Structure prediction by ZEFSAII (Michael W. Deem and Ramdas Pophale) SiO2 
 PCOD9104980
Probable space group: P -1
;
_chemical_formula_sum "Si O2"
_cell_formula_units_Z 14
_cell_length_a 8.880808
_cell_length_b 12.233523
_cell_length_c 9.504938
_cell_angle_alpha 75.309935
_cell_angle_beta 93.386365
_cell_angle_gamma 145.558343
_cell_volume 543.271784
_symmetry_space_group_name_H-M "P -1"
_symmetry_group_IT_number 2
_symmetry_cell_setting 'triclinic'
loop_
_space_group_symop_operation_xyz
x,y,z
-x,-y,-z
loop_
_atom_site_type_symbol
_atom_site_label
_atom_site_fract_x
_atom_site_fract_y
_atom_site_fract_z
Si Si1 0.213729 0.277754 0.446473
Si Si2 0.254272 0.568146 0.379171
Si Si3 0.691312 0.421154 0.306852
Si Si4 0.646935 0.816720 0.902130
Si Si5 0.133647 0.019608 0.720954
Si Si6 0.925248 0.565021 0.884907
Si Si7 0.805355 0.140487 0.965483
O O1 0.262030 0.436814 0.432015
O O2 0.474029 0.384846 0.346979
O O3 0.147156 0.157498 0.614799
O O4 0.958530 0.106390 0.380744
O O5 0.235630 0.590658 0.535462
O O6 0.553113 0.806149 0.272677
O O7 0.051229 0.452802 0.271447
O O8 0.509739 0.245804 0.232091
O O9 0.967063 0.648025 0.181765
O O10 0.771369 0.000610 0.930876
O O11 0.396671 0.609137 0.047996
O O12 0.883806 0.874647 0.863772
O O13 0.000000 0.500000 0.000000
O O14 0.089481 0.771913 0.896776
O O15 0.500000 0.000000 0.000000
#
# Coordination Sequence:
#
# PCOD9104980 Si02
#       7
#     2   2   2   2   2   2   2
#     4   9  17  34  59  95 131 149 188 238 308 369
#     4  11  21  37  63  92 125 155 200 249 294 364
#     4   9  20  36  63  95 119 152 192 249 304 358
#     4  10  20  39  63  86 122 155 200 241 305 364
#     4   9  18  34  62  94 124 157 182 245 307 362
#     4  11  25  43  58  82 122 165 209 251 298 342
#     4  11  21  40  67  77 113 169 203 246 302 355
#
# _framework density 25.769791000000001
#
# number of rings (size 3 to 8) (size 9 to 14) (size 15 to 20)
#    0.000    2.000    1.429    4.286    0.000    1.714 
#    0.000   13.571    0.000    0.000    0.000    0.000 
#    0.000    0.000    0.000    0.000    0.000    0.000 
#
# Total GULP energy -78287.965378 kJ/mol
# GULP energy per Si atom -5591.997527 kJ/mol
# Density = 2.571114 g / cm^3
# Si number density = 25.769791 Si / 1000 Ang^3
#
#
#
# Elastic Constant Matrix: (Units=GPa)
#
#
# Indices 1 2 3 4 5 6 
#
# 1 41.3516 22.1250 30.5044 19.6478 -5.9561 0.2950
# 2 22.1250 207.4090 53.7367 47.5170 -1.7471 -2.2782
# 3 30.5044 53.7367 147.4668 46.7662 -4.5597 19.7486
# 4 19.6478 47.5170 46.7662 67.1754 11.2750 -8.1412
# 5 -5.9561 -1.7471 -4.5597 11.2750 39.4906 9.8493
# 6 0.2950 -2.2782 19.7486 -8.1412 9.8493 42.7777
#
#
#
# Elastic Compliance Matrix: (Units=1/GPa)
#
#
# Indices 1 2 3 4 5 6 
#
# 1 0.031814 -0.000672 -0.003365 -0.007901 0.007094 -0.001839
# 2 -0.000672 0.005951 -0.000773 -0.003716 0.001210 -0.000307
# 3 -0.003365 -0.000773 0.011742 -0.008542 0.005320 -0.008289
# 4 -0.007901 -0.003716 -0.008542 0.029650 -0.013964 0.012658
# 5 0.007094 0.001210 0.005320 -0.013964 0.034288 -0.012993
# 6 -0.001839 -0.000307 -0.008289 0.012658 -0.012993 0.032600
#
#
# Mechanical properties :
#
#
# Convention : Reuss Voigt Hill
#
# Bulk Modulus (GPa) = 25.07048 67.66217 46.36633
# Shear Modulus (GPa) = 29.59279 49.21284 39.40282
#
# Velocity S-wave (km/s) = 3.39241 4.37476 3.91453
# Velocity P-wave (km/s) = 5.00943 7.19941 6.20185
#
# Compressibility (1/GPa) = 0.03988754
#
# Stress axis : x y z
#
# Youngs Moduli (GPa) = 31.43319 168.02940 85.16337
#
# Poissons Ratio (x) = 0.11298 0.28655
# Poissons Ratio (y) = 0.02113 0.06580
# Poissons Ratio (z) = 0.10576 0.12983
#
# Static dielectric constant tensor:
#      x y z
#    x 2.140550 0.041760 0.072920 
#    y 0.041760 2.012540 0.022620 
#    z 0.072920 0.022620 2.130860 
# 
# From -- ./inp_files/272911.got.cif
#   From: 2010.05.17/outbox.cif.g08.bks.cpg/sg2_137_cif.got.tgz:272911.got - 2010.06.03 11:33:40.
