data_PCOD9104089
_publ_section_title
;
Structure prediction by ZEFSAII (Michael W. Deem and Ramdas Pophale) SiO2 
 PCOD9104089
Probable space group: P -1
;
_chemical_formula_sum "Si O2"
_cell_formula_units_Z 16
_cell_length_a 9.063094
_cell_length_b 12.444843
_cell_length_c 20.827942
_cell_angle_alpha 41.725240
_cell_angle_beta 139.654142
_cell_angle_gamma 107.115555
_cell_volume 780.171268
_symmetry_space_group_name_H-M "P -1"
_symmetry_group_IT_number 2
_symmetry_cell_setting 'triclinic'
loop_
_space_group_symop_operation_xyz
x,y,z
-x,-y,-z
loop_
_atom_site_type_symbol
_atom_site_label
_atom_site_fract_x
_atom_site_fract_y
_atom_site_fract_z
Si Si1 0.439855 0.263829 0.535926
Si Si2 0.889186 0.354921 0.334071
Si Si3 0.339028 0.730634 0.817929
Si Si4 0.200685 0.082447 0.688514
Si Si5 0.356073 0.487344 0.168039
Si Si6 0.657023 0.809826 0.786330
Si Si7 0.655005 0.138324 0.807526
Si Si8 0.643321 0.423535 0.427406
O O1 0.590851 0.207121 0.680951
O O2 0.555965 0.347084 0.490532
O O3 0.081486 0.424585 0.349897
O O4 0.517645 0.049235 0.631956
O O5 0.884449 0.233806 0.326583
O O6 0.552498 0.516074 0.175102
O O7 0.058207 0.209711 0.517292
O O8 0.554002 0.757130 0.839039
O O9 0.213358 0.886553 0.766821
O O10 0.500000 0.500000 0.000000
O O11 0.518896 0.022740 0.826782
O O12 0.981752 0.240206 0.601061
O O13 0.424439 0.275290 0.260252
O O14 0.457207 0.461766 0.285512
O O15 0.009450 0.670934 0.964733
O O16 0.452087 0.353912 0.684144
O O17 0.000000 0.000000 0.000000
#
# Coordination Sequence:
#
# PCOD9104089 Si02
#       8
#     2   2   2   2   2   2   2   2
#     4  11  23  39  65  88 127 156 211 253 304 369
#     4   9  20  38  60  85 122 168 194 242 311 370
#     4  11  22  35  63  93 127 163 208 246 308 375
#     4  10  22  42  63  88 126 162 208 253 307 364
#     4   9  21  36  60  87 124 162 204 247 310 368
#     4  10  20  39  57  86 129 166 197 248 319 362
#     4  11  23  44  68  84 121 170 209 252 316 365
#     4  11  24  38  63  97 120 160 216 255 300 358
#
# _framework density 20.508317999999999
#
# number of rings (size 3 to 8) (size 9 to 14) (size 15 to 20)
#    0.000    1.750    2.500    1.875    5.250    3.500 
#    0.000    0.625    0.000    0.000    0.000    0.000 
#    0.000    0.000    0.000    0.000    0.000    0.000 
#
# Total GULP energy -89313.338177 kJ/mol
# GULP energy per Si atom -5582.083636 kJ/mol
# Density = 2.046164 g / cm^3
# Si number density = 20.508318 Si / 1000 Ang^3
#
#
#
# Elastic Constant Matrix: (Units=GPa)
#
#
# Indices 1 2 3 4 5 6 
#
# 1 74.5200 30.4039 31.4026 18.3699 18.6602 2.9448
# 2 30.4039 81.9563 26.5692 13.3859 8.5898 -13.7499
# 3 31.4026 26.5692 40.0169 10.6426 21.5024 7.1647
# 4 18.3699 13.3859 10.6426 38.1087 8.1726 7.9231
# 5 18.6602 8.5898 21.5024 8.1726 31.3402 2.6673
# 6 2.9448 -13.7499 7.1647 7.9231 2.6673 30.9266
#
#
#
# Elastic Compliance Matrix: (Units=1/GPa)
#
#
# Indices 1 2 3 4 5 6 
#
# 1 0.021845 -0.002351 -0.013321 -0.005936 -0.001814 0.001638
# 2 -0.002351 0.021480 -0.017723 -0.006263 0.008047 0.014790
# 3 -0.013321 -0.017723 0.067217 0.005239 -0.032934 -0.020685
# 4 -0.005936 -0.006263 0.005239 0.033540 -0.006111 -0.011499
# 5 -0.001814 0.008047 -0.032934 -0.006111 0.054269 0.008265
# 6 0.001638 0.014790 -0.020685 -0.011499 0.008265 0.045779
#
#
# Mechanical properties :
#
#
# Convention : Reuss Voigt Hill
#
# Bulk Modulus (GPa) = 22.85642 41.47160 32.16401
# Shear Modulus (GPa) = 15.36075 27.28295 21.32185
#
# Velocity S-wave (km/s) = 2.73976 3.65133 3.22789
# Velocity P-wave (km/s) = 4.60190 6.16782 5.44149
#
# Compressibility (1/GPa) = 0.04375139
#
# Stress axis : x y z
#
# Youngs Moduli (GPa) = 45.77792 46.55413 14.87713
#
# Poissons Ratio (x) = 0.10944 0.19818
# Poissons Ratio (y) = 0.10762 0.26367
# Poissons Ratio (z) = 0.60982 0.82509
#
# Static dielectric constant tensor:
#      x y z
#    x 1.745630 -0.014750 0.044020 
#    y -0.014750 1.747780 -0.009430 
#    z 0.044020 -0.009430 1.759610 
# 
# From -- ./inp_files/351852.got.cif
#   From: 2010.05.17/outbox.cif.g08.bks.cpg/sg2_176_cif.got.tgz:351852.got - 2010.06.03 11:33:40.
