data_PCOD9104280
_publ_section_title
;
Structure prediction by ZEFSAII (Michael W. Deem and Ramdas Pophale) SiO2 
 PCOD9104280
Probable space group: P -1
;
_chemical_formula_sum "Si O2"
_cell_formula_units_Z 16
_cell_length_a 22.800009
_cell_length_b 7.633045
_cell_length_c 13.257692
_cell_angle_alpha 130.939351
_cell_angle_beta 159.065717
_cell_angle_gamma 48.257518
_cell_volume 610.257051
_symmetry_space_group_name_H-M "P -1"
_symmetry_group_IT_number 2
_symmetry_cell_setting 'triclinic'
loop_
_space_group_symop_operation_xyz
x,y,z
-x,-y,-z
loop_
_atom_site_type_symbol
_atom_site_label
_atom_site_fract_x
_atom_site_fract_y
_atom_site_fract_z
Si Si1 0.572021 0.691612 0.617765
Si Si2 0.120642 0.592817 0.313852
Si Si3 0.839080 0.553377 0.145144
Si Si4 0.982329 0.002894 0.123309
Si Si5 0.554749 0.541042 0.853308
Si Si6 0.637005 0.839762 0.468727
Si Si7 0.827671 0.453674 0.382674
Si Si8 0.321892 0.014477 0.622902
O O1 0.500000 0.500000 0.500000
O O2 0.469366 0.957187 0.558085
O O3 0.749414 0.680446 0.949841
O O4 0.560208 0.594050 0.451061
O O5 0.070745 0.871228 0.315412
O O6 0.113901 0.566747 0.414919
O O7 0.310091 0.443975 0.543218
O O8 0.000000 0.500000 0.000000
O O9 0.704266 0.572452 0.024824
O O10 0.013652 0.641268 0.468999
O O11 0.903857 0.277168 0.117519
O O12 0.143655 0.937230 0.283681
O O13 0.824637 0.894433 0.798323
O O14 0.658594 0.373542 0.044083
O O15 0.442188 0.800128 0.789428
O O16 0.583987 0.917783 0.299049
O O17 0.753172 0.734898 0.352453
#
# Coordination Sequence:
#
# PCOD9104280 Si02
#       8
#     2   2   2   2   2   2   2   2
#     4  10  17  30  57  86 112 138 175 228 283 318
#     4   9  21  36  56  76 114 147 189 229 266 324
#     4  10  19  35  61  85 112 141 186 227 276 332
#     4  10  18  33  55  81 107 145 188 226 269 321
#     4  11  19  34  55  87 119 138 173 240 283 322
#     4  10  16  33  55  84 107 143 183 230 272 317
#     4  10  22  36  56  86 109 147 188 226 276 328
#     4  10  19  31  57  85 106 140 188 233 271 326
#
# _framework density 26.21846
#
# number of rings (size 3 to 8) (size 9 to 14) (size 15 to 20)
#    0.000    2.000    5.000    1.125    0.000    4.000 
#    0.000    1.250    2.750    2.250    0.000    0.000 
#    0.000    0.000    0.000    0.000    0.000    0.000 
#
# Total GULP energy -89178.929498 kJ/mol
# GULP energy per Si atom -5573.683094 kJ/mol
# Density = 2.615879 g / cm^3
# Si number density = 26.218460 Si / 1000 Ang^3
#
#
#
# Elastic Constant Matrix: (Units=GPa)
#
#
# Indices 1 2 3 4 5 6 
#
# 1 93.6995 28.1679 16.1955 -21.2808 -14.9595 -9.1433
# 2 28.1679 91.8327 7.8260 -41.0937 -8.5574 7.7848
# 3 16.1955 7.8260 128.8126 -42.4007 -15.1506 6.7970
# 4 -21.2808 -41.0937 -42.4007 37.4962 -5.5215 -11.3201
# 5 -14.9595 -8.5574 -15.1506 -5.5215 40.1553 -8.3289
# 6 -9.1433 7.7848 6.7970 -11.3201 -8.3289 28.2994
#
#
#
# Elastic Compliance Matrix: (Units=1/GPa)
#
#
# Indices 1 2 3 4 5 6 
#
# 1 0.002259 -0.028334 -0.021737 -0.064157 -0.026297 -0.019658
# 2 -0.028334 -0.037941 -0.042978 -0.134641 -0.066174 -0.061729
# 3 -0.021737 -0.042978 -0.028322 -0.114571 -0.054099 -0.050150
# 4 -0.064157 -0.134641 -0.114571 -0.358629 -0.176579 -0.151598
# 5 -0.026297 -0.066174 -0.054099 -0.176579 -0.057116 -0.064743
# 6 -0.019658 -0.061729 -0.050150 -0.151598 -0.064743 -0.021685
#
#
# Mechanical properties :
#
#
# Convention : Reuss Voigt Hill
#
# Bulk Modulus (GPa) = -3.99839 46.52483 21.26322
# Shear Modulus (GPa) = -12.54063 38.66721 13.06329
#
# Velocity S-wave (km/s) = -2.18941 3.84449 2.23457
# Velocity P-wave (km/s) = 2.81419 6.12294 3.84517
#
# Compressibility (1/GPa) = -0.25010049
#
# Stress axis : x y z
#
# Youngs Moduli (GPa) = 442.61345 -26.35695 -35.30763
#
# Poissons Ratio (x) = -0.74679 -0.76747
# Poissons Ratio (y) = 12.54093 -1.51745
# Poissons Ratio (z) = 9.62091 -1.13277
#
# Static dielectric constant tensor:
#      x y z
#    x 2.185140 0.152520 0.037880 
#    y 0.152520 2.256810 0.238620 
#    z 0.037880 0.238620 2.282780 
# 
# From -- ./inp_files/543845.got.cif
#   From: 2010.05.17/outbox.cif.g08.bks.cpg/sg2_272_cif.got.tgz:543845.got - 2010.06.03 11:33:40.
