data_PCOD9104337
_publ_section_title
;
Structure prediction by ZEFSAII (Michael W. Deem and Ramdas Pophale) SiO2 
 PCOD9104337
Probable space group: P -1
;
_chemical_formula_sum "Si O2"
_cell_formula_units_Z 16
_cell_length_a 10.928301
_cell_length_b 13.998976
_cell_length_c 19.119255
_cell_angle_alpha 23.463226
_cell_angle_beta 124.311514
_cell_angle_gamma 108.187810
_cell_volume 752.309695
_symmetry_space_group_name_H-M "P -1"
_symmetry_group_IT_number 2
_symmetry_cell_setting 'triclinic'
loop_
_space_group_symop_operation_xyz
x,y,z
-x,-y,-z
loop_
_atom_site_type_symbol
_atom_site_label
_atom_site_fract_x
_atom_site_fract_y
_atom_site_fract_z
Si Si1 0.120656 0.559131 0.905925
Si Si2 0.681890 0.728174 0.976695
Si Si3 0.776982 0.709552 0.429294
Si Si4 0.569075 0.572860 0.542594
Si Si5 0.409926 0.653202 0.983997
Si Si6 0.854177 0.369984 0.417712
Si Si7 0.771608 0.975059 0.599619
Si Si8 0.593707 0.654898 0.276366
O O1 0.228475 0.697337 0.866609
O O2 0.221098 0.259390 0.189576
O O3 0.162214 0.452430 0.911021
O O4 0.897507 0.788885 0.697107
O O5 0.516224 0.702345 0.925933
O O6 0.751513 0.580302 0.174866
O O7 0.593489 0.078422 0.720057
O O8 0.747201 0.561732 0.586169
O O9 0.713530 0.597750 0.422049
O O10 0.972216 0.625621 0.523214
O O11 0.654302 0.073318 0.164959
O O12 0.500000 0.500000 0.500000
O O13 0.566650 0.378409 0.733557
O O14 0.566643 0.302925 0.298856
O O15 0.724698 0.472712 0.374885
O O16 0.899429 0.051799 0.625910
O O17 0.500000 0.000000 0.000000
#
# Coordination Sequence:
#
# PCOD9104337 Si02
#       8
#     2   2   2   2   2   2   2   2
#     4  11  21  39  58  89 122 158 203 247 299 356
#     4  10  22  37  61  84 119 160 197 243 302 355
#     4  10  21  39  61  89 118 157 201 251 300 360
#     4   9  19  39  60  84 117 153 195 244 299 357
#     4  10  20  39  60  87 118 159 203 246 300 358
#     4  11  21  39  59  88 122 156 202 251 297 362
#     4  10  22  37  62  86 123 158 197 255 301 352
#     4  11  21  38  64  88 117 158 198 246 308 358
#
# _framework density 21.267835999999999
#
# number of rings (size 3 to 8) (size 9 to 14) (size 15 to 20)
#    0.000    1.750    1.250    4.875    0.000    2.000 
#    4.500    8.125    0.000    0.000    0.000    0.000 
#    0.000    0.000    0.000    0.000    0.000    0.000 
#
# Total GULP energy -89134.130123 kJ/mol
# GULP energy per Si atom -5570.883133 kJ/mol
# Density = 2.121943 g / cm^3
# Si number density = 21.267836 Si / 1000 Ang^3
#
#
#
# Elastic Constant Matrix: (Units=GPa)
#
#
# Indices 1 2 3 4 5 6 
#
# 1 123.9575 12.2647 19.0024 -2.5530 -20.8043 -14.2050
# 2 12.2647 42.1936 -0.2869 -13.0133 -4.5681 -8.6794
# 3 19.0024 -0.2869 45.6800 -17.7835 -15.2605 -9.1956
# 4 -2.5530 -13.0133 -17.7835 23.0438 6.5447 5.1493
# 5 -20.8043 -4.5681 -15.2605 6.5447 25.4061 -11.4104
# 6 -14.2050 -8.6794 -9.1956 5.1493 -11.4104 41.2695
#
#
#
# Elastic Compliance Matrix: (Units=1/GPa)
#
#
# Indices 1 2 3 4 5 6 
#
# 1 0.011484 -0.002387 -0.001406 -0.006635 0.013268 0.007634
# 2 -0.002387 0.037725 0.020066 0.029728 0.014569 0.011902
# 3 -0.001406 0.020066 0.052340 0.037740 0.033082 0.019836
# 4 -0.006635 0.029728 0.037740 0.088057 0.000595 0.001555
# 5 0.013268 0.014569 0.033082 0.000595 0.090505 0.039951
# 6 0.007634 0.011902 0.019836 0.001555 0.039951 0.044633
#
#
# Mechanical properties :
#
#
# Convention : Reuss Voigt Hill
#
# Bulk Modulus (GPa) = 7.45748 30.42127 18.93938
# Shear Modulus (GPa) = 14.84136 30.00061 22.42098
#
# Velocity S-wave (km/s) = 2.64452 3.75988 3.25040
# Velocity P-wave (km/s) = 3.58311 5.76055 4.79701
#
# Compressibility (1/GPa) = 0.13409359
#
# Stress axis : x y z
#
# Youngs Moduli (GPa) = 87.07821 26.50773 19.10599
#
# Poissons Ratio (x) = 0.06328 0.02687
# Poissons Ratio (y) = 0.20789 -0.38338
# Poissons Ratio (z) = 0.12245 -0.53191
#
# Static dielectric constant tensor:
#      x y z
#    x 1.836530 0.069270 0.023470 
#    y 0.069270 1.737100 0.010140 
#    z 0.023470 0.010140 1.810330 
# 
# From -- ./inp_files/313303.got.cif
#   From: 2010.05.17/outbox.cif.g08.bks.cpg/sg2_157_cif.got.tgz:313303.got - 2010.06.03 11:33:40.
