data_PCOD9104577
_publ_section_title
;
Structure prediction by ZEFSAII (Michael W. Deem and Ramdas Pophale) SiO2 
 PCOD9104577
Probable space group: P -1
;
_chemical_formula_sum "Si O2"
_cell_formula_units_Z 16
_cell_length_a 6.132456
_cell_length_b 10.424583
_cell_length_c 11.569998
_cell_angle_alpha 86.787433
_cell_angle_beta 76.459108
_cell_angle_gamma 77.707778
_cell_volume 702.589806
_symmetry_space_group_name_H-M "P -1"
_symmetry_group_IT_number 2
_symmetry_cell_setting 'triclinic'
loop_
_space_group_symop_operation_xyz
x,y,z
-x,-y,-z
loop_
_atom_site_type_symbol
_atom_site_label
_atom_site_fract_x
_atom_site_fract_y
_atom_site_fract_z
Si Si1 0.653824 0.253739 0.829003
Si Si2 0.613383 0.476395 0.247518
Si Si3 0.883910 0.760201 0.347170
Si Si4 0.750938 0.592452 0.542213
Si Si5 0.076105 0.122919 0.431178
Si Si6 0.531579 0.236395 0.106898
Si Si7 0.066528 0.307222 0.254404
Si Si8 0.475139 0.017458 0.736165
O O1 0.468098 0.382575 0.807510
O O2 0.599123 0.122670 0.781915
O O3 0.899766 0.283870 0.759822
O O4 0.639985 0.235069 0.968216
O O5 0.456912 0.467590 0.380280
O O6 0.589640 0.357606 0.167539
O O7 0.879819 0.435683 0.248078
O O8 0.711365 0.671116 0.421976
O O9 0.990980 0.780190 0.457532
O O10 0.736485 0.892997 0.307289
O O11 0.791186 0.673630 0.648868
O O12 0.000000 0.500000 0.500000
O O13 0.961403 0.186533 0.322827
O O14 0.342263 0.064473 0.371047
O O15 0.000000 0.000000 0.500000
O O16 0.252111 0.267072 0.134336
O O17 0.592390 0.093453 0.166956
#
# Coordination Sequence:
#
# PCOD9104577 Si02
#       8
#     2   2   2   2   2   2   2   2
#     4  12  25  42  64  96 125 163 216 266 306 363
#     4  11  24  41  69  91 123 174 208 250 324 372
#     4  11  24  39  63  96 131 164 204 257 317 377
#     4  10  21  39  58  93 134 153 199 262 305 371
#     4  10  20  39  61  89 127 161 202 251 305 378
#     4  10  25  46  62  90 129 163 217 267 301 366
#     4   9  23  39  62  90 122 169 207 252 309 371
#     4  11  25  41  67  92 124 169 210 256 316 371
#
# _framework density 22.772887999999998
#
# number of rings (size 3 to 8) (size 9 to 14) (size 15 to 20)
#    0.000    1.500    2.500    1.875    5.250    2.500 
#    0.000    0.000    0.000    0.000    0.000    0.000 
#    0.000    0.000    0.000    0.000    0.000    0.000 
#
# Total GULP energy -89216.851459 kJ/mol
# GULP energy per Si atom -5576.053216 kJ/mol
# Density = 2.272106 g / cm^3
# Si number density = 22.772888 Si / 1000 Ang^3
#
#
#
# Elastic Constant Matrix: (Units=GPa)
#
#
# Indices 1 2 3 4 5 6 
#
# 1 39.3560 33.5963 34.0624 -6.5404 -5.0606 -6.7893
# 2 33.5963 130.0875 29.1553 -17.0219 0.9643 -9.5118
# 3 34.0624 29.1553 154.8123 -14.5186 -24.2926 0.6844
# 4 -6.5404 -17.0219 -14.5186 39.1555 1.8700 3.5546
# 5 -5.0606 0.9643 -24.2926 1.8700 18.5461 1.0965
# 6 -6.7893 -9.5118 0.6844 3.5546 1.0965 47.8606
#
#
#
# Elastic Compliance Matrix: (Units=1/GPa)
#
#
# Indices 1 2 3 4 5 6 
#
# 1 0.039377 -0.008379 -0.006783 -0.000040 0.002065 0.003973
# 2 -0.008379 0.010432 -0.000421 0.003090 -0.003736 0.000747
# 3 -0.006783 -0.000421 0.009971 0.001994 0.011124 -0.001591
# 4 -0.000040 0.003090 0.001994 0.027762 -0.000271 -0.001476
# 5 0.002065 -0.003736 0.011124 -0.000271 0.069404 -0.002179
# 6 0.003973 0.000747 -0.001591 -0.001476 -0.002179 0.021788
#
#
# Mechanical properties :
#
#
# Convention : Reuss Voigt Hill
#
# Bulk Modulus (GPa) = 34.94829 57.54265 46.24547
# Shear Modulus (GPa) = 22.78539 36.27524 29.53032
#
# Velocity S-wave (km/s) = 3.16658 3.99546 3.60492
# Velocity P-wave (km/s) = 5.36184 6.82699 6.13829
#
# Compressibility (1/GPa) = 0.02861370
#
# Stress axis : x y z
#
# Youngs Moduli (GPa) = 25.39546 95.85844 100.29333
#
# Poissons Ratio (x) = 0.80322 0.68031
# Poissons Ratio (y) = 0.21279 0.04219
# Poissons Ratio (z) = 0.17226 0.04033
#
# Static dielectric constant tensor:
#      x y z
#    x 2.092960 0.254770 -0.044770 
#    y 0.254770 2.209600 -0.103620 
#    z -0.044770 -0.103620 1.828790 
# 
# From -- ./inp_files/364251.got.cif
#   From: 2010.05.17/outbox.cif.g08.bks.cpg/sg2_183_cif.got.tgz:364251.got - 2010.06.03 11:33:40.
