data_PCOD9104081
_publ_section_title
;
Structure prediction by ZEFSAII (Michael W. Deem and Ramdas Pophale) SiO2 
 PCOD9104081
Probable space group: P -1
;
_chemical_formula_sum "Si O2"
_cell_formula_units_Z 16
_cell_length_a 19.436764
_cell_length_b 7.813396
_cell_length_c 5.129700
_cell_angle_alpha 62.706398
_cell_angle_beta 72.488904
_cell_angle_gamma 62.660610
_cell_volume 610.936551
_symmetry_space_group_name_H-M "P -1"
_symmetry_group_IT_number 2
_symmetry_cell_setting 'triclinic'
loop_
_space_group_symop_operation_xyz
x,y,z
-x,-y,-z
loop_
_atom_site_type_symbol
_atom_site_label
_atom_site_fract_x
_atom_site_fract_y
_atom_site_fract_z
Si Si1 0.568422 0.776537 0.560244
Si Si2 0.735552 0.532065 0.542757
Si Si3 0.167166 0.874757 0.002982
Si Si4 0.438951 0.447250 0.782042
Si Si5 0.299261 0.791983 0.519079
Si Si6 0.070264 0.441545 0.253453
Si Si7 0.776724 0.826345 0.901580
Si Si8 0.010719 0.154304 0.167102
O O1 0.657731 0.719762 0.602845
O O2 0.576999 0.714484 0.286825
O O3 0.500000 0.000000 0.500000
O O4 0.539691 0.645841 0.892548
O O5 0.805297 0.358541 0.745760
O O6 0.695823 0.378397 0.581900
O O7 0.767914 0.645707 0.211063
O O8 0.196522 0.020753 0.054026
O O9 0.075112 0.009719 0.993964
O O10 0.214444 0.849154 0.702764
O O11 0.500000 0.500000 0.500000
O O12 0.364549 0.664373 0.736537
O O13 0.300123 0.004244 0.256596
O O14 0.159354 0.293768 0.309196
O O15 0.048841 0.300116 0.166100
O O16 0.000000 0.500000 0.500000
O O17 0.064266 0.663558 0.992549
O O18 0.000000 0.000000 0.500000
#
# Coordination Sequence:
#
# PCOD9104081 Si02
#       8
#     2   2   2   2   2   2   2   2
#     4  11  24  43  65  96 130 165 212 263 314 378
#     4  10  22  39  59  85 122 153 205 254 306 370
#     4  10  20  39  57  83 119 153 200 253 301 375
#     4  11  24  43  67  94 130 168 210 260 318 377
#     4  10  22  39  59  86 119 154 204 251 305 367
#     4  10  21  37  55  84 120 149 203 254 298 374
#     4  10  22  37  59  86 114 162 200 250 313 368
#     4  10  21  35  57  84 115 155 196 248 310 362
#
# _framework density 26.189301
#
# number of rings (size 3 to 8) (size 9 to 14) (size 15 to 20)
#    0.000    1.750    1.250    2.250    1.750    3.500 
#    0.000    0.000    0.000    0.000    0.000    0.000 
#    0.000    0.000    0.000    0.000    0.000    0.000 
#
# Total GULP energy -89352.336925 kJ/mol
# GULP energy per Si atom -5584.521058 kJ/mol
# Density = 2.612969 g / cm^3
# Si number density = 26.189301 Si / 1000 Ang^3
#
#
#
# Elastic Constant Matrix: (Units=GPa)
#
#
# Indices 1 2 3 4 5 6 
#
# 1 37.4819 47.0210 11.9434 -17.3702 0.7954 -6.6950
# 2 47.0210 165.7129 54.2285 -25.2500 2.5760 -26.5233
# 3 11.9434 54.2285 153.8616 -34.7271 0.0807 -19.2370
# 4 -17.3702 -25.2500 -34.7271 68.8591 -8.0443 8.0803
# 5 0.7954 2.5760 0.0807 -8.0443 29.2637 1.3918
# 6 -6.6950 -26.5233 -19.2370 8.0803 1.3918 60.8747
#
#
#
# Elastic Compliance Matrix: (Units=1/GPa)
#
#
# Indices 1 2 3 4 5 6 
#
# 1 0.045472 -0.012669 0.002767 0.008584 0.002271 -0.000836
# 2 -0.012669 0.010798 -0.002730 -0.001037 -0.001008 0.002609
# 3 0.002767 -0.002730 0.008266 0.003860 0.001147 0.001189
# 4 0.008584 -0.001037 0.003860 0.018959 0.005103 -0.000921
# 5 0.002271 -0.001008 0.001147 0.005103 0.035661 -0.001320
# 6 -0.000836 0.002609 0.001189 -0.000921 -0.001320 0.018000
#
#
# Mechanical properties :
#
#
# Convention : Reuss Voigt Hill
#
# Bulk Modulus (GPa) = 25.46307 64.82691 45.14499
# Shear Modulus (GPa) = 28.48842 48.05708 38.27275
#
# Velocity S-wave (km/s) = 3.30174 4.28832 3.82696
# Velocity P-wave (km/s) = 4.92739 7.02329 6.06654
#
# Compressibility (1/GPa) = 0.03927256
#
# Stress axis : x y z
#
# Youngs Moduli (GPa) = 21.99159 92.60956 120.97951
#
# Poissons Ratio (x) = 1.17331 -0.33479
# Poissons Ratio (y) = 0.27862 0.33022
# Poissons Ratio (z) = -0.06086 0.25278
#
# Static dielectric constant tensor:
#      x y z
#    x 2.162340 -0.001420 -0.023070 
#    y -0.001420 2.047060 0.003410 
#    z -0.023070 0.003410 2.049350 
# 
# From -- ./inp_files/10578.got.cif
#   From: 2010.05.17/outbox.cif.g08.bks.cpg/sg2_6_cif.got.tgz:10578.got - 2010.06.03 11:33:40.
