data_PCOD9104933
_publ_section_title
;
Structure prediction by ZEFSAII (Michael W. Deem and Ramdas Pophale) SiO2 
 PCOD9104933
Probable space group: P -1
;
_chemical_formula_sum "Si O2"
_cell_formula_units_Z 16
_cell_length_a 12.410765
_cell_length_b 9.506418
_cell_length_c 11.793668
_cell_angle_alpha 125.874111
_cell_angle_beta 89.323140
_cell_angle_gamma 49.958927
_cell_volume 672.611037
_symmetry_space_group_name_H-M "P -1"
_symmetry_group_IT_number 2
_symmetry_cell_setting 'triclinic'
loop_
_space_group_symop_operation_xyz
x,y,z
-x,-y,-z
loop_
_atom_site_type_symbol
_atom_site_label
_atom_site_fract_x
_atom_site_fract_y
_atom_site_fract_z
Si Si1 0.825118 0.772041 0.053221
Si Si2 0.797972 0.433498 0.921463
Si Si3 0.764560 0.497758 0.396421
Si Si4 0.233266 0.841822 0.622726
Si Si5 0.768074 0.892525 0.643093
Si Si6 0.147655 0.058758 0.093227
Si Si7 0.169351 0.893389 0.401435
Si Si8 0.386440 0.423475 0.782076
O O1 0.709001 0.066279 0.260883
O O2 0.735461 0.700556 0.002572
O O3 0.882678 0.777622 0.935613
O O4 0.000000 0.500000 0.000000
O O5 0.732148 0.358042 0.809721
O O6 0.737851 0.499063 0.082254
O O7 0.014515 0.136031 0.773932
O O8 0.720269 0.403954 0.441193
O O9 0.621769 0.673635 0.379153
O O10 0.960352 0.207915 0.200270
O O11 0.785084 0.664993 0.522717
O O12 0.278576 0.797244 0.468583
O O13 0.895700 0.850082 0.543005
O O14 0.577639 0.187762 0.728858
O O15 0.788171 0.924801 0.786996
O O16 0.297344 0.724472 0.900982
O O17 0.000000 0.000000 0.500000
#
# Coordination Sequence:
#
# PCOD9104933 Si02
#       8
#     2   2   2   2   2   2   2   2
#     4  10  22  37  64 102 127 170 224 287 332 380
#     4  10  21  38  65  94 130 173 222 278 338 390
#     4  12  24  42  70 104 134 181 234 282 331 405
#     4  10  20  39  62  98 130 171 225 282 326 393
#     4  12  28  43  69 103 142 182 221 283 352 400
#     4  12  23  43  73  97 135 178 241 283 320 407
#     4  10  22  40  63  95 135 174 218 277 333 400
#     4  12  24  47  68  99 143 181 226 281 345 406
#
# _framework density 23.787896
#
# number of rings (size 3 to 8) (size 9 to 14) (size 15 to 20)
#    0.000    1.000    3.750    3.750    8.750    0.000 
#    0.000    2.500    0.000    0.000    0.000    0.000 
#    0.000    0.000    0.000    0.000    0.000    0.000 
#
# Total GULP energy -89517.037340 kJ/mol
# GULP energy per Si atom -5594.814834 kJ/mol
# Density = 2.373375 g / cm^3
# Si number density = 23.787896 Si / 1000 Ang^3
#
#
#
# Elastic Constant Matrix: (Units=GPa)
#
#
# Indices 1 2 3 4 5 6 
#
# 1 81.2710 49.3698 43.1503 1.7703 32.4940 16.2602
# 2 49.3698 146.6648 44.1073 -22.7255 11.0814 26.2513
# 3 43.1503 44.1073 50.3973 -18.3348 26.1438 15.7665
# 4 1.7703 -22.7255 -18.3348 45.6761 -5.2312 -0.4580
# 5 32.4940 11.0814 26.1438 -5.2312 37.8441 6.8050
# 6 16.2602 26.2513 15.7665 -0.4580 6.8050 53.7535
#
#
#
# Elastic Compliance Matrix: (Units=1/GPa)
#
#
# Indices 1 2 3 4 5 6 
#
# 1 0.032975 -0.006066 -0.021105 -0.014373 -0.014096 0.000840
# 2 -0.006066 0.011264 -0.005927 0.004244 0.007093 -0.002789
# 3 -0.021105 -0.005927 0.062802 0.020781 -0.019488 -0.006498
# 4 -0.014373 0.004244 0.020781 0.033095 0.001999 -0.003791
# 5 -0.014096 0.007093 -0.019488 0.001999 0.050156 0.000183
# 6 0.000840 -0.002789 -0.006498 -0.003791 0.000183 0.021562
#
#
# Mechanical properties :
#
#
# Convention : Reuss Voigt Hill
#
# Bulk Modulus (GPa) = 24.48212 61.28753 42.88483
# Shear Modulus (GPa) = 17.14300 36.90178 27.02239
#
# Velocity S-wave (km/s) = 2.68743 3.94291 3.37408
# Velocity P-wave (km/s) = 4.46585 6.82267 5.76596
#
# Compressibility (1/GPa) = 0.04084613
#
# Stress axis : x y z
#
# Youngs Moduli (GPa) = 30.32560 88.78233 15.92303
#
# Poissons Ratio (x) = 0.53851 0.33605
# Poissons Ratio (y) = 0.18394 0.09438
# Poissons Ratio (z) = 0.64001 0.52623
#
# Static dielectric constant tensor:
#      x y z
#    x 2.065710 -0.039710 0.023710 
#    y -0.039710 1.899670 0.007760 
#    z 0.023710 0.007760 1.918950 
# 
# From -- ./inp_files/419736.got.cif
#   From: 2010.05.17/outbox.cif.g08.bks.cpg/sg2_210_cif.got.tgz:419736.got - 2010.06.03 11:33:40.
