data_PCOD9104835
_publ_section_title
;
Structure prediction by ZEFSAII (Michael W. Deem and Ramdas Pophale) SiO2 
 PCOD9104835
Probable space group: P -1
;
_chemical_formula_sum "Si O2"
_cell_formula_units_Z 16
_cell_length_a 5.291197
_cell_length_b 14.943870
_cell_length_c 12.734800
_cell_angle_alpha 110.830530
_cell_angle_beta 122.002690
_cell_angle_gamma 100.417213
_cell_volume 706.191530
_symmetry_space_group_name_H-M "P -1"
_symmetry_group_IT_number 2
_symmetry_cell_setting 'triclinic'
loop_
_space_group_symop_operation_xyz
x,y,z
-x,-y,-z
loop_
_atom_site_type_symbol
_atom_site_label
_atom_site_fract_x
_atom_site_fract_y
_atom_site_fract_z
Si Si1 0.687130 0.899542 0.440014
Si Si2 0.277398 0.551623 0.424721
Si Si3 0.875698 0.018479 0.091571
Si Si4 0.727982 0.736746 0.740810
Si Si5 0.903666 0.078809 0.723041
Si Si6 0.343624 0.655367 0.265292
Si Si7 0.678247 0.685909 0.138532
Si Si8 0.684174 0.337440 0.173286
O O1 0.376700 0.886038 0.293022
O O2 0.626876 0.780118 0.400902
O O3 0.693459 0.960142 0.575851
O O4 0.000000 0.000000 0.500000
O O5 0.500000 0.500000 0.500000
O O6 0.408255 0.659785 0.566871
O O7 0.350659 0.581875 0.331142
O O8 0.891576 0.461804 0.310141
O O9 0.116085 0.143562 0.221006
O O10 0.897906 0.937299 0.145867
O O11 0.500000 0.000000 0.000000
O O12 0.000000 0.000000 0.000000
O O13 0.588411 0.727670 0.824577
O O14 0.030196 0.702921 0.791906
O O15 0.149327 0.182756 0.751658
O O16 0.434573 0.629549 0.159541
O O17 0.980589 0.654130 0.187577
O O18 0.485929 0.665419 0.977137
#
# Coordination Sequence:
#
# PCOD9104835 Si02
#       8
#     2   2   2   2   2   2   2   2
#     4  10  20  39  62  91 126 170 215 267 325 388
#     4  10  25  47  70  97 130 175 227 283 330 386
#     4  12  26  41  65 100 139 179 219 267 329 406
#     4  11  23  45  67  98 132 179 226 273 328 393
#     4  10  22  38  59  92 130 170 216 268 325 393
#     4  11  24  41  65  97 129 168 219 269 334 396
#     4  11  23  40  64  95 130 169 211 271 333 397
#     4  11  24  44  70  93 132 175 226 280 334 386
#
# _framework density 22.656741
#
# number of rings (size 3 to 8) (size 9 to 14) (size 15 to 20)
#    0.000    1.250    1.250    4.125    1.750    6.000 
#    4.500    0.000    0.000    0.000    0.000    0.000 
#    0.000    0.000    0.000    0.000    0.000    0.000 
#
# Total GULP energy -89368.743171 kJ/mol
# GULP energy per Si atom -5585.546448 kJ/mol
# Density = 2.260517 g / cm^3
# Si number density = 22.656741 Si / 1000 Ang^3
#
#
#
# Elastic Constant Matrix: (Units=GPa)
#
#
# Indices 1 2 3 4 5 6 
#
# 1 124.5703 27.7990 22.5734 -25.5409 2.8166 16.9806
# 2 27.7990 103.8361 26.9671 -17.7139 12.7039 16.4075
# 3 22.5734 26.9671 83.2052 -13.2149 5.2323 -2.1016
# 4 -25.5409 -17.7139 -13.2149 55.1192 1.4198 -8.3678
# 5 2.8166 12.7039 5.2323 1.4198 23.5933 -1.5372
# 6 16.9806 16.4075 -2.1016 -8.3678 -1.5372 24.9018
#
#
#
# Elastic Compliance Matrix: (Units=1/GPa)
#
#
# Indices 1 2 3 4 5 6 
#
# 1 0.009960 -0.000591 -0.002100 0.003096 -0.000956 -0.005598
# 2 -0.000591 0.013235 -0.003582 0.002029 -0.006928 -0.008365
# 3 -0.002100 -0.003582 0.014287 0.002183 -0.000750 0.005685
# 4 0.003096 0.002029 0.002183 0.021398 -0.002990 0.003742
# 5 -0.000956 -0.006928 -0.000750 -0.002990 0.047035 0.007052
# 6 -0.005598 -0.008365 0.005685 0.003742 0.007052 0.051659
#
#
# Mechanical properties :
#
#
# Convention : Reuss Voigt Hill
#
# Bulk Modulus (GPa) = 40.10585 51.81008 45.95796
# Shear Modulus (GPa) = 28.02185 36.34099 32.18142
#
# Velocity S-wave (km/s) = 3.52063 4.00932 3.77290
# Velocity P-wave (km/s) = 5.85375 6.65957 6.26962
#
# Compressibility (1/GPa) = 0.02493402
#
# Stress axis : x y z
#
# Youngs Moduli (GPa) = 100.40596 75.55778 69.99495
#
# Poissons Ratio (x) = 0.04468 0.14698
# Poissons Ratio (y) = 0.05938 0.25075
# Poissons Ratio (z) = 0.21084 0.27068
#
# Static dielectric constant tensor:
#      x y z
#    x 1.899810 -0.003800 -0.051050 
#    y -0.003800 2.058100 0.116440 
#    z -0.051050 0.116440 1.902640 
# 
# From -- ./inp_files/367804.got.cif
#   From: 2010.05.17/outbox.cif.g08.bks.cpg/sg2_184_cif.got.tgz:367804.got - 2010.06.03 11:33:40.
