data_PCOD9104535
_publ_section_title
;
Structure prediction by ZEFSAII (Michael W. Deem and Ramdas Pophale) SiO2 
 PCOD9104535
Probable space group: P -1
;
_chemical_formula_sum "Si O2"
_cell_formula_units_Z 10
_cell_length_a 13.580821
_cell_length_b 8.282487
_cell_length_c 7.443961
_cell_angle_alpha 72.049163
_cell_angle_beta 145.818864
_cell_angle_gamma 120.596575
_cell_volume 393.736930
_symmetry_space_group_name_H-M "P -1"
_symmetry_group_IT_number 2
_symmetry_cell_setting 'triclinic'
loop_
_space_group_symop_operation_xyz
x,y,z
-x,-y,-z
loop_
_atom_site_type_symbol
_atom_site_label
_atom_site_fract_x
_atom_site_fract_y
_atom_site_fract_z
Si Si1 0.081619 0.465222 0.384802
Si Si2 0.449384 0.882870 0.772446
Si Si3 0.658628 0.822735 0.545303
Si Si4 0.239962 0.461913 0.005455
Si Si5 0.166832 0.135248 0.567118
O O1 0.247840 0.684042 0.536601
O O2 0.106870 0.408095 0.646068
O O3 0.132923 0.318016 0.408566
O O4 0.868337 0.457445 0.048706
O O5 0.415377 0.030606 0.544116
O O6 0.628324 0.831323 0.038664
O O7 0.500000 0.000000 0.000000
O O8 0.812649 0.931064 0.579426
O O9 0.743827 0.721627 0.840634
O O10 0.459341 0.635267 0.234765
O O11 0.000000 0.000000 0.500000
#
# Coordination Sequence:
#
# PCOD9104535 Si02
#       5
#     2   2   2   2   2
#     4  11  22  39  65  92 116 160 203 244 298 357
#     4  10  20  39  61  88 120 160 198 242 298 355
#     4  10  22  42  62  88 122 159 196 250 298 352
#     4  10  22  39  66  87 120 157 204 241 302 353
#     4  11  23  38  63  89 122 158 201 245 300 352
#
# _framework density 25.397667999999999
#
# number of rings (size 3 to 8) (size 9 to 14) (size 15 to 20)
#    0.000    1.600    4.000    1.800    8.400    1.600 
#    0.000    1.000    0.000    0.000    0.000    0.000 
#    0.000    0.000    0.000    0.000    0.000    0.000 
#
# Total GULP energy -55893.842434 kJ/mol
# GULP energy per Si atom -5589.384243 kJ/mol
# Density = 2.533986 g / cm^3
# Si number density = 25.397668 Si / 1000 Ang^3
#
#
#
# Elastic Constant Matrix: (Units=GPa)
#
#
# Indices 1 2 3 4 5 6 
#
# 1 79.3747 27.8243 29.3537 0.3051 22.0098 3.0472
# 2 27.8243 149.8319 40.4714 -28.2368 7.5345 17.3037
# 3 29.3537 40.4714 87.8072 -28.1608 20.9955 15.7524
# 4 0.3051 -28.2368 -28.1608 62.3757 6.4712 8.0178
# 5 22.0098 7.5345 20.9955 6.4712 28.4865 1.9493
# 6 3.0472 17.3037 15.7524 8.0178 1.9493 39.7127
#
#
#
# Elastic Compliance Matrix: (Units=1/GPa)
#
#
# Indices 1 2 3 4 5 6 
#
# 1 0.017370 -0.002407 -0.003166 -0.001784 -0.010170 0.001831
# 2 -0.002407 0.008634 -0.001185 0.003903 -0.000171 -0.003887
# 3 -0.003166 -0.001185 0.022750 0.012722 -0.016211 -0.010038
# 4 -0.001784 0.003903 0.012722 0.026479 -0.014275 -0.011255
# 5 -0.010170 -0.000171 -0.016211 -0.014275 0.057697 0.007335
# 6 0.001831 -0.003887 -0.010038 -0.011255 0.007335 0.032628
#
#
# Mechanical properties :
#
#
# Convention : Reuss Voigt Hill
#
# Bulk Modulus (GPa) = 28.37838 56.92362 42.65100
# Shear Modulus (GPa) = 26.20271 40.73926 33.47099
#
# Velocity S-wave (km/s) = 3.21549 4.00941 3.63420
# Velocity P-wave (km/s) = 4.99837 6.62536 5.86852
#
# Compressibility (1/GPa) = 0.03523809
#
# Stress axis : x y z
#
# Youngs Moduli (GPa) = 57.57147 115.81869 43.95508
#
# Poissons Ratio (x) = 0.27874 0.13918
# Poissons Ratio (y) = 0.13855 0.05209
# Poissons Ratio (z) = 0.18229 0.13727
#
# Static dielectric constant tensor:
#      x y z
#    x 2.156800 -0.052100 -0.012920 
#    y -0.052100 1.975000 -0.060570 
#    z -0.012920 -0.060570 2.070740 
# 
# From -- ./inp_files/143966.got.cif
#   From: 2010.05.17/outbox.cif.g08.bks.cpg/sg2_72_cif.got.tgz:143966.got - 2010.06.03 11:33:40.
