data_PCOD9104481
_publ_section_title
;
Structure prediction by ZEFSAII (Michael W. Deem and Ramdas Pophale) SiO2 
 PCOD9104481
Probable space group: P -1
;
_chemical_formula_sum "Si O2"
_cell_formula_units_Z 14
_cell_length_a 5.754177
_cell_length_b 7.641409
_cell_length_c 21.080684
_cell_angle_alpha 43.689190
_cell_angle_beta 122.482840
_cell_angle_gamma 110.299621
_cell_volume 538.731486
_symmetry_space_group_name_H-M "P -1"
_symmetry_group_IT_number 2
_symmetry_cell_setting 'triclinic'
loop_
_space_group_symop_operation_xyz
x,y,z
-x,-y,-z
loop_
_atom_site_type_symbol
_atom_site_label
_atom_site_fract_x
_atom_site_fract_y
_atom_site_fract_z
Si Si1 0.303525 0.212050 0.305488
Si Si2 0.351255 0.282036 0.573025
Si Si3 0.796304 0.918638 0.903964
Si Si4 0.108841 0.280972 0.781632
Si Si5 0.738051 0.015382 0.245928
Si Si6 0.846042 0.268026 0.424151
Si Si7 0.318733 0.721500 0.092368
O O1 0.514596 0.259355 0.381946
O O2 0.280416 0.464448 0.193205
O O3 0.478698 0.978498 0.357852
O O4 0.990373 0.135998 0.286917
O O5 0.500000 0.500000 0.500000
O O6 0.343725 0.223126 0.661850
O O7 0.030598 0.328033 0.494941
O O8 0.540657 0.811149 0.857412
O O9 0.718675 0.028378 0.933232
O O10 0.858994 0.175390 0.809185
O O11 0.084495 0.753211 0.996453
O O12 0.163492 0.086911 0.781603
O O13 0.091129 0.545838 0.673334
O O14 0.353930 0.287332 0.867545
O O15 0.000000 0.000000 0.500000
#
# Coordination Sequence:
#
# PCOD9104481 Si02
#       7
#     2   2   2   2   2   2   2
#     4  10  22  39  57  88 120 147 192 243 290 344
#     4  11  23  41  61  84 117 155 195 240 288 344
#     4  10  20  39  62  86 116 153 195 239 289 346
#     4  10  20  39  61  85 117 154 197 240 285 346
#     4  11  23  37  58  86 117 155 194 235 288 346
#     4   9  20  37  58  83 114 152 191 239 294 337
#     4   9  21  38  62  89 114 151 194 239 294 344
#
# _framework density 25.986971
#
# number of rings (size 3 to 8) (size 9 to 14) (size 15 to 20)
#    0.000    2.000    0.000    3.000    0.000    6.857 
#    0.000   10.000    0.000    0.000    0.000    0.000 
#    0.000    0.000    0.000    0.000    0.000    0.000 
#
# Total GULP energy -78183.456656 kJ/mol
# GULP energy per Si atom -5584.532618 kJ/mol
# Density = 2.592782 g / cm^3
# Si number density = 25.986971 Si / 1000 Ang^3
#
#
#
# Elastic Constant Matrix: (Units=GPa)
#
#
# Indices 1 2 3 4 5 6 
#
# 1 54.2092 39.8856 48.0803 27.0549 4.8941 20.9505
# 2 39.8856 92.5367 61.0045 30.7195 23.6717 33.2189
# 3 48.0803 61.0045 180.3915 42.6166 32.7299 39.2982
# 4 27.0549 30.7195 42.6166 54.9162 18.0081 21.4194
# 5 4.8941 23.6717 32.7299 18.0081 50.7385 14.3589
# 6 20.9505 33.2189 39.2982 21.4194 14.3589 52.4058
#
#
#
# Elastic Compliance Matrix: (Units=1/GPa)
#
#
# Indices 1 2 3 4 5 6 
#
# 1 0.035076 -0.010091 -0.004607 -0.009890 0.008502 -0.002459
# 2 -0.010091 0.019905 -0.001642 -0.000998 -0.005349 -0.005478
# 3 -0.004607 -0.001642 0.008786 -0.001746 -0.003242 -0.002104
# 4 -0.009890 -0.000998 -0.001746 0.028708 -0.006494 -0.004058
# 5 0.008502 -0.005349 -0.003242 -0.006494 0.026390 -0.002153
# 6 -0.002459 -0.005478 -0.002104 -0.004058 -0.002153 0.027364
#
#
# Mechanical properties :
#
#
# Convention : Reuss Voigt Hill
#
# Bulk Modulus (GPa) = 32.16773 69.45313 50.81043
# Shear Modulus (GPa) = 26.41732 43.48991 34.95361
#
# Velocity S-wave (km/s) = 3.19181 4.09532 3.67146
# Velocity P-wave (km/s) = 5.09792 7.01044 6.12924
#
# Compressibility (1/GPa) = 0.03108706
#
# Stress axis : x y z
#
# Youngs Moduli (GPa) = 28.50943 50.23958 113.82066
#
# Poissons Ratio (x) = 0.50695 0.52438
# Poissons Ratio (y) = 0.28768 0.18690
# Poissons Ratio (z) = 0.13134 0.08250
#
# Static dielectric constant tensor:
#      x y z
#    x 2.068720 -0.047760 0.014260 
#    y -0.047760 2.193080 0.070950 
#    z 0.014260 0.070950 2.064770 
# 
# From -- ./inp_files/55762.got.cif
#   From: 2010.05.17/outbox.cif.g08.bks.cpg/sg2_28_cif.got.tgz:55762.got - 2010.06.03 11:33:40.
