data_PCOD9104843
_publ_section_title
;
Structure prediction by ZEFSAII (Michael W. Deem and Ramdas Pophale) SiO2 
 PCOD9104843
Probable space group: P -1
;
_chemical_formula_sum "Si O2"
_cell_formula_units_Z 16
_cell_length_a 16.043498
_cell_length_b 7.173350
_cell_length_c 8.745953
_cell_angle_alpha 87.673762
_cell_angle_beta 40.803944
_cell_angle_gamma 107.172035
_cell_volume 569.442973
_symmetry_space_group_name_H-M "P -1"
_symmetry_group_IT_number 2
_symmetry_cell_setting 'triclinic'
loop_
_space_group_symop_operation_xyz
x,y,z
-x,-y,-z
loop_
_atom_site_type_symbol
_atom_site_label
_atom_site_fract_x
_atom_site_fract_y
_atom_site_fract_z
Si Si1 0.842965 0.625638 0.971709
Si Si2 0.988853 0.774924 0.076559
Si Si3 0.562435 0.331193 0.520066
Si Si4 0.237401 0.988549 0.933201
Si Si5 0.756376 0.675168 0.659422
Si Si6 0.626143 0.099096 0.692818
Si Si7 0.492937 0.351062 0.222362
Si Si8 0.869508 0.153897 0.587708
O O1 0.927512 0.639861 0.012967
O O2 0.686710 0.412887 0.215805
O O3 0.810778 0.825885 0.004321
O O4 0.960700 0.671531 0.676228
O O5 0.875423 0.675999 0.378692
O O6 0.000000 0.000000 0.000000
O O7 0.148423 0.840930 0.918475
O O8 0.411610 0.122479 0.694660
O O9 0.620919 0.281847 0.597392
O O10 0.468316 0.478992 0.388298
O O11 0.184935 0.851405 0.166177
O O12 0.624867 0.668285 0.742185
O O13 0.840612 0.910595 0.611746
O O14 0.659278 0.486119 0.920977
O O15 0.773381 0.171627 0.583018
O O16 0.570816 0.900119 0.659555
O O17 0.500000 0.000000 0.000000
#
# Coordination Sequence:
#
# PCOD9104843 Si02
#       8
#     2   2   2   2   2   2   2   2
#     4  11  24  39  67 104 142 183 233 286 354 422
#     4  10  20  34  61  97 135 178 225 285 346 409
#     4  12  23  44  68 106 139 184 234 288 352 412
#     4  11  22  39  66 103 141 179 237 289 343 418
#     4  10  16  33  58  95 126 167 230 262 333 407
#     4  11  23  41  68 102 145 179 239 291 337 429
#     4  10  21  35  68 101 126 184 232 276 347 407
#     4  11  21  38  67 102 135 186 227 289 350 405
#
# _framework density 28.097632999999998
#
# number of rings (size 3 to 8) (size 9 to 14) (size 15 to 20)
#    0.000    1.250    6.250    2.250    0.000    0.500 
#    0.000    0.000    0.000   11.250    0.000    0.000 
#    0.000    0.000    0.000    0.000    0.000    0.000 
#
# Total GULP energy -89800.985699 kJ/mol
# GULP energy per Si atom -5612.561606 kJ/mol
# Density = 2.803368 g / cm^3
# Si number density = 28.097633 Si / 1000 Ang^3
#
#
#
# Elastic Constant Matrix: (Units=GPa)
#
#
# Indices 1 2 3 4 5 6 
#
# 1 178.0985 30.2980 75.2680 -13.2978 -7.8089 7.6258
# 2 30.2980 105.0019 36.0166 -16.0700 -2.8151 2.8746
# 3 75.2680 36.0166 264.4725 -19.7799 -20.1068 10.6282
# 4 -13.2978 -16.0700 -19.7799 26.1432 13.7981 -3.7586
# 5 -7.8089 -2.8151 -20.1068 13.7981 57.4172 -1.4279
# 6 7.6258 2.8746 10.6282 -3.7586 -1.4279 32.5904
#
#
#
# Elastic Compliance Matrix: (Units=1/GPa)
#
#
# Indices 1 2 3 4 5 6 
#
# 1 0.006617 -0.001129 -0.001600 0.001386 -0.000068 -0.000770
# 2 -0.001129 0.011066 -0.000826 0.006391 -0.001430 0.000232
# 3 -0.001600 -0.000826 0.004568 0.001510 0.000958 -0.000826
# 4 0.001386 0.006391 0.001510 0.050391 -0.010981 0.003950
# 5 -0.000068 -0.001430 0.000958 -0.010981 0.020298 -0.000547
# 6 -0.000770 0.000232 -0.000826 0.003950 -0.000547 0.031545
#
#
# Mechanical properties :
#
#
# Convention : Reuss Voigt Hill
#
# Bulk Modulus (GPa) = 66.04426 92.30424 79.17425
# Shear Modulus (GPa) = 36.59257 50.29620 43.44439
#
# Velocity S-wave (km/s) = 3.61270 4.23549 3.93643
# Velocity P-wave (km/s) = 6.39988 7.53935 6.99286
#
# Compressibility (1/GPa) = 0.01514136
#
# Stress axis : x y z
#
# Youngs Moduli (GPa) = 151.13598 90.36578 218.92041
#
# Poissons Ratio (x) = 0.10202 0.35024
# Poissons Ratio (y) = 0.17063 0.18077
# Poissons Ratio (z) = 0.24179 0.07462
#
# Static dielectric constant tensor:
#      x y z
#    x 2.184480 -0.022490 0.023010 
#    y -0.022490 2.194300 0.045900 
#    z 0.023010 0.045900 2.130240 
# 
# From -- ./inp_files/272820.got.cif
#   From: 2010.05.17/outbox.cif.g08.bks.cpg/sg2_137_cif.got.tgz:272820.got - 2010.06.03 11:33:40.
