data_PCOD9104565
_publ_section_title
;
Structure prediction by ZEFSAII (Michael W. Deem and Ramdas Pophale) SiO2 
 PCOD9104565
Probable space group: P -1
;
_chemical_formula_sum "Si O2"
_cell_formula_units_Z 16
_cell_length_a 23.018637
_cell_length_b 16.832066
_cell_length_c 6.794480
_cell_angle_alpha 102.066696
_cell_angle_beta 63.327752
_cell_angle_gamma 157.253289
_cell_volume 732.325900
_symmetry_space_group_name_H-M "P -1"
_symmetry_group_IT_number 2
_symmetry_cell_setting 'triclinic'
loop_
_space_group_symop_operation_xyz
x,y,z
-x,-y,-z
loop_
_atom_site_type_symbol
_atom_site_label
_atom_site_fract_x
_atom_site_fract_y
_atom_site_fract_z
Si Si1 0.805165 0.305119 0.308718
Si Si2 0.319852 0.020325 0.659955
Si Si3 0.373476 0.345977 0.910049
Si Si4 0.068984 0.157105 0.610206
Si Si5 0.844277 0.498149 0.098342
Si Si6 0.632486 0.361446 0.656676
Si Si7 0.385460 0.494765 0.646277
Si Si8 0.690710 0.281305 0.799682
O O1 0.731137 0.284524 0.253099
O O2 0.835797 0.396465 0.502583
O O3 0.680745 0.077062 0.438056
O O4 0.000000 0.500000 0.000000
O O5 0.417621 0.138621 0.790000
O O6 0.473413 0.257595 0.421366
O O7 0.088259 0.777083 0.892016
O O8 0.356892 0.411497 0.848682
O O9 0.484842 0.412960 0.638962
O O10 0.500000 0.500000 0.000000
O O11 0.140810 0.043840 0.140350
O O12 0.228145 0.398955 0.369280
O O13 0.183744 0.272564 0.702865
O O14 0.000000 0.000000 0.500000
O O15 0.754232 0.466844 0.338703
O O16 0.799808 0.444107 0.909271
O O17 0.614575 0.267819 0.785771
O O18 0.500000 0.000000 0.000000
#
# Coordination Sequence:
#
# PCOD9104565 Si02
#       8
#     2   2   2   2   2   2   2   2
#     4   9  20  38  61  88 129 166 202 256 313 365
#     4  10  20  39  61  89 121 161 206 252 306 371
#     4  11  22  41  64  87 120 163 205 258 313 372
#     4  11  22  43  64  91 126 166 208 260 319 379
#     4  10  21  40  63  89 125 170 208 254 313 370
#     4  10  23  42  61  89 129 165 205 261 316 368
#     4  10  23  41  62  91 123 162 207 259 314 370
#     4  11  22  39  64  96 126 167 214 257 312 379
#
# _framework density 21.848196999999999
#
# number of rings (size 3 to 8) (size 9 to 14) (size 15 to 20)
#    0.000    1.750    1.250    2.625    0.000    5.000 
#    9.000    7.500    0.000    0.000    0.000    0.000 
#    0.000    0.000    0.000    0.000    0.000    0.000 
#
# Total GULP energy -89332.817762 kJ/mol
# GULP energy per Si atom -5583.301110 kJ/mol
# Density = 2.179847 g / cm^3
# Si number density = 21.848197 Si / 1000 Ang^3
#
#
#
# Elastic Constant Matrix: (Units=GPa)
#
#
# Indices 1 2 3 4 5 6 
#
# 1 87.7189 42.1287 8.9560 -11.1396 26.3597 4.3251
# 2 42.1287 111.3307 23.0346 -24.2018 18.8083 16.6575
# 3 8.9560 23.0346 56.8284 3.6708 6.1305 19.7147
# 4 -11.1396 -24.2018 3.6708 25.8901 3.1390 -7.7266
# 5 26.3597 18.8083 6.1305 3.1390 36.1899 -10.2638
# 6 4.3251 16.6575 19.7147 -7.7266 -10.2638 45.7030
#
#
#
# Elastic Compliance Matrix: (Units=1/GPa)
#
#
# Indices 1 2 3 4 5 6 
#
# 1 0.017300 -0.003011 0.000364 0.005303 -0.012283 -0.002559
# 2 -0.003011 0.015937 -0.005334 0.014515 -0.007116 -0.002367
# 3 0.000364 -0.005334 0.024917 -0.011354 -0.004038 -0.011665
# 4 0.005303 0.014515 -0.011354 0.059518 -0.012864 0.006279
# 5 -0.012283 -0.007116 -0.004038 -0.012864 0.045945 0.013641
# 6 -0.002559 -0.002367 -0.011665 0.006279 0.013641 0.032142
#
#
# Mechanical properties :
#
#
# Convention : Reuss Voigt Hill
#
# Bulk Modulus (GPa) = 23.70096 44.90183 34.30140
# Shear Modulus (GPa) = 22.14495 33.67386 27.90941
#
# Velocity S-wave (km/s) = 3.18713 3.93015 3.57798
# Velocity P-wave (km/s) = 4.94119 6.41803 5.72741
#
# Compressibility (1/GPa) = 0.04219238
#
# Stress axis : x y z
#
# Youngs Moduli (GPa) = 57.80484 62.74712 40.13275
#
# Poissons Ratio (x) = 0.18893 -0.01462
# Poissons Ratio (y) = 0.17405 0.21407
# Poissons Ratio (z) = -0.02106 0.33470
#
# Static dielectric constant tensor:
#      x y z
#    x 1.817130 -0.027670 0.010530 
#    y -0.027670 1.825240 -0.031790 
#    z 0.010530 -0.031790 1.923870 
# 
# From -- ./inp_files/124792.got.cif
#   From: 2010.05.17/outbox.cif.g08.bks.cpg/sg2_63_cif.got.tgz:124792.got - 2010.06.03 11:33:40.
