data_PCOD9104161
_publ_section_title
;
Structure prediction by ZEFSAII (Michael W. Deem and Ramdas Pophale) SiO2 
 PCOD9104161
Probable space group: P -1
;
_chemical_formula_sum "Si O2"
_cell_formula_units_Z 16
_cell_length_a 8.944841
_cell_length_b 15.676325
_cell_length_c 10.601818
_cell_angle_alpha 100.442189
_cell_angle_beta 90.816196
_cell_angle_gamma 147.862647
_cell_volume 736.655903
_symmetry_space_group_name_H-M "P -1"
_symmetry_group_IT_number 2
_symmetry_cell_setting 'triclinic'
loop_
_space_group_symop_operation_xyz
x,y,z
-x,-y,-z
loop_
_atom_site_type_symbol
_atom_site_label
_atom_site_fract_x
_atom_site_fract_y
_atom_site_fract_z
Si Si1 0.167495 0.905384 0.259776
Si Si2 0.143187 0.610714 0.856408
Si Si3 0.142433 0.938940 0.767745
Si Si4 0.727277 0.430967 0.475848
Si Si5 0.147437 0.167319 0.531225
Si Si6 0.156537 0.701212 0.141969
Si Si7 0.852424 0.246629 0.326368
Si Si8 0.281903 0.135263 0.174762
O O1 0.088440 0.768539 0.178939
O O2 0.964296 0.830900 0.354276
O O3 0.523841 0.081667 0.339360
O O4 0.155768 0.979817 0.180336
O O5 0.120603 0.663714 0.752431
O O6 0.493976 0.765570 0.910470
O O7 0.977563 0.435679 0.798675
O O8 0.044587 0.612064 0.980546
O O9 0.112949 0.823729 0.771234
O O10 0.985660 0.863918 0.609074
O O11 0.973074 0.921184 0.850267
O O12 0.488463 0.130678 0.806398
O O13 0.497713 0.326274 0.561639
O O14 0.507969 0.289056 0.325008
O O15 0.000000 0.500000 0.500000
O O16 0.899790 0.609261 0.526663
O O17 0.000000 0.000000 0.500000
#
# Coordination Sequence:
#
# PCOD9104161 Si02
#       8
#     2   2   2   2   2   2   2   2
#     4  10  20  39  58  89 119 161 191 246 291 356
#     4  10  22  42  61  85 114 163 200 257 291 349
#     4  10  23  38  58  93 119 156 199 242 292 366
#     4  11  19  35  59  90 119 160 193 236 299 358
#     4  11  21  35  60  90 128 153 191 242 295 352
#     4  10  24  40  63  86 115 155 212 245 300 347
#     4  10  22  37  61  85 124 160 201 235 301 355
#     4  10  21  37  62  86 125 151 201 240 299 354
#
# _framework density 21.719774000000001
#
# number of rings (size 3 to 8) (size 9 to 14) (size 15 to 20)
#    0.000    1.750    5.000    0.000    1.750   12.000 
#    0.000    0.000    0.000    3.750    0.000    0.000 
#    0.000    0.000    0.000    0.000    0.000    0.000 
#
# Total GULP energy -89231.731574 kJ/mol
# GULP energy per Si atom -5576.983223 kJ/mol
# Density = 2.167034 g / cm^3
# Si number density = 21.719774 Si / 1000 Ang^3
#
#
#
# Elastic Constant Matrix: (Units=GPa)
#
#
# Indices 1 2 3 4 5 6 
#
# 1 136.4782 60.1519 27.4175 8.7621 -32.6534 -3.3289
# 2 60.1519 104.4927 29.8715 12.2228 -16.9927 -18.7494
# 3 27.4175 29.8715 42.1765 7.8963 -15.3973 -3.5214
# 4 8.7621 12.2228 7.8963 29.4204 7.2749 -4.9735
# 5 -32.6534 -16.9927 -15.3973 7.2749 32.5089 1.9552
# 6 -3.3289 -18.7494 -3.5214 -4.9735 1.9552 37.9705
#
#
#
# Elastic Compliance Matrix: (Units=1/GPa)
#
#
# Indices 1 2 3 4 5 6 
#
# 1 0.012583 -0.005483 0.000491 -0.004854 0.011258 -0.002774
# 2 -0.005483 0.016087 -0.007065 -0.001943 -0.000405 0.006574
# 3 0.000491 -0.007065 0.036502 -0.011582 0.016828 -0.002444
# 4 -0.004854 -0.001943 -0.011582 0.045536 -0.021846 0.004630
# 5 0.011258 -0.000405 0.016828 -0.021846 0.054917 -0.003342
# 6 -0.002774 0.006574 -0.002444 0.004630 -0.003342 0.029891
#
#
# Mechanical properties :
#
#
# Convention : Reuss Voigt Hill
#
# Bulk Modulus (GPa) = 24.35552 57.55880 40.95716
# Shear Modulus (GPa) = 21.43026 31.02708 26.22867
#
# Velocity S-wave (km/s) = 3.14454 3.78367 3.47882
# Velocity P-wave (km/s) = 4.94187 6.75621 5.91897
#
# Compressibility (1/GPa) = 0.04105845
#
# Stress axis : x y z
#
# Youngs Moduli (GPa) = 79.47431 62.16294 27.39578
#
# Poissons Ratio (x) = 0.34082 -0.01345
# Poissons Ratio (y) = 0.43574 0.19354
# Poissons Ratio (z) = -0.03901 0.43916
#
# Static dielectric constant tensor:
#      x y z
#    x 2.013290 -0.051920 -0.042140 
#    y -0.051920 1.798270 0.017160 
#    z -0.042140 0.017160 1.888020 
# 
# From -- ./inp_files/399199.got.cif
#   From: 2010.05.17/outbox.cif.g08.bks.cpg/sg2_200_cif.got.tgz:399199.got - 2010.06.03 11:33:40.
