data_PCOD9104999
_publ_section_title
;
Structure prediction by ZEFSAII (Michael W. Deem and Ramdas Pophale) SiO2 
 PCOD9104999
Probable space group: P -1
;
_chemical_formula_sum "Si O2"
_cell_formula_units_Z 12
_cell_length_a 11.307877
_cell_length_b 7.093621
_cell_length_c 18.927768
_cell_angle_alpha 60.387247
_cell_angle_beta 152.327236
_cell_angle_gamma 126.730377
_cell_volume 562.544037
_symmetry_space_group_name_H-M "P -1"
_symmetry_group_IT_number 2
_symmetry_cell_setting 'triclinic'
loop_
_space_group_symop_operation_xyz
x,y,z
-x,-y,-z
loop_
_atom_site_type_symbol
_atom_site_label
_atom_site_fract_x
_atom_site_fract_y
_atom_site_fract_z
Si Si1 0.225556 0.531129 0.829878
Si Si2 0.634410 0.219336 0.581647
Si Si3 0.220335 0.473214 0.677500
Si Si4 0.329537 0.615860 0.146027
Si Si5 0.212201 0.989564 0.747700
Si Si6 0.353600 0.281804 0.559185
O O1 0.235551 0.589945 0.740077
O O2 0.193509 0.745963 0.816552
O O3 0.960658 0.294923 0.749625
O O4 0.500000 0.500000 0.000000
O O5 0.484402 0.186065 0.583159
O O6 0.622138 0.456486 0.497403
O O7 0.500000 0.000000 0.500000
O O8 0.517423 0.536470 0.783967
O O9 0.000000 0.500000 0.500000
O O10 0.141948 0.196353 0.707575
O O11 0.475069 0.684206 0.285951
O O12 0.468669 0.866313 0.132471
O O13 0.000000 0.500000 0.000000
O O14 0.969051 0.893553 0.577906
#
# Coordination Sequence:
#
# PCOD9104999 Si02
#       6
#     2   2   2   2   2   2
#     4  11  24  40  63  97 127 168 210 260 330 377
#     4  10  22  38  61  91 122 163 212 257 302 389
#     4  10  22  40  68  91 124 167 220 252 312 387
#     4  10  23  39  63  93 127 162 206 271 322 358
#     4   9  22  41  64  89 126 168 210 261 314 379
#     4  10  20  39  63  87 121 168 209 250 318 376
#
# _framework density 21.331662000000001
#
# number of rings (size 3 to 8) (size 9 to 14) (size 15 to 20)
#    1.000    1.000    0.000    3.500    4.667    2.000 
#    0.000    0.833    0.000    0.000    0.000    0.000 
#    0.000    0.000    0.000    0.000    0.000    0.000 
#
# Total GULP energy -66815.718099 kJ/mol
# GULP energy per Si atom -5567.976508 kJ/mol
# Density = 2.128311 g / cm^3
# Si number density = 21.331662 Si / 1000 Ang^3
#
#
#
# Elastic Constant Matrix: (Units=GPa)
#
#
# Indices 1 2 3 4 5 6 
#
# 1 91.4054 17.1532 29.6414 10.0783 18.0597 -19.1628
# 2 17.1532 55.2577 19.6890 15.1286 14.0696 -21.0944
# 3 29.6414 19.6890 125.3529 17.1819 44.8659 -4.3582
# 4 10.0783 15.1286 17.1819 35.7148 9.9097 6.3008
# 5 18.0597 14.0696 44.8659 9.9097 36.2826 4.0724
# 6 -19.1628 -21.0944 -4.3582 6.3008 4.0724 26.6989
#
#
#
# Elastic Compliance Matrix: (Units=1/GPa)
#
#
# Indices 1 2 3 4 5 6 
#
# 1 0.018378 0.011369 0.002240 -0.011445 -0.016312 0.027728
# 2 0.011369 0.054328 0.008051 -0.031813 -0.035321 0.065293
# 3 0.002240 0.008051 0.016580 -0.008141 -0.024347 0.016310
# 4 -0.011445 -0.031813 -0.008141 0.052020 0.019496 -0.049928
# 5 -0.016312 -0.035321 -0.024347 0.019496 0.080954 -0.060537
# 6 0.027728 0.065293 0.016310 -0.049928 -0.060537 0.132622
#
#
# Mechanical properties :
#
#
# Convention : Reuss Voigt Hill
#
# Bulk Modulus (GPa) = 7.54118 44.99812 26.26965
# Shear Modulus (GPa) = 14.05423 33.44141 23.74782
#
# Velocity S-wave (km/s) = 2.56958 3.96370 3.34018
# Velocity P-wave (km/s) = 3.51376 6.48754 5.21703
#
# Compressibility (1/GPa) = 0.13260529
#
# Stress axis : x y z
#
# Youngs Moduli (GPa) = 54.41178 18.40682 60.31272
#
# Poissons Ratio (x) = -0.20926 -0.13508
# Poissons Ratio (y) = -0.61859 -0.48559
# Poissons Ratio (z) = -0.12186 -0.14820
#
# Static dielectric constant tensor:
#      x y z
#    x 1.816130 -0.009860 0.019690 
#    y -0.009860 1.861820 -0.018830 
#    z 0.019690 -0.018830 1.758720 
# 
# From -- ./inp_files/469124.got.cif
#   From: 2010.05.17/outbox.cif.g08.bks.cpg/sg2_235_cif.got.tgz:469124.got - 2010.06.03 11:33:40.
