data_PCOD9104618
_publ_section_title
;
Structure prediction by ZEFSAII (Michael W. Deem and Ramdas Pophale) SiO2 
 PCOD9104618
Probable space group: P -1
;
_chemical_formula_sum "Si O2"
_cell_formula_units_Z 16
_cell_length_a 24.087175
_cell_length_b 8.125704
_cell_length_c 9.225450
_cell_angle_alpha 76.504966
_cell_angle_beta 50.037100
_cell_angle_gamma 119.314074
_cell_volume 691.195641
_symmetry_space_group_name_H-M "P -1"
_symmetry_group_IT_number 2
_symmetry_cell_setting 'triclinic'
loop_
_space_group_symop_operation_xyz
x,y,z
-x,-y,-z
loop_
_atom_site_type_symbol
_atom_site_label
_atom_site_fract_x
_atom_site_fract_y
_atom_site_fract_z
Si Si1 0.743757 0.949661 0.759809
Si Si2 0.633776 0.645126 0.720452
Si Si3 0.654255 0.461023 0.171635
Si Si4 0.521937 0.363235 0.681641
Si Si5 0.931558 0.526807 0.538082
Si Si6 0.024169 0.058266 0.776861
Si Si7 0.363094 0.706159 0.066818
Si Si8 0.873392 0.643533 0.862995
O O1 0.752239 0.947322 0.572282
O O2 0.840049 0.276498 0.609721
O O3 0.761903 0.806342 0.838091
O O4 0.585967 0.698717 0.110837
O O5 0.648234 0.656977 0.521265
O O6 0.604247 0.395906 0.876422
O O7 0.500000 0.500000 0.000000
O O8 0.570481 0.413641 0.430100
O O9 0.584762 0.230117 0.197084
O O10 0.737170 0.488673 0.119952
O O11 0.435141 0.019304 0.942092
O O12 0.020800 0.854621 0.242855
O O13 0.849051 0.444143 0.830370
O O14 0.000000 0.500000 0.500000
O O15 0.193604 0.388299 0.404850
O O16 0.934234 0.738872 0.902666
O O17 0.000000 0.000000 0.000000
O O18 0.000000 0.000000 0.500000
#
# Coordination Sequence:
#
# PCOD9104618 Si02
#       8
#     2   2   2   2   2   2   2   2
#     4  10  20  39  61  91 129 164 205 261 323 373
#     4   9  22  38  59  86 127 169 200 255 321 379
#     4  11  21  36  65  92 126 167 208 267 310 382
#     4  11  21  38  61  96 122 165 219 250 322 377
#     4  11  22  41  71  93 123 172 214 268 323 379
#     4  11  24  42  67  95 125 168 217 264 324 379
#     4  11  21  40  64  86 127 168 208 268 316 376
#     4  10  20  41  61  91 126 165 217 259 318 374
#
# _framework density 23.148292999999999
#
# number of rings (size 3 to 8) (size 9 to 14) (size 15 to 20)
#    0.000    1.500    3.750    2.625    3.500    0.000 
#    0.000    1.875    0.000    0.000    0.000    0.000 
#    0.000    0.000    0.000    0.000    0.000    0.000 
#
# Total GULP energy -89247.497860 kJ/mol
# GULP energy per Si atom -5577.968616 kJ/mol
# Density = 2.309561 g / cm^3
# Si number density = 23.148293 Si / 1000 Ang^3
#
#
#
# Elastic Constant Matrix: (Units=GPa)
#
#
# Indices 1 2 3 4 5 6 
#
# 1 109.0582 34.8820 13.4904 10.9634 -0.2770 -0.5873
# 2 34.8820 159.5393 12.4910 18.0833 8.2032 35.4074
# 3 13.4904 12.4910 40.1418 15.9070 -0.3545 6.0370
# 4 10.9634 18.0833 15.9070 28.3535 7.2750 0.3778
# 5 -0.2770 8.2032 -0.3545 7.2750 22.1385 10.4086
# 6 -0.5873 35.4074 6.0370 0.3778 10.4086 48.9325
#
#
#
# Elastic Compliance Matrix: (Units=1/GPa)
#
#
# Indices 1 2 3 4 5 6 
#
# 1 0.010396 -0.002435 -0.002611 -0.001120 0.000351 0.002143
# 2 -0.002435 0.008795 0.001483 -0.005904 0.001939 -0.006943
# 3 -0.002611 0.001483 0.035529 -0.022591 0.011010 -0.007655
# 4 -0.001120 -0.005904 -0.022591 0.057771 -0.022528 0.011392
# 5 0.000351 0.001939 0.011010 -0.022528 0.059167 -0.015169
# 6 0.002143 -0.006943 -0.007655 0.011392 -0.015169 0.029569
#
#
# Mechanical properties :
#
#
# Convention : Reuss Voigt Hill
#
# Bulk Modulus (GPa) = 21.01190 47.82958 34.42074
# Shear Modulus (GPa) = 22.29967 36.40996 29.35481
#
# Velocity S-wave (km/s) = 3.10714 3.97028 3.56493
# Velocity P-wave (km/s) = 4.68713 6.45946 5.64331
#
# Compressibility (1/GPa) = 0.04759207
#
# Stress axis : x y z
#
# Youngs Moduli (GPa) = 96.18675 113.70295 28.14630
#
# Poissons Ratio (x) = 0.27691 0.07350
# Poissons Ratio (y) = 0.23425 -0.04173
# Poissons Ratio (z) = 0.25117 -0.16859
#
# Static dielectric constant tensor:
#      x y z
#    x 1.909500 -0.002430 0.005860 
#    y -0.002430 1.951430 -0.012070 
#    z 0.005860 -0.012070 1.900000 
# 
# From -- ./inp_files/270015.got.cif
#   From: 2010.05.17/outbox.cif.g08.bks.cpg/sg2_136_cif.got.tgz:270015.got - 2010.06.03 11:33:40.
