data_PCOD9104833
_publ_section_title
;
Structure prediction by ZEFSAII (Michael W. Deem and Ramdas Pophale) SiO2 
 PCOD9104833
Probable space group: P -1
;
_chemical_formula_sum "Si O2"
_cell_formula_units_Z 16
_cell_length_a 11.617751
_cell_length_b 16.436247
_cell_length_c 16.289609
_cell_angle_alpha 31.927497
_cell_angle_beta 146.517485
_cell_angle_gamma 147.548659
_cell_volume 802.933896
_symmetry_space_group_name_H-M "P -1"
_symmetry_group_IT_number 2
_symmetry_cell_setting 'triclinic'
loop_
_space_group_symop_operation_xyz
x,y,z
-x,-y,-z
loop_
_atom_site_type_symbol
_atom_site_label
_atom_site_fract_x
_atom_site_fract_y
_atom_site_fract_z
Si Si1 0.392803 0.474742 0.048725
Si Si2 0.646697 0.214895 0.145967
Si Si3 0.615580 0.847981 0.257717
Si Si4 0.606185 0.853452 0.440075
Si Si5 0.414811 0.321111 0.775897
Si Si6 0.749522 0.475073 0.398449
Si Si7 0.107346 0.326508 0.228140
Si Si8 0.108609 0.762987 0.985603
O O1 0.566954 0.445847 0.240264
O O2 0.127799 0.311790 0.036436
O O3 0.500000 0.500000 0.000000
O O4 0.379402 0.647243 0.927585
O O5 0.916854 0.275497 0.228920
O O6 0.577056 0.021826 0.301166
O O7 0.498354 0.206180 0.981455
O O8 0.662691 0.855810 0.374935
O O9 0.670586 0.740298 0.313859
O O10 0.755843 0.040899 0.137482
O O11 0.329625 0.756819 0.163485
O O12 0.373066 0.687104 0.474043
O O13 0.819353 0.821802 0.628722
O O14 0.228913 0.355419 0.686969
O O15 0.648780 0.506402 0.751701
O O16 0.000000 0.500000 0.500000
O O17 0.988049 0.355890 0.051065
#
# Coordination Sequence:
#
# PCOD9104833 Si02
#       8
#     2   2   2   2   2   2   2   2
#     4  11  25  45  65  87 119 176 226 249 298 378
#     4  11  19  37  65  92 117 165 210 251 310 380
#     4  11  22  34  63 105 128 152 205 261 327 363
#     4  11  23  37  63  97 129 157 202 264 323 376
#     4  10  20  39  62  91 126 169 206 251 309 386
#     4  10  24  46  61  83 128 170 212 262 311 362
#     4  11  19  37  65  89 130 163 200 252 333 372
#     4  11  20  40  63  92 132 160 200 269 304 379
#
# _framework density 19.926919999999999
#
# number of rings (size 3 to 8) (size 9 to 14) (size 15 to 20)
#    0.000    1.250    6.250    2.250    1.750    2.000 
#    4.500    1.875    0.000    0.000    0.000    0.000 
#    0.000    0.000    0.000    0.000    0.000    0.000 
#
# Total GULP energy -89158.114577 kJ/mol
# GULP energy per Si atom -5572.382161 kJ/mol
# Density = 1.988157 g / cm^3
# Si number density = 19.926920 Si / 1000 Ang^3
#
#
#
# Elastic Constant Matrix: (Units=GPa)
#
#
# Indices 1 2 3 4 5 6 
#
# 1 130.6786 34.5002 28.3613 2.7395 11.6923 18.7686
# 2 34.5002 60.6399 22.1332 -5.5235 10.2374 7.0606
# 3 28.3613 22.1332 78.5816 -13.5857 24.5890 12.9061
# 4 2.7395 -5.5235 -13.5857 28.8796 6.3500 0.9469
# 5 11.6923 10.2374 24.5890 6.3500 35.0788 6.8584
# 6 18.7686 7.0606 12.9061 0.9469 6.8584 32.4142
#
#
#
# Elastic Compliance Matrix: (Units=1/GPa)
#
#
# Indices 1 2 3 4 5 6 
#
# 1 0.009988 -0.004795 -0.002540 -0.003193 0.001188 -0.003886
# 2 -0.004795 0.021088 -0.002290 0.004225 -0.003666 -0.000253
# 3 -0.002540 -0.002290 0.022309 0.013917 -0.015868 -0.003962
# 4 -0.003193 0.004225 0.013917 0.046286 -0.017876 -0.002182
# 5 0.001188 -0.003666 -0.015868 -0.017876 0.044001 -0.002359
# 6 -0.003886 -0.000253 -0.003962 -0.002182 -0.002359 0.035296
#
#
# Mechanical properties :
#
#
# Convention : Reuss Voigt Hill
#
# Bulk Modulus (GPa) = 29.29450 48.87662 39.08556
# Shear Modulus (GPa) = 23.85536 31.60155 27.72845
#
# Velocity S-wave (km/s) = 3.46373 3.98662 3.73434
# Velocity P-wave (km/s) = 5.54341 6.76550 6.18472
#
# Compressibility (1/GPa) = 0.03413610
#
# Stress axis : x y z
#
# Youngs Moduli (GPa) = 100.11850 47.42111 44.82444
#
# Poissons Ratio (x) = 0.22736 0.11386
# Poissons Ratio (y) = 0.48002 0.10264
# Poissons Ratio (z) = 0.25432 0.10858
#
# Static dielectric constant tensor:
#      x y z
#    x 1.714530 -0.029030 0.002590 
#    y -0.029030 1.766690 -0.012970 
#    z 0.002590 -0.012970 1.783300 
# 
# From -- ./inp_files/570345.got.cif
#   From: 2010.05.17/outbox.cif.g08.bks.cpg/sg2_286_cif.got.tgz:570345.got - 2010.06.03 11:33:40.
