data_PCOD9104271
_publ_section_title
;
Structure prediction by ZEFSAII (Michael W. Deem and Ramdas Pophale) SiO2 
 PCOD9104271
Probable space group: P -1
;
_chemical_formula_sum "Si O2"
_cell_formula_units_Z 16
_cell_length_a 18.996438
_cell_length_b 21.709963
_cell_length_c 5.601859
_cell_angle_alpha 75.766616
_cell_angle_beta 95.879260
_cell_angle_gamma 161.703840
_cell_volume 634.505386
_symmetry_space_group_name_H-M "P -1"
_symmetry_group_IT_number 2
_symmetry_cell_setting 'triclinic'
loop_
_space_group_symop_operation_xyz
x,y,z
-x,-y,-z
loop_
_atom_site_type_symbol
_atom_site_label
_atom_site_fract_x
_atom_site_fract_y
_atom_site_fract_z
Si Si1 0.277704 0.212195 0.393671
Si Si2 0.382140 0.972290 0.749634
Si Si3 0.530486 0.422430 0.774822
Si Si4 0.797169 0.298494 0.297330
Si Si5 0.113379 0.926388 0.583401
Si Si6 0.937732 0.590616 0.609173
Si Si7 0.979960 0.264418 0.923089
Si Si8 0.473471 0.724492 0.958281
O O1 0.418417 0.352189 0.554406
O O2 0.237914 0.101987 0.493469
O O3 0.415670 0.347497 0.061362
O O4 0.000000 0.000000 0.500000
O O5 0.636300 0.208524 0.483317
O O6 0.374046 0.889614 0.771883
O O7 0.267146 0.902210 0.012377
O O8 0.144345 0.788350 0.686037
O O9 0.469746 0.294510 0.884767
O O10 0.827481 0.687756 0.631478
O O11 0.942878 0.374620 0.448621
O O12 0.000000 0.500000 0.000000
O O13 0.102490 0.873610 0.867090
O O14 0.295298 0.053209 0.325880
O O15 0.660486 0.341750 0.847582
O O16 0.920248 0.637296 0.398456
O O17 0.235628 0.503992 0.918532
#
# Coordination Sequence:
#
# PCOD9104271 Si02
#       8
#     2   2   2   2   2   2   2   2
#     4  11  25  48  73 108 146 182 234 290 335 416
#     4   8  19  36  54  78 123 153 214 280 333 390
#     4  10  24  44  71 103 146 179 235 286 342 413
#     4   9  18  36  54  77 117 167 212 271 345 409
#     4  10  24  43  69 100 136 190 219 283 358 407
#     4   9  19  36  59  84 119 163 212 284 326 400
#     4  10  20  39  59  93 124 164 227 282 339 409
#     4   9  21  40  58  92 131 166 218 279 330 404
#
# _framework density 25.216493
#
# number of rings (size 3 to 8) (size 9 to 14) (size 15 to 20)
#    0.750    1.750    0.000    0.375    7.000    3.500 
#   11.250    0.625    0.000    0.000    0.000    0.000 
#    0.000    0.000    0.000    0.000    0.000    0.000 
#
# Total GULP energy -89142.134973 kJ/mol
# GULP energy per Si atom -5571.383436 kJ/mol
# Density = 2.515910 g / cm^3
# Si number density = 25.216493 Si / 1000 Ang^3
#
#
#
# Elastic Constant Matrix: (Units=GPa)
#
#
# Indices 1 2 3 4 5 6 
#
# 1 59.5452 24.8612 34.7574 -5.5933 -18.7811 22.8775
# 2 24.8612 102.1873 59.9027 -11.1369 -11.8124 12.1638
# 3 34.7574 59.9027 150.1401 -21.8272 -24.9284 25.7898
# 4 -5.5933 -11.1369 -21.8272 38.8179 13.6060 -1.8267
# 5 -18.7811 -11.8124 -24.9284 13.6060 31.5544 -19.1792
# 6 22.8775 12.1638 25.7898 -1.8267 -19.1792 35.0645
#
#
#
# Elastic Compliance Matrix: (Units=1/GPa)
#
#
# Indices 1 2 3 4 5 6 
#
# 1 0.025147 -0.003160 -0.001848 -0.001057 0.006392 -0.010510
# 2 -0.003160 0.013220 -0.004601 0.001011 -0.000672 0.000545
# 3 -0.001848 -0.004601 0.010338 0.003512 0.001533 -0.003781
# 4 -0.001057 0.001011 0.003512 0.033871 -0.018534 -0.010617
# 5 0.006392 -0.000672 0.001533 -0.018534 0.061093 0.027385
# 6 -0.010510 0.000545 -0.003781 -0.010617 0.027385 0.052393
#
#
# Mechanical properties :
#
#
# Convention : Reuss Voigt Hill
#
# Bulk Modulus (GPa) = 33.91277 61.21280 47.56278
# Shear Modulus (GPa) = 22.21157 33.91076 28.06117
#
# Velocity S-wave (km/s) = 2.97111 3.67111 3.33950
# Velocity P-wave (km/s) = 5.02472 6.50361 5.81140
#
# Compressibility (1/GPa) = 0.02948742
#
# Stress axis : x y z
#
# Youngs Moduli (GPa) = 39.76639 75.64567 96.72723
#
# Poissons Ratio (x) = 0.23905 0.17872
# Poissons Ratio (y) = 0.12567 0.44503
# Poissons Ratio (z) = 0.07347 0.34804
#
# Static dielectric constant tensor:
#      x y z
#    x 2.187780 -0.124880 -0.145390 
#    y -0.124880 2.047190 0.069430 
#    z -0.145390 0.069430 2.167310 
# 
# From -- ./inp_files/120648.got.cif
#   From: 2010.05.17/outbox.cif.g08.bks.cpg/sg2_61_cif.got.tgz:120648.got - 2010.06.03 11:33:40.
