data_PCOD9104654
_publ_section_title
;
Structure prediction by ZEFSAII (Michael W. Deem and Ramdas Pophale) SiO2 
 PCOD9104654
Probable space group: P -1
;
_chemical_formula_sum "Si O2"
_cell_formula_units_Z 14
_cell_length_a 13.836739
_cell_length_b 8.239140
_cell_length_c 19.586293
_cell_angle_alpha 36.403392
_cell_angle_beta 31.101571
_cell_angle_gamma 44.224204
_cell_volume 681.763424
_symmetry_space_group_name_H-M "P -1"
_symmetry_group_IT_number 2
_symmetry_cell_setting 'triclinic'
loop_
_space_group_symop_operation_xyz
x,y,z
-x,-y,-z
loop_
_atom_site_type_symbol
_atom_site_label
_atom_site_fract_x
_atom_site_fract_y
_atom_site_fract_z
Si Si1 0.275640 0.263274 0.103408
Si Si2 0.776908 0.999666 0.634841
Si Si3 0.935237 0.708831 0.158413
Si Si4 0.766466 0.423360 0.223496
Si Si5 0.370839 0.539480 0.131872
Si Si6 0.150228 0.104447 0.085359
Si Si7 0.401203 0.432206 0.511494
O O1 0.288991 0.055485 0.229346
O O2 0.206705 0.132272 0.120637
O O3 0.116290 0.505618 0.137916
O O4 0.476469 0.383385 0.931057
O O5 0.719781 0.745276 0.709513
O O6 0.682631 0.281788 0.567154
O O7 0.000000 0.000000 0.500000
O O8 0.848232 0.569395 0.191636
O O9 0.774449 0.732086 0.305506
O O10 0.000000 0.000000 0.000000
O O11 0.569319 0.315491 0.400082
O O12 0.928682 0.191612 0.181995
O O13 0.750900 0.664506 0.095063
O O14 0.219828 0.798066 0.125158
O O15 0.500000 0.500000 0.000000
O O16 0.500000 0.500000 0.500000
#
# Coordination Sequence:
#
# PCOD9104654 Si02
#       7
#     2   2   2   2   2   2   2
#     4  10  21  38  61  96 128 168 211 264 319 381
#     4  11  22  39  64  95 129 163 211 272 321 371
#     4  10  21  34  63  97 125 162 219 268 313 379
#     4   9  20  36  63  88 129 178 205 257 324 376
#     4  10  22  35  63  90 121 162 216 258 315 386
#     4  10  20  39  61  95 133 170 215 261 321 382
#     4  10  21  38  62  91 125 164 212 264 319 375
#
# _framework density 20.534981999999999
#
# number of rings (size 3 to 8) (size 9 to 14) (size 15 to 20)
#    0.000    2.000    1.429    2.143    8.000    0.000 
#    0.000    0.714    0.000   18.857    0.000    0.000 
#    0.000    0.000    0.000    0.000    0.000    0.000 
#
# Total GULP energy -78179.842365 kJ/mol
# GULP energy per Si atom -5584.274455 kJ/mol
# Density = 2.048824 g / cm^3
# Si number density = 20.534982 Si / 1000 Ang^3
#
#
#
# Elastic Constant Matrix: (Units=GPa)
#
#
# Indices 1 2 3 4 5 6 
#
# 1 67.0426 12.8836 24.0696 -8.4251 12.8025 -15.1922
# 2 12.8836 100.4747 56.0558 15.7026 -5.7974 -9.5081
# 3 24.0696 56.0558 141.6596 11.5297 -4.9843 -14.0043
# 4 -8.4251 15.7026 11.5297 29.4930 -4.1323 -0.5423
# 5 12.8025 -5.7974 -4.9843 -4.1323 32.1021 -0.3847
# 6 -15.1922 -9.5081 -14.0043 -0.5423 -0.3847 26.9156
#
#
#
# Elastic Compliance Matrix: (Units=1/GPa)
#
#
# Indices 1 2 3 4 5 6 
#
# 1 0.020872 -0.001796 -0.002727 0.007036 -0.008049 0.009754
# 2 -0.001796 0.013843 -0.004490 -0.005851 0.001783 0.001448
# 3 -0.002727 -0.004490 0.009699 -0.001927 0.001557 0.001904
# 4 0.007036 -0.005851 -0.001927 0.039957 0.001002 0.001721
# 5 -0.008049 0.001783 0.001557 0.001002 0.035022 -0.002582
# 6 0.009754 0.001448 0.001904 0.001721 -0.002582 0.044159
#
#
# Mechanical properties :
#
#
# Convention : Reuss Voigt Hill
#
# Bulk Modulus (GPa) = 37.89798 55.02164 46.45981
# Shear Modulus (GPa) = 26.26402 32.11332 29.18867
#
# Velocity S-wave (km/s) = 3.58018 3.95883 3.77425
# Velocity P-wave (km/s) = 5.96537 6.91004 6.45501
#
# Compressibility (1/GPa) = 0.02638663
#
# Stress axis : x y z
#
# Youngs Moduli (GPa) = 47.91170 72.24082 103.09948
#
# Poissons Ratio (x) = 0.12973 0.28119
# Poissons Ratio (y) = 0.08604 0.46296
# Poissons Ratio (z) = 0.13067 0.32439
#
# Static dielectric constant tensor:
#      x y z
#    x 1.770750 0.010760 -0.021340 
#    y 0.010760 1.761820 0.018090 
#    z -0.021340 0.018090 1.753320 
# 
# From -- ./inp_files/157123.got.cif
#   From: 2010.05.17/outbox.cif.g08.bks.cpg/sg2_79_cif.got.tgz:157123.got - 2010.06.03 11:33:40.
