data_PCOD9104828
_publ_section_title
;
Structure prediction by ZEFSAII (Michael W. Deem and Ramdas Pophale) SiO2 
 PCOD9104828
Probable space group: P -1
;
_chemical_formula_sum "Si O2"
_cell_formula_units_Z 16
_cell_length_a 6.969256
_cell_length_b 21.475440
_cell_length_c 8.552798
_cell_angle_alpha 66.126502
_cell_angle_beta 131.906504
_cell_angle_gamma 86.931146
_cell_volume 766.210287
_symmetry_space_group_name_H-M "P -1"
_symmetry_group_IT_number 2
_symmetry_cell_setting 'triclinic'
loop_
_space_group_symop_operation_xyz
x,y,z
-x,-y,-z
loop_
_atom_site_type_symbol
_atom_site_label
_atom_site_fract_x
_atom_site_fract_y
_atom_site_fract_z
Si Si1 0.766274 0.153728 0.007865
Si Si2 0.101244 0.594211 0.112672
Si Si3 0.446237 0.395797 0.056030
Si Si4 0.373209 0.529490 0.666673
Si Si5 0.190067 0.728216 0.869819
Si Si6 0.271454 0.016062 0.586690
Si Si7 0.938350 0.925504 0.039947
Si Si8 0.242540 0.126989 0.713320
O O1 0.699208 0.231348 0.983074
O O2 0.088030 0.088021 0.300721
O O3 0.512977 0.131896 0.934097
O O4 0.814148 0.142694 0.860226
O O5 0.215211 0.570314 0.378206
O O6 0.298553 0.526829 0.165437
O O7 0.110266 0.669970 0.979105
O O8 0.776274 0.608113 0.938268
O O9 0.657660 0.411682 0.270924
O O10 0.587333 0.322611 0.093531
O O11 0.301598 0.468508 0.782841
O O12 0.928953 0.797374 0.563003
O O13 0.355207 0.053306 0.738905
O O14 0.000000 0.000000 0.500000
O O15 0.596778 0.953524 0.773900
O O16 0.957997 0.887225 0.257896
O O17 0.000000 0.000000 0.000000
#
# Coordination Sequence:
#
# PCOD9104828 Si02
#       8
#     2   2   2   2   2   2   2   2
#     4  11  24  42  61  89 124 163 208 255 315 380
#     4  10  20  39  62  92 123 159 206 249 302 358
#     4  10  20  39  62  91 124 162 201 248 310 353
#     4   9  20  36  64  96 121 152 204 258 296 359
#     4  10  26  40  56  87 127 167 206 246 301 381
#     4  11  21  42  67  93 122 153 202 270 318 371
#     4  12  23  40  69  94 116 161 210 264 326 369
#     4  11  24  43  60  88 129 159 205 260 315 377
#
# _framework density 20.881996000000001
#
# number of rings (size 3 to 8) (size 9 to 14) (size 15 to 20)
#    0.000    1.500    2.500    2.250    0.000    5.000 
#    0.000    2.500    0.000    0.000    0.000    0.000 
#    0.000    0.000    0.000    0.000    0.000    0.000 
#
# Total GULP energy -89086.933610 kJ/mol
# GULP energy per Si atom -5567.933351 kJ/mol
# Density = 2.083447 g / cm^3
# Si number density = 20.881996 Si / 1000 Ang^3
#
#
#
# Elastic Constant Matrix: (Units=GPa)
#
#
# Indices 1 2 3 4 5 6 
#
# 1 111.0339 54.7725 0.8198 -1.1351 -9.0825 3.4167
# 2 54.7725 118.7994 15.3811 3.0029 8.8251 -12.5789
# 3 0.8198 15.3811 46.0883 -2.7060 -7.5748 7.4624
# 4 -1.1351 3.0029 -2.7060 17.4262 2.5583 -2.6344
# 5 -9.0825 8.8251 -7.5748 2.5583 32.8693 8.0597
# 6 3.4167 -12.5789 7.4624 -2.6344 8.0597 32.5627
#
#
#
# Elastic Compliance Matrix: (Units=1/GPa)
#
#
# Indices 1 2 3 4 5 6 
#
# 1 0.014592 -0.009190 0.005921 0.000649 0.009985 -0.008857
# 2 -0.009190 0.016028 -0.009156 -0.001221 -0.011820 0.012081
# 3 0.005921 -0.009156 0.029417 0.002299 0.014183 -0.014224
# 4 0.000649 -0.001221 0.002299 0.059444 -0.004799 0.004931
# 5 0.009985 -0.011820 0.014183 -0.004799 0.044998 -0.020390
# 6 -0.008857 0.012081 -0.014224 0.004931 -0.020390 0.045012
#
#
# Mechanical properties :
#
#
# Convention : Reuss Voigt Hill
#
# Bulk Modulus (GPa) = 28.42037 46.42982 37.42509
# Shear Modulus (GPa) = 20.31935 30.23486 25.27710
#
# Velocity S-wave (km/s) = 3.12277 3.80924 3.48296
# Velocity P-wave (km/s) = 5.16157 6.45211 5.84258
#
# Compressibility (1/GPa) = 0.03518603
#
# Stress axis : x y z
#
# Youngs Moduli (GPa) = 68.53074 62.38969 33.99407
#
# Poissons Ratio (x) = 0.57337 -0.20127
# Poissons Ratio (y) = 0.62981 0.31126
# Poissons Ratio (z) = -0.40576 0.57125
#
# Static dielectric constant tensor:
#      x y z
#    x 1.796650 -0.015090 -0.029780 
#    y -0.015090 1.749900 0.018730 
#    z -0.029780 0.018730 1.821890 
# 
# From -- ./inp_files/52318.got.cif
#   From: 2010.05.17/outbox.cif.g08.bks.cpg/sg2_27_cif.got.tgz:52318.got - 2010.06.03 11:33:40.
