data_PCOD9104989
_publ_section_title
;
Structure prediction by ZEFSAII (Michael W. Deem and Ramdas Pophale) SiO2 
 PCOD9104989
Probable space group: P -1
;
_chemical_formula_sum "Si O2"
_cell_formula_units_Z 13
_cell_length_a 20.313121
_cell_length_b 7.433873
_cell_length_c 4.974028
_cell_angle_alpha 90.444677
_cell_angle_beta 94.479220
_cell_angle_gamma 122.231353
_cell_volume 632.331025
_symmetry_space_group_name_H-M "P -1"
_symmetry_group_IT_number 2
_symmetry_cell_setting 'triclinic'
loop_
_space_group_symop_operation_xyz
x,y,z
-x,-y,-z
loop_
_atom_site_type_symbol
_atom_site_label
_atom_site_fract_x
_atom_site_fract_y
_atom_site_fract_z
Si Si1 0.073086 0.734889 0.087448
Si Si2 0.926857 0.020418 0.410322
Si Si3 0.215640 0.682396 0.000388
Si Si4 0.338368 0.355734 0.711227
Si Si5 0.215635 0.445703 0.496694
Si Si6 0.500000 0.500000 0.000000
Si Si7 0.661621 0.861043 0.815387
O O1 0.070984 0.804991 0.389675
O O2 0.150621 0.734064 0.053262
O O3 0.070346 0.901658 0.889714
O O4 0.000000 0.500000 0.000000
O O5 0.849320 0.794405 0.447127
O O6 0.000000 0.000000 0.500000
O O7 0.205893 0.498305 0.191634
O O8 0.298838 0.894515 0.095109
O O9 0.207877 0.604989 0.693116
O O10 0.298835 0.474814 0.583910
O O11 0.430413 0.501713 0.804328
O O12 0.327069 0.181718 0.486669
O O13 0.300143 0.234220 0.976852
O O14 0.570689 0.711732 0.864422
#
# Coordination Sequence:
#
# PCOD9104989 Si02
#       7
#     2   2   2   2   2   1   2
#     4  12  24  42  65  93 125 165 205 251 302 357
#     4  12  24  42  65  93 125 165 205 251 302 357
#     4  12  24  40  61  92 127 161 204 253 303 362
#     4  10  20  39  63  87 115 162 203 250 301 368
#     4  12  24  40  61  92 127 161 204 253 303 362
#     4   8  22  36  70  82 122 148 222 238 314 360
#     4  10  20  39  63  87 115 162 203 250 301 368
#
# _framework density 20.558854
#
# number of rings (size 3 to 8) (size 9 to 14) (size 15 to 20)
#    0.923    0.000    0.000    8.769    0.000    0.000 
#    0.000    1.538    0.000    0.000    0.000    0.000 
#    0.000    0.000    0.000    0.000    0.000    0.000 
#
# Total GULP energy -72382.101764 kJ/mol
# GULP energy per Si atom -5567.853982 kJ/mol
# Density = 2.051206 g / cm^3
# Si number density = 20.558854 Si / 1000 Ang^3
#
#
#
# Elastic Constant Matrix: (Units=GPa)
#
#
# Indices 1 2 3 4 5 6 
#
# 1 80.9567 22.9269 8.4675 12.3006 20.1856 9.1240
# 2 22.9269 55.6798 -10.6413 -2.8454 3.5455 10.1110
# 3 8.4675 -10.6413 51.1087 0.6019 1.4171 2.7430
# 4 12.3006 -2.8454 0.6019 47.7555 -14.9362 2.1948
# 5 20.1856 3.5455 1.4171 -14.9362 27.7026 -4.7162
# 6 9.1240 10.1110 2.7430 2.1948 -4.7162 24.7285
#
#
#
# Elastic Compliance Matrix: (Units=1/GPa)
#
#
# Indices 1 2 3 4 5 6 
#
# 1 0.025159 -0.008677 -0.004584 -0.014816 -0.026502 -0.008966
# 2 -0.008677 0.024043 0.006627 0.005343 0.004602 -0.006961
# 3 -0.004584 0.006627 0.021802 0.002054 0.001931 -0.003250
# 4 -0.014816 0.005343 0.002054 0.033943 0.029265 0.005623
# 5 -0.026502 0.004602 0.001931 0.029265 0.073760 0.019152
# 6 -0.008966 -0.006961 -0.003250 0.005623 0.019152 0.050108
#
#
# Mechanical properties :
#
#
# Convention : Reuss Voigt Hill
#
# Bulk Modulus (GPa) = 17.32068 25.47236 21.39652
# Shear Modulus (GPa) = 19.13298 31.17012 25.15155
#
# Velocity S-wave (km/s) = 3.05396 3.89799 3.50150
# Velocity P-wave (km/s) = 4.56933 5.71629 5.17468
#
# Compressibility (1/GPa) = 0.05773445
#
# Stress axis : x y z
#
# Youngs Moduli (GPa) = 39.74786 41.59178 45.86716
#
# Poissons Ratio (x) = 0.36089 0.21027
# Poissons Ratio (y) = 0.34489 -0.30394
# Poissons Ratio (z) = 0.18222 -0.27561
#
# Static dielectric constant tensor:
#      x y z
#    x 1.721540 -0.004230 0.007700 
#    y -0.004230 1.720920 -0.007050 
#    z 0.007700 -0.007050 1.733270 
# 
# From -- ./inp_files/113780.got.cif
#   From: 2010.05.17/outbox.cif.g08.bks.cpg/sg2_57_cif.got.tgz:113780.got - 2010.06.03 11:33:40.
