data_PCOD9104358
_publ_section_title
;
Structure prediction by ZEFSAII (Michael W. Deem and Ramdas Pophale) SiO2 
 PCOD9104358
Probable space group: P -1
;
_chemical_formula_sum "Si O2"
_cell_formula_units_Z 16
_cell_length_a 9.507029
_cell_length_b 18.802824
_cell_length_c 15.515181
_cell_angle_alpha 146.720307
_cell_angle_beta 144.703742
_cell_angle_gamma 37.929963
_cell_volume 828.317214
_symmetry_space_group_name_H-M "P -1"
_symmetry_group_IT_number 2
_symmetry_cell_setting 'triclinic'
loop_
_space_group_symop_operation_xyz
x,y,z
-x,-y,-z
loop_
_atom_site_type_symbol
_atom_site_label
_atom_site_fract_x
_atom_site_fract_y
_atom_site_fract_z
Si Si1 0.995143 0.138874 0.965414
Si Si2 0.098270 0.841908 0.714469
Si Si3 0.773538 0.577555 0.900176
Si Si4 0.495300 0.764880 0.090153
Si Si5 0.245513 0.921230 0.601078
Si Si6 0.693034 0.828094 0.004531
Si Si7 0.737784 0.918689 0.772165
Si Si8 0.930328 0.301276 0.612204
O O1 0.175306 0.182556 0.033542
O O2 0.130096 0.098626 0.085556
O O3 0.713287 0.243411 0.952405
O O4 0.964651 0.998317 0.771288
O O5 0.400249 0.827030 0.853900
O O6 0.951830 0.843326 0.732445
O O7 0.063555 0.732978 0.519914
O O8 0.839898 0.696820 0.003183
O O9 0.763525 0.458268 0.710326
O O10 0.532760 0.658185 0.922109
O O11 0.000000 0.500000 0.000000
O O12 0.776823 0.735794 0.243261
O O13 0.388213 0.920512 0.155889
O O14 0.496381 0.866457 0.610100
O O15 0.192200 0.800832 0.504808
O O16 0.000000 0.000000 0.500000
O O17 0.297533 0.033687 0.804843
#
# Coordination Sequence:
#
# PCOD9104358 Si02
#       8
#     2   2   2   2   2   2   2   2
#     4  11  21  35  63  91 118 157 200 250 297 351
#     4  11  22  37  62  91 124 154 199 249 306 350
#     4  10  21  42  62  82 120 165 197 235 304 365
#     4  10  20  39  60  88 124 160 200 240 303 358
#     4  12  21  36  60  91 118 148 200 251 294 344
#     4  12  22  40  62  90 119 156 204 245 294 360
#     4  11  21  36  61  92 120 158 195 252 302 351
#     4  11  23  38  59  91 123 158 199 249 296 356
#
# _framework density 19.316272999999999
#
# number of rings (size 3 to 8) (size 9 to 14) (size 15 to 20)
#    0.000    1.000    5.000    4.125    0.000    3.500 
#    0.000    3.750    0.000    3.000    0.000    0.000 
#    0.000    0.000    0.000    0.000    0.000    0.000 
#
# Total GULP energy -89314.878947 kJ/mol
# GULP energy per Si atom -5582.179934 kJ/mol
# Density = 1.927231 g / cm^3
# Si number density = 19.316273 Si / 1000 Ang^3
#
#
#
# Elastic Constant Matrix: (Units=GPa)
#
#
# Indices 1 2 3 4 5 6 
#
# 1 188.8195 45.1109 53.9029 0.3502 -7.0792 -23.4011
# 2 45.1109 55.3769 26.7826 4.2077 -0.8294 -13.5628
# 3 53.9029 26.7826 92.7545 3.1901 -17.4894 -20.6867
# 4 0.3502 4.2077 3.1901 29.8579 -7.6104 4.1725
# 5 -7.0792 -0.8294 -17.4894 -7.6104 33.5719 -0.5842
# 6 -23.4011 -13.5628 -20.6867 4.1725 -0.5842 29.8175
#
#
#
# Elastic Compliance Matrix: (Units=1/GPa)
#
#
# Indices 1 2 3 4 5 6 
#
# 1 0.007292 -0.004279 -0.002538 0.000588 0.000277 0.001939
# 2 -0.004279 0.025219 -0.003915 -0.004763 -0.003294 0.005999
# 3 -0.002538 -0.003915 0.016724 -0.000246 0.008164 0.008025
# 4 0.000588 -0.004763 -0.000246 0.037241 0.008200 -0.006926
# 5 0.000277 -0.003294 0.008164 0.008200 0.035944 0.003940
# 6 0.001939 0.005999 0.008025 -0.006926 0.003940 0.044402
#
#
# Mechanical properties :
#
#
# Convention : Reuss Voigt Hill
#
# Bulk Modulus (GPa) = 36.00655 65.39374 50.70014
# Shear Modulus (GPa) = 25.31106 32.72643 29.01875
#
# Velocity S-wave (km/s) = 3.62380 4.12058 3.88015
# Velocity P-wave (km/s) = 6.01583 7.52108 6.81017
#
# Compressibility (1/GPa) = 0.02777273
#
# Stress axis : x y z
#
# Youngs Moduli (GPa) = 137.12850 39.65300 59.79440
#
# Poissons Ratio (x) = 0.16966 0.15175
# Poissons Ratio (y) = 0.58673 0.23407
# Poissons Ratio (z) = 0.34802 0.15523
#
# Static dielectric constant tensor:
#      x y z
#    x 1.715730 -0.012130 -0.019110 
#    y -0.012130 1.702250 -0.016160 
#    z -0.019110 -0.016160 1.701310 
# 
# From -- ./inp_files/186070.got.cif
#   From: 2010.05.17/outbox.cif.g08.bks.cpg/sg2_94_cif.got.tgz:186070.got - 2010.06.03 11:33:40.
