data_PCOD9104731
_publ_section_title
;
Structure prediction by ZEFSAII (Michael W. Deem and Ramdas Pophale) SiO2 
 PCOD9104731
Probable space group: P -1
;
_chemical_formula_sum "Si O2"
_cell_formula_units_Z 14
_cell_length_a 24.564236
_cell_length_b 6.892145
_cell_length_c 14.549862
_cell_angle_alpha 98.696882
_cell_angle_beta 21.775673
_cell_angle_gamma 113.602560
_cell_volume 637.080583
_symmetry_space_group_name_H-M "P -1"
_symmetry_group_IT_number 2
_symmetry_cell_setting 'triclinic'
loop_
_space_group_symop_operation_xyz
x,y,z
-x,-y,-z
loop_
_atom_site_type_symbol
_atom_site_label
_atom_site_fract_x
_atom_site_fract_y
_atom_site_fract_z
Si Si1 0.912488 0.322547 0.219036
Si Si2 0.149047 0.813720 0.326581
Si Si3 0.728985 0.061169 0.053728
Si Si4 0.279929 0.560436 0.800742
Si Si5 0.467670 0.773178 0.133343
Si Si6 0.980331 0.980037 0.736271
Si Si7 0.340807 0.239376 0.336407
O O1 0.746712 0.318597 0.520225
O O2 0.774275 0.988014 0.417597
O O3 0.000000 0.500000 0.000000
O O4 0.110456 0.467313 0.983924
O O5 0.000000 0.500000 0.500000
O O6 0.031674 0.881263 0.565199
O O7 0.262579 0.985763 0.068352
O O8 0.330720 0.923637 0.120501
O O9 0.739351 0.300757 0.076757
O O10 0.509883 0.785681 0.417876
O O11 0.922938 0.138939 0.803178
O O12 0.216872 0.292004 0.919678
O O13 0.486753 0.237430 0.045042
O O14 0.456790 0.555152 0.191288
O O15 0.164506 0.135632 0.531542
#
# Coordination Sequence:
#
# PCOD9104731 Si02
#       7
#     2   2   2   2   2   2   2
#     4  11  22  39  62  91 121 160 198 248 308 352
#     4  11  22  40  60  91 124 153 201 254 294 358
#     4  11  21  38  60  87 121 161 193 240 304 353
#     4  10  22  38  60  86 122 155 201 244 286 369
#     4  10  21  41  62  88 123 158 200 248 303 356
#     4  10  20  39  62  87 119 157 198 244 299 353
#     4   9  21  40  63  90 119 156 205 250 295 362
#
# _framework density 21.975241
#
# number of rings (size 3 to 8) (size 9 to 14) (size 15 to 20)
#    0.000    1.714    1.429    3.000    0.000    0.571 
#   10.286    1.429    0.000    0.000    0.000    0.000 
#    0.000    0.000    0.000    0.000    0.000    0.000 
#
# Total GULP energy -78153.603841 kJ/mol
# GULP energy per Si atom -5582.400274 kJ/mol
# Density = 2.192522 g / cm^3
# Si number density = 21.975241 Si / 1000 Ang^3
#
#
#
# Elastic Constant Matrix: (Units=GPa)
#
#
# Indices 1 2 3 4 5 6 
#
# 1 65.6753 24.0078 19.2786 -2.7613 6.1195 -6.3257
# 2 24.0078 61.7244 25.6999 -15.0330 -0.8658 2.0112
# 3 19.2786 25.6999 93.7412 7.5513 1.6934 -4.3836
# 4 -2.7613 -15.0330 7.5513 29.6770 -11.0635 -9.1511
# 5 6.1195 -0.8658 1.6934 -11.0635 32.5249 -8.7277
# 6 -6.3257 2.0112 -4.3836 -9.1511 -8.7277 24.3916
#
#
#
# Elastic Compliance Matrix: (Units=1/GPa)
#
#
# Indices 1 2 3 4 5 6 
#
# 1 0.018909 -0.007311 -0.001523 -0.001781 -0.003378 0.003356
# 2 -0.007311 0.027431 -0.007651 0.021582 0.011652 0.006733
# 3 -0.001523 -0.007651 0.013859 -0.010256 -0.004899 -0.002874
# 4 -0.001781 0.021582 -0.010256 0.070907 0.034963 0.035028
# 5 -0.003378 0.011652 -0.004899 0.034963 0.051583 0.028857
# 6 0.003356 0.006733 -0.002874 0.035028 0.028857 0.064263
#
#
# Mechanical properties :
#
#
# Convention : Reuss Voigt Hill
#
# Bulk Modulus (GPa) = 36.72624 39.90148 38.31386
# Shear Modulus (GPa) = 17.30114 27.46235 22.38174
#
# Velocity S-wave (km/s) = 2.80893 3.53894 3.19485
# Velocity P-wave (km/s) = 5.22197 5.90725 5.57515
#
# Compressibility (1/GPa) = 0.02722848
#
# Stress axis : x y z
#
# Youngs Moduli (GPa) = 52.88413 36.45558 72.15691
#
# Poissons Ratio (x) = 0.26654 0.10989
# Poissons Ratio (y) = 0.38665 0.55206
# Poissons Ratio (z) = 0.08054 0.27892
#
# Static dielectric constant tensor:
#      x y z
#    x 1.786390 -0.008900 0.004790 
#    y -0.008900 1.855720 -0.046830 
#    z 0.004790 -0.046830 1.796570 
# 
# From -- ./inp_files/364631.got.cif
#   From: 2010.05.17/outbox.cif.g08.bks.cpg/sg2_183_cif.got.tgz:364631.got - 2010.06.03 11:33:40.
