data_PCOD9104797
_publ_section_title
;
Structure prediction by ZEFSAII (Michael W. Deem and Ramdas Pophale) SiO2 
 PCOD9104797
Probable space group: P -1
;
_chemical_formula_sum "Si O2"
_cell_formula_units_Z 16
_cell_length_a 15.903035
_cell_length_b 23.914219
_cell_length_c 17.521279
_cell_angle_alpha 160.178151
_cell_angle_beta 27.762789
_cell_angle_gamma 161.729265
_cell_volume 706.155428
_symmetry_space_group_name_H-M "P -1"
_symmetry_group_IT_number 2
_symmetry_cell_setting 'triclinic'
loop_
_space_group_symop_operation_xyz
x,y,z
-x,-y,-z
loop_
_atom_site_type_symbol
_atom_site_label
_atom_site_fract_x
_atom_site_fract_y
_atom_site_fract_z
Si Si1 0.171755 0.333883 0.239474
Si Si2 0.272646 0.485155 0.186461
Si Si3 0.455787 0.025742 0.480316
Si Si4 0.980420 0.847733 0.715083
Si Si5 0.791394 0.712319 0.277462
Si Si6 0.331703 0.647114 0.712454
Si Si7 0.871130 0.188535 0.004886
Si Si8 0.105359 0.541517 0.053097
O O1 0.219314 0.470378 0.300214
O O2 0.984915 0.228222 0.329052
O O3 0.476775 0.530585 0.280490
O O4 0.041949 0.076112 0.980202
O O5 0.348513 0.710363 0.375973
O O6 0.500000 0.500000 0.000000
O O7 0.994480 0.250608 0.068181
O O8 0.500000 0.000000 0.500000
O O9 0.365415 0.819329 0.231074
O O10 0.185253 0.947674 0.611790
O O11 0.712676 0.576467 0.552051
O O12 0.897362 0.696636 0.094677
O O13 0.825777 0.601659 0.173539
O O14 0.000000 0.000000 0.500000
O O15 0.135736 0.573578 0.843124
O O16 0.632973 0.899610 0.811955
O O17 0.243938 0.707841 0.790226
O O18 0.000000 0.500000 0.000000
#
# Coordination Sequence:
#
# PCOD9104797 Si02
#       8
#     2   2   2   2   2   2   2   2
#     4  11  23  38  61  95 128 161 212 260 311 383
#     4  12  22  39  65  97 126 161 216 263 306 377
#     4  11  22  43  68  87 126 175 210 256 323 381
#     4  10  20  40  62  87 124 169 202 254 314 377
#     4  11  22  38  64  86 124 165 201 254 325 377
#     4   9  20  41  64  84 125 167 206 250 319 379
#     4  10  20  39  62  90 119 164 207 254 315 374
#     4  10  23  40  61  94 121 160 213 261 308 374
#
# _framework density 22.657900999999999
#
# number of rings (size 3 to 8) (size 9 to 14) (size 15 to 20)
#    0.000    1.500    2.500    3.750    1.750    0.000 
#    6.750    1.875    0.000    0.000    0.000    0.000 
#    0.000    0.000    0.000    0.000    0.000    0.000 
#
# Total GULP energy -89221.838516 kJ/mol
# GULP energy per Si atom -5576.364907 kJ/mol
# Density = 2.260633 g / cm^3
# Si number density = 22.657901 Si / 1000 Ang^3
#
#
#
# Elastic Constant Matrix: (Units=GPa)
#
#
# Indices 1 2 3 4 5 6 
#
# 1 146.6290 18.5869 20.2194 14.9755 -1.0691 8.0677
# 2 18.5869 69.2024 12.2700 11.0471 -2.0457 2.2890
# 3 20.2194 12.2700 113.6932 36.9586 -6.7069 7.6081
# 4 14.9755 11.0471 36.9586 31.1488 -3.4347 5.7211
# 5 -1.0691 -2.0457 -6.7069 -3.4347 26.0130 9.0228
# 6 8.0677 2.2890 7.6081 5.7211 9.0228 33.7989
#
#
#
# Elastic Compliance Matrix: (Units=1/GPa)
#
#
# Indices 1 2 3 4 5 6 
#
# 1 0.007365 -0.001493 -0.000253 -0.002457 0.000227 -0.001245
# 2 -0.001493 0.015632 0.000263 -0.005062 0.000589 -0.000062
# 3 -0.000253 0.000263 0.014409 -0.016710 0.001816 -0.000857
# 4 -0.002457 -0.005062 -0.016710 0.056569 0.004801 -0.006166
# 5 0.000227 0.000589 0.001816 0.004801 0.044144 -0.013100
# 6 -0.001245 -0.000062 -0.000857 -0.006166 -0.013100 0.034622
#
#
# Mechanical properties :
#
#
# Convention : Reuss Voigt Hill
#
# Bulk Modulus (GPa) = 29.03670 47.96412 38.50041
# Shear Modulus (GPa) = 26.71109 36.75537 31.73323
#
# Velocity S-wave (km/s) = 3.43722 4.03201 3.74643
# Velocity P-wave (km/s) = 5.34749 6.54912 5.97857
#
# Compressibility (1/GPa) = 0.03443918
#
# Stress axis : x y z
#
# Youngs Moduli (GPa) = 135.77297 63.97019 69.40229
#
# Poissons Ratio (x) = 0.09552 0.01757
# Poissons Ratio (y) = 0.20273 -0.01824
# Poissons Ratio (z) = 0.03437 -0.01681
#
# Static dielectric constant tensor:
#      x y z
#    x 2.207010 0.023350 0.067750 
#    y 0.023350 1.905780 -0.003430 
#    z 0.067750 -0.003430 1.934100 
# 
# From -- ./inp_files/574425.got.cif
#   From: 2010.05.17/outbox.cif.g08.bks.cpg/sg2_288_cif.got.tgz:574425.got - 2010.06.03 11:33:40.
