data_PCOD9104190
_publ_section_title
;
Structure prediction by ZEFSAII (Michael W. Deem and Ramdas Pophale) SiO2 
 PCOD9104190
Probable space group: P -1
;
_chemical_formula_sum "Si O2"
_cell_formula_units_Z 16
_cell_length_a 9.599047
_cell_length_b 9.065693
_cell_length_c 23.833217
_cell_angle_alpha 63.540082
_cell_angle_beta 131.769878
_cell_angle_gamma 75.701243
_cell_volume 803.562114
_symmetry_space_group_name_H-M "P -1"
_symmetry_group_IT_number 2
_symmetry_cell_setting 'triclinic'
loop_
_space_group_symop_operation_xyz
x,y,z
-x,-y,-z
loop_
_atom_site_type_symbol
_atom_site_label
_atom_site_fract_x
_atom_site_fract_y
_atom_site_fract_z
Si Si1 0.603405 0.594554 0.539051
Si Si2 0.319990 0.657143 0.809518
Si Si3 0.729498 0.086154 0.046044
Si Si4 0.395038 0.424555 0.331829
Si Si5 0.289308 0.007255 0.064981
Si Si6 0.715586 0.865708 0.636898
Si Si7 0.320397 0.974729 0.833032
Si Si8 0.470710 0.517512 0.225645
O O1 0.500000 0.500000 0.500000
O O2 0.459245 0.691148 0.547304
O O3 0.472700 0.851693 0.430040
O O4 0.988567 0.315846 0.692037
O O5 0.267814 0.855184 0.799491
O O6 0.333242 0.677783 0.743262
O O7 0.059572 0.700849 0.745034
O O8 0.659269 0.326869 0.972852
O O9 0.590886 0.147579 0.059612
O O10 0.607129 0.079531 0.958572
O O11 0.099957 0.764600 0.202089
O O12 0.270376 0.327986 0.301823
O O13 0.588766 0.354406 0.342998
O O14 0.446121 0.734152 0.182148
O O15 0.414625 0.089483 0.107354
O O16 0.903681 0.268669 0.918670
O O17 0.500000 0.000000 0.500000
#
# Coordination Sequence:
#
# PCOD9104190 Si02
#       8
#     2   2   2   2   2   2   2   2
#     4  10  20  39  59  82 114 145 192 242 280 319
#     4  11  22  35  58  89 121 143 183 236 286 339
#     4   9  20  33  56  89 113 141 186 233 282 336
#     4   9  20  38  61  84 109 151 188 234 279 337
#     4   9  19  35  58  80 117 152 185 223 286 345
#     4  10  22  37  60  85 107 151 197 232 275 325
#     4  11  21  34  59  86 115 149 186 241 282 332
#     4   9  20  37  55  84 115 150 185 225 281 350
#
# _framework density 19.911342000000001
#
# number of rings (size 3 to 8) (size 9 to 14) (size 15 to 20)
#    0.000    2.250    1.250    1.500   14.000    0.500 
#    0.000    3.750    0.000    1.500    0.000    0.000 
#    0.000    0.000    0.000    0.000    0.000    0.000 
#
# Total GULP energy -89146.805443 kJ/mol
# GULP energy per Si atom -5571.675340 kJ/mol
# Density = 1.986602 g / cm^3
# Si number density = 19.911342 Si / 1000 Ang^3
#
#
#
# Elastic Constant Matrix: (Units=GPa)
#
#
# Indices 1 2 3 4 5 6 
#
# 1 90.3165 45.1796 10.8176 12.1506 -18.3258 -2.4815
# 2 45.1796 82.1990 8.0168 -2.6482 -0.9532 0.0413
# 3 10.8176 8.0168 36.1181 -9.6251 -4.2716 -0.7689
# 4 12.1506 -2.6482 -9.6251 27.2858 3.4897 8.2956
# 5 -18.3258 -0.9532 -4.2716 3.4897 19.3507 6.8907
# 6 -2.4815 0.0413 -0.7689 8.2956 6.8907 15.6973
#
#
#
# Elastic Compliance Matrix: (Units=1/GPa)
#
#
# Indices 1 2 3 4 5 6 
#
# 1 0.027554 -0.014796 -0.007303 -0.020687 0.026259 0.003443
# 2 -0.014796 0.020384 0.001266 0.011491 -0.013997 -0.002259
# 3 -0.007303 0.001266 0.034358 0.018276 0.000815 -0.009491
# 4 -0.020687 0.011491 0.018276 0.064414 -0.016155 -0.029355
# 5 0.026259 -0.013997 0.000815 -0.016155 0.088190 -0.025948
# 6 0.003443 -0.002259 -0.009491 -0.029355 -0.025948 0.090695
#
#
# Mechanical properties :
#
#
# Convention : Reuss Voigt Hill
#
# Bulk Modulus (GPa) = 24.61249 37.40683 31.00966
# Shear Modulus (GPa) = 13.13012 22.10807 17.61909
#
# Velocity S-wave (km/s) = 2.57072 3.33577 2.97792
# Velocity P-wave (km/s) = 4.60428 5.80206 5.23752
#
# Compressibility (1/GPa) = 0.04062978
#
# Stress axis : x y z
#
# Youngs Moduli (GPa) = 36.29191 49.05861 29.10549
#
# Poissons Ratio (x) = 0.72589 0.21255
# Poissons Ratio (y) = 0.53699 -0.03684
# Poissons Ratio (z) = 0.26502 -0.06210
#
# Static dielectric constant tensor:
#      x y z
#    x 1.827610 0.095960 -0.003210 
#    y 0.095960 1.868520 -0.015930 
#    z -0.003210 -0.015930 1.779410 
# 
# From -- ./inp_files/211948.got.cif
#   From: 2010.05.17/outbox.cif.g08.bks.cpg/sg2_106_cif.got.tgz:211948.got - 2010.06.03 11:33:40.
