data_PCOD9104301
_publ_section_title
;
Structure prediction by ZEFSAII (Michael W. Deem and Ramdas Pophale) SiO2 
 PCOD9104301
Probable space group: P -1
;
_chemical_formula_sum "Si O2"
_cell_formula_units_Z 16
_cell_length_a 16.194446
_cell_length_b 7.966029
_cell_length_c 8.386563
_cell_angle_alpha 58.448402
_cell_angle_beta 88.442930
_cell_angle_gamma 57.896261
_cell_volume 732.290621
_symmetry_space_group_name_H-M "P -1"
_symmetry_group_IT_number 2
_symmetry_cell_setting 'triclinic'
loop_
_space_group_symop_operation_xyz
x,y,z
-x,-y,-z
loop_
_atom_site_type_symbol
_atom_site_label
_atom_site_fract_x
_atom_site_fract_y
_atom_site_fract_z
Si Si1 0.713824 0.201465 0.053629
Si Si2 0.993679 0.838489 0.713084
Si Si3 0.626531 0.093741 0.398729
Si Si4 0.833653 0.681452 0.178383
Si Si5 0.855086 0.351911 0.914286
Si Si6 0.797156 0.865619 0.750443
Si Si7 0.571153 0.506785 0.621525
Si Si8 0.256765 0.452166 0.485085
O O1 0.648300 0.222815 0.196671
O O2 0.813459 0.908911 0.170018
O O3 0.760944 0.352972 0.987566
O O4 0.637694 0.298257 0.857362
O O5 0.056534 0.559443 0.772294
O O6 0.879157 0.923090 0.712124
O O7 0.049336 0.824537 0.882553
O O8 0.000000 0.000000 0.500000
O O9 0.509212 0.249373 0.387667
O O10 0.695242 0.058390 0.562795
O O11 0.677189 0.819281 0.467323
O O12 0.786661 0.572993 0.337731
O O13 0.775279 0.820105 0.950473
O O14 0.845890 0.600340 0.800424
O O15 0.836612 0.345357 0.729303
O O16 0.500000 0.500000 0.500000
O O17 0.658627 0.501922 0.526632
#
# Coordination Sequence:
#
# PCOD9104301 Si02
#       8
#     2   2   2   2   2   2   2   2
#     4  10  21  38  60  89 119 156 198 243 301 353
#     4  11  23  40  62  89 117 158 200 240 297 356
#     4  10  20  39  60  83 122 162 196 243 290 348
#     4  10  21  40  61  85 121 152 196 252 290 351
#     4   9  19  38  59  83 118 153 191 239 291 350
#     4  10  21  40  61  86 118 158 199 240 291 352
#     4  11  22  36  59  90 119 155 199 245 294 350
#     4   9  21  39  59  85 118 158 198 240 298 350
#
# _framework density 21.849249
#
# number of rings (size 3 to 8) (size 9 to 14) (size 15 to 20)
#    0.000    2.000    0.000    3.750    0.000    5.000 
#    0.000   25.625    0.000    0.000    0.000    0.000 
#    0.000    0.000    0.000    0.000    0.000    0.000 
#
# Total GULP energy -89200.901772 kJ/mol
# GULP energy per Si atom -5575.056361 kJ/mol
# Density = 2.179952 g / cm^3
# Si number density = 21.849249 Si / 1000 Ang^3
#
#
#
# Elastic Constant Matrix: (Units=GPa)
#
#
# Indices 1 2 3 4 5 6 
#
# 1 116.8327 18.8042 70.5547 10.4024 1.5834 4.3200
# 2 18.8042 83.1525 5.3948 -9.4454 7.7091 -12.0074
# 3 70.5547 5.3948 135.2973 0.5455 -9.8420 -4.5340
# 4 10.4024 -9.4454 0.5455 24.2563 -9.4653 0.6729
# 5 1.5834 7.7091 -9.8420 -9.4653 29.4128 -2.3279
# 6 4.3200 -12.0074 -4.5340 0.6729 -2.3279 27.4727
#
#
#
# Elastic Compliance Matrix: (Units=1/GPa)
#
#
# Indices 1 2 3 4 5 6 
#
# 1 0.015815 -0.004518 -0.008706 -0.010718 -0.006519 -0.006188
# 2 -0.004518 0.014826 0.001981 0.007464 0.000003 0.007335
# 3 -0.008706 0.001981 0.012465 0.006687 0.006644 0.004691
# 4 -0.010718 0.007464 0.006687 0.055961 0.019367 0.006322
# 5 -0.006519 0.000003 0.006644 0.019367 0.043225 0.005311
# 6 -0.006188 0.007335 0.004691 0.006322 0.005311 0.041648
#
#
# Mechanical properties :
#
#
# Convention : Reuss Voigt Hill
#
# Bulk Modulus (GPa) = 48.49450 58.30999 53.40224
# Shear Modulus (GPa) = 23.44110 32.26361 27.85236
#
# Velocity S-wave (km/s) = 3.27900 3.84688 3.57424
# Velocity P-wave (km/s) = 6.04806 6.81738 6.44421
#
# Compressibility (1/GPa) = 0.02062089
#
# Stress axis : x y z
#
# Youngs Moduli (GPa) = 63.23042 67.44849 80.22192
#
# Poissons Ratio (x) = 0.30476 0.69837
# Poissons Ratio (y) = 0.28570 -0.15892
# Poissons Ratio (z) = 0.55045 -0.13361
#
# Static dielectric constant tensor:
#      x y z
#    x 1.737050 0.013250 0.004980 
#    y 0.013250 1.916820 -0.011490 
#    z 0.004980 -0.011490 1.787800 
# 
# From -- ./inp_files/297656.got.cif
#   From: 2010.05.17/outbox.cif.g08.bks.cpg/sg2_149_cif.got.tgz:297656.got - 2010.06.03 11:33:40.
