data_PCOD9104920
_publ_section_title
;
Structure prediction by ZEFSAII (Michael W. Deem and Ramdas Pophale) SiO2 
 PCOD9104920
Probable space group: P -1
;
_chemical_formula_sum "Si O2"
_cell_formula_units_Z 16
_cell_length_a 25.814212
_cell_length_b 23.130100
_cell_length_c 9.915572
_cell_angle_alpha 24.029697
_cell_angle_beta 25.562061
_cell_angle_gamma 16.088408
_cell_volume 652.091414
_symmetry_space_group_name_H-M "P -1"
_symmetry_group_IT_number 2
_symmetry_cell_setting 'triclinic'
loop_
_space_group_symop_operation_xyz
x,y,z
-x,-y,-z
loop_
_atom_site_type_symbol
_atom_site_label
_atom_site_fract_x
_atom_site_fract_y
_atom_site_fract_z
Si Si1 0.199382 0.091261 0.542333
Si Si2 0.515564 0.505205 0.664681
Si Si3 0.378951 0.325312 0.454359
Si Si4 0.124328 0.829950 0.311928
Si Si5 0.086952 0.424774 0.306646
Si Si6 0.441501 0.000346 0.491927
Si Si7 0.254750 0.883037 0.266070
Si Si8 0.996556 0.293771 0.319075
O O1 0.084839 0.294472 0.484832
O O2 0.155632 0.162955 0.336987
O O3 0.423799 0.894262 0.466252
O O4 0.137347 0.986366 0.935797
O O5 0.661751 0.419379 0.620187
O O6 0.375391 0.747735 0.409253
O O7 0.658872 0.312860 0.622133
O O8 0.395912 0.476639 0.053083
O O9 0.384291 0.224475 0.523021
O O10 0.194975 0.468125 0.670414
O O11 0.051514 0.822080 0.364470
O O12 0.966182 0.937417 0.566469
O O13 0.000000 0.500000 0.500000
O O14 0.314471 0.230366 0.218279
O O15 0.982653 0.644655 0.001427
O O16 0.500000 0.000000 0.500000
O O17 0.305205 0.987719 0.860607
#
# Coordination Sequence:
#
# PCOD9104920 Si02
#       8
#     2   2   2   2   2   2   2   2
#     4  10  24  46  69  96 139 176 217 286 338 393
#     4   9  20  37  65  95 131 172 219 279 332 393
#     4   9  22  44  65  96 134 172 225 272 334 405
#     4  11  23  39  67  99 132 175 226 273 337 396
#     4  11  26  47  66 101 134 174 232 278 334 405
#     4  10  23  42  65  95 136 176 219 282 333 387
#     4  10  20  39  62  96 133 174 221 272 340 393
#     4  12  25  42  71  98 134 184 224 269 342 403
#
# _framework density 24.536436999999999
#
# number of rings (size 3 to 8) (size 9 to 14) (size 15 to 20)
#    0.000    1.750    0.000    3.375    3.500    6.000 
#    4.500    0.000    0.000    0.000    0.000    0.000 
#    0.000    0.000    0.000    0.000    0.000    0.000 
#
# Total GULP energy -89586.448433 kJ/mol
# GULP energy per Si atom -5599.153027 kJ/mol
# Density = 2.448059 g / cm^3
# Si number density = 24.536437 Si / 1000 Ang^3
#
#
#
# Elastic Constant Matrix: (Units=GPa)
#
#
# Indices 1 2 3 4 5 6 
#
# 1 130.3905 4.0194 21.1858 -14.9680 13.5792 -1.2989
# 2 4.0194 40.4182 8.7290 2.3765 3.1921 1.4536
# 3 21.1858 8.7290 74.7748 -7.7235 18.0693 -8.6930
# 4 -14.9680 2.3765 -7.7235 36.2933 3.9569 10.7471
# 5 13.5792 3.1921 18.0693 3.9569 39.2030 -5.4291
# 6 -1.2989 1.4536 -8.6930 10.7471 -5.4291 38.9173
#
#
#
# Elastic Compliance Matrix: (Units=1/GPa)
#
#
# Indices 1 2 3 4 5 6 
#
# 1 0.008678 -0.000503 -0.001453 0.004080 -0.002922 -0.001551
# 2 -0.000503 0.025664 -0.003107 -0.002169 -0.000421 -0.001129
# 3 -0.001453 -0.003107 0.016360 0.003283 -0.006859 0.001858
# 4 0.004080 -0.002169 0.003283 0.033668 -0.007448 -0.009386
# 5 -0.002922 -0.000421 -0.006859 -0.007448 0.031130 0.004786
# 6 -0.001551 -0.001129 0.001858 -0.009386 0.004786 0.029361
#
#
# Mechanical properties :
#
#
# Convention : Reuss Voigt Hill
#
# Bulk Modulus (GPa) = 24.64435 34.82799 29.73617
# Shear Modulus (GPa) = 29.67144 36.99269 33.33207
#
# Velocity S-wave (km/s) = 3.48124 3.88708 3.68974
# Velocity P-wave (km/s) = 5.12099 5.86268 5.50434
#
# Compressibility (1/GPa) = 0.04057725
#
# Stress axis : x y z
#
# Youngs Moduli (GPa) = 115.23289 38.96555 61.12332
#
# Poissons Ratio (x) = 0.01959 0.08880
# Poissons Ratio (y) = 0.05792 0.18991
# Poissons Ratio (z) = 0.16740 0.12107
#
# Static dielectric constant tensor:
#      x y z
#    x 1.969100 -0.003570 0.015640 
#    y -0.003570 1.936680 -0.015780 
#    z 0.015640 -0.015780 1.968350 
# 
# From -- ./inp_files/355235.got.cif
#   From: 2010.05.17/outbox.cif.g08.bks.cpg/sg2_178_cif.got.tgz:355235.got - 2010.06.03 11:33:40.
