data_PCOD9104713
_publ_section_title
;
Structure prediction by ZEFSAII (Michael W. Deem and Ramdas Pophale) SiO2 
 PCOD9104713
Probable space group: P -1
;
_chemical_formula_sum "Si O2"
_cell_formula_units_Z 14
_cell_length_a 17.004029
_cell_length_b 22.424188
_cell_length_c 6.185296
_cell_angle_alpha 69.344215
_cell_angle_beta 58.838371
_cell_angle_gamma 19.527843
_cell_volume 594.817211
_symmetry_space_group_name_H-M "P -1"
_symmetry_group_IT_number 2
_symmetry_cell_setting 'triclinic'
loop_
_space_group_symop_operation_xyz
x,y,z
-x,-y,-z
loop_
_atom_site_type_symbol
_atom_site_label
_atom_site_fract_x
_atom_site_fract_y
_atom_site_fract_z
Si Si1 0.603919 0.496558 0.247167
Si Si2 0.738333 0.194036 0.337239
Si Si3 0.714588 0.745405 0.689225
Si Si4 0.993780 0.555754 0.129386
Si Si5 0.113275 0.826451 0.224132
Si Si6 0.120310 0.147754 0.255102
Si Si7 0.136714 0.559327 0.573070
O O1 0.500000 0.500000 0.500000
O O2 0.438708 0.662060 0.394784
O O3 0.454321 0.594593 0.101736
O O4 0.937308 0.277880 0.124769
O O5 0.486314 0.333403 0.354676
O O6 0.889999 0.154042 0.050358
O O7 0.956704 0.992810 0.329066
O O8 0.780384 0.627731 0.797430
O O9 0.704909 0.754916 0.430645
O O10 0.976438 0.620952 0.546459
O O11 0.449342 0.937616 0.976003
O O12 0.076122 0.565614 0.882261
O O13 0.000000 0.500000 0.000000
O O14 0.950505 0.872645 0.498825
O O15 0.009611 0.275432 0.410687
#
# Coordination Sequence:
#
# PCOD9104713 Si02
#       7
#     2   2   2   2   2   2   2
#     4   9  20  37  56  84 120 154 197 248 297 350
#     4  10  21  38  63  88 116 161 205 249 298 350
#     4  10  20  39  62  86 120 161 196 243 304 357
#     4   9  20  39  60  84 117 155 203 248 290 355
#     4  10  21  40  61  86 119 158 206 251 297 351
#     4  10  21  37  60  90 125 161 199 247 303 366
#     4  10  21  36  57  90 125 157 198 246 299 361
#
# _framework density 23.536639999999998
#
# number of rings (size 3 to 8) (size 9 to 14) (size 15 to 20)
#    0.000    2.286    0.000    1.714    0.000    8.000 
#    0.000   31.429    0.000    0.000    0.000    0.000 
#    0.000    0.000    0.000    0.000    0.000    0.000 
#
# Total GULP energy -78047.318786 kJ/mol
# GULP energy per Si atom -5574.808485 kJ/mol
# Density = 2.348307 g / cm^3
# Si number density = 23.536640 Si / 1000 Ang^3
#
#
#
# Elastic Constant Matrix: (Units=GPa)
#
#
# Indices 1 2 3 4 5 6 
#
# 1 89.3851 37.7750 26.7764 -1.5262 -1.6679 9.7187
# 2 37.7750 87.6298 18.5200 -1.8938 -12.4549 16.6797
# 3 26.7764 18.5200 93.1176 -11.2274 -8.7147 8.4664
# 4 -1.5262 -1.8938 -11.2274 38.9590 9.6997 -12.5504
# 5 -1.6679 -12.4549 -8.7147 9.6997 21.6712 -0.9393
# 6 9.7187 16.6797 8.4664 -12.5504 -0.9393 31.5516
#
#
#
# Elastic Compliance Matrix: (Units=1/GPa)
#
#
# Indices 1 2 3 4 5 6 
#
# 1 0.014743 -0.006091 -0.003323 0.000101 -0.003769 -0.000502
# 2 -0.006091 0.017308 -0.000458 -0.005186 0.011231 -0.008879
# 3 -0.003323 -0.000458 0.012477 0.002232 0.003452 -0.001092
# 4 0.000101 -0.005186 0.002232 0.035408 -0.017244 0.015683
# 5 -0.003769 0.011231 0.003452 -0.017244 0.060949 -0.010747
# 6 -0.000502 -0.008879 -0.001092 0.015683 -0.010747 0.042754
#
#
# Mechanical properties :
#
#
# Convention : Reuss Voigt Hill
#
# Bulk Modulus (GPa) = 40.34701 48.47504 44.41103
# Shear Modulus (GPa) = 23.62441 30.90712 27.26576
#
# Velocity S-wave (km/s) = 3.17161 3.62767 3.40728
# Velocity P-wave (km/s) = 5.53096 6.17956 5.86423
#
# Compressibility (1/GPa) = 0.02478498
#
# Stress axis : x y z
#
# Youngs Moduli (GPa) = 67.82830 57.77527 80.14630
#
# Poissons Ratio (x) = 0.35192 0.26633
# Poissons Ratio (y) = 0.41315 0.03669
# Poissons Ratio (z) = 0.22539 0.02645
#
# Static dielectric constant tensor:
#      x y z
#    x 1.931730 -0.056410 0.026920 
#    y -0.056410 1.937050 -0.035300 
#    z 0.026920 -0.035300 1.911760 
# 
# From -- ./inp_files/112653.got.cif
#   From: 2010.05.17/outbox.cif.g08.bks.cpg/sg2_57_cif.got.tgz:112653.got - 2010.06.03 11:33:40.
