data_PCOD9104114
_publ_section_title
;
Structure prediction by ZEFSAII (Michael W. Deem and Ramdas Pophale) SiO2 
 PCOD9104114
Probable space group: P -1
;
_chemical_formula_sum "Si O2"
_cell_formula_units_Z 14
_cell_length_a 7.846831
_cell_length_b 14.999064
_cell_length_c 11.412463
_cell_angle_alpha 131.942332
_cell_angle_beta 86.324693
_cell_angle_gamma 58.073286
_cell_volume 635.962275
_symmetry_space_group_name_H-M "P -1"
_symmetry_group_IT_number 2
_symmetry_cell_setting 'triclinic'
loop_
_space_group_symop_operation_xyz
x,y,z
-x,-y,-z
loop_
_atom_site_type_symbol
_atom_site_label
_atom_site_fract_x
_atom_site_fract_y
_atom_site_fract_z
Si Si1 0.074742 0.680829 0.241326
Si Si2 0.286576 0.391464 0.348220
Si Si3 0.128047 0.416449 0.129688
Si Si4 0.287508 0.954420 0.265367
Si Si5 0.676996 0.345222 0.004292
Si Si6 0.818476 0.389700 0.263587
Si Si7 0.828881 0.978291 0.941715
O O1 0.022454 0.569940 0.176406
O O2 0.111937 0.691207 0.112428
O O3 0.375543 0.543080 0.155742
O O4 0.864114 0.879563 0.490584
O O5 0.241027 0.435412 0.251088
O O6 0.360124 0.458654 0.491971
O O7 0.000000 0.500000 0.500000
O O8 0.521224 0.169052 0.153503
O O9 0.912271 0.446966 0.225159
O O10 0.390466 0.201705 0.888363
O O11 0.265594 0.824171 0.178193
O O12 0.165352 0.038701 0.214359
O O13 0.706224 0.352772 0.147245
O O14 0.062580 0.196384 0.150978
O O15 0.000000 0.000000 0.000000
#
# Coordination Sequence:
#
# PCOD9104114 Si02
#       7
#     2   2   2   2   2   2   2
#     4  10  21  39  59  77 113 153 191 232 288 330
#     4   9  21  38  57  84 120 155 183 223 292 351
#     4   9  21  38  56  85 110 151 189 227 281 351
#     4  10  20  39  58  79 115 149 186 231 289 337
#     4  10  22  37  57  86 108 148 196 236 278 338
#     4  11  22  37  59  84 121 143 190 241 279 337
#     4  11  22  35  57  90 117 146 190 234 289 339
#
# _framework density 22.013884999999998
#
# number of rings (size 3 to 8) (size 9 to 14) (size 15 to 20)
#    0.000    2.000    1.429    1.286    2.000    8.571 
#    0.000    0.714    0.000    0.000    0.000    0.000 
#    0.000    0.000    0.000    0.000    0.000    0.000 
#
# Total GULP energy -78187.687879 kJ/mol
# GULP energy per Si atom -5584.834849 kJ/mol
# Density = 2.196378 g / cm^3
# Si number density = 22.013885 Si / 1000 Ang^3
#
#
#
# Elastic Constant Matrix: (Units=GPa)
#
#
# Indices 1 2 3 4 5 6 
#
# 1 44.9767 -6.5903 0.8049 -2.0340 0.8701 10.7973
# 2 -6.5903 51.3303 28.6325 -1.5626 3.1014 2.1916
# 3 0.8049 28.6325 144.1039 -12.8978 10.1611 -5.1861
# 4 -2.0340 -1.5626 -12.8978 23.8001 0.6111 6.6057
# 5 0.8701 3.1014 10.1611 0.6111 26.7405 -7.0261
# 6 10.7973 2.1916 -5.1861 6.6057 -7.0261 30.3537
#
#
#
# Elastic Compliance Matrix: (Units=1/GPa)
#
#
# Indices 1 2 3 4 5 6 
#
# 1 0.026156 0.004698 -0.000698 0.005611 -0.004413 -0.012005
# 2 0.004698 0.022985 -0.004521 0.000867 -0.002394 -0.004846
# 3 -0.000698 -0.004521 0.008414 0.004129 -0.002610 0.000510
# 4 0.005611 0.000867 0.004129 0.048691 -0.006500 -0.013454
# 5 -0.004413 -0.002394 -0.002610 -0.006500 0.042240 0.012488
# 6 -0.012005 -0.004846 0.000510 -0.013454 0.012488 0.043471
#
#
# Mechanical properties :
#
#
# Convention : Reuss Voigt Hill
#
# Bulk Modulus (GPa) = 17.69585 31.78945 24.74265
# Shear Modulus (GPa) = 23.60320 30.68312 27.14316
#
# Velocity S-wave (km/s) = 3.27799 3.73742 3.51522
# Velocity P-wave (km/s) = 4.73106 5.75295 5.26685
#
# Compressibility (1/GPa) = 0.05651042
#
# Stress axis : x y z
#
# Youngs Moduli (GPa) = 38.23270 43.50730 118.85524
#
# Poissons Ratio (x) = -0.20438 0.08298
# Poissons Ratio (y) = -0.17960 0.53736
# Poissons Ratio (z) = 0.02669 0.19670
#
# Static dielectric constant tensor:
#      x y z
#    x 1.917640 0.024190 0.028930 
#    y 0.024190 1.808320 -0.021320 
#    z 0.028930 -0.021320 1.773860 
# 
# From -- ./inp_files/34636.got.cif
#   From: 2010.05.17/outbox.cif.g08.bks.cpg/sg2_18_cif.got.tgz:34636.got - 2010.06.03 11:33:40.
