data_PCOD9104728
_publ_section_title
;
Structure prediction by ZEFSAII (Michael W. Deem and Ramdas Pophale) SiO2 
 PCOD9104728
Probable space group: P -1
;
_chemical_formula_sum "Si O2"
_cell_formula_units_Z 14
_cell_length_a 8.625567
_cell_length_b 12.510902
_cell_length_c 9.035096
_cell_angle_alpha 75.043025
_cell_angle_beta 73.325415
_cell_angle_gamma 122.010547
_cell_volume 683.595973
_symmetry_space_group_name_H-M "P -1"
_symmetry_group_IT_number 2
_symmetry_cell_setting 'triclinic'
loop_
_space_group_symop_operation_xyz
x,y,z
-x,-y,-z
loop_
_atom_site_type_symbol
_atom_site_label
_atom_site_fract_x
_atom_site_fract_y
_atom_site_fract_z
Si Si1 0.253607 0.755755 0.597434
Si Si2 0.294936 0.024588 0.458873
Si Si3 0.621997 0.408973 0.518002
Si Si4 0.227625 0.315159 0.493372
Si Si5 0.391627 0.311794 0.927964
Si Si6 0.056349 0.019648 0.261722
Si Si7 0.212211 0.418956 0.138541
O O1 0.461331 0.846340 0.612518
O O2 0.278532 0.665489 0.510848
O O3 0.027980 0.644730 0.781437
O O4 0.266115 0.883361 0.475024
O O5 0.208715 0.071051 0.344502
O O6 0.133773 0.977779 0.656122
O O7 0.463488 0.372085 0.442036
O O8 0.790771 0.580707 0.444078
O O9 0.474302 0.347033 0.726341
O O10 0.212698 0.341356 0.315378
O O11 0.061851 0.150195 0.654481
O O12 0.606915 0.408922 0.936017
O O13 0.219004 0.137866 0.054993
O O14 0.278564 0.372872 0.998547
#
# Coordination Sequence:
#
# PCOD9104728 Si02
#       7
#     2   2   2   2   2   2   2
#     4  11  20  38  62  92 118 154 203 252 286 352
#     4  10  21  34  65  92 113 158 210 237 287 362
#     4  10  23  38  62  90 123 149 205 247 298 342
#     4  10  20  39  62  87 112 170 202 229 280 385
#     4  10  22  36  61  93 119 157 196 247 299 352
#     4  11  18  39  63  88 114 161 200 242 280 373
#     4  10  20  40  65  83 120 160 209 233 289 361
#
# _framework density 20.479932999999999
#
# number of rings (size 3 to 8) (size 9 to 14) (size 15 to 20)
#    0.000    1.714    4.286    0.857    0.000    2.857 
#    0.000    1.429    3.143    0.000    0.000    0.000 
#    0.000    0.000    0.000    0.000    0.000    0.000 
#
# Total GULP energy -78094.088384 kJ/mol
# GULP energy per Si atom -5578.149170 kJ/mol
# Density = 2.043332 g / cm^3
# Si number density = 20.479933 Si / 1000 Ang^3
#
#
#
# Elastic Constant Matrix: (Units=GPa)
#
#
# Indices 1 2 3 4 5 6 
#
# 1 96.9953 35.5919 27.2401 4.2046 -31.8221 1.1495
# 2 35.5919 131.1823 47.4169 -20.7103 -19.3062 -23.1092
# 3 27.2401 47.4169 68.2884 -13.9293 -26.4294 1.9214
# 4 4.2046 -20.7103 -13.9293 34.0225 0.8565 -4.6547
# 5 -31.8221 -19.3062 -26.4294 0.8565 26.6099 -3.9010
# 6 1.1495 -23.1092 1.9214 -4.6547 -3.9010 31.8674
#
#
#
# Elastic Compliance Matrix: (Units=1/GPa)
#
#
# Indices 1 2 3 4 5 6 
#
# 1 0.018243 -0.003672 0.003058 -0.003983 0.022116 -0.001380
# 2 -0.003672 0.014892 -0.007222 0.008276 0.000832 0.012678
# 3 0.003058 -0.007222 0.030948 0.006805 0.028537 -0.002727
# 4 -0.003983 0.008276 0.006805 0.039204 0.008571 0.012510
# 5 0.022116 0.000832 0.028537 0.008571 0.094293 0.010880
# 6 -0.001380 0.012678 -0.002727 0.012510 0.010880 0.043947
#
#
# Mechanical properties :
#
#
# Convention : Reuss Voigt Hill
#
# Bulk Modulus (GPa) = 20.65665 57.44044 39.04854
# Shear Modulus (GPa) = 18.29242 30.91442 24.60342
#
# Velocity S-wave (km/s) = 2.99187 3.88944 3.46980
# Velocity P-wave (km/s) = 4.69502 6.94827 5.92965
#
# Compressibility (1/GPa) = 0.04841057
#
# Stress axis : x y z
#
# Youngs Moduli (GPa) = 54.81506 67.14888 32.31238
#
# Poissons Ratio (x) = 0.24660 -0.09883
# Poissons Ratio (y) = 0.20130 0.23338
# Poissons Ratio (z) = -0.16765 0.48498
#
# Static dielectric constant tensor:
#      x y z
#    x 1.746310 0.019140 0.020720 
#    y 0.019140 1.804380 -0.020000 
#    z 0.020720 -0.020000 1.742560 
# 
# From -- ./inp_files/177588.got.cif
#   From: 2010.05.17/outbox.cif.g08.bks.cpg/sg2_89_cif.got.tgz:177588.got - 2010.06.03 11:33:40.
