data_PCOD9104651
_publ_section_title
;
Structure prediction by ZEFSAII (Michael W. Deem and Ramdas Pophale) SiO2 
 PCOD9104651
Probable space group: P -1
;
_chemical_formula_sum "Si O2"
_cell_formula_units_Z 16
_cell_length_a 11.332271
_cell_length_b 8.624935
_cell_length_c 12.965853
_cell_angle_alpha 97.836320
_cell_angle_beta 139.210277
_cell_angle_gamma 66.872086
_cell_volume 733.497512
_symmetry_space_group_name_H-M "P -1"
_symmetry_group_IT_number 2
_symmetry_cell_setting 'triclinic'
loop_
_space_group_symop_operation_xyz
x,y,z
-x,-y,-z
loop_
_atom_site_type_symbol
_atom_site_label
_atom_site_fract_x
_atom_site_fract_y
_atom_site_fract_z
Si Si1 0.485158 0.154751 0.282193
Si Si2 0.163757 0.122253 0.171646
Si Si3 0.902499 0.999805 0.100405
Si Si4 0.536245 0.852390 0.127437
Si Si5 0.189319 0.512412 0.008306
Si Si6 0.432073 0.491249 0.838310
Si Si7 0.849623 0.195083 0.454556
Si Si8 0.898298 0.717845 0.215090
O O1 0.383459 0.117638 0.312508
O O2 0.685392 0.180773 0.421462
O O3 0.534064 0.000832 0.216035
O O4 0.308460 0.334154 0.134985
O O5 0.992560 0.317984 0.051408
O O6 0.167362 0.008261 0.063658
O O7 0.077116 0.060751 0.206899
O O8 0.964949 0.814214 0.179447
O O9 0.695747 0.115746 0.035710
O O10 0.641185 0.658675 0.229688
O O11 0.666280 0.832004 0.109107
O O12 0.097861 0.456520 0.844096
O O13 0.366118 0.563091 0.099964
O O14 0.272819 0.678763 0.708195
O O15 0.500000 0.500000 0.000000
O O16 0.969136 0.285100 0.600282
O O17 0.000000 0.000000 0.500000
#
# Coordination Sequence:
#
# PCOD9104651 Si02
#       8
#     2   2   2   2   2   2   2   2
#     4  10  22  40  64  89 122 176 209 262 314 381
#     4  10  20  39  61  95 123 165 226 261 303 368
#     4  10  22  35  65  95 124 166 216 269 308 372
#     4  11  20  38  62  95 125 156 215 265 317 378
#     4  11  21  36  63  94 127 164 215 265 312 379
#     4  11  24  39  65  97 127 165 214 264 314 378
#     4  11  26  43  61  94 137 169 206 260 326 386
#     4  12  23  38  61  94 130 166 206 260 334 363
#
# _framework density 21.813298
#
# number of rings (size 3 to 8) (size 9 to 14) (size 15 to 20)
#    0.000    1.250    6.250    0.750    1.750    0.500 
#    0.000    1.250    0.000    0.000    0.000    0.000 
#    0.000    0.000    0.000    0.000    0.000    0.000 
#
# Total GULP energy -89252.375684 kJ/mol
# GULP energy per Si atom -5578.273480 kJ/mol
# Density = 2.176365 g / cm^3
# Si number density = 21.813298 Si / 1000 Ang^3
#
#
#
# Elastic Constant Matrix: (Units=GPa)
#
#
# Indices 1 2 3 4 5 6 
#
# 1 141.3261 27.0027 27.3294 -3.3942 28.1461 14.3372
# 2 27.0027 78.9433 9.9694 -6.5620 10.9293 14.3934
# 3 27.3294 9.9694 64.6059 4.3272 11.2653 3.0449
# 4 -3.3942 -6.5620 4.3272 26.0628 2.9909 3.0393
# 5 28.1461 10.9293 11.2653 2.9909 30.1348 -3.0826
# 6 14.3372 14.3934 3.0449 3.0393 -3.0826 30.6941
#
#
#
# Elastic Compliance Matrix: (Units=1/GPa)
#
#
# Indices 1 2 3 4 5 6 
#
# 1 0.010148 -0.000611 -0.002560 0.003282 -0.009182 -0.005447
# 2 -0.000611 0.015851 -0.001109 0.005764 -0.006178 -0.008229
# 3 -0.002560 -0.001109 0.017549 -0.003121 -0.003463 -0.000064
# 4 0.003282 0.005764 -0.003121 0.042879 -0.009175 -0.009094
# 5 -0.009182 -0.006178 -0.003463 -0.009175 0.047558 0.013214
# 6 -0.005447 -0.008229 -0.000064 -0.009094 0.013214 0.041216
#
#
# Mechanical properties :
#
#
# Convention : Reuss Voigt Hill
#
# Bulk Modulus (GPa) = 28.58124 45.94204 37.26164
# Shear Modulus (GPa) = 25.58548 32.08326 28.83437
#
# Velocity S-wave (km/s) = 3.42852 3.83928 3.63970
# Velocity P-wave (km/s) = 5.36695 6.38440 5.89766
#
# Compressibility (1/GPa) = 0.03498799
#
# Stress axis : x y z
#
# Youngs Moduli (GPa) = 98.54394 63.08755 56.98451
#
# Poissons Ratio (x) = 0.03852 0.14591
# Poissons Ratio (y) = 0.06017 0.06318
# Poissons Ratio (z) = 0.25232 0.06995
#
# Static dielectric constant tensor:
#      x y z
#    x 1.859410 0.063900 0.007960 
#    y 0.063900 1.831150 -0.020020 
#    z 0.007960 -0.020020 1.804910 
# 
# From -- ./inp_files/306751.got.cif
#   From: 2010.05.17/outbox.cif.g08.bks.cpg/sg2_154_cif.got.tgz:306751.got - 2010.06.03 11:33:40.
