data_PCOD9104182
_publ_section_title
;
Structure prediction by ZEFSAII (Michael W. Deem and Ramdas Pophale) SiO2 
 PCOD9104182
Probable space group: P -1
;
_chemical_formula_sum "Si O2"
_cell_formula_units_Z 14
_cell_length_a 5.014649
_cell_length_b 13.431780
_cell_length_c 14.124717
_cell_angle_alpha 146.860220
_cell_angle_beta 92.142271
_cell_angle_gamma 90.580454
_cell_volume 518.243181
_symmetry_space_group_name_H-M "P -1"
_symmetry_group_IT_number 2
_symmetry_cell_setting 'triclinic'
loop_
_space_group_symop_operation_xyz
x,y,z
-x,-y,-z
loop_
_atom_site_type_symbol
_atom_site_label
_atom_site_fract_x
_atom_site_fract_y
_atom_site_fract_z
Si Si1 0.312671 0.726928 0.710803
Si Si2 0.097756 0.487785 0.151761
Si Si3 0.576167 0.265529 0.948950
Si Si4 0.940314 0.970765 0.690557
Si Si5 0.228605 0.963808 0.066857
Si Si6 0.751731 0.092226 0.525555
Si Si7 0.075314 0.415696 0.575871
O O1 0.145324 0.661443 0.564352
O O2 0.300894 0.542505 0.626307
O O3 0.591201 0.844940 0.790077
O O4 0.163105 0.863173 0.887500
O O5 0.287827 0.341580 0.995068
O O6 0.212608 0.690580 0.290380
O O7 0.071493 0.480888 0.260528
O O8 0.791109 0.440659 0.080820
O O9 0.733474 0.116378 0.774081
O O10 0.590508 0.176231 0.983545
O O11 0.988430 0.016512 0.838123
O O12 0.206992 0.958337 0.624650
O O13 0.808781 0.763116 0.518860
O O14 0.500000 0.000000 0.500000
O O15 0.000000 0.000000 0.500000
#
# Coordination Sequence:
#
# PCOD9104182 Si02
#       7
#     2   2   2   2   2   2   2
#     4  10  20  39  59 101 139 191 245 291 320 407
#     4  11  23  46  71  99 142 185 224 284 353 414
#     4  10  23  44  68  97 137 194 228 268 353 414
#     4   9  23  42  67  96 139 182 223 286 354 409
#     4   9  21  40  62  95 142 190 235 284 340 394
#     4  11  25  47  75 107 133 168 226 289 351 426
#     4  10  21  38  63 100 139 188 242 290 343 390
#
# _framework density 27.014341000000002
#
# number of rings (size 3 to 8) (size 9 to 14) (size 15 to 20)
#    0.857    1.143    1.429    0.857    2.000    6.857 
#   10.286    4.286    0.000    0.000    0.000    0.000 
#    0.000    0.000    0.000    0.000    0.000    0.000 
#
# Total GULP energy -78315.492482 kJ/mol
# GULP energy per Si atom -5593.963749 kJ/mol
# Density = 2.695286 g / cm^3
# Si number density = 27.014341 Si / 1000 Ang^3
#
#
#
# Elastic Constant Matrix: (Units=GPa)
#
#
# Indices 1 2 3 4 5 6 
#
# 1 154.7515 44.4644 48.9648 14.2731 7.7080 38.5856
# 2 44.4644 94.9418 32.8450 13.8812 8.7169 40.0372
# 3 48.9648 32.8450 136.5149 19.6641 -4.8726 22.4491
# 4 14.2731 13.8812 19.6641 52.8174 6.0044 11.5565
# 5 7.7080 8.7169 -4.8726 6.0044 49.4617 8.1679
# 6 38.5856 40.0372 22.4491 11.5565 8.1679 42.2884
#
#
#
# Elastic Compliance Matrix: (Units=1/GPa)
#
#
# Indices 1 2 3 4 5 6 
#
# 1 0.008894 -0.000825 -0.001981 -0.000048 -0.000408 -0.006191
# 2 -0.000825 0.017985 -0.001469 -0.000557 -0.000604 -0.015227
# 3 -0.001981 -0.001469 0.009018 -0.002370 0.001962 -0.001320
# 4 -0.000048 -0.000557 -0.002370 0.020979 -0.002097 -0.003499
# 5 -0.000408 -0.000604 0.001962 -0.002097 0.021441 -0.003666
# 6 -0.006191 -0.015227 -0.001320 -0.003499 -0.003666 0.046077
#
#
# Mechanical properties :
#
#
# Convention : Reuss Voigt Hill
#
# Bulk Modulus (GPa) = 36.56671 70.97298 53.76984
# Shear Modulus (GPa) = 35.19666 46.24242 40.71954
#
# Velocity S-wave (km/s) = 3.61347 4.14185 3.88665
# Velocity P-wave (km/s) = 5.56552 7.01445 6.33157
#
# Compressibility (1/GPa) = 0.02734728
#
# Stress axis : x y z
#
# Youngs Moduli (GPa) = 112.43233 55.60151 110.89316
#
# Poissons Ratio (x) = 0.04587 0.21971
# Poissons Ratio (y) = 0.09275 0.16287
# Poissons Ratio (z) = 0.22276 0.08166
#
# Static dielectric constant tensor:
#      x y z
#    x 2.091770 -0.076810 -0.010500 
#    y -0.076810 2.224760 -0.023950 
#    z -0.010500 -0.023950 2.177460 
# 
# From -- ./inp_files/549888.got.cif
#   From: 2010.05.17/outbox.cif.g08.bks.cpg/sg2_275_cif.got.tgz:549888.got - 2010.06.03 11:33:40.
