data_PCOD9104930
_publ_section_title
;
Structure prediction by ZEFSAII (Michael W. Deem and Ramdas Pophale) SiO2 
 PCOD9104930
Probable space group: P -1
;
_chemical_formula_sum "Si O2"
_cell_formula_units_Z 14
_cell_length_a 8.467532
_cell_length_b 11.554299
_cell_length_c 10.484463
_cell_angle_alpha 68.401303
_cell_angle_beta 62.080660
_cell_angle_gamma 38.422275
_cell_volume 563.265064
_symmetry_space_group_name_H-M "P -1"
_symmetry_group_IT_number 2
_symmetry_cell_setting 'triclinic'
loop_
_space_group_symop_operation_xyz
x,y,z
-x,-y,-z
loop_
_atom_site_type_symbol
_atom_site_label
_atom_site_fract_x
_atom_site_fract_y
_atom_site_fract_z
Si Si1 0.827031 0.462287 0.296810
Si Si2 0.592187 0.717807 0.855975
Si Si3 0.355639 0.188730 0.755094
Si Si4 0.879448 0.014374 0.906648
Si Si5 0.214264 0.040283 0.678451
Si Si6 0.907416 0.906024 0.576662
Si Si7 0.129062 0.622536 0.968128
O O1 0.663978 0.657403 0.344744
O O2 0.131360 0.353915 0.231215
O O3 0.764511 0.483943 0.162325
O O4 0.846987 0.315065 0.407765
O O5 0.669490 0.535575 0.935900
O O6 0.431904 0.833568 0.741065
O O7 0.418961 0.858126 0.984688
O O8 0.233203 0.151291 0.716970
O O9 0.672394 0.006811 0.729758
O O10 0.159033 0.278834 0.913616
O O11 0.936762 0.104676 0.762014
O O12 0.000000 0.000000 0.000000
O O13 0.059992 0.801652 0.896556
O O14 0.243763 0.052150 0.514333
O O15 0.000000 0.000000 0.500000
#
# Coordination Sequence:
#
# PCOD9104930 Si02
#       7
#     2   2   2   2   2   2   2
#     4  11  25  42  67  98 130 173 215 266 329 382
#     4  10  21  40  65  99 130 164 214 267 324 374
#     4  11  23  45  67  97 130 169 223 263 324 385
#     4  10  20  39  62  97 132 165 212 264 323 374
#     4  11  23  44  67  98 131 173 219 260 319 392
#     4  12  27  47  67  92 132 175 218 268 322 385
#     4  11  22  41  67 101 133 165 217 270 324 384
#
# _framework density 24.855081999999999
#
# number of rings (size 3 to 8) (size 9 to 14) (size 15 to 20)
#    0.000    1.143    4.286    3.000    0.000    9.143 
#    2.571    0.000    0.000    0.000    0.000    0.000 
#    0.000    0.000    0.000    0.000    0.000    0.000 
#
# Total GULP energy -78161.518708 kJ/mol
# GULP energy per Si atom -5582.965622 kJ/mol
# Density = 2.479851 g / cm^3
# Si number density = 24.855082 Si / 1000 Ang^3
#
#
#
# Elastic Constant Matrix: (Units=GPa)
#
#
# Indices 1 2 3 4 5 6 
#
# 1 72.7541 35.9038 14.7448 -24.4582 3.3929 26.0374
# 2 35.9038 127.7051 17.5897 -30.9470 -2.0057 21.7070
# 3 14.7448 17.5897 69.6791 -23.3461 6.5139 4.8850
# 4 -24.4582 -30.9470 -23.3461 35.0191 0.8318 -10.8595
# 5 3.3929 -2.0057 6.5139 0.8318 41.2815 -14.8159
# 6 26.0374 21.7070 4.8850 -10.8595 -14.8159 44.0314
#
#
#
# Elastic Compliance Matrix: (Units=1/GPa)
#
#
# Indices 1 2 3 4 5 6 
#
# 1 0.023007 -0.001855 0.000908 0.011395 -0.006751 -0.012252
# 2 -0.001855 0.010530 0.000490 0.007596 -0.000435 -0.002422
# 3 0.000908 0.000490 0.018969 0.013568 -0.003584 -0.000743
# 4 0.011395 0.007596 0.013568 0.052235 -0.003913 -0.000422
# 5 -0.006751 -0.000435 -0.003584 -0.003913 0.030377 0.013861
# 6 -0.012252 -0.002422 -0.000743 -0.000422 0.013861 0.035792
#
#
# Mechanical properties :
#
#
# Convention : Reuss Voigt Hill
#
# Bulk Modulus (GPa) = 19.38325 45.17945 32.28135
# Shear Modulus (GPa) = 26.45203 37.52640 31.98921
#
# Velocity S-wave (km/s) = 3.26582 3.88984 3.59141
# Velocity P-wave (km/s) = 4.69428 6.19605 5.49670
#
# Compressibility (1/GPa) = 0.05159094
#
# Stress axis : x y z
#
# Youngs Moduli (GPa) = 43.46482 94.96494 52.71845
#
# Poissons Ratio (x) = 0.17619 -0.04787
# Poissons Ratio (y) = 0.08064 -0.02582
# Poissons Ratio (z) = -0.03946 -0.04652
#
# Static dielectric constant tensor:
#      x y z
#    x 2.024990 0.009190 -0.050400 
#    y 0.009190 2.051550 -0.002270 
#    z -0.050400 -0.002270 2.134390 
# 
# From -- ./inp_files/389305.got.cif
#   From: 2010.05.17/outbox.cif.g08.bks.cpg/sg2_195_cif.got.tgz:389305.got - 2010.06.03 11:33:40.
