data_PCOD9104673
_publ_section_title
;
Structure prediction by ZEFSAII (Michael W. Deem and Ramdas Pophale) SiO2 
 PCOD9104673
Probable space group: P -1
;
_chemical_formula_sum "Si O2"
_cell_formula_units_Z 16
_cell_length_a 8.282961
_cell_length_b 8.858031
_cell_length_c 12.033592
_cell_angle_alpha 67.962800
_cell_angle_beta 65.584102
_cell_angle_gamma 51.022866
_cell_volume 616.658873
_symmetry_space_group_name_H-M "P -1"
_symmetry_group_IT_number 2
_symmetry_cell_setting 'triclinic'
loop_
_space_group_symop_operation_xyz
x,y,z
-x,-y,-z
loop_
_atom_site_type_symbol
_atom_site_label
_atom_site_fract_x
_atom_site_fract_y
_atom_site_fract_z
Si Si1 0.637997 0.207236 0.156184
Si Si2 0.618225 0.204418 0.924565
Si Si3 0.952220 0.494905 0.213389
Si Si4 0.979902 0.746191 0.934940
Si Si5 0.052475 0.813499 0.465087
Si Si6 0.385158 0.094773 0.389266
Si Si7 0.493434 0.718278 0.316844
Si Si8 0.990134 0.220315 0.767347
O O1 0.780919 0.295567 0.112906
O O2 0.474572 0.222337 0.288631
O O3 0.825361 0.972122 0.167311
O O4 0.512988 0.263849 0.058566
O O5 0.511095 0.244283 0.825156
O O6 0.756587 0.296591 0.856435
O O7 0.798571 0.973231 0.939979
O O8 0.060601 0.295589 0.167869
O O9 0.731988 0.530162 0.311393
O O10 0.997445 0.595608 0.271991
O O11 0.948172 0.628539 0.073036
O O12 0.873513 0.778430 0.568009
O O13 0.989369 0.857719 0.341016
O O14 0.310264 0.686507 0.415091
O O15 0.000000 0.000000 0.500000
O O16 0.500000 0.000000 0.500000
O O17 0.457515 0.907757 0.339401
#
# Coordination Sequence:
#
# PCOD9104673 Si02
#       8
#     2   2   2   2   2   2   2   2
#     4  11  18  33  57  85 113 146 190 239 271 333
#     4  10  19  35  57  88 116 144 178 244 296 318
#     4  11  19  35  56  85 114 159 184 219 287 358
#     4  10  21  33  56  84 121 147 192 225 276 354
#     4   9  19  32  52  88 108 138 188 250 270 313
#     4  11  19  33  58  87 105 149 201 236 268 332
#     4  10  21  34  59  86 118 142 183 244 289 330
#     4  10  16  33  58  79 109 148 189 224 271 344
#
# _framework density 25.946273999999999
#
# number of rings (size 3 to 8) (size 9 to 14) (size 15 to 20)
#    0.000    1.750    5.000    0.750    0.000    2.000 
#    0.000    0.625    5.500    3.750    0.000    0.000 
#    0.000    0.000    0.000    0.000    0.000    0.000 
#
# Total GULP energy -89325.137114 kJ/mol
# GULP energy per Si atom -5582.821070 kJ/mol
# Density = 2.588722 g / cm^3
# Si number density = 25.946274 Si / 1000 Ang^3
#
#
#
# Elastic Constant Matrix: (Units=GPa)
#
#
# Indices 1 2 3 4 5 6 
#
# 1 125.3391 23.2535 45.3630 9.4098 -20.5599 10.7688
# 2 23.2535 65.4205 28.6140 11.4220 12.6558 10.9434
# 3 45.3630 28.6140 130.4026 8.8723 -1.5463 18.3006
# 4 9.4098 11.4220 8.8723 26.4902 12.4464 3.8260
# 5 -20.5599 12.6558 -1.5463 12.4464 63.0140 10.5870
# 6 10.7688 10.9434 18.3006 3.8260 10.5870 21.4987
#
#
#
# Elastic Compliance Matrix: (Units=1/GPa)
#
#
# Indices 1 2 3 4 5 6 
#
# 1 0.010828 -0.002512 -0.002295 -0.003959 0.005465 -0.004178
# 2 -0.002512 0.019377 -0.002538 -0.004523 -0.003197 -0.004066
# 3 -0.002295 -0.002538 0.010037 -0.001131 0.001332 -0.006557
# 4 -0.003959 -0.004523 -0.001131 0.045804 -0.009779 0.001913
# 5 0.005465 -0.003197 0.001332 -0.009779 0.022178 -0.011425
# 6 -0.004178 -0.004066 -0.006557 0.001913 -0.011425 0.061544
#
#
# Mechanical properties :
#
#
# Convention : Reuss Voigt Hill
#
# Bulk Modulus (GPa) = 39.13572 57.29145 48.21359
# Shear Modulus (GPa) = 25.91026 37.12939 31.51982
#
# Velocity S-wave (km/s) = 3.16351 3.78697 3.48920
# Velocity P-wave (km/s) = 5.33478 6.42264 5.90382
#
# Compressibility (1/GPa) = 0.02555210
#
# Stress axis : x y z
#
# Youngs Moduli (GPa) = 92.35723 51.60811 99.63450
#
# Poissons Ratio (x) = 0.12964 0.22865
# Poissons Ratio (y) = 0.23200 0.25283
# Poissons Ratio (z) = 0.21195 0.13096
#
# Static dielectric constant tensor:
#      x y z
#    x 2.163640 -0.072430 0.059740 
#    y -0.072430 2.043440 -0.086830 
#    z 0.059740 -0.086830 2.131340 
# 
# From -- ./inp_files/378641.got.cif
#   From: 2010.05.17/outbox.cif.g08.bks.cpg/sg2_190_cif.got.tgz:378641.got - 2010.06.03 11:33:40.
