data_PCOD9104738
_publ_section_title
;
Structure prediction by ZEFSAII (Michael W. Deem and Ramdas Pophale) SiO2 
 PCOD9104738
Probable space group: P -1
;
_chemical_formula_sum "Si O2"
_cell_formula_units_Z 16
_cell_length_a 8.168907
_cell_length_b 6.116753
_cell_length_c 17.365967
_cell_angle_alpha 118.509690
_cell_angle_beta 110.367354
_cell_angle_gamma 62.393406
_cell_volume 666.667341
_symmetry_space_group_name_H-M "P -1"
_symmetry_group_IT_number 2
_symmetry_cell_setting 'triclinic'
loop_
_space_group_symop_operation_xyz
x,y,z
-x,-y,-z
loop_
_atom_site_type_symbol
_atom_site_label
_atom_site_fract_x
_atom_site_fract_y
_atom_site_fract_z
Si Si1 0.793468 0.090930 0.253964
Si Si2 0.913095 0.510734 0.403986
Si Si3 0.610781 0.074706 0.460636
Si Si4 0.820452 0.271072 0.121760
Si Si5 0.430113 0.212865 0.901280
Si Si6 0.285327 0.453199 0.370035
Si Si7 0.765351 0.807610 0.971109
Si Si8 0.879345 0.447422 0.798035
O O1 0.801333 0.307158 0.352415
O O2 0.759752 0.248072 0.194456
O O3 0.653799 0.930840 0.201484
O O4 0.998635 0.861419 0.245373
O O5 0.000000 0.500000 0.500000
O O6 0.088576 0.431841 0.361213
O O7 0.770988 0.806624 0.412961
O O8 0.459673 0.216206 0.394241
O O9 0.700083 0.281136 0.544361
O O10 0.500000 0.000000 0.500000
O O11 0.637838 0.481267 0.085052
O O12 0.981338 0.391640 0.165429
O O13 0.890008 0.975912 0.047182
O O14 0.634771 0.009121 0.919745
O O15 0.328811 0.217124 0.967673
O O16 0.278729 0.472633 0.279751
O O17 0.826056 0.526731 0.890917
#
# Coordination Sequence:
#
# PCOD9104738 Si02
#       8
#     2   2   2   2   2   2   2   2
#     4  10  23  40  60  92 126 163 215 264 321 393
#     4  12  23  45  73  94 136 181 214 277 340 387
#     4  11  25  45  70 101 133 171 225 272 329 403
#     4  10  20  39  62  87 123 162 217 254 317 393
#     4   9  21  40  59  90 128 163 215 262 329 387
#     4  11  25  46  66 103 133 174 225 271 333 403
#     4  10  21  38  61  91 124 169 206 272 323 380
#     4  11  23  39  62  91 128 162 216 268 320 390
#
# _framework density 23.999974999999999
#
# number of rings (size 3 to 8) (size 9 to 14) (size 15 to 20)
#    0.000    1.500    2.500    1.875    0.000    7.500 
#    0.000    0.000    0.000    0.000    0.000    0.000 
#    0.000    0.000    0.000    0.000    0.000    0.000 
#
# Total GULP energy -89454.563219 kJ/mol
# GULP energy per Si atom -5590.910201 kJ/mol
# Density = 2.394535 g / cm^3
# Si number density = 23.999975 Si / 1000 Ang^3
#
#
#
# Elastic Constant Matrix: (Units=GPa)
#
#
# Indices 1 2 3 4 5 6 
#
# 1 36.2155 4.9994 -0.4277 6.0938 9.6094 -1.5684
# 2 4.9994 142.3229 47.6789 -0.0582 17.3992 -23.6043
# 3 -0.4277 47.6789 123.0714 6.5503 18.2418 -10.4192
# 4 6.0938 -0.0582 6.5503 37.4624 1.1400 -2.3630
# 5 9.6094 17.3992 18.2418 1.1400 28.0893 -3.2825
# 6 -1.5684 -23.6043 -10.4192 -2.3630 -3.2825 27.0119
#
#
#
# Elastic Compliance Matrix: (Units=1/GPa)
#
#
# Indices 1 2 3 4 5 6 
#
# 1 0.031734 -0.000357 0.002329 -0.005175 -0.011876 0.000533
# 2 -0.000357 0.009479 -0.002661 0.001074 -0.003254 0.006934
# 3 0.002329 -0.002661 0.010168 -0.001936 -0.005570 0.000886
# 4 -0.005175 0.001074 -0.001936 0.027988 0.001521 0.002525
# 5 -0.011876 -0.003254 -0.005570 0.001521 0.045228 -0.000053
# 6 0.000533 0.006934 0.000886 0.002525 -0.000053 0.043667
#
#
# Mechanical properties :
#
#
# Convention : Reuss Voigt Hill
#
# Bulk Modulus (GPa) = 19.99866 45.12345 32.56105
# Shear Modulus (GPa) = 26.83698 35.13666 30.98682
#
# Velocity S-wave (km/s) = 3.34759 3.83041 3.59711
# Velocity P-wave (km/s) = 4.82625 6.19718 5.55418
#
# Compressibility (1/GPa) = 0.05000335
#
# Stress axis : x y z
#
# Youngs Moduli (GPa) = 31.51179 105.50041 98.34816
#
# Poissons Ratio (x) = 0.03765 -0.22909
# Poissons Ratio (y) = 0.01125 0.26172
# Poissons Ratio (z) = -0.07340 0.28075
#
# Static dielectric constant tensor:
#      x y z
#    x 2.000780 -0.024100 -0.019400 
#    y -0.024100 1.907090 0.010970 
#    z -0.019400 0.010970 1.936270 
# 
# From -- ./inp_files/553864.got.cif
#   From: 2010.05.17/outbox.cif.g08.bks.cpg/sg2_277_cif.got.tgz:553864.got - 2010.06.03 11:33:40.
