data_PCOD9104858
_publ_section_title
;
Structure prediction by ZEFSAII (Michael W. Deem and Ramdas Pophale) SiO2 
 PCOD9104858
Probable space group: P -1
;
_chemical_formula_sum "Si O2"
_cell_formula_units_Z 16
_cell_length_a 5.290500
_cell_length_b 16.680976
_cell_length_c 9.463175
_cell_angle_alpha 113.540530
_cell_angle_beta 91.137879
_cell_angle_gamma 117.572989
_cell_volume 656.781348
_symmetry_space_group_name_H-M "P -1"
_symmetry_group_IT_number 2
_symmetry_cell_setting 'triclinic'
loop_
_space_group_symop_operation_xyz
x,y,z
-x,-y,-z
loop_
_atom_site_type_symbol
_atom_site_label
_atom_site_fract_x
_atom_site_fract_y
_atom_site_fract_z
Si Si1 0.867745 0.328780 0.118071
Si Si2 0.456813 0.262350 0.796551
Si Si3 0.084788 0.779703 0.555741
Si Si4 0.488697 0.263849 0.324563
Si Si5 0.283207 0.519140 0.107567
Si Si6 0.391747 0.051182 0.149070
Si Si7 0.933125 0.156898 0.928741
Si Si8 0.606456 0.113625 0.624978
O O1 0.643079 0.328153 0.230217
O O2 0.157633 0.438823 0.178140
O O3 0.729989 0.300405 0.938689
O O4 0.917270 0.234594 0.093164
O O5 0.538678 0.360647 0.774284
O O6 0.404139 0.163331 0.640473
O O7 0.200633 0.228882 0.882563
O O8 0.240728 0.716048 0.555385
O O9 0.110550 0.806126 0.408672
O O10 0.770021 0.734284 0.593203
O O11 0.331051 0.890337 0.699816
O O12 0.345515 0.145694 0.186588
O O13 0.500000 0.500000 0.000000
O O14 0.000000 0.500000 0.000000
O O15 0.087348 0.950094 0.118409
O O16 0.500000 0.000000 0.000000
O O17 0.653174 0.114982 0.793135
O O18 0.500000 0.000000 0.500000
#
# Coordination Sequence:
#
# PCOD9104858 Si02
#       8
#     2   2   2   2   2   2   2   2
#     4  10  21  37  61  91 121 151 195 250 317 369
#     4  10  24  35  62  91 122 155 203 253 310 360
#     4  10  24  40  54  81 117 165 201 246 287 353
#     4  10  23  37  58  82 116 159 198 239 301 354
#     4  10  20  39  62  92 125 152 191 255 316 365
#     4  10  21  34  54  86 123 154 197 244 299 359
#     4  11  20  36  58  90 116 162 198 247 303 364
#     4  11  23  39  56  83 123 169 211 247 292 359
#
# _framework density 24.361231
#
# number of rings (size 3 to 8) (size 9 to 14) (size 15 to 20)
#    0.750    1.000    3.750    0.000    7.000    1.000 
#    0.000    0.000    0.000    1.500    0.000    0.000 
#    0.000    0.000    0.000    0.000    0.000    0.000 
#
# Total GULP energy -89120.320026 kJ/mol
# GULP energy per Si atom -5570.020002 kJ/mol
# Density = 2.430578 g / cm^3
# Si number density = 24.361231 Si / 1000 Ang^3
#
#
#
# Elastic Constant Matrix: (Units=GPa)
#
#
# Indices 1 2 3 4 5 6 
#
# 1 85.7926 20.7138 20.1724 -5.2914 -29.6596 17.8812
# 2 20.7138 141.2157 11.3436 -5.0095 -9.5384 9.1756
# 3 20.1724 11.3436 54.2233 -12.5532 -13.7437 2.6536
# 4 -5.2914 -5.0095 -12.5532 38.1447 4.7231 -10.5899
# 5 -29.6596 -9.5384 -13.7437 4.7231 29.7561 -7.1964
# 6 17.8812 9.1756 2.6536 -10.5899 -7.1964 27.1204
#
#
#
# Elastic Compliance Matrix: (Units=1/GPa)
#
#
# Indices 1 2 3 4 5 6 
#
# 1 0.020157 -0.001074 -0.003377 -0.003113 0.016393 -0.009462
# 2 -0.001074 0.007452 -0.000954 0.000015 0.000493 -0.001583
# 3 -0.003377 -0.000954 0.023197 0.007585 0.007077 0.005119
# 4 -0.003113 0.000015 0.007585 0.032209 -0.001442 0.013499
# 5 0.016393 0.000493 0.007077 -0.001442 0.054117 0.002129
# 6 -0.009462 -0.001583 0.005119 0.013499 0.002129 0.048982
#
#
# Mechanical properties :
#
#
# Convention : Reuss Voigt Hill
#
# Bulk Modulus (GPa) = 25.00116 42.85458 33.92787
# Shear Modulus (GPa) = 23.78071 34.27102 29.02587
#
# Velocity S-wave (km/s) = 3.12776 3.75478 3.45552
# Velocity P-wave (km/s) = 4.82999 6.03551 5.46609
#
# Compressibility (1/GPa) = 0.03999814
#
# Stress axis : x y z
#
# Youngs Moduli (GPa) = 49.61152 134.18911 43.10850
#
# Poissons Ratio (x) = 0.14408 0.14556
# Poissons Ratio (y) = 0.05327 0.04111
# Poissons Ratio (z) = 0.16752 0.12797
#
# Static dielectric constant tensor:
#      x y z
#    x 2.070630 -0.076760 0.038110 
#    y -0.076760 2.090260 -0.034220 
#    z 0.038110 -0.034220 1.960420 
# 
# From -- ./inp_files/370411.got.cif
#   From: 2010.05.17/outbox.cif.g08.bks.cpg/sg2_186_cif.got.tgz:370411.got - 2010.06.03 11:33:40.
