data_PCOD9104055
_publ_section_title
;
Structure prediction by ZEFSAII (Michael W. Deem and Ramdas Pophale) SiO2 
 PCOD9104055
Probable space group: P -1
;
_chemical_formula_sum "Si O2"
_cell_formula_units_Z 12
_cell_length_a 7.723701
_cell_length_b 18.167615
_cell_length_c 5.219682
_cell_angle_alpha 88.733963
_cell_angle_beta 123.485485
_cell_angle_gamma 82.315405
_cell_volume 601.294899
_symmetry_space_group_name_H-M "P -1"
_symmetry_group_IT_number 2
_symmetry_cell_setting 'triclinic'
loop_
_space_group_symop_operation_xyz
x,y,z
-x,-y,-z
loop_
_atom_site_type_symbol
_atom_site_label
_atom_site_fract_x
_atom_site_fract_y
_atom_site_fract_z
Si Si1 0.122804 0.330919 0.355404
Si Si2 0.225108 0.153511 0.433721
Si Si3 0.677021 0.548705 0.637005
Si Si4 0.938867 0.919684 0.202094
Si Si5 0.349692 0.945875 0.265593
Si Si6 0.018129 0.415418 0.764016
O O1 0.173602 0.242646 0.398515
O O2 0.332790 0.369879 0.501588
O O3 0.009957 0.365198 0.516396
O O4 0.989823 0.366052 0.997333
O O5 0.104815 0.117827 0.564740
O O6 0.476395 0.123563 0.676690
O O7 0.147679 0.125373 0.100315
O O8 0.500000 0.500000 0.500000
O O9 0.863434 0.493898 0.645642
O O10 0.754351 0.562940 0.986656
O O11 0.798129 0.003177 0.065243
O O12 0.180387 0.924303 0.330626
O O13 0.500000 0.000000 0.500000
#
# Coordination Sequence:
#
# PCOD9104055 Si02
#       6
#     2   2   2   2   2   2
#     4  10  20  39  55  82 119 150 179 245 286 328
#     4  11  22  39  58  87 126 148 195 242 292 341
#     4   9  20  37  61  82 107 150 198 228 279 342
#     4  10  22  39  63  87 111 164 194 231 294 346
#     4   9  21  40  64  86 119 151 201 239 280 346
#     4   9  20  38  57  77 113 147 189 231 285 330
#
# _framework density 19.95693
#
# number of rings (size 3 to 8) (size 9 to 14) (size 15 to 20)
#    1.000    1.333    0.000    2.000    0.000    9.333 
#    6.000    0.000    0.000    0.000    0.000    0.000 
#    0.000    0.000    0.000    0.000    0.000    0.000 
#
# Total GULP energy -66820.546675 kJ/mol
# GULP energy per Si atom -5568.378890 kJ/mol
# Density = 1.991151 g / cm^3
# Si number density = 19.956930 Si / 1000 Ang^3
#
#
#
# Elastic Constant Matrix: (Units=GPa)
#
#
# Indices 1 2 3 4 5 6 
#
# 1 75.4159 29.3589 37.5814 -0.5104 2.4744 6.8703
# 2 29.3589 138.8788 32.6421 -2.4161 -11.6322 2.7070
# 3 37.5814 32.6421 56.0482 11.6290 -18.4765 -1.2026
# 4 -0.5104 -2.4161 11.6290 20.7500 -2.5414 -7.0109
# 5 2.4744 -11.6322 -18.4765 -2.5414 40.9979 3.7105
# 6 6.8703 2.7070 -1.2026 -7.0109 3.7105 19.1852
#
#
#
# Elastic Compliance Matrix: (Units=1/GPa)
#
#
# Indices 1 2 3 4 5 6 
#
# 1 0.025662 -0.000757 -0.022593 0.010308 -0.010888 -0.004626
# 2 -0.000757 0.008698 -0.005267 0.004031 0.000380 0.000113
# 3 -0.022593 -0.005267 0.048070 -0.026195 0.020054 -0.001604
# 4 0.010308 0.004031 -0.026195 0.069700 -0.008890 0.021288
# 5 -0.010888 0.000380 0.020054 -0.008890 0.034072 -0.004736
# 6 -0.004626 0.000113 -0.001604 0.021288 -0.004736 0.062359
#
#
# Mechanical properties :
#
#
# Convention : Reuss Voigt Hill
#
# Bulk Modulus (GPa) = 39.68942 52.16752 45.92847
# Shear Modulus (GPa) = 15.91383 27.57065 21.74224
#
# Velocity S-wave (km/s) = 2.82691 3.72090 3.30427
# Velocity P-wave (km/s) = 5.53045 6.68258 6.13363
#
# Compressibility (1/GPa) = 0.02519563
#
# Stress axis : x y z
#
# Youngs Moduli (GPa) = 38.96882 114.96626 20.80311
#
# Poissons Ratio (x) = 0.08703 0.47000
# Poissons Ratio (y) = 0.02950 0.10957
# Poissons Ratio (z) = 0.88042 0.60552
#
# Static dielectric constant tensor:
#      x y z
#    x 1.776730 0.026160 -0.000770 
#    y 0.026160 1.712510 0.003490 
#    z -0.000770 0.003490 1.757680 
# 
# From -- ./inp_files/11452.got.cif
#   From: 2010.05.17/outbox.cif.g08.bks.cpg/sg2_6_cif.got.tgz:11452.got - 2010.06.03 11:33:40.
