data_PCOD9104508
_publ_section_title
;
Structure prediction by ZEFSAII (Michael W. Deem and Ramdas Pophale) SiO2 
 PCOD9104508
Probable space group: P -1
;
_chemical_formula_sum "Si O2"
_cell_formula_units_Z 14
_cell_length_a 16.946003
_cell_length_b 18.821815
_cell_length_c 13.591250
_cell_angle_alpha 152.136466
_cell_angle_beta 152.809652
_cell_angle_gamma 21.472871
_cell_volume 682.796358
_symmetry_space_group_name_H-M "P -1"
_symmetry_group_IT_number 2
_symmetry_cell_setting 'triclinic'
loop_
_space_group_symop_operation_xyz
x,y,z
-x,-y,-z
loop_
_atom_site_type_symbol
_atom_site_label
_atom_site_fract_x
_atom_site_fract_y
_atom_site_fract_z
Si Si1 0.963514 0.749649 0.496980
Si Si2 0.399359 0.565672 0.618248
Si Si3 0.536193 0.813145 0.048687
Si Si4 0.166032 0.567196 0.701791
Si Si5 0.268898 0.815021 0.592684
Si Si6 0.707353 0.933464 0.720762
Si Si7 0.316625 0.829768 0.179698
O O1 0.191927 0.660601 0.580131
O O2 0.054223 0.607368 0.520037
O O3 0.784088 0.748429 0.237894
O O4 0.812939 0.982191 0.656484
O O5 0.282356 0.668826 0.508043
O O6 0.581156 0.321945 0.503651
O O7 0.543866 0.635408 0.882047
O O8 0.384731 0.991156 0.179998
O O9 0.397913 0.873176 0.866666
O O10 0.402032 0.334711 0.697690
O O11 0.246048 0.697060 0.949847
O O12 0.946467 0.696231 0.690162
O O13 0.000000 0.000000 0.500000
O O14 0.752906 0.067712 0.880123
O O15 0.500000 0.000000 0.500000
#
# Coordination Sequence:
#
# PCOD9104508 Si02
#       7
#     2   2   2   2   2   2   2
#     4  11  20  39  60  86 120 151 199 241 287 354
#     4   9  21  40  63  83 115 151 189 247 302 342
#     4  10  20  39  61  87 113 159 195 236 298 338
#     4  10  21  36  55  83 121 158 198 237 283 341
#     4   9  21  44  61  86 116 145 197 248 296 354
#     4  11  19  37  54  82 125 154 187 239 279 344
#     4  10  21  36  55  83 120 158 198 237 282 343
#
# _framework density 20.503916
#
# number of rings (size 3 to 8) (size 9 to 14) (size 15 to 20)
#    0.857    1.143    2.857    3.429    0.000    2.286 
#    7.714    0.714    0.000    0.000    0.000    0.000 
#    0.000    0.000    0.000    0.000    0.000    0.000 
#
# Total GULP energy -78040.069002 kJ/mol
# GULP energy per Si atom -5574.290643 kJ/mol
# Density = 2.045725 g / cm^3
# Si number density = 20.503916 Si / 1000 Ang^3
#
#
#
# Elastic Constant Matrix: (Units=GPa)
#
#
# Indices 1 2 3 4 5 6 
#
# 1 36.6941 14.6398 5.7147 11.3794 4.0371 -22.8526
# 2 14.6398 153.6539 33.2941 -4.0983 -6.3448 -14.3145
# 3 5.7147 33.2941 105.3360 -16.7714 3.4497 -12.3123
# 4 11.3794 -4.0983 -16.7714 29.6609 -6.3657 -1.8312
# 5 4.0371 -6.3448 3.4497 -6.3657 24.3780 -1.5972
# 6 -22.8526 -14.3145 -12.3123 -1.8312 -1.5972 32.4168
#
#
#
# Elastic Compliance Matrix: (Units=1/GPa)
#
#
# Indices 1 2 3 4 5 6 
#
# 1 0.064480 -0.003373 -0.001376 -0.026802 -0.015663 0.041158
# 2 -0.003373 0.007480 -0.001919 0.001985 0.003326 0.000472
# 3 -0.001376 -0.001919 0.011647 0.007060 0.000121 0.003011
# 4 -0.026802 0.001985 0.007060 0.051094 0.016536 -0.011635
# 5 -0.015663 0.003326 0.000121 0.016536 0.048374 -0.006210
# 6 0.041158 0.000472 0.003011 -0.011635 -0.006210 0.060252
#
#
# Mechanical properties :
#
#
# Convention : Reuss Voigt Hill
#
# Bulk Modulus (GPa) = 14.23047 44.77569 29.50308
# Shear Modulus (GPa) = 17.85177 33.42683 25.63930
#
# Velocity S-wave (km/s) = 2.95388 4.04203 3.54002
# Velocity P-wave (km/s) = 4.31153 6.60826 5.57936
#
# Compressibility (1/GPa) = 0.07027173
#
# Stress axis : x y z
#
# Youngs Moduli (GPa) = 15.50871 133.69797 85.86190
#
# Poissons Ratio (x) = 0.45092 0.11812
# Poissons Ratio (y) = 0.05231 0.16474
# Poissons Ratio (z) = 0.02134 0.25653
#
# Static dielectric constant tensor:
#      x y z
#    x 1.768670 -0.004700 0.054950 
#    y -0.004700 1.754570 0.027190 
#    z 0.054950 0.027190 1.814060 
# 
# From -- ./inp_files/539129.got.cif
#   From: 2010.05.17/outbox.cif.g08.bks.cpg/sg2_270_cif.got.tgz:539129.got - 2010.06.03 11:33:40.
