data_PCOD9104188
_publ_section_title
;
Structure prediction by ZEFSAII (Michael W. Deem and Ramdas Pophale) SiO2 
 PCOD9104188
Probable space group: P -1
;
_chemical_formula_sum "Si O2"
_cell_formula_units_Z 10
_cell_length_a 8.925450
_cell_length_b 11.791248
_cell_length_c 23.879991
_cell_angle_alpha 161.044828
_cell_angle_beta 31.368081
_cell_angle_gamma 147.252087
_cell_volume 416.505988
_symmetry_space_group_name_H-M "P -1"
_symmetry_group_IT_number 2
_symmetry_cell_setting 'triclinic'
loop_
_space_group_symop_operation_xyz
x,y,z
-x,-y,-z
loop_
_atom_site_type_symbol
_atom_site_label
_atom_site_fract_x
_atom_site_fract_y
_atom_site_fract_z
Si Si1 0.919336 0.339356 0.631376
Si Si2 0.236409 0.015139 0.700975
Si Si3 0.171970 0.905801 0.036311
Si Si4 0.797651 0.277734 0.179045
Si Si5 0.145714 0.177196 0.369277
O O1 0.579488 0.165269 0.664909
O O2 0.097238 0.399670 0.660807
O O3 0.075693 0.155886 0.447204
O O4 0.908040 0.733383 0.794817
O O5 0.056468 0.199042 0.889388
O O6 0.178977 0.595568 0.537953
O O7 0.107933 0.033536 0.688205
O O8 0.168637 0.651486 0.864902
O O9 0.500000 0.000000 0.000000
O O10 0.461444 0.099174 0.216114
O O11 0.000000 0.000000 0.000000
#
# Coordination Sequence:
#
# PCOD9104188 Si02
#       5
#     2   2   2   2   2
#     4  10  22  37  60  89 112 149 198 231 285 340
#     4  10  21  37  62  88 110 153 195 234 280 340
#     4  10  20  39  59  81 121 151 184 236 286 336
#     4  10  21  39  59  84 118 154 184 237 293 332
#     4  10  20  39  60  82 121 149 188 239 284 334
#
# _framework density 24.009260000000001
#
# number of rings (size 3 to 8) (size 9 to 14) (size 15 to 20)
#    0.000    2.000    2.000    1.200    0.000    2.400 
#    0.000    0.000    0.000    0.000    0.000    0.000 
#    0.000    0.000    0.000    0.000    0.000    0.000 
#
# Total GULP energy -55984.323908 kJ/mol
# GULP energy per Si atom -5598.432391 kJ/mol
# Density = 2.395461 g / cm^3
# Si number density = 24.009260 Si / 1000 Ang^3
#
#
#
# Elastic Constant Matrix: (Units=GPa)
#
#
# Indices 1 2 3 4 5 6 
#
# 1 174.5991 41.8538 46.2063 -20.2742 41.5356 2.3495
# 2 41.8538 78.1603 26.1911 -25.0149 22.2360 1.5553
# 3 46.2063 26.1911 86.3935 -24.3327 14.3676 -8.3842
# 4 -20.2742 -25.0149 -24.3327 51.3049 -3.6365 1.0697
# 5 41.5356 22.2360 14.3676 -3.6365 48.0937 -6.1642
# 6 2.3495 1.5553 -8.3842 1.0697 -6.1642 43.8698
#
#
#
# Elastic Compliance Matrix: (Units=1/GPa)
#
#
# Indices 1 2 3 4 5 6 
#
# 1 0.008389 -0.001555 -0.003013 0.000754 -0.005800 -0.001803
# 2 -0.001555 0.018340 -0.001896 0.007024 -0.006293 -0.001985
# 3 -0.003013 -0.001896 0.015581 0.005183 -0.000396 0.003024
# 4 0.000754 0.007024 0.005183 0.025427 -0.003579 -0.000422
# 5 -0.005800 -0.006293 -0.000396 -0.003579 0.029154 0.004642
# 6 -0.001803 -0.001985 0.003024 -0.000422 0.004642 0.024202
#
#
# Mechanical properties :
#
#
# Convention : Reuss Voigt Hill
#
# Bulk Modulus (GPa) = 34.03602 63.07283 48.55442
# Shear Modulus (GPa) = 34.76647 43.64714 39.20680
#
# Velocity S-wave (km/s) = 3.80945 4.26834 4.04541
# Velocity P-wave (km/s) = 5.79277 7.11470 6.48749
#
# Compressibility (1/GPa) = 0.02938064
#
# Stress axis : x y z
#
# Youngs Moduli (GPa) = 119.19855 54.52528 64.18240
#
# Poissons Ratio (x) = 0.08480 0.19341
# Poissons Ratio (y) = 0.18538 0.12169
# Poissons Ratio (z) = 0.35920 0.10338
#
# Static dielectric constant tensor:
#      x y z
#    x 1.886790 -0.045410 0.020580 
#    y -0.045410 1.869290 0.057730 
#    z 0.020580 0.057730 1.985700 
# 
# From -- ./inp_files/15171.got.cif
#   From: 2010.05.17/outbox.cif.g08.bks.cpg/sg2_8_cif.got.tgz:15171.got - 2010.06.03 11:33:40.
