data_PCOD9104895
_publ_section_title
;
Structure prediction by ZEFSAII (Michael W. Deem and Ramdas Pophale) SiO2 
 PCOD9104895
Probable space group: P -1
;
_chemical_formula_sum "Si O2"
_cell_formula_units_Z 16
_cell_length_a 10.228525
_cell_length_b 9.006641
_cell_length_c 11.805882
_cell_angle_alpha 99.925364
_cell_angle_beta 141.037484
_cell_angle_gamma 76.358600
_cell_volume 664.503404
_symmetry_space_group_name_H-M "P -1"
_symmetry_group_IT_number 2
_symmetry_cell_setting 'triclinic'
loop_
_space_group_symop_operation_xyz
x,y,z
-x,-y,-z
loop_
_atom_site_type_symbol
_atom_site_label
_atom_site_fract_x
_atom_site_fract_y
_atom_site_fract_z
Si Si1 0.063825 0.609645 0.263401
Si Si2 0.163544 0.916353 0.929017
Si Si3 0.635414 0.783071 0.919754
Si Si4 0.496631 0.858997 0.324258
Si Si5 0.377972 0.457519 0.297482
Si Si6 0.739938 0.555624 0.415050
Si Si7 0.332381 0.639423 0.849720
Si Si8 0.279091 0.891599 0.411970
O O1 0.150558 0.541336 0.192798
O O2 0.121574 0.490283 0.386994
O O3 0.183631 0.753904 0.385662
O O4 0.821744 0.672063 0.095423
O O5 0.209571 0.757402 0.871428
O O6 0.300760 0.049401 0.005171
O O7 0.268373 0.873498 0.115500
O O8 0.921154 0.995214 0.762474
O O9 0.636014 0.710174 0.783494
O O10 0.433694 0.754178 0.849926
O O11 0.675146 0.733454 0.372057
O O12 0.447124 0.830532 0.418908
O O13 0.601399 0.010084 0.412107
O O14 0.500000 0.500000 0.500000
O O15 0.505555 0.522974 0.291902
O O16 0.803962 0.447927 0.337859
O O17 0.500000 0.500000 0.000000
#
# Coordination Sequence:
#
# PCOD9104895 Si02
#       8
#     2   2   2   2   2   2   2   2
#     4  10  20  39  62  94 129 161 213 257 312 384
#     4  11  24  44  64  91 128 170 214 259 314 377
#     4  10  23  39  62  95 121 169 211 260 319 370
#     4  11  22  40  65  94 131 165 205 259 324 374
#     4   9  18  33  61  89 125 158 199 250 307 371
#     4  10  21  38  62  92 122 168 209 259 316 368
#     4  11  23  44  64  87 124 165 217 267 311 372
#     4  10  24  40  63  99 128 164 207 260 317 383
#
# _framework density 24.078133999999999
#
# number of rings (size 3 to 8) (size 9 to 14) (size 15 to 20)
#    0.000    1.750    2.500    1.125    5.250    2.000 
#    2.250    2.500    0.000    0.000    0.000    0.000 
#    0.000    0.000    0.000    0.000    0.000    0.000 
#
# Total GULP energy -89320.574353 kJ/mol
# GULP energy per Si atom -5582.535897 kJ/mol
# Density = 2.402333 g / cm^3
# Si number density = 24.078134 Si / 1000 Ang^3
#
#
#
# Elastic Constant Matrix: (Units=GPa)
#
#
# Indices 1 2 3 4 5 6 
#
# 1 58.6043 21.3946 -0.5437 20.6524 -6.6457 -4.4784
# 2 21.3946 129.8803 28.7384 14.6692 -2.9746 -26.0716
# 3 -0.5437 28.7384 100.9292 16.5754 2.3061 -16.7746
# 4 20.6524 14.6692 16.5754 43.8893 -3.6659 -2.0735
# 5 -6.6457 -2.9746 2.3061 -3.6659 21.7962 5.6677
# 6 -4.4784 -26.0716 -16.7746 -2.0735 5.6677 30.4008
#
#
#
# Elastic Compliance Matrix: (Units=1/GPa)
#
#
# Indices 1 2 3 4 5 6 
#
# 1 0.022228 -0.002841 0.002629 -0.010114 0.004198 0.000816
# 2 -0.002841 0.010130 -0.001368 -0.001298 -0.001564 0.007717
# 3 0.002629 -0.001368 0.012309 -0.005403 -0.003218 0.006237
# 4 -0.010114 -0.001298 -0.005403 0.030110 0.003461 -0.004176
# 5 0.004198 -0.001564 -0.003218 0.003461 0.050926 -0.011757
# 6 0.000816 0.007717 0.006237 -0.004176 -0.011757 0.044981
#
#
# Mechanical properties :
#
#
# Convention : Reuss Voigt Hill
#
# Bulk Modulus (GPa) = 24.09213 43.17693 33.63453
# Shear Modulus (GPa) = 26.64128 35.20556 30.92342
#
# Velocity S-wave (km/s) = 3.32994 3.82794 3.58759
# Velocity P-wave (km/s) = 4.98119 6.12441 5.58214
#
# Compressibility (1/GPa) = 0.04150733
#
# Stress axis : x y z
#
# Youngs Moduli (GPa) = 44.98899 98.71652 81.24026
#
# Poissons Ratio (x) = 0.28045 -0.21361
# Poissons Ratio (y) = 0.12781 0.11115
# Poissons Ratio (z) = -0.11829 0.13506
#
# Static dielectric constant tensor:
#      x y z
#    x 1.909180 -0.003870 0.025000 
#    y -0.003870 1.980770 -0.012640 
#    z 0.025000 -0.012640 1.963060 
# 
# From -- ./inp_files/417694.got.cif
#   From: 2010.05.17/outbox.cif.g08.bks.cpg/sg2_209_cif.got.tgz:417694.got - 2010.06.03 11:33:40.
