data_PCOD9104087
_publ_section_title
;
Structure prediction by ZEFSAII (Michael W. Deem and Ramdas Pophale) SiO2 
 PCOD9104087
Probable space group: P -1
;
_chemical_formula_sum "Si O2"
_cell_formula_units_Z 16
_cell_length_a 9.049349
_cell_length_b 21.106115
_cell_length_c 18.043537
_cell_angle_alpha 160.330477
_cell_angle_beta 59.575311
_cell_angle_gamma 132.161862
_cell_volume 742.837467
_symmetry_space_group_name_H-M "P -1"
_symmetry_group_IT_number 2
_symmetry_cell_setting 'triclinic'
loop_
_space_group_symop_operation_xyz
x,y,z
-x,-y,-z
loop_
_atom_site_type_symbol
_atom_site_label
_atom_site_fract_x
_atom_site_fract_y
_atom_site_fract_z
Si Si1 0.216136 0.223577 0.076256
Si Si2 0.050242 0.539297 0.731265
Si Si3 0.768261 0.923838 0.774143
Si Si4 0.666103 0.481820 0.483305
Si Si5 0.367844 0.579080 0.286714
Si Si6 0.771908 0.692477 0.129545
Si Si7 0.698667 0.475291 0.218047
Si Si8 0.155202 0.268586 0.684137
O O1 0.206506 0.317555 0.261299
O O2 0.308634 0.422248 0.203730
O O3 0.429291 0.235116 0.038049
O O4 0.959498 0.991839 0.859390
O O5 0.164857 0.501971 0.595907
O O6 0.142188 0.531886 0.777877
O O7 0.771047 0.329741 0.566707
O O8 0.143648 0.819760 0.002175
O O9 0.523313 0.786044 0.722162
O O10 0.736675 0.721652 0.505591
O O11 0.500000 0.500000 0.500000
O O12 0.638413 0.739707 0.379752
O O13 0.229286 0.400938 0.053530
O O14 0.862353 0.670810 0.160275
O O15 0.500000 0.500000 0.000000
O O16 0.916789 0.992130 0.418792
O O17 0.766988 0.523317 0.167431
#
# Coordination Sequence:
#
# PCOD9104087 Si02
#       8
#     2   2   2   2   2   2   2   2
#     4   9  19  36  58  78 110 153 192 237 283 338
#     4  11  21  38  58  83 116 155 191 246 285 331
#     4  10  21  37  59  78 113 157 194 241 289 331
#     4  11  21  39  56  81 118 150 199 245 282 337
#     4   9  19  33  54  83 113 143 191 232 276 342
#     4   9  17  33  60  88 111 146 187 223 280 347
#     4  10  20  39  57  85 120 147 193 239 281 342
#     4   9  17  33  61  84 113 152 179 229 288 333
#
# _framework density 21.539031000000001
#
# number of rings (size 3 to 8) (size 9 to 14) (size 15 to 20)
#    0.000    2.250    2.500    1.875    0.000    2.500 
#    0.000   10.625    0.000    6.750    0.000    0.000 
#    0.000    0.000    0.000    0.000    0.000    0.000 
#
# Total GULP energy -89114.356142 kJ/mol
# GULP energy per Si atom -5569.647259 kJ/mol
# Density = 2.149001 g / cm^3
# Si number density = 21.539031 Si / 1000 Ang^3
#
#
#
# Elastic Constant Matrix: (Units=GPa)
#
#
# Indices 1 2 3 4 5 6 
#
# 1 79.2904 41.0692 24.5700 -2.7706 7.1306 5.0579
# 2 41.0692 71.6709 17.4850 -8.2759 9.3763 -18.3612
# 3 24.5700 17.4850 77.2119 -0.6858 14.8800 -7.1777
# 4 -2.7706 -8.2759 -0.6858 21.5702 -3.8388 10.5123
# 5 7.1306 9.3763 14.8800 -3.8388 36.5687 2.7130
# 6 5.0579 -18.3612 -7.1777 10.5123 2.7130 31.5096
#
#
#
# Elastic Compliance Matrix: (Units=1/GPa)
#
#
# Indices 1 2 3 4 5 6 
#
# 1 0.024000 -0.016482 -0.006197 0.005577 0.003919 -0.017066
# 2 -0.016482 0.029016 0.001976 -0.002612 -0.006897 0.021469
# 3 -0.006197 0.001976 0.016564 -0.004736 -0.007137 0.008113
# 4 0.005577 -0.002612 -0.004736 0.059378 0.009532 -0.024127
# 5 0.003919 -0.006897 -0.007137 0.009532 0.033168 -0.012310
# 6 -0.017066 0.021469 0.008113 -0.024127 -0.012310 0.057943
#
#
# Mechanical properties :
#
#
# Convention : Reuss Voigt Hill
#
# Bulk Modulus (GPa) = 35.49481 43.82465 39.65973
# Shear Modulus (GPa) = 18.45926 27.59964 23.02945
#
# Velocity S-wave (km/s) = 2.93066 3.58352 3.27340
# Velocity P-wave (km/s) = 5.28836 6.12478 5.72187
#
# Compressibility (1/GPa) = 0.02817313
#
# Stress axis : x y z
#
# Youngs Moduli (GPa) = 41.66645 34.46385 60.37335
#
# Poissons Ratio (x) = 0.56803 0.37414
# Poissons Ratio (y) = 0.68674 -0.11928
# Poissons Ratio (z) = 0.25821 -0.06809
#
# Static dielectric constant tensor:
#      x y z
#    x 1.840220 0.025770 0.001140 
#    y 0.025770 1.845490 -0.007350 
#    z 0.001140 -0.007350 1.814850 
# 
# From -- ./inp_files/562768.got.cif
#   From: 2010.05.17/outbox.cif.g08.bks.cpg/sg2_282_cif.got.tgz:562768.got - 2010.06.03 11:33:40.
