data_PCOD9104620
_publ_section_title
;
Structure prediction by ZEFSAII (Michael W. Deem and Ramdas Pophale) SiO2 
 PCOD9104620
Probable space group: P -1
;
_chemical_formula_sum "Si O2"
_cell_formula_units_Z 13
_cell_length_a 10.024125
_cell_length_b 11.741399
_cell_length_c 5.001854
_cell_angle_alpha 120.677034
_cell_angle_beta 90.449369
_cell_angle_gamma 74.080675
_cell_volume 480.651090
_symmetry_space_group_name_H-M "P -1"
_symmetry_group_IT_number 2
_symmetry_cell_setting 'triclinic'
loop_
_space_group_symop_operation_xyz
x,y,z
-x,-y,-z
loop_
_atom_site_type_symbol
_atom_site_label
_atom_site_fract_x
_atom_site_fract_y
_atom_site_fract_z
Si Si1 0.482966 0.852455 0.413586
Si Si2 0.146951 0.536085 0.007781
Si Si3 0.575278 0.547333 0.809686
Si Si4 0.268023 0.249014 0.413243
Si Si5 0.986050 0.774048 0.919599
Si Si6 0.000000 0.000000 0.000000
Si Si7 0.807852 0.983467 0.530763
O O1 0.564716 0.819842 0.658456
O O2 0.500000 0.000000 0.500000
O O3 0.316438 0.897068 0.463692
O O4 0.544399 0.714537 0.064571
O O5 0.238789 0.407203 0.680162
O O6 0.254790 0.527446 0.243272
O O7 0.000000 0.500000 0.000000
O O8 0.095296 0.671693 0.985649
O O9 0.500000 0.500000 0.500000
O O10 0.500000 0.500000 0.000000
O O11 0.226717 0.156300 0.537009
O O12 0.156976 0.258253 0.188114
O O13 0.925309 0.932168 0.235516
O O14 0.034428 0.826446 0.711768
O O15 0.149095 0.961629 0.131371
#
# Coordination Sequence:
#
# PCOD9104620 Si02
#       7
#     2   2   2   2   2   1   2
#     4   9  21  45  69 100 143 197 248 303 378 468
#     4  11  23  44  75 103 142 199 254 311 380 470
#     4  11  28  53  76 117 161 202 258 328 401 460
#     4   9  20  40  60  98 128 172 240 299 357 433
#     4  11  22  38  65  95 134 176 242 305 370 440
#     4  10  24  38  56  90 134 178 226 298 368 456
#     4  10  20  39  61  91 130 174 236 288 372 430
#
# _framework density 27.046645000000002
#
# number of rings (size 3 to 8) (size 9 to 14) (size 15 to 20)
#    0.000    1.846    1.538    0.923    2.154    5.538 
#    8.308    0.000    0.000    0.000    0.000    0.000 
#    0.000    0.000    0.000    0.000    0.000    0.000 
#
# Total GULP energy -72397.433465 kJ/mol
# GULP energy per Si atom -5569.033343 kJ/mol
# Density = 2.698509 g / cm^3
# Si number density = 27.046645 Si / 1000 Ang^3
#
#
#
# Elastic Constant Matrix: (Units=GPa)
#
#
# Indices 1 2 3 4 5 6 
#
# 1 104.6762 93.5128 50.0398 -14.5350 33.2626 -24.9343
# 2 93.5128 205.6686 61.7489 -2.1311 13.3605 -39.3539
# 3 50.0398 61.7489 135.6948 -19.7506 41.0513 -21.6741
# 4 -14.5350 -2.1311 -19.7506 40.6927 1.1267 -4.6760
# 5 33.2626 13.3605 41.0513 1.1267 41.5456 -5.3009
# 6 -24.9343 -39.3539 -21.6741 -4.6760 -5.3009 61.1981
#
#
#
# Elastic Compliance Matrix: (Units=1/GPa)
#
#
# Indices 1 2 3 4 5 6 
#
# 1 0.027645 -0.011431 0.004362 0.012530 -0.022538 0.004463
# 2 -0.011431 0.010927 -0.004598 -0.005896 0.010495 0.001199
# 3 0.004362 -0.004598 0.014677 0.009274 -0.016345 0.003311
# 4 0.012530 -0.005896 0.009274 0.034383 -0.017503 0.005709
# 5 -0.022538 0.010495 -0.016345 -0.017503 0.054750 -0.004818
# 6 0.004463 0.001199 0.003311 0.005709 -0.004818 0.020121
#
#
# Mechanical properties :
#
#
# Convention : Reuss Voigt Hill
#
# Bulk Modulus (GPa) = 33.42979 95.18251 64.30615
# Shear Modulus (GPa) = 25.53511 44.73647 35.13579
#
# Velocity S-wave (km/s) = 3.07598 4.07141 3.60819
# Velocity P-wave (km/s) = 5.00024 7.57431 6.41766
#
# Compressibility (1/GPa) = 0.02991344
#
# Stress axis : x y z
#
# Youngs Moduli (GPa) = 36.17331 91.51683 68.13432
#
# Poissons Ratio (x) = 1.04616 -0.29722
# Poissons Ratio (y) = 0.41351 0.31331
# Poissons Ratio (z) = -0.15780 0.42084
#
# Static dielectric constant tensor:
#      x y z
#    x 2.771360 0.362360 -0.131780 
#    y 0.362360 2.428880 -0.194230 
#    z -0.131780 -0.194230 2.256210 
# 
# From -- ./inp_files/72419.got.cif
#   From: 2010.05.17/outbox.cif.g08.bks.cpg/sg2_37_cif.got.tgz:72419.got - 2010.06.03 11:33:40.
