data_PCOD9104350
_publ_section_title
;
Structure prediction by ZEFSAII (Michael W. Deem and Ramdas Pophale) SiO2 
 PCOD9104350
Probable space group: P -1
;
_chemical_formula_sum "Si O2"
_cell_formula_units_Z 16
_cell_length_a 28.028233
_cell_length_b 20.719270
_cell_length_c 6.724974
_cell_angle_alpha 62.329329
_cell_angle_beta 58.147717
_cell_angle_gamma 11.658457
_cell_volume 638.272922
_symmetry_space_group_name_H-M "P -1"
_symmetry_group_IT_number 2
_symmetry_cell_setting 'triclinic'
loop_
_space_group_symop_operation_xyz
x,y,z
-x,-y,-z
loop_
_atom_site_type_symbol
_atom_site_label
_atom_site_fract_x
_atom_site_fract_y
_atom_site_fract_z
Si Si1 0.470358 0.896044 0.471930
Si Si2 0.393126 0.398138 0.687880
Si Si3 0.782993 0.650922 0.787529
Si Si4 0.103941 0.292662 0.975688
Si Si5 0.222742 0.396067 0.524792
Si Si6 0.818015 0.291620 0.881043
Si Si7 0.452236 0.674991 0.818465
Si Si8 0.881807 0.019534 0.682477
O O1 0.508325 0.804269 0.318220
O O2 0.723057 0.613040 0.413107
O O3 0.244332 0.240707 0.437475
O O4 0.382898 0.955150 0.758507
O O5 0.577377 0.225197 0.427455
O O6 0.342694 0.470103 0.926245
O O7 0.109069 0.763527 0.688612
O O8 0.962706 0.441167 0.875897
O O9 0.813745 0.546392 0.712171
O O10 0.500000 0.000000 0.000000
O O11 0.030899 0.326119 0.250392
O O12 0.000000 0.500000 0.000000
O O13 0.500000 0.000000 0.500000
O O14 0.624529 0.494706 0.867940
O O15 0.997027 0.120686 0.603129
O O16 0.000000 0.000000 0.000000
O O17 0.628908 0.390261 0.730088
O O18 0.213240 0.937180 0.076987
#
# Coordination Sequence:
#
# PCOD9104350 Si02
#       8
#     2   2   2   2   2   2   2   2
#     4  11  24  40  61  90 122 161 195 263 319 346
#     4  11  23  42  58  89 135 156 200 262 312 358
#     4  11  20  40  64  86 115 155 207 247 294 378
#     4  12  21  39  65  87 116 155 210 250 297 373
#     4  10  20  39  60  88 113 153 203 247 300 363
#     4  11  19  38  64  92 122 165 209 247 294 371
#     4  10  21  39  64  93 120 164 212 247 299 368
#     4  10  21  39  66  89 121 167 206 252 298 365
#
# _framework density 25.067647000000001
#
# number of rings (size 3 to 8) (size 9 to 14) (size 15 to 20)
#    0.000    1.250    7.500    1.125    0.000    2.500 
#    9.000    1.250    0.000    0.000    0.000    0.000 
#    0.000    0.000    0.000    0.000    0.000    0.000 
#
# Total GULP energy -89418.638079 kJ/mol
# GULP energy per Si atom -5588.664880 kJ/mol
# Density = 2.501059 g / cm^3
# Si number density = 25.067647 Si / 1000 Ang^3
#
#
#
# Elastic Constant Matrix: (Units=GPa)
#
#
# Indices 1 2 3 4 5 6 
#
# 1 98.1314 3.1164 73.8892 14.2398 4.3937 -2.3040
# 2 3.1164 41.5222 22.9402 1.8690 -1.1620 0.3306
# 3 73.8892 22.9402 221.3874 17.2850 -0.5737 -9.4218
# 4 14.2398 1.8690 17.2850 43.5568 -6.0992 4.0688
# 5 4.3937 -1.1620 -0.5737 -6.0992 59.5744 9.5440
# 6 -2.3040 0.3306 -9.4218 4.0688 9.5440 26.0932
#
#
#
# Elastic Compliance Matrix: (Units=1/GPa)
#
#
# Indices 1 2 3 4 5 6 
#
# 1 0.014154 0.001587 -0.004624 -0.003121 -0.001471 0.000585
# 2 0.001587 0.025799 -0.003260 -0.000103 0.000595 -0.001566
# 3 -0.004624 -0.003260 0.006586 -0.001192 -0.000142 0.002249
# 4 -0.003121 -0.000103 -0.001192 0.025558 0.003808 -0.006083
# 5 -0.001471 0.000595 -0.000142 0.003808 0.018504 -0.007550
# 6 0.000585 -0.001566 0.002249 -0.006083 -0.007550 0.042918
#
#
# Mechanical properties :
#
#
# Convention : Reuss Voigt Hill
#
# Bulk Modulus (GPa) = 29.45865 62.32584 45.89225
# Shear Modulus (GPa) = 31.76060 43.25123 37.50591
#
# Velocity S-wave (km/s) = 3.56335 4.15828 3.87226
# Velocity P-wave (km/s) = 5.35790 6.92619 6.19190
#
# Compressibility (1/GPa) = 0.03394588
#
# Stress axis : x y z
#
# Youngs Moduli (GPa) = 70.65188 38.76084 151.82921
#
# Poissons Ratio (x) = -0.06151 0.70200
# Poissons Ratio (y) = -0.11211 0.49497
# Poissons Ratio (z) = 0.32667 0.12636
#
# Static dielectric constant tensor:
#      x y z
#    x 2.055000 0.093710 -0.053790 
#    y 0.093710 2.050230 -0.034020 
#    z -0.053790 -0.034020 2.016590 
# 
# From -- ./inp_files/124700.got.cif
#   From: 2010.05.17/outbox.cif.g08.bks.cpg/sg2_63_cif.got.tgz:124700.got - 2010.06.03 11:33:40.
