data_PCOD9104235
_publ_section_title
;
Structure prediction by ZEFSAII (Michael W. Deem and Ramdas Pophale) SiO2 
 PCOD9104235
Probable space group: P -1
;
_chemical_formula_sum "Si O2"
_cell_formula_units_Z 16
_cell_length_a 10.411050
_cell_length_b 16.956262
_cell_length_c 9.868089
_cell_angle_alpha 63.314630
_cell_angle_beta 28.399974
_cell_angle_gamma 67.179248
_cell_volume 740.196239
_symmetry_space_group_name_H-M "P -1"
_symmetry_group_IT_number 2
_symmetry_cell_setting 'triclinic'
loop_
_space_group_symop_operation_xyz
x,y,z
-x,-y,-z
loop_
_atom_site_type_symbol
_atom_site_label
_atom_site_fract_x
_atom_site_fract_y
_atom_site_fract_z
Si Si1 0.997578 0.626844 0.054404
Si Si2 0.798715 0.649452 0.919641
Si Si3 0.436490 0.828999 0.787172
Si Si4 0.495685 0.477889 0.359159
Si Si5 0.290236 0.758518 0.274636
Si Si6 0.760868 0.992690 0.117008
Si Si7 0.776531 0.046083 0.756784
Si Si8 0.862954 0.799251 0.207228
O O1 0.812718 0.550806 0.355616
O O2 0.892439 0.718153 0.141461
O O3 0.940376 0.625947 0.947831
O O4 0.310602 0.603371 0.793689
O O5 0.033305 0.692385 0.576444
O O6 0.630514 0.562495 0.096104
O O7 0.560362 0.717615 0.115934
O O8 0.687255 0.783401 0.518205
O O9 0.369178 0.785924 0.027226
O O10 0.471572 0.936151 0.685907
O O11 0.169721 0.818905 0.951849
O O12 0.500000 0.500000 0.500000
O O13 0.224279 0.848978 0.342425
O O14 0.842180 0.028654 0.866458
O O15 0.718766 0.887729 0.218010
O O16 0.000000 0.000000 0.000000
O O17 0.000000 0.000000 0.500000
O O18 0.500000 0.000000 0.000000
#
# Coordination Sequence:
#
# PCOD9104235 Si02
#       8
#     2   2   2   2   2   2   2   2
#     4  11  22  36  61  94 123 147 193 261 317 349
#     4  11  21  38  63  90 115 157 201 240 303 389
#     4  10  22  41  58  85 119 164 204 246 295 347
#     4  10  20  39  59  87 125 156 190 246 314 372
#     4  11  23  38  63  85 121 160 208 237 296 384
#     4   9  22  42  63  89 120 176 220 250 301 380
#     4  11  25  41  59  91 135 165 198 273 326 353
#     4  11  22  37  64  87 118 154 208 258 290 356
#
# _framework density 21.615888000000002
#
# number of rings (size 3 to 8) (size 9 to 14) (size 15 to 20)
#    0.000    1.500    0.000    6.375    3.500    7.000 
#    0.000    0.000    0.000   15.000    0.000    0.000 
#    0.000    0.000    0.000    0.000    0.000    0.000 
#
# Total GULP energy -89312.158515 kJ/mol
# GULP energy per Si atom -5582.009907 kJ/mol
# Density = 2.156669 g / cm^3
# Si number density = 21.615888 Si / 1000 Ang^3
#
#
#
# Elastic Constant Matrix: (Units=GPa)
#
#
# Indices 1 2 3 4 5 6 
#
# 1 33.5825 6.0507 6.4213 2.0815 -1.2907 -5.2159
# 2 6.0507 84.9819 33.3493 3.5785 13.1753 -0.4336
# 3 6.4213 33.3493 129.6272 8.3057 2.6390 -3.6933
# 4 2.0815 3.5785 8.3057 44.8594 1.4598 6.1749
# 5 -1.2907 13.1753 2.6390 1.4598 24.6627 3.5544
# 6 -5.2159 -0.4336 -3.6933 6.1749 3.5544 25.0074
#
#
#
# Elastic Compliance Matrix: (Units=1/GPa)
#
#
# Indices 1 2 3 4 5 6 
#
# 1 0.031552 -0.002156 -0.000722 -0.002144 0.002045 0.006676
# 2 -0.002156 0.014442 -0.003429 -0.000230 -0.007508 0.000418
# 3 -0.000722 -0.003429 0.008753 -0.001524 0.000753 0.001352
# 4 -0.002144 -0.000230 -0.001524 0.023591 -0.000291 -0.006460
# 5 0.002045 -0.007508 0.000753 -0.000291 0.045464 -0.005982
# 6 0.006676 0.000418 0.001352 -0.006460 -0.005982 0.044033
#
#
# Mechanical properties :
#
#
# Convention : Reuss Voigt Hill
#
# Bulk Modulus (GPa) = 23.73440 37.75935 30.74688
# Shear Modulus (GPa) = 25.70768 32.39724 29.05246
#
# Velocity S-wave (km/s) = 3.45236 3.87559 3.67008
# Velocity P-wave (km/s) = 5.18610 6.12644 5.67577
#
# Compressibility (1/GPa) = 0.04213294
#
# Stress axis : x y z
#
# Youngs Moduli (GPa) = 31.69346 69.24119 114.24240
#
# Poissons Ratio (x) = 0.14927 0.08254
# Poissons Ratio (y) = 0.06832 0.39177
# Poissons Ratio (z) = 0.02290 0.23745
#
# Static dielectric constant tensor:
#      x y z
#    x 1.781960 -0.003370 0.032750 
#    y -0.003370 1.862180 -0.034800 
#    z 0.032750 -0.034800 1.802100 
# 
# From -- ./inp_files/138545.got.cif
#   From: 2010.05.17/outbox.cif.g08.bks.cpg/sg2_70_cif.got.tgz:138545.got - 2010.06.03 11:33:40.
