data_PCOD9104402
_publ_section_title
;
Structure prediction by ZEFSAII (Michael W. Deem and Ramdas Pophale) SiO2 
 PCOD9104402
Probable space group: P -1
;
_chemical_formula_sum "Si O2"
_cell_formula_units_Z 12
_cell_length_a 12.594357
_cell_length_b 10.521430
_cell_length_c 11.101162
_cell_angle_alpha 67.651134
_cell_angle_beta 155.897679
_cell_angle_gamma 107.032609
_cell_volume 549.849229
_symmetry_space_group_name_H-M "P -1"
_symmetry_group_IT_number 2
_symmetry_cell_setting 'triclinic'
loop_
_space_group_symop_operation_xyz
x,y,z
-x,-y,-z
loop_
_atom_site_type_symbol
_atom_site_label
_atom_site_fract_x
_atom_site_fract_y
_atom_site_fract_z
Si Si1 0.477757 0.830103 0.152321
Si Si2 0.032313 0.585253 0.193470
Si Si3 0.173632 0.109744 0.691410
Si Si4 0.264407 0.623634 0.177841
Si Si5 0.752688 0.307682 0.269112
Si Si6 0.571679 0.606531 0.880989
O O1 0.763914 0.813860 0.395051
O O2 0.398764 0.746096 0.214107
O O3 0.343489 0.762310 0.924590
O O4 0.404090 0.997262 0.026481
O O5 0.098106 0.664402 0.111595
O O6 0.313176 0.561546 0.561789
O O7 0.924444 0.447112 0.082499
O O8 0.787586 0.653503 0.997491
O O9 0.040440 0.221656 0.607608
O O10 0.000000 0.000000 0.500000
O O11 0.500000 0.500000 0.500000
O O12 0.569054 0.293859 0.197761
O O13 0.729177 0.470448 0.158281
#
# Coordination Sequence:
#
# PCOD9104402 Si02
#       6
#     2   2   2   2   2   2
#     4  10  20  39  60  92 119 158 209 249 305 353
#     4  11  23  40  56  95 122 165 195 248 302 358
#     4   9  21  37  58  88 120 160 203 255 300 354
#     4  11  22  37  63  90 124 161 202 256 296 357
#     4  10  22  35  59  89 121 168 189 257 298 366
#     4  11  24  37  59  92 131 156 202 241 306 369
#
# _framework density 21.824165000000001
#
# number of rings (size 3 to 8) (size 9 to 14) (size 15 to 20)
#    0.000    1.667    3.333    0.000    7.000    2.667 
#    0.000    0.000    0.000    2.000    0.000    0.000 
#    0.000    0.000    0.000    0.000    0.000    0.000 
#
# Total GULP energy -66858.622946 kJ/mol
# GULP energy per Si atom -5571.551912 kJ/mol
# Density = 2.177449 g / cm^3
# Si number density = 21.824165 Si / 1000 Ang^3
#
#
#
# Elastic Constant Matrix: (Units=GPa)
#
#
# Indices 1 2 3 4 5 6 
#
# 1 212.9964 56.4788 56.6811 -18.4121 49.7329 28.0678
# 2 56.4788 71.2092 38.7890 -11.5909 12.3399 24.2121
# 3 56.6811 38.7890 96.7401 0.5657 23.0709 0.3474
# 4 -18.4121 -11.5909 0.5657 38.1473 -5.3369 10.0297
# 5 49.7329 12.3399 23.0709 -5.3369 39.6019 2.2090
# 6 28.0678 24.2121 0.3474 10.0297 2.2090 45.9507
#
#
#
# Elastic Compliance Matrix: (Units=1/GPa)
#
#
# Indices 1 2 3 4 5 6 
#
# 1 0.008691 -0.002030 -0.002336 0.003689 -0.008165 -0.004634
# 2 -0.002030 0.029113 -0.011127 0.012856 0.002638 -0.016949
# 3 -0.002336 -0.011127 0.017456 -0.007919 -0.005346 0.009143
# 4 0.003689 0.012856 -0.007919 0.036774 0.001884 -0.017085
# 5 -0.008165 0.002638 -0.005346 0.001884 0.037973 0.001401
# 6 -0.004634 -0.016949 0.009143 -0.017085 0.001401 0.037116
#
#
# Mechanical properties :
#
#
# Convention : Reuss Voigt Hill
#
# Bulk Modulus (GPa) = 41.19734 76.09371 58.64553
# Shear Modulus (GPa) = 24.24846 40.00644 32.12745
#
# Velocity S-wave (km/s) = 3.33691 4.28615 3.84096
# Velocity P-wave (km/s) = 5.81072 7.70955 6.82648
#
# Compressibility (1/GPa) = 0.02427341
#
# Stress axis : x y z
#
# Youngs Moduli (GPa) = 115.06570 34.34941 57.28845
#
# Poissons Ratio (x) = 0.06971 0.13382
# Poissons Ratio (y) = 0.23353 0.63746
# Poissons Ratio (z) = 0.26878 0.38222
#
# Static dielectric constant tensor:
#      x y z
#    x 1.882430 0.031290 0.095510 
#    y 0.031290 1.814130 0.093420 
#    z 0.095510 0.093420 2.164140 
# 
# From -- ./inp_files/425561.got.cif
#   From: 2010.05.17/outbox.cif.g08.bks.cpg/sg2_213_cif.got.tgz:425561.got - 2010.06.03 11:33:40.
