data_PCOD9104362
_publ_section_title
;
Structure prediction by ZEFSAII (Michael W. Deem and Ramdas Pophale) SiO2 
 PCOD9104362
Probable space group: P -1
;
_chemical_formula_sum "Si O2"
_cell_formula_units_Z 10
_cell_length_a 14.125431
_cell_length_b 5.883698
_cell_length_c 6.588518
_cell_angle_alpha 131.213708
_cell_angle_beta 113.806358
_cell_angle_gamma 78.755039
_cell_volume 374.858338
_symmetry_space_group_name_H-M "P -1"
_symmetry_group_IT_number 2
_symmetry_cell_setting 'triclinic'
loop_
_space_group_symop_operation_xyz
x,y,z
-x,-y,-z
loop_
_atom_site_type_symbol
_atom_site_label
_atom_site_fract_x
_atom_site_fract_y
_atom_site_fract_z
Si Si1 0.095210 0.798424 0.436169
Si Si2 0.512326 0.860448 0.662167
Si Si3 0.689015 0.841683 0.242663
Si Si4 0.714068 0.148963 0.872301
Si Si5 0.056432 0.703262 0.883097
O O1 0.094730 0.662806 0.127092
O O2 0.206737 0.988705 0.667035
O O3 0.000000 0.000000 0.500000
O O4 0.044754 0.532152 0.377688
O O5 0.500000 0.500000 0.500000
O O6 0.500000 0.000000 0.500000
O O7 0.421232 0.018478 0.787975
O O8 0.633205 0.986893 0.866793
O O9 0.713913 0.911756 0.545863
O O10 0.678029 0.480886 0.978814
O O11 0.832137 0.235034 0.090556
O O12 0.000000 0.000000 0.000000
#
# Coordination Sequence:
#
# PCOD9104362 Si02
#       5
#     2   2   2   2   2
#     4  10  20  39  60  88 126 169 212 266 323 389
#     4  10  23  44  70  99 134 175 224 277 335 397
#     4  10  21  41  66  91 132 171 219 272 332 395
#     4  10  21  42  63  94 131 171 218 274 332 394
#     4  10  22  37  61  90 128 167 217 264 326 390
#
# _framework density 26.676745
#
# number of rings (size 3 to 8) (size 9 to 14) (size 15 to 20)
#    0.000    2.000    2.000    0.600    2.800    0.800 
#    0.000   16.000    0.000    0.000    0.000    0.000 
#    0.000    0.000    0.000    0.000    0.000    0.000 
#
# Total GULP energy -55784.311899 kJ/mol
# GULP energy per Si atom -5578.431190 kJ/mol
# Density = 2.661603 g / cm^3
# Si number density = 26.676745 Si / 1000 Ang^3
#
#
#
# Elastic Constant Matrix: (Units=GPa)
#
#
# Indices 1 2 3 4 5 6 
#
# 1 294.1749 82.4238 57.9094 29.5470 55.8771 19.6691
# 2 82.4238 92.0925 40.8954 33.2945 21.4666 15.0930
# 3 57.9094 40.8954 96.4110 24.8884 44.6059 -1.8455
# 4 29.5470 33.2945 24.8884 80.4090 3.2414 -3.8589
# 5 55.8771 21.4666 44.6059 3.2414 71.2136 1.0225
# 6 19.6691 15.0930 -1.8455 -3.8589 1.0225 77.8241
#
#
#
# Elastic Compliance Matrix: (Units=1/GPa)
#
#
# Indices 1 2 3 4 5 6 
#
# 1 0.005022 -0.003615 -0.000181 -0.000209 -0.002720 -0.000547
# 2 -0.003615 0.018322 -0.004574 -0.005005 0.000449 -0.003002
# 3 -0.000181 -0.004574 0.017560 -0.003034 -0.009359 0.001322
# 4 -0.000209 -0.005005 -0.003034 0.015491 0.002844 0.001682
# 5 -0.002720 0.000449 -0.009359 0.002844 0.021770 0.000233
# 6 -0.000547 -0.003002 0.001322 0.001682 0.000233 0.013682
#
#
# Mechanical properties :
#
#
# Convention : Reuss Voigt Hill
#
# Bulk Modulus (GPa) = 41.38457 93.90393 67.64425
# Shear Modulus (GPa) = 42.86658 65.98600 54.42629
#
# Velocity S-wave (km/s) = 4.01295 4.97887 4.52177
# Velocity P-wave (km/s) = 6.08430 8.26615 7.25768
#
# Compressibility (1/GPa) = 0.02416359
#
# Stress axis : x y z
#
# Youngs Moduli (GPa) = 199.11817 54.57953 56.94864
#
# Poissons Ratio (x) = 0.19731 0.01032
# Poissons Ratio (y) = 0.71984 0.26047
# Poissons Ratio (z) = 0.03607 0.24963
#
# Static dielectric constant tensor:
#      x y z
#    x 2.045930 0.039000 -0.007490 
#    y 0.039000 2.193980 -0.133110 
#    z -0.007490 -0.133110 2.101960 
# 
# From -- ./inp_files/2363.got.cif
#   From: 2010.05.17/outbox.cif.g08.bks.cpg/sg2_2_cif.got.tgz:2363.got - 2010.06.03 11:33:40.
