data_PCOD9104302
_publ_section_title
;
Structure prediction by ZEFSAII (Michael W. Deem and Ramdas Pophale) SiO2 
 PCOD9104302
Probable space group: P -1
;
_chemical_formula_sum "Si O2"
_cell_formula_units_Z 16
_cell_length_a 12.847755
_cell_length_b 7.261296
_cell_length_c 12.178729
_cell_angle_alpha 77.789708
_cell_angle_beta 33.331804
_cell_angle_gamma 78.854070
_cell_volume 609.895599
_symmetry_space_group_name_H-M "P -1"
_symmetry_group_IT_number 2
_symmetry_cell_setting 'triclinic'
loop_
_space_group_symop_operation_xyz
x,y,z
-x,-y,-z
loop_
_atom_site_type_symbol
_atom_site_label
_atom_site_fract_x
_atom_site_fract_y
_atom_site_fract_z
Si Si1 0.141592 0.512271 0.647741
Si Si2 0.884515 0.088018 0.308734
Si Si3 0.522352 0.387698 0.294513
Si Si4 0.703557 0.044670 0.262329
Si Si5 0.179568 0.629635 0.355324
Si Si6 0.511135 0.010901 0.230621
Si Si7 0.790066 0.973652 0.805213
Si Si8 0.755521 0.540583 0.894846
O O1 0.081677 0.689736 0.752036
O O2 0.335809 0.414992 0.530806
O O3 0.222012 0.571758 0.449057
O O4 0.941794 0.431474 0.796469
O O5 0.859284 0.998474 0.222273
O O6 0.681361 0.080166 0.550596
O O7 0.044301 0.996578 0.255348
O O8 0.685380 0.270775 0.232199
O O9 0.472225 0.230004 0.267438
O O10 0.613348 0.550852 0.121999
O O11 0.682597 0.953220 0.172293
O O12 0.500000 0.000000 0.500000
O O13 0.175745 0.856999 0.329368
O O14 0.305061 0.572455 0.145348
O O15 0.000000 0.500000 0.500000
O O16 0.589237 0.993473 0.042495
O O17 0.804345 0.753278 0.788656
#
# Coordination Sequence:
#
# PCOD9104302 Si02
#       8
#     2   2   2   2   2   2   2   2
#     4  10  23  38  58  87 114 158 196 240 297 342
#     4  10  21  38  61  87 115 155 201 235 294 352
#     4  10  20  39  60  83 123 153 192 245 286 349
#     4   8  18  36  58  90 114 155 198 232 296 350
#     4  10  22  39  60  88 118 154 200 238 295 350
#     4   9  20  37  60  86 117 154 193 235 297 339
#     4  11  22  41  61  87 122 153 193 251 287 345
#     4  10  22  40  61  87 119 156 196 241 295 348
#
# _framework density 26.233996999999999
#
# number of rings (size 3 to 8) (size 9 to 14) (size 15 to 20)
#    0.750    1.500    1.250    0.750    3.500    6.000 
#    0.000    5.000    0.000    0.000    0.000    0.000 
#    0.000    0.000    0.000    0.000    0.000    0.000 
#
# Total GULP energy -89204.204831 kJ/mol
# GULP energy per Si atom -5575.262802 kJ/mol
# Density = 2.617429 g / cm^3
# Si number density = 26.233997 Si / 1000 Ang^3
#
#
#
# Elastic Constant Matrix: (Units=GPa)
#
#
# Indices 1 2 3 4 5 6 
#
# 1 79.4190 -3.4438 9.4728 -3.9599 3.2231 7.4888
# 2 -3.4438 80.7024 -3.6917 -9.7054 -4.7602 15.5606
# 3 9.4728 -3.6917 74.2522 10.7698 -0.6373 -6.3981
# 4 -3.9599 -9.7054 10.7698 26.3506 -5.5273 -5.9400
# 5 3.2231 -4.7602 -0.6373 -5.5273 26.4991 3.5615
# 6 7.4888 15.5606 -6.3981 -5.9400 3.5615 25.6183
#
#
#
# Elastic Compliance Matrix: (Units=1/GPa)
#
#
# Indices 1 2 3 4 5 6 
#
# 1 0.013563 0.001722 -0.002441 0.002497 -0.000205 -0.005013
# 2 0.001722 0.015138 -0.000981 0.005122 0.004821 -0.009426
# 3 -0.002441 -0.000981 0.014953 -0.006268 -0.001335 0.003776
# 4 0.002497 0.005122 -0.006268 0.045628 0.009464 0.003858
# 5 -0.000205 0.004821 -0.001335 0.009464 0.041481 -0.006774
# 6 -0.005013 -0.009426 0.003776 0.003858 -0.006774 0.049004
#
#
# Mechanical properties :
#
#
# Convention : Reuss Voigt Hill
#
# Bulk Modulus (GPa) = 24.84177 26.56090 25.70133
# Shear Modulus (GPa) = 25.43450 31.16269 28.29859
#
# Velocity S-wave (km/s) = 3.11710 3.45029 3.28792
# Velocity P-wave (km/s) = 4.73761 5.10091 4.92261
#
# Compressibility (1/GPa) = 0.04025478
#
# Stress axis : x y z
#
# Youngs Moduli (GPa) = 73.73179 66.06104 66.87495
#
# Poissons Ratio (x) = -0.11375 0.16321
# Poissons Ratio (y) = -0.12696 0.06558
# Poissons Ratio (z) = 0.17994 0.06479
#
# Static dielectric constant tensor:
#      x y z
#    x 2.066250 -0.050730 -0.031690 
#    y -0.050730 2.121430 0.020340 
#    z -0.031690 0.020340 2.145930 
# 
# From -- ./inp_files/529453.got.cif
#   From: 2010.05.17/outbox.cif.g08.bks.cpg/sg2_265_cif.got.tgz:529453.got - 2010.06.03 11:33:40.
