data_PCOD9104155
_publ_section_title
;
Structure prediction by ZEFSAII (Michael W. Deem and Ramdas Pophale) SiO2 
 PCOD9104155
Probable space group: P -1
;
_chemical_formula_sum "Si O2"
_cell_formula_units_Z 16
_cell_length_a 6.773717
_cell_length_b 14.922227
_cell_length_c 16.135259
_cell_angle_alpha 38.421353
_cell_angle_beta 120.096185
_cell_angle_gamma 96.522787
_cell_volume 749.318747
_symmetry_space_group_name_H-M "P -1"
_symmetry_group_IT_number 2
_symmetry_cell_setting 'triclinic'
loop_
_space_group_symop_operation_xyz
x,y,z
-x,-y,-z
loop_
_atom_site_type_symbol
_atom_site_label
_atom_site_fract_x
_atom_site_fract_y
_atom_site_fract_z
Si Si1 0.752270 0.601775 0.037254
Si Si2 0.337140 0.849879 0.537934
Si Si3 0.954168 0.123604 0.691391
Si Si4 0.512362 0.828445 0.984739
Si Si5 0.713674 0.089428 0.829538
Si Si6 0.753004 0.689327 0.314912
Si Si7 0.163803 0.220930 0.214460
Si Si8 0.807697 0.271756 0.256421
O O1 0.643295 0.700997 0.028217
O O2 0.907267 0.667481 0.964360
O O3 0.497340 0.651363 0.890185
O O4 0.875044 0.402939 0.218916
O O5 0.637230 0.748565 0.708448
O O6 0.154298 0.866288 0.567016
O O7 0.238494 0.777492 0.497440
O O8 0.311807 0.020739 0.372338
O O9 0.112961 0.203147 0.708541
O O10 0.770964 0.118529 0.727704
O O11 0.189398 0.941012 0.839029
O O12 0.610626 0.960343 0.901471
O O13 0.617690 0.740906 0.159051
O O14 0.487565 0.255671 0.709822
O O15 0.000000 0.000000 0.000000
O O16 0.000000 0.500000 0.500000
O O17 0.943036 0.241992 0.217134
#
# Coordination Sequence:
#
# PCOD9104155 Si02
#       8
#     2   2   2   2   2   2   2   2
#     4  10  22  37  60  88 119 163 207 245 314 372
#     4  10  22  35  60  91 118 156 208 254 304 363
#     4  11  22  41  65  90 121 164 208 251 306 378
#     4  11  22  40  64  90 121 163 210 251 308 377
#     4  11  20  43  66  87 120 166 208 252 305 372
#     4  11  25  41  63  92 130 158 204 264 314 362
#     4  10  20  39  58  87 123 157 205 256 302 369
#     4  10  21  39  59  84 126 162 196 260 310 362
#
# _framework density 21.352727999999999
#
# number of rings (size 3 to 8) (size 9 to 14) (size 15 to 20)
#    0.000    1.500    2.500    3.000    1.750    4.500 
#    0.000    0.000    0.000    0.000    0.000    0.000 
#    0.000    0.000    0.000    0.000    0.000    0.000 
#
# Total GULP energy -89173.768749 kJ/mol
# GULP energy per Si atom -5573.360547 kJ/mol
# Density = 2.130413 g / cm^3
# Si number density = 21.352728 Si / 1000 Ang^3
#
#
#
# Elastic Constant Matrix: (Units=GPa)
#
#
# Indices 1 2 3 4 5 6 
#
# 1 117.5060 7.1113 26.2481 3.2687 -14.9895 -22.3279
# 2 7.1113 74.9766 13.9948 0.1752 -8.2419 -13.2948
# 3 26.2481 13.9948 28.5807 10.9434 -2.8446 -3.6110
# 4 3.2687 0.1752 10.9434 28.9492 -9.6354 4.8244
# 5 -14.9895 -8.2419 -2.8446 -9.6354 26.8693 6.1773
# 6 -22.3279 -13.2948 -3.6110 4.8244 6.1773 29.3731
#
#
#
# Elastic Compliance Matrix: (Units=1/GPa)
#
#
# Indices 1 2 3 4 5 6 
#
# 1 0.013901 0.003650 -0.014754 0.005069 0.007282 0.008041
# 2 0.003650 0.017163 -0.012179 0.005004 0.006216 0.006916
# 3 -0.014754 -0.012179 0.063077 -0.026674 -0.014499 -0.001543
# 4 0.005069 0.005004 -0.026674 0.053567 0.023242 -0.010847
# 5 0.007282 0.006216 -0.014499 0.023242 0.051861 -0.008158
# 6 0.008041 0.006916 -0.001543 -0.010847 -0.008158 0.046595
#
#
# Mechanical properties :
#
#
# Convention : Reuss Voigt Hill
#
# Bulk Modulus (GPa) = 21.01995 35.08575 28.05285
# Shear Modulus (GPa) = 16.20281 28.61893 22.41087
#
# Velocity S-wave (km/s) = 2.75765 3.66497 3.24320
# Velocity P-wave (km/s) = 4.47270 5.86315 5.21448
#
# Compressibility (1/GPa) = 0.04757386
#
# Stress axis : x y z
#
# Youngs Moduli (GPa) = 71.93895 58.26617 15.85357
#
# Poissons Ratio (x) = -0.21266 0.23390
# Poissons Ratio (y) = -0.26256 0.19309
# Poissons Ratio (z) = 1.06136 0.70965
#
# Static dielectric constant tensor:
#      x y z
#    x 1.805740 -0.006170 -0.000490 
#    y -0.006170 1.857270 -0.037030 
#    z -0.000490 -0.037030 1.828170 
# 
# From -- ./inp_files/306065.got.cif
#   From: 2010.05.17/outbox.cif.g08.bks.cpg/sg2_154_cif.got.tgz:306065.got - 2010.06.03 11:33:40.
