data_PCOD9104904
_publ_section_title
;
Structure prediction by ZEFSAII (Michael W. Deem and Ramdas Pophale) SiO2 
 PCOD9104904
Probable space group: P -1
;
_chemical_formula_sum "Si O2"
_cell_formula_units_Z 12
_cell_length_a 5.208672
_cell_length_b 7.586509
_cell_length_c 20.695571
_cell_angle_alpha 140.798121
_cell_angle_beta 60.953241
_cell_angle_gamma 103.451245
_cell_volume 436.348430
_symmetry_space_group_name_H-M "P -1"
_symmetry_group_IT_number 2
_symmetry_cell_setting 'triclinic'
loop_
_space_group_symop_operation_xyz
x,y,z
-x,-y,-z
loop_
_atom_site_type_symbol
_atom_site_label
_atom_site_fract_x
_atom_site_fract_y
_atom_site_fract_z
Si Si1 0.505881 0.633893 0.954811
Si Si2 0.136291 0.294323 0.824015
Si Si3 0.056341 0.744772 0.866018
Si Si4 0.048141 0.708242 0.451654
Si Si5 0.420148 0.278360 0.374842
Si Si6 0.656998 0.862236 0.785922
O O1 0.282598 0.456685 0.906083
O O2 0.714411 0.705488 0.891184
O O3 0.777610 0.443545 0.910887
O O4 0.339689 0.917131 0.094960
O O5 0.227994 0.429478 0.784695
O O6 0.259153 0.951686 0.716400
O O7 0.306524 0.833341 0.817086
O O8 0.000000 0.000000 0.000000
O O9 0.329232 0.587767 0.435496
O O10 0.118410 0.450452 0.317608
O O11 0.763986 0.697964 0.529223
O O12 0.000000 0.000000 0.500000
O O13 0.283586 0.096621 0.285918
#
# Coordination Sequence:
#
# PCOD9104904 Si02
#       6
#     2   2   2   2   2   2
#     4   9  21  36  65  96 134 173 213 260 337 392
#     4  10  20  39  62  94 136 171 214 268 322 400
#     4   8  17  33  55  90 128 170 208 257 316 388
#     4   9  18  36  64  93 129 173 225 275 326 383
#     4   9  20  34  64  97 127 174 222 271 326 391
#     4   9  17  35  56  95 128 171 213 271 322 387
#
# _framework density 27.500958000000001
#
# number of rings (size 3 to 8) (size 9 to 14) (size 15 to 20)
#    2.000    1.000    0.000    1.000    0.000    4.000 
#    0.000    0.000    0.000    7.000    0.000    0.000 
#    0.000    0.000    0.000    0.000    0.000    0.000 
#
# Total GULP energy -66844.292307 kJ/mol
# GULP energy per Si atom -5570.357692 kJ/mol
# Density = 2.743836 g / cm^3
# Si number density = 27.500958 Si / 1000 Ang^3
#
#
#
# Elastic Constant Matrix: (Units=GPa)
#
#
# Indices 1 2 3 4 5 6 
#
# 1 136.2718 25.0992 44.8737 12.9916 -19.2198 2.0162
# 2 25.0992 187.2171 58.6291 20.4829 -10.0616 -20.3922
# 3 44.8737 58.6291 194.5470 9.0199 -24.2395 -8.8671
# 4 12.9916 20.4829 9.0199 53.7546 -14.4985 -13.6063
# 5 -19.2198 -10.0616 -24.2395 -14.4985 28.2060 13.6953
# 6 2.0162 -20.3922 -8.8671 -13.6063 13.6953 40.5769
#
#
#
# Elastic Compliance Matrix: (Units=1/GPa)
#
#
# Indices 1 2 3 4 5 6 
#
# 1 0.008839 -0.000766 -0.001184 -0.000908 0.005907 -0.003381
# 2 -0.000766 0.006415 -0.001806 -0.001779 -0.002156 0.002998
# 3 -0.001184 -0.001806 0.006503 0.001049 0.005057 -0.000783
# 4 -0.000908 -0.001779 0.001049 0.022867 0.009544 0.003827
# 5 0.005907 -0.002156 0.005057 0.009544 0.055661 -0.015858
# 6 -0.003381 0.002998 -0.000783 0.003827 -0.015858 0.032784
#
#
# Mechanical properties :
#
#
# Convention : Reuss Voigt Hill
#
# Bulk Modulus (GPa) = 70.19656 86.13778 78.16717
# Shear Modulus (GPa) = 34.40464 50.46976 42.43720
#
# Velocity S-wave (km/s) = 3.54083 4.28857 3.93251
# Velocity P-wave (km/s) = 6.50363 7.47745 7.00747
#
# Compressibility (1/GPa) = 0.01424571
#
# Stress axis : x y z
#
# Youngs Moduli (GPa) = 113.13571 155.88516 153.76827
#
# Poissons Ratio (x) = 0.11935 0.18207
# Poissons Ratio (y) = 0.08662 0.27772
# Poissons Ratio (z) = 0.13396 0.28154
#
# Static dielectric constant tensor:
#      x y z
#    x 2.397760 -0.035000 0.046290 
#    y -0.035000 2.568590 -0.016110 
#    z 0.046290 -0.016110 2.167950 
# 
# From -- ./inp_files/603682.got.cif
#   From: 2010.05.17/outbox.cif.g08.bks.cpg/sg2_302_cif.got.tgz:603682.got - 2010.06.03 11:33:40.
