data_PCOD9104950
_publ_section_title
;
Structure prediction by ZEFSAII (Michael W. Deem and Ramdas Pophale) SiO2 
 PCOD9104950
Probable space group: P -1
;
_chemical_formula_sum "Si O2"
_cell_formula_units_Z 14
_cell_length_a 11.066171
_cell_length_b 5.339361
_cell_length_c 17.080403
_cell_angle_alpha 122.375481
_cell_angle_beta 54.933146
_cell_angle_gamma 122.358240
_cell_volume 658.738228
_symmetry_space_group_name_H-M "P -1"
_symmetry_group_IT_number 2
_symmetry_cell_setting 'triclinic'
loop_
_space_group_symop_operation_xyz
x,y,z
-x,-y,-z
loop_
_atom_site_type_symbol
_atom_site_label
_atom_site_fract_x
_atom_site_fract_y
_atom_site_fract_z
Si Si1 0.084763 0.349648 0.616731
Si Si2 0.854011 0.565179 0.026308
Si Si3 0.085922 0.719044 0.834404
Si Si4 0.142567 0.772737 0.455862
Si Si5 0.619911 0.240597 0.170455
Si Si6 0.590118 0.258048 0.448618
Si Si7 0.482954 0.785190 0.279321
O O1 0.060600 0.544822 0.732031
O O2 0.237233 0.578682 0.554608
O O3 0.930147 0.202233 0.598920
O O4 0.150502 0.063167 0.558012
O O5 0.700229 0.278973 0.060308
O O6 0.850905 0.899962 0.116942
O O7 0.000000 0.500000 0.000000
O O8 0.915554 0.618865 0.923517
O O9 0.220322 0.622256 0.814457
O O10 0.309261 0.745666 0.368075
O O11 0.000000 0.500000 0.500000
O O12 0.520161 0.474037 0.238188
O O13 0.520649 0.918258 0.198061
O O14 0.500000 0.500000 0.500000
O O15 0.500000 0.000000 0.500000
O O16 0.595598 0.071455 0.336281
#
# Coordination Sequence:
#
# PCOD9104950 Si02
#       7
#     2   2   2   2   2   2   2
#     4  11  24  42  63  92 133 176 225 269 321 397
#     4   9  19  36  66  99 136 158 204 274 342 397
#     4  10  20  39  63 104 129 168 210 272 336 395
#     4  11  27  44  60  88 135 189 228 264 318 393
#     4  11  21  38  64  98 126 165 211 270 329 384
#     4  12  23  37  60  91 125 163 215 277 323 370
#     4  12  24  39  66  91 130 173 219 271 328 384
#
# _framework density 21.252751
#
# number of rings (size 3 to 8) (size 9 to 14) (size 15 to 20)
#    0.000    1.143    4.286    1.714    4.000    2.286 
#    0.000    0.000    0.000    1.714    0.000    0.000 
#    0.000    0.000    0.000    0.000    0.000    0.000 
#
# Total GULP energy -77934.920875 kJ/mol
# GULP energy per Si atom -5566.780063 kJ/mol
# Density = 2.120438 g / cm^3
# Si number density = 21.252751 Si / 1000 Ang^3
#
#
#
# Elastic Constant Matrix: (Units=GPa)
#
#
# Indices 1 2 3 4 5 6 
#
# 1 79.4976 16.5358 26.7019 10.8590 -32.4299 -12.9457
# 2 16.5358 105.1558 45.5569 -18.7372 -10.0869 -19.6822
# 3 26.7019 45.5569 119.6423 -8.7679 -19.3268 -9.8540
# 4 10.8590 -18.7372 -8.7679 34.6034 -2.7873 -2.9231
# 5 -32.4299 -10.0869 -19.3268 -2.7873 33.0225 2.0022
# 6 -12.9457 -19.6822 -9.8540 -2.9231 2.0022 38.6438
#
#
#
# Elastic Compliance Matrix: (Units=1/GPa)
#
#
# Indices 1 2 3 4 5 6 
#
# 1 0.023695 -0.001179 -0.001426 -0.006271 0.021218 0.005400
# 2 -0.001179 0.013980 -0.003801 0.007599 0.001149 0.006271
# 3 -0.001426 -0.003801 0.010889 0.001487 0.003920 0.000272
# 4 -0.006271 0.007599 0.001487 0.035750 -0.000244 0.004866
# 5 0.021218 0.001149 0.003920 -0.000244 0.053386 0.005908
# 6 0.005400 0.006271 0.000272 0.004866 0.005908 0.031012
#
#
# Mechanical properties :
#
#
# Convention : Reuss Voigt Hill
#
# Bulk Modulus (GPa) = 27.97240 53.54279 40.75760
# Shear Modulus (GPa) = 25.84767 35.62065 30.73416
#
# Velocity S-wave (km/s) = 3.49119 4.09840 3.80692
# Velocity P-wave (km/s) = 5.42601 6.90245 6.20828
#
# Compressibility (1/GPa) = 0.03574952
#
# Stress axis : x y z
#
# Youngs Moduli (GPa) = 42.20324 71.53103 91.83966
#
# Poissons Ratio (x) = 0.08437 0.13100
# Poissons Ratio (y) = 0.04978 0.34909
# Poissons Ratio (z) = 0.06020 0.27189
#
# Static dielectric constant tensor:
#      x y z
#    x 1.840670 -0.057440 0.025880 
#    y -0.057440 1.873410 -0.093410 
#    z 0.025880 -0.093410 1.859600 
# 
# From -- ./inp_files/459607.got.cif
#   From: 2010.05.17/outbox.cif.g08.bks.cpg/sg2_230_cif.got.tgz:459607.got - 2010.06.03 11:33:40.
