data_PCOD9104523
_publ_section_title
;
Structure prediction by ZEFSAII (Michael W. Deem and Ramdas Pophale) SiO2 
 PCOD9104523
Probable space group: P -1
;
_chemical_formula_sum "Si O2"
_cell_formula_units_Z 14
_cell_length_a 19.109084
_cell_length_b 5.511823
_cell_length_c 8.802021
_cell_angle_alpha 78.841528
_cell_angle_beta 47.263579
_cell_angle_gamma 65.473072
_cell_volume 614.064069
_symmetry_space_group_name_H-M "P -1"
_symmetry_group_IT_number 2
_symmetry_cell_setting 'triclinic'
loop_
_space_group_symop_operation_xyz
x,y,z
-x,-y,-z
loop_
_atom_site_type_symbol
_atom_site_label
_atom_site_fract_x
_atom_site_fract_y
_atom_site_fract_z
Si Si1 0.148504 0.754413 0.534587
Si Si2 0.206186 0.130319 0.197195
Si Si3 0.701536 0.785361 0.647148
Si Si4 0.400441 0.791438 0.772382
Si Si5 0.113624 0.107503 0.805010
Si Si6 0.958406 0.614810 0.817476
Si Si7 0.519485 0.157375 0.677306
O O1 0.265694 0.531554 0.386720
O O2 0.060586 0.662499 0.612330
O O3 0.144634 0.996683 0.405932
O O4 0.126212 0.836331 0.733411
O O5 0.275275 0.196529 0.212606
O O6 0.122050 0.366828 0.197154
O O7 0.284710 0.920339 0.990818
O O8 0.788100 0.838345 0.410384
O O9 0.592541 0.996261 0.726518
O O10 0.451214 0.472034 0.773148
O O11 0.410776 0.826619 0.572016
O O12 0.458713 0.972041 0.736289
O O13 0.010055 0.329879 0.857378
O O14 0.100533 0.159013 0.996272
#
# Coordination Sequence:
#
# PCOD9104523 Si02
#       7
#     2   2   2   2   2   2   2
#     4  10  22  38  57  93 122 169 204 255 321 380
#     4  11  24  38  59  92 127 166 206 261 318 391
#     4  10  23  39  61  89 129 163 207 256 324 378
#     4  10  24  44  69  97 124 166 219 265 325 372
#     4   9  20  38  62  89 118 164 214 261 311 374
#     4  10  20  39  61  87 124 162 213 261 312 373
#     4  10  23  46  69  94 127 166 215 273 314 382
#
# _framework density 22.798926000000002
#
# number of rings (size 3 to 8) (size 9 to 14) (size 15 to 20)
#    0.000    2.000    0.000    1.714    6.000    7.429 
#    2.571    0.000    0.000    0.000    0.000    0.000 
#    0.000    0.000    0.000    0.000    0.000    0.000 
#
# Total GULP energy -78162.146321 kJ/mol
# GULP energy per Si atom -5583.010452 kJ/mol
# Density = 2.274703 g / cm^3
# Si number density = 22.798926 Si / 1000 Ang^3
#
#
#
# Elastic Constant Matrix: (Units=GPa)
#
#
# Indices 1 2 3 4 5 6 
#
# 1 93.3332 48.5889 2.6295 8.3953 16.0669 -30.2589
# 2 48.5889 90.0654 3.2248 21.5719 13.1359 -12.4020
# 3 2.6295 3.2248 70.4325 9.4926 7.9860 0.8031
# 4 8.3953 21.5719 9.4926 30.9811 4.4843 0.0314
# 5 16.0669 13.1359 7.9860 4.4843 12.8956 0.3219
# 6 -30.2589 -12.4020 0.8031 0.0314 0.3219 34.8192
#
#
#
# Elastic Compliance Matrix: (Units=1/GPa)
#
#
# Indices 1 2 3 4 5 6 
#
# 1 0.025232 -0.007616 0.001905 0.001611 -0.025905 0.019409
# 2 -0.007616 0.018668 0.001617 -0.010431 -0.006903 0.000067
# 3 0.001905 0.001617 0.016076 -0.004781 -0.012364 0.001980
# 4 0.001611 -0.010431 -0.004781 0.040948 -0.002606 -0.002218
# 5 -0.025905 -0.006903 -0.012364 -0.002606 0.126061 -0.025849
# 6 0.019409 0.000067 0.001980 -0.002218 -0.025849 0.045806
#
#
# Mechanical properties :
#
#
# Convention : Reuss Voigt Hill
#
# Bulk Modulus (GPa) = 19.30834 40.30192 29.80513
# Shear Modulus (GPa) = 16.76487 29.03171 22.89829
#
# Velocity S-wave (km/s) = 2.71465 3.57232 3.17260
# Velocity P-wave (km/s) = 4.27938 5.89328 5.14995
#
# Compressibility (1/GPa) = 0.05179109
#
# Stress axis : x y z
#
# Youngs Moduli (GPa) = 39.63172 53.56697 62.20272
#
# Poissons Ratio (x) = 0.40796 -0.11852
# Poissons Ratio (y) = 0.30183 -0.10061
# Poissons Ratio (z) = -0.07551 -0.08664
#
# Static dielectric constant tensor:
#      x y z
#    x 1.868550 0.060670 0.020190 
#    y 0.060670 1.877800 0.013000 
#    z 0.020190 0.013000 1.884640 
# 
# From -- ./inp_files/26986.got.cif
#   From: 2010.05.17/outbox.cif.g08.bks.cpg/sg2_14_cif.got.tgz:26986.got - 2010.06.03 11:33:40.
