data_PCOD9104378
_publ_section_title
;
Structure prediction by ZEFSAII (Michael W. Deem and Ramdas Pophale) SiO2 
 PCOD9104378
Probable space group: P -1
;
_chemical_formula_sum "Si O2"
_cell_formula_units_Z 12
_cell_length_a 13.553116
_cell_length_b 7.153507
_cell_length_c 8.220994
_cell_angle_alpha 52.654292
_cell_angle_beta 51.366481
_cell_angle_gamma 57.113446
_cell_volume 477.348491
_symmetry_space_group_name_H-M "P -1"
_symmetry_group_IT_number 2
_symmetry_cell_setting 'triclinic'
loop_
_space_group_symop_operation_xyz
x,y,z
-x,-y,-z
loop_
_atom_site_type_symbol
_atom_site_label
_atom_site_fract_x
_atom_site_fract_y
_atom_site_fract_z
Si Si1 0.921754 0.636379 0.167018
Si Si2 0.482687 0.851061 0.934977
Si Si3 0.304708 0.563871 0.958925
Si Si4 0.286493 0.089379 0.553680
Si Si5 0.182116 0.901296 0.148952
Si Si6 0.132114 0.236758 0.309736
O O1 0.771701 0.711164 0.350460
O O2 0.000407 0.451747 0.318612
O O3 0.914879 0.915039 0.973406
O O4 0.000000 0.500000 0.000000
O O5 0.576698 0.898435 0.670658
O O6 0.334479 0.910333 0.999072
O O7 0.548623 0.573427 0.070202
O O8 0.500000 0.000000 0.000000
O O9 0.211545 0.639524 0.173991
O O10 0.297607 0.812005 0.742775
O O11 0.238136 0.368258 0.050712
O O12 0.182941 0.143675 0.483021
O O13 0.131998 0.001826 0.323579
#
# Coordination Sequence:
#
# PCOD9104378 Si02
#       6
#     2   2   2   2   2   2
#     4   9  20  37  64  88 122 159 196 249 296 351
#     4  11  21  41  62  87 125 156 199 253 296 353
#     4  10  22  37  63  90 119 161 197 248 299 352
#     4  10  21  37  64  92 114 165 201 236 309 355
#     4  10  20  39  60  90 121 159 197 246 297 351
#     4  10  20  42  61  88 127 155 198 249 293 354
#
# _framework density 25.138864999999999
#
# number of rings (size 3 to 8) (size 9 to 14) (size 15 to 20)
#    0.000    2.000    3.333    1.000    0.000    6.000 
#    0.000   10.000    0.000   26.000    0.000    0.000 
#    0.000    0.000    0.000    0.000    0.000    0.000 
#
# Total GULP energy -66807.650903 kJ/mol
# GULP energy per Si atom -5567.304242 kJ/mol
# Density = 2.508165 g / cm^3
# Si number density = 25.138865 Si / 1000 Ang^3
#
#
#
# Elastic Constant Matrix: (Units=GPa)
#
#
# Indices 1 2 3 4 5 6 
#
# 1 71.6972 51.9268 42.1082 -2.2392 6.5322 -15.0304
# 2 51.9268 188.0663 56.1211 0.5266 8.7327 -22.7794
# 3 42.1082 56.1211 131.5360 6.1741 -5.3983 -15.0435
# 4 -2.2392 0.5266 6.1741 55.1936 -19.1867 11.9362
# 5 6.5322 8.7327 -5.3983 -19.1867 35.8395 2.2310
# 6 -15.0304 -22.7794 -15.0435 11.9362 2.2310 43.4375
#
#
#
# Elastic Compliance Matrix: (Units=1/GPa)
#
#
# Indices 1 2 3 4 5 6 
#
# 1 0.020520 -0.003555 -0.004715 -0.001019 -0.004385 0.004109
# 2 -0.003555 0.007205 -0.001686 -0.001326 -0.002223 0.002443
# 3 -0.004715 -0.001686 0.010081 -0.000718 0.002339 0.001053
# 4 -0.001019 -0.001326 -0.000718 0.025107 0.014398 -0.008935
# 5 -0.004385 -0.002223 0.002339 0.014398 0.037787 -0.007771
# 6 0.004109 0.002443 0.001053 -0.008935 -0.007771 0.028944
#
#
# Mechanical properties :
#
#
# Convention : Reuss Voigt Hill
#
# Bulk Modulus (GPa) = 55.87872 76.84574 66.36223
# Shear Modulus (GPa) = 32.15053 42.97033 37.56043
#
# Velocity S-wave (km/s) = 3.58008 4.13888 3.86958
# Velocity P-wave (km/s) = 6.27420 7.31268 6.81325
#
# Compressibility (1/GPa) = 0.01789590
#
# Stress axis : x y z
#
# Youngs Moduli (GPa) = 48.73284 138.80028 99.19641
#
# Poissons Ratio (x) = 0.49340 0.46767
# Poissons Ratio (y) = 0.17323 0.16720
# Poissons Ratio (z) = 0.22975 0.23396
#
# Static dielectric constant tensor:
#      x y z
#    x 2.059110 0.018620 0.036590 
#    y 0.018620 1.977380 0.046390 
#    z 0.036590 0.046390 2.091940 
# 
# From -- ./inp_files/203409.got.cif
#   From: 2010.05.17/outbox.cif.g08.bks.cpg/sg2_102_cif.got.tgz:203409.got - 2010.06.03 11:33:40.
