data_PCOD9104268
_publ_section_title
;
Structure prediction by ZEFSAII (Michael W. Deem and Ramdas Pophale) SiO2 
 PCOD9104268
Probable space group: P -1
;
_chemical_formula_sum "Si O2"
_cell_formula_units_Z 16
_cell_length_a 17.519404
_cell_length_b 7.188392
_cell_length_c 11.692897
_cell_angle_alpha 114.685242
_cell_angle_beta 30.224698
_cell_angle_gamma 123.720861
_cell_volume 609.750418
_symmetry_space_group_name_H-M "P -1"
_symmetry_group_IT_number 2
_symmetry_cell_setting 'triclinic'
loop_
_space_group_symop_operation_xyz
x,y,z
-x,-y,-z
loop_
_atom_site_type_symbol
_atom_site_label
_atom_site_fract_x
_atom_site_fract_y
_atom_site_fract_z
Si Si1 0.250454 0.592534 0.583195
Si Si2 0.845293 0.772360 0.099213
Si Si3 0.687851 0.516918 0.758568
Si Si4 0.587694 0.693487 0.600063
Si Si5 0.729569 0.214080 0.958760
Si Si6 0.220502 0.036519 0.363670
Si Si7 0.124404 0.352819 0.217606
Si Si8 0.871757 0.303533 0.018121
O O1 0.290824 0.645130 0.409822
O O2 0.394426 0.526645 0.429927
O O3 0.218341 0.757009 0.757493
O O4 0.069518 0.372000 0.776241
O O5 0.682456 0.751250 0.372358
O O6 0.866914 0.544868 0.050769
O O7 0.832900 0.766622 0.976798
O O8 0.000000 0.000000 0.000000
O O9 0.746811 0.528457 0.815296
O O10 0.799976 0.761083 0.622046
O O11 0.500000 0.500000 0.000000
O O12 0.409019 0.693023 0.818281
O O13 0.684088 0.875946 0.619593
O O14 0.774380 0.134896 0.999506
O O15 0.677334 0.037936 0.879451
O O16 0.893762 0.432936 0.760776
O O17 0.045385 0.832632 0.562089
#
# Coordination Sequence:
#
# PCOD9104268 Si02
#       8
#     2   2   2   2   2   2   2   2
#     4   9  19  39  60  87 117 157 207 241 311 361
#     4  10  20  39  59  92 121 156 212 250 309 364
#     4  11  24  41  61  90 127 169 205 256 312 370
#     4  10  21  38  65  87 124 165 198 261 309 365
#     4  11  23  39  62  99 125 157 210 258 318 361
#     4  11  22  40  61  89 128 164 209 252 307 373
#     4  11  22  38  66  90 123 168 205 258 309 373
#     4   9  20  37  64  89 117 160 201 261 300 370
#
# _framework density 26.240244000000001
#
# number of rings (size 3 to 8) (size 9 to 14) (size 15 to 20)
#    0.000    1.750    1.250    3.375    0.000    7.500 
#    4.500    0.000    0.000    1.500    0.000    0.000 
#    0.000    0.000    0.000    0.000    0.000    0.000 
#
# Total GULP energy -89514.479094 kJ/mol
# GULP energy per Si atom -5594.654943 kJ/mol
# Density = 2.618052 g / cm^3
# Si number density = 26.240244 Si / 1000 Ang^3
#
#
#
# Elastic Constant Matrix: (Units=GPa)
#
#
# Indices 1 2 3 4 5 6 
#
# 1 149.6908 19.4520 55.3089 16.2867 28.5863 32.7599
# 2 19.4520 53.8309 19.6785 8.4645 18.2088 4.1724
# 3 55.3089 19.6785 124.6574 28.4111 37.4006 21.0865
# 4 16.2867 8.4645 28.4111 28.7794 13.7642 12.2036
# 5 28.5863 18.2088 37.4006 13.7642 52.8084 13.8900
# 6 32.7599 4.1724 21.0865 12.2036 13.8900 49.5892
#
#
#
# Elastic Compliance Matrix: (Units=1/GPa)
#
#
# Indices 1 2 3 4 5 6 
#
# 1 0.009073 -0.001544 -0.002736 0.000587 -0.001425 -0.004446
# 2 -0.001544 0.021673 -0.000618 -0.002819 -0.005943 0.001818
# 3 -0.002736 -0.000618 0.012815 -0.008419 -0.005169 -0.000070
# 4 0.000587 -0.002819 -0.008419 0.048661 -0.004123 -0.007391
# 5 -0.001425 -0.005943 -0.005169 -0.004123 0.027278 -0.002987
# 6 -0.004446 0.001818 -0.000070 -0.007391 -0.002987 0.025635
#
#
# Mechanical properties :
#
#
# Convention : Reuss Voigt Hill
#
# Bulk Modulus (GPa) = 29.61713 57.45088 43.53401
# Shear Modulus (GPa) = 30.08647 41.81803 35.95225
#
# Velocity S-wave (km/s) = 3.38979 3.99640 3.70553
# Velocity P-wave (km/s) = 5.16065 6.57546 5.91054
#
# Compressibility (1/GPa) = 0.03376424
#
# Stress axis : x y z
#
# Youngs Moduli (GPa) = 110.21302 46.13988 78.03304
#
# Poissons Ratio (x) = 0.07125 0.21352
# Poissons Ratio (y) = 0.17019 0.04824
# Poissons Ratio (z) = 0.30157 0.02853
#
# Static dielectric constant tensor:
#      x y z
#    x 2.098940 0.010190 0.046150 
#    y 0.010190 2.164490 0.046880 
#    z 0.046150 0.046880 2.071440 
# 
# From -- ./inp_files/419204.got.cif
#   From: 2010.05.17/outbox.cif.g08.bks.cpg/sg2_210_cif.got.tgz:419204.got - 2010.06.03 11:33:40.
