data_PCOD9104203
_publ_section_title
;
Structure prediction by ZEFSAII (Michael W. Deem and Ramdas Pophale) SiO2 
 PCOD9104203
Probable space group: P -1
;
_chemical_formula_sum "Si O2"
_cell_formula_units_Z 14
_cell_length_a 7.727501
_cell_length_b 5.216010
_cell_length_c 28.957402
_cell_angle_alpha 53.364740
_cell_angle_beta 37.348609
_cell_angle_gamma 49.870219
_cell_volume 532.364174
_symmetry_space_group_name_H-M "P -1"
_symmetry_group_IT_number 2
_symmetry_cell_setting 'triclinic'
loop_
_space_group_symop_operation_xyz
x,y,z
-x,-y,-z
loop_
_atom_site_type_symbol
_atom_site_label
_atom_site_fract_x
_atom_site_fract_y
_atom_site_fract_z
Si Si1 0.938509 0.221207 0.345869
Si Si2 0.521137 0.723233 0.239268
Si Si3 0.581879 0.177001 0.101731
Si Si4 0.448178 0.131502 0.944917
Si Si5 0.647872 0.492438 0.519721
Si Si6 0.250950 0.227536 0.377535
Si Si7 0.002721 0.280313 0.794181
O O1 0.595754 0.233042 0.425512
O O2 0.939017 0.557220 0.282660
O O3 0.090863 0.212000 0.364375
O O4 0.160194 0.924872 0.299188
O O5 0.531569 0.353680 0.293334
O O6 0.693640 0.869813 0.224760
O O7 0.631267 0.828201 0.156592
O O8 0.709063 0.456303 0.066701
O O9 0.224928 0.409452 0.159594
O O10 0.681523 0.084411 0.038167
O O11 0.786846 0.061459 0.859529
O O12 0.500000 0.000000 0.000000
O O13 0.500000 0.500000 0.500000
O O14 0.991819 0.476133 0.440365
O O15 0.667280 0.135891 0.576981
#
# Coordination Sequence:
#
# PCOD9104203 Si02
#       7
#     2   2   2   2   2   2   2
#     4  10  20  39  59  84 122 158 217 263 320 381
#     4  11  22  38  60  93 119 168 214 272 317 389
#     4   9  22  40  64  96 131 170 216 265 317 390
#     4  10  20  43  69  93 134 174 211 262 325 386
#     4   9  20  38  57  88 119 167 213 271 326 394
#     4  10  21  37  61  82 125 165 214 270 331 382
#     4   9  22  36  60  93 124 164 217 260 326 382
#
# _framework density 26.297789999999999
#
# number of rings (size 3 to 8) (size 9 to 14) (size 15 to 20)
#    0.857    1.429    0.000    2.143    0.000    7.429 
#    0.000   11.429    0.000    0.000    0.000    0.000 
#    0.000    0.000    0.000    0.000    0.000    0.000 
#
# Total GULP energy -78206.164308 kJ/mol
# GULP energy per Si atom -5586.154593 kJ/mol
# Density = 2.623794 g / cm^3
# Si number density = 26.297790 Si / 1000 Ang^3
#
#
#
# Elastic Constant Matrix: (Units=GPa)
#
#
# Indices 1 2 3 4 5 6 
#
# 1 66.1343 13.8282 26.4744 5.9959 10.8772 9.9731
# 2 13.8282 58.9995 18.4481 3.2329 6.9926 7.0778
# 3 26.4744 18.4481 127.0992 -12.4296 9.6030 -3.3219
# 4 5.9959 3.2329 -12.4296 39.9291 -3.0598 2.9536
# 5 10.8772 6.9926 9.6030 -3.0598 51.0084 -4.8626
# 6 9.9731 7.0778 -3.3219 2.9536 -4.8626 34.6177
#
#
#
# Elastic Compliance Matrix: (Units=1/GPa)
#
#
# Indices 1 2 3 4 5 6 
#
# 1 0.018889 -0.001876 -0.003891 -0.003770 -0.003802 -0.005644
# 2 -0.001876 0.018979 -0.002483 -0.001921 -0.002204 -0.003724
# 3 -0.003891 -0.002483 0.009458 0.003552 -0.000187 0.002207
# 4 -0.003770 -0.001921 0.003552 0.027040 0.002001 -0.000206
# 5 -0.003802 -0.002204 -0.000187 0.002001 0.021287 0.004348
# 6 -0.005644 -0.003724 0.002207 -0.000206 0.004348 0.032114
#
#
# Mechanical properties :
#
#
# Convention : Reuss Voigt Hill
#
# Bulk Modulus (GPa) = 32.44039 41.08160 36.76100
# Shear Modulus (GPa) = 32.35365 38.00988 35.18177
#
# Velocity S-wave (km/s) = 3.51134 3.80592 3.66159
# Velocity P-wave (km/s) = 5.36674 5.91346 5.64672
#
# Compressibility (1/GPa) = 0.03082577
#
# Stress axis : x y z
#
# Youngs Moduli (GPa) = 52.94095 52.69117 105.73214
#
# Poissons Ratio (x) = 0.09886 0.41141
# Poissons Ratio (y) = 0.09933 0.26248
# Poissons Ratio (z) = 0.20600 0.13081
#
# Static dielectric constant tensor:
#      x y z
#    x 2.074540 -0.026830 -0.060430 
#    y -0.026830 2.201230 0.031940 
#    z -0.060430 0.031940 2.060390 
# 
# From -- ./inp_files/142923.got.cif
#   From: 2010.05.17/outbox.cif.g08.bks.cpg/sg2_72_cif.got.tgz:142923.got - 2010.06.03 11:33:40.
