data_PCOD9104799
_publ_section_title
;
Structure prediction by ZEFSAII (Michael W. Deem and Ramdas Pophale) SiO2 
 PCOD9104799
Probable space group: P -1
;
_chemical_formula_sum "Si O2"
_cell_formula_units_Z 16
_cell_length_a 8.602167
_cell_length_b 12.437099
_cell_length_c 16.471540
_cell_angle_alpha 62.041536
_cell_angle_beta 124.633689
_cell_angle_gamma 147.149347
_cell_volume 786.387137
_symmetry_space_group_name_H-M "P -1"
_symmetry_group_IT_number 2
_symmetry_cell_setting 'triclinic'
loop_
_space_group_symop_operation_xyz
x,y,z
-x,-y,-z
loop_
_atom_site_type_symbol
_atom_site_label
_atom_site_fract_x
_atom_site_fract_y
_atom_site_fract_z
Si Si1 0.991840 0.706302 0.569733
Si Si2 0.148625 0.853326 0.963403
Si Si3 0.591044 0.652477 0.361442
Si Si4 0.975206 0.024542 0.889457
Si Si5 0.934078 0.261297 0.835875
Si Si6 0.252034 0.990837 0.684614
Si Si7 0.366227 0.667674 0.737503
Si Si8 0.714600 0.624813 0.773008
O O1 0.217773 0.706023 0.633360
O O2 0.847994 0.684598 0.452262
O O3 0.702333 0.518875 0.606208
O O4 0.159771 0.901158 0.598822
O O5 0.900401 0.675427 0.889313
O O6 0.050261 0.758739 0.056880
O O7 0.136494 0.994535 0.903184
O O8 0.500000 0.000000 0.000000
O O9 0.712630 0.848203 0.347008
O O10 0.481097 0.572742 0.265426
O O11 0.077319 0.216336 0.848742
O O12 0.631443 0.846277 0.814507
O O13 0.000000 0.000000 0.000000
O O14 0.576875 0.095193 0.766732
O O15 0.110351 0.470237 0.785685
O O16 0.983984 0.805667 0.728524
O O17 0.512210 0.638935 0.733142
#
# Coordination Sequence:
#
# PCOD9104799 Si02
#       8
#     2   2   2   2   2   2   2   2
#     4  10  21  39  67  90 121 157 207 255 303 353
#     4  10  20  39  62  90 122 163 199 247 302 356
#     4  10  22  40  62  95 120 159 204 255 302 367
#     4   9  21  36  59  84 122 155 198 250 290 349
#     4  11  21  38  65  88 119 165 205 239 304 363
#     4  11  20  40  64  88 120 164 203 249 303 366
#     4  11  22  40  61  93 122 159 203 254 298 364
#     4  10  24  39  60  88 132 152 202 253 310 348
#
# _framework density 20.346212000000001
#
# number of rings (size 3 to 8) (size 9 to 14) (size 15 to 20)
#    0.000    1.750    3.750    0.375    0.000    7.000 
#    0.000    2.500    0.000    0.000    0.000    0.000 
#    0.000    0.000    0.000    0.000    0.000    0.000 
#
# Total GULP energy -89324.058866 kJ/mol
# GULP energy per Si atom -5582.753679 kJ/mol
# Density = 2.029990 g / cm^3
# Si number density = 20.346212 Si / 1000 Ang^3
#
#
#
# Elastic Constant Matrix: (Units=GPa)
#
#
# Indices 1 2 3 4 5 6 
#
# 1 62.1883 22.7469 27.1329 3.8170 19.5418 4.7315
# 2 22.7469 71.4584 30.8643 7.5270 5.1271 -21.8387
# 3 27.1329 30.8643 94.2322 17.1259 18.6680 -2.4023
# 4 3.8170 7.5270 17.1259 23.0838 -4.9294 6.5882
# 5 19.5418 5.1271 18.6680 -4.9294 37.2115 1.9921
# 6 4.7315 -21.8387 -2.4023 6.5882 1.9921 22.5698
#
#
#
# Elastic Compliance Matrix: (Units=1/GPa)
#
#
# Indices 1 2 3 4 5 6 
#
# 1 0.025824 -0.012647 -0.003153 0.005790 -0.008457 -0.018930
# 2 -0.012647 0.033601 -0.002680 -0.018696 -0.001285 0.040449
# 3 -0.003153 -0.002680 0.016805 -0.014261 -0.008550 0.004774
# 4 0.005790 -0.018696 -0.014261 0.075870 0.019131 -0.044657
# 5 -0.008457 -0.001285 -0.008550 0.019131 0.038818 -0.009391
# 6 -0.018930 0.040449 0.004774 -0.044657 -0.009391 0.101787
#
#
# Mechanical properties :
#
#
# Convention : Reuss Voigt Hill
#
# Bulk Modulus (GPa) = 25.46479 43.26301 34.36390
# Shear Modulus (GPa) = 14.58763 26.38201 20.48482
#
# Velocity S-wave (km/s) = 2.68053 3.60482 3.17647
# Velocity P-wave (km/s) = 4.70354 6.21577 5.51177
#
# Compressibility (1/GPa) = 0.03926991
#
# Stress axis : x y z
#
# Youngs Moduli (GPa) = 38.72332 29.76088 59.50572
#
# Poissons Ratio (x) = 0.37639 0.18761
# Poissons Ratio (y) = 0.48974 0.15950
# Poissons Ratio (z) = 0.12209 0.07977
#
# Static dielectric constant tensor:
#      x y z
#    x 1.737620 -0.015470 -0.003120 
#    y -0.015470 1.727060 0.014920 
#    z -0.003120 0.014920 1.720060 
# 
# From -- ./inp_files/55637.got.cif
#   From: 2010.05.17/outbox.cif.g08.bks.cpg/sg2_28_cif.got.tgz:55637.got - 2010.06.03 11:33:40.
