data_PCOD9104634
_publ_section_title
;
Structure prediction by ZEFSAII (Michael W. Deem and Ramdas Pophale) SiO2 
 PCOD9104634
Probable space group: P -1
;
_chemical_formula_sum "Si O2"
_cell_formula_units_Z 16
_cell_length_a 16.420986
_cell_length_b 5.240643
_cell_length_c 8.631502
_cell_angle_alpha 94.711491
_cell_angle_beta 80.296997
_cell_angle_gamma 114.535206
_cell_volume 665.999483
_symmetry_space_group_name_H-M "P -1"
_symmetry_group_IT_number 2
_symmetry_cell_setting 'triclinic'
loop_
_space_group_symop_operation_xyz
x,y,z
-x,-y,-z
loop_
_atom_site_type_symbol
_atom_site_label
_atom_site_fract_x
_atom_site_fract_y
_atom_site_fract_z
Si Si1 0.049170 0.304377 0.423976
Si Si2 0.400587 0.440123 0.964966
Si Si3 0.366545 0.756796 0.410830
Si Si4 0.206150 0.363613 0.595356
Si Si5 0.933685 0.072518 0.175915
Si Si6 0.306384 0.837085 0.106127
Si Si7 0.549426 0.734952 0.368853
Si Si8 0.146139 0.539339 0.923738
O O1 0.146429 0.412486 0.478680
O O2 0.000000 0.500000 0.500000
O O3 0.025800 0.242521 0.247836
O O4 0.000000 0.000000 0.500000
O O5 0.400886 0.367095 0.780865
O O6 0.500000 0.500000 0.000000
O O7 0.372009 0.696845 0.010936
O O8 0.333697 0.155169 0.057341
O O9 0.303762 0.457439 0.491646
O O10 0.317461 0.825099 0.285322
O O11 0.464105 0.779256 0.324427
O O12 0.387804 0.984881 0.550056
O O13 0.209291 0.554808 0.753577
O O14 0.147192 0.056530 0.671422
O O15 0.904669 0.263832 0.085132
O O16 0.076884 0.214875 0.916635
O O17 0.208740 0.643914 0.058091
O O18 0.500000 0.500000 0.500000
#
# Coordination Sequence:
#
# PCOD9104634 Si02
#       8
#     2   2   2   2   2   2   2   2
#     4  10  16  33  57  90 125 154 202 256 305 366
#     4  12  25  45  68  86 121 167 218 252 318 377
#     4  11  25  43  60  95 126 163 211 260 323 365
#     4   9  21  34  62  91 122 158 204 260 306 361
#     4   9  18  35  59  92 117 161 203 253 304 363
#     4  12  26  43  63  92 124 171 209 260 307 385
#     4  11  26  43  67  88 127 163 209 270 314 371
#     4  10  20  35  59  86 121 158 203 251 299 365
#
# _framework density 24.024041
#
# number of rings (size 3 to 8) (size 9 to 14) (size 15 to 20)
#    0.750    0.750    2.500    2.625    5.250    1.000 
#    0.000    0.000    0.000    1.500    0.000    0.000 
#    0.000    0.000    0.000    0.000    0.000    0.000 
#
# Total GULP energy -89467.287978 kJ/mol
# GULP energy per Si atom -5591.705499 kJ/mol
# Density = 2.396936 g / cm^3
# Si number density = 24.024041 Si / 1000 Ang^3
#
#
#
# Elastic Constant Matrix: (Units=GPa)
#
#
# Indices 1 2 3 4 5 6 
#
# 1 92.8211 32.5325 31.3606 6.7968 31.4809 7.3671
# 2 32.5325 87.7945 12.7039 0.7141 4.7647 3.4921
# 3 31.3606 12.7039 97.6773 7.5940 16.7092 18.2338
# 4 6.7968 0.7141 7.5940 34.9167 7.5923 3.1203
# 5 31.4809 4.7647 16.7092 7.5923 47.4897 3.8901
# 6 7.3671 3.4921 18.2338 3.1203 3.8901 45.9373
#
#
#
# Elastic Compliance Matrix: (Units=1/GPa)
#
#
# Indices 1 2 3 4 5 6 
#
# 1 0.016950 -0.005309 -0.003034 -0.000431 -0.009544 -0.000273
# 2 -0.005309 0.013298 -0.000404 0.000372 0.002286 -0.000218
# 3 -0.003034 -0.000404 0.012454 -0.001351 -0.001771 -0.004184
# 4 -0.000431 0.000372 -0.001351 0.029975 -0.003976 -0.001122
# 5 -0.009544 0.002286 -0.001771 -0.003976 0.028420 -0.000077
# 6 -0.000273 -0.000218 -0.004184 -0.001122 -0.000077 0.023573
#
#
# Mechanical properties :
#
#
# Convention : Reuss Voigt Hill
#
# Bulk Modulus (GPa) = 39.67390 47.94297 43.80843
# Shear Modulus (GPa) = 33.20813 39.11512 36.16163
#
# Velocity S-wave (km/s) = 3.72195 4.03943 3.88393
# Velocity P-wave (km/s) = 5.91782 6.46186 6.19581
#
# Compressibility (1/GPa) = 0.02520549
#
# Stress axis : x y z
#
# Youngs Moduli (GPa) = 58.99818 75.20100 80.29811
#
# Poissons Ratio (x) = 0.39927 0.24364
# Poissons Ratio (y) = 0.31324 0.03245
# Poissons Ratio (z) = 0.17901 0.03039
#
# Static dielectric constant tensor:
#      x y z
#    x 1.952080 0.034820 -0.033450 
#    y 0.034820 1.882200 -0.006590 
#    z -0.033450 -0.006590 1.973790 
# 
# From -- ./inp_files/322621.got.cif
#   From: 2010.05.17/outbox.cif.g08.bks.cpg/sg2_162_cif.got.tgz:322621.got - 2010.06.03 11:33:40.
