data_PCOD9104766
_publ_section_title
;
Structure prediction by ZEFSAII (Michael W. Deem and Ramdas Pophale) SiO2 
 PCOD9104766
Probable space group: P -1
;
_chemical_formula_sum "Si O2"
_cell_formula_units_Z 16
_cell_length_a 12.530354
_cell_length_b 8.731000
_cell_length_c 7.817480
_cell_angle_alpha 54.616154
_cell_angle_beta 72.125198
_cell_angle_gamma 66.561023
_cell_volume 636.378938
_symmetry_space_group_name_H-M "P -1"
_symmetry_group_IT_number 2
_symmetry_cell_setting 'triclinic'
loop_
_space_group_symop_operation_xyz
x,y,z
-x,-y,-z
loop_
_atom_site_type_symbol
_atom_site_label
_atom_site_fract_x
_atom_site_fract_y
_atom_site_fract_z
Si Si1 0.974689 0.676864 0.111565
Si Si2 0.552290 0.544454 0.721689
Si Si3 0.799843 0.015999 0.175250
Si Si4 0.786979 0.456551 0.824472
Si Si5 0.533671 0.093709 0.249628
Si Si6 0.759155 0.537530 0.181861
Si Si7 0.496517 0.227350 0.740141
Si Si8 0.105348 0.863007 0.639277
O O1 0.873395 0.605095 0.121220
O O2 0.081601 0.523895 0.257350
O O3 0.905161 0.848273 0.157104
O O4 0.039921 0.762201 0.875989
O O5 0.686693 0.549122 0.678517
O O6 0.491552 0.678247 0.828538
O O7 0.554335 0.322698 0.803946
O O8 0.484599 0.667489 0.514622
O O9 0.671407 0.003188 0.214114
O O10 0.821679 0.022095 0.362979
O O11 0.802492 0.224001 0.960320
O O12 0.740438 0.524037 0.995165
O O13 0.500000 0.000000 0.500000
O O14 0.474047 0.002106 0.183115
O O15 0.641717 0.678098 0.221346
O O16 0.798996 0.315970 0.380353
O O17 0.000000 0.000000 0.500000
#
# Coordination Sequence:
#
# PCOD9104766 Si02
#       8
#     2   2   2   2   2   2   2   2
#     4  10  20  41  62  91 126 162 205 255 313 374
#     4  10  22  41  63  89 126 163 211 257 315 369
#     4  10  20  39  64  84 121 163 204 257 306 374
#     4  10  21  38  62  87 124 162 199 255 315 377
#     4  10  21  41  60  89 123 160 207 259 312 362
#     4  10  20  39  62  88 128 160 206 258 315 367
#     4  10  21  40  65  89 122 168 207 262 311 369
#     4  10  21  37  60  91 125 163 204 249 318 377
#
# _framework density 25.142251000000002
#
# number of rings (size 3 to 8) (size 9 to 14) (size 15 to 20)
#    0.000    2.250    1.250    4.500    0.000    4.000 
#   11.250    2.500    0.000    0.000    0.000    0.000 
#    0.000    0.000    0.000    0.000    0.000    0.000 
#
# Total GULP energy -89331.573175 kJ/mol
# GULP energy per Si atom -5583.223323 kJ/mol
# Density = 2.508503 g / cm^3
# Si number density = 25.142251 Si / 1000 Ang^3
#
#
#
# Elastic Constant Matrix: (Units=GPa)
#
#
# Indices 1 2 3 4 5 6 
#
# 1 148.7637 31.6832 16.8626 -3.4036 21.8973 5.3218
# 2 31.6832 168.8802 28.1242 3.9905 8.1112 21.9467
# 3 16.8626 28.1242 27.7186 -0.9646 16.4558 8.2481
# 4 -3.4036 3.9905 -0.9646 30.8889 0.7238 2.3476
# 5 21.8973 8.1112 16.4558 0.7238 34.0362 3.3017
# 6 5.3218 21.9467 8.2481 2.3476 3.3017 56.2314
#
#
#
# Elastic Compliance Matrix: (Units=1/GPa)
#
#
# Indices 1 2 3 4 5 6 
#
# 1 0.007720 -0.001103 -0.001050 0.001055 -0.004224 0.000058
# 2 -0.001103 0.007653 -0.008516 -0.001317 0.003202 -0.001767
# 3 -0.001050 -0.008516 0.063100 0.003932 -0.027461 -0.004384
# 4 0.001055 -0.001317 0.003932 0.032954 -0.002833 -0.001372
# 5 -0.004224 0.003202 -0.027461 -0.002833 0.044607 0.000677
# 6 0.000058 -0.001767 -0.004384 -0.001372 0.000677 0.019128
#
#
# Mechanical properties :
#
#
# Convention : Reuss Voigt Hill
#
# Bulk Modulus (GPa) = 17.50195 55.41137 36.45666
# Shear Modulus (GPa) = 23.19705 42.14412 32.67058
#
# Velocity S-wave (km/s) = 3.04078 4.09862 3.60867
# Velocity P-wave (km/s) = 4.39372 6.66972 5.64756
#
# Compressibility (1/GPa) = 0.05713650
#
# Stress axis : x y z
#
# Youngs Moduli (GPa) = 129.53638 130.66246 15.84779
#
# Poissons Ratio (x) = 0.14412 0.01664
# Poissons Ratio (y) = 0.14288 0.13495
# Poissons Ratio (z) = 0.13600 1.11266
#
# Static dielectric constant tensor:
#      x y z
#    x 2.031420 0.076560 -0.022650 
#    y 0.076560 2.066810 -0.063300 
#    z -0.022650 -0.063300 2.102030 
# 
# From -- ./inp_files/242509.got.cif
#   From: 2010.05.17/outbox.cif.g08.bks.cpg/sg2_122_cif.got.tgz:242509.got - 2010.06.03 11:33:40.
