data_PCOD9104261
_publ_section_title
;
Structure prediction by ZEFSAII (Michael W. Deem and Ramdas Pophale) SiO2 
 PCOD9104261
Probable space group: P -1
;
_chemical_formula_sum "Si O2"
_cell_formula_units_Z 14
_cell_length_a 8.133459
_cell_length_b 9.400284
_cell_length_c 22.012881
_cell_angle_alpha 49.255774
_cell_angle_beta 149.598007
_cell_angle_gamma 134.452069
_cell_volume 602.448490
_symmetry_space_group_name_H-M "P -1"
_symmetry_group_IT_number 2
_symmetry_cell_setting 'triclinic'
loop_
_space_group_symop_operation_xyz
x,y,z
-x,-y,-z
loop_
_atom_site_type_symbol
_atom_site_label
_atom_site_fract_x
_atom_site_fract_y
_atom_site_fract_z
Si Si1 0.346831 0.514773 0.535683
Si Si2 0.577870 0.365019 0.868002
Si Si3 0.654083 0.044211 0.896607
Si Si4 0.516178 0.649805 0.019488
Si Si5 0.749940 0.112684 0.658026
Si Si6 0.450407 0.673207 0.658609
Si Si7 0.330415 0.801201 0.266971
O O1 0.398609 0.728700 0.463095
O O2 0.410794 0.553006 0.616964
O O3 0.586183 0.390058 0.629988
O O4 0.948809 0.371845 0.436738
O O5 0.744938 0.225232 0.923402
O O6 0.655580 0.404694 0.953239
O O7 0.624002 0.570625 0.790837
O O8 0.163877 0.229384 0.764624
O O9 0.500528 0.104563 0.769447
O O10 0.421496 0.835272 0.911407
O O11 0.000000 0.000000 0.000000
O O12 0.922614 0.726943 0.144637
O O13 0.500000 0.500000 0.000000
O O14 0.594271 0.051049 0.693195
O O15 0.652866 0.907523 0.648059
#
# Coordination Sequence:
#
# PCOD9104261 Si02
#       7
#     2   2   2   2   2   2   2
#     4  10  20  39  59  91 129 156 199 255 300 365
#     4  10  21  42  64  88 127 162 199 260 308 361
#     4  10  21  41  62  83 121 162 204 254 310 356
#     4  10  23  40  62  92 120 158 212 256 306 366
#     4  10  22  37  63  93 122 162 203 245 306 375
#     4  10  21  37  63  93 121 159 205 243 310 373
#     4  10  21  40  60  86 126 161 199 257 305 357
#
# _framework density 23.238502
#
# number of rings (size 3 to 8) (size 9 to 14) (size 15 to 20)
#    0.000    2.000    1.429    1.286    2.000    1.714 
#    2.571    2.857    0.000    0.000    0.000    0.000 
#    0.000    0.000    0.000    0.000    0.000    0.000 
#
# Total GULP energy -78194.585533 kJ/mol
# GULP energy per Si atom -5585.327538 kJ/mol
# Density = 2.318561 g / cm^3
# Si number density = 23.238502 Si / 1000 Ang^3
#
#
#
# Elastic Constant Matrix: (Units=GPa)
#
#
# Indices 1 2 3 4 5 6 
#
# 1 89.8994 2.8354 38.3935 -13.6605 -22.6764 -11.8151
# 2 2.8354 57.0071 35.4198 -23.8262 6.9945 5.1119
# 3 38.3935 35.4198 100.1534 -20.8364 -11.9305 -1.2857
# 4 -13.6605 -23.8262 -20.8364 29.4806 -5.7962 1.2081
# 5 -22.6764 6.9945 -11.9305 -5.7962 22.3657 -7.3439
# 6 -11.8151 5.1119 -1.2857 1.2081 -7.3439 27.9373
#
#
#
# Elastic Compliance Matrix: (Units=1/GPa)
#
#
# Indices 1 2 3 4 5 6 
#
# 1 0.026652 0.001547 -0.002358 0.018300 0.036486 0.019680
# 2 0.001547 0.034569 -0.010615 0.018939 -0.013450 -0.010514
# 3 -0.002358 -0.010615 0.017281 0.004904 0.013046 0.004958
# 4 0.018300 0.018939 0.004904 0.067893 0.036507 0.011161
# 5 0.036486 -0.013450 0.013046 0.036507 0.118075 0.047952
# 6 0.019680 -0.010514 0.004958 0.011161 0.047952 0.058392
#
#
# Mechanical properties :
#
#
# Convention : Reuss Voigt Hill
#
# Bulk Modulus (GPa) = 17.96987 44.48412 31.22700
# Shear Modulus (GPa) = 13.72630 27.31749 20.52189
#
# Velocity S-wave (km/s) = 2.43301 3.43232 2.97492
# Velocity P-wave (km/s) = 3.95503 5.90692 5.02663
#
# Compressibility (1/GPa) = 0.05564870
#
# Stress axis : x y z
#
# Youngs Moduli (GPa) = 37.52034 28.92779 57.86837
#
# Poissons Ratio (x) = -0.04474 0.13644
# Poissons Ratio (y) = -0.05803 0.61429
# Poissons Ratio (z) = 0.08847 0.30708
#
# Static dielectric constant tensor:
#      x y z
#    x 2.022930 0.055720 0.013140 
#    y 0.055720 1.836790 -0.004690 
#    z 0.013140 -0.004690 1.858130 
# 
# From -- ./inp_files/178356.got.cif
#   From: 2010.05.17/outbox.cif.g08.bks.cpg/sg2_90_cif.got.tgz:178356.got - 2010.06.03 11:33:40.
