data_PCOD9104096
_publ_section_title
;
Structure prediction by ZEFSAII (Michael W. Deem and Ramdas Pophale) SiO2 
 PCOD9104096
Probable space group: P -1
;
_chemical_formula_sum "Si O2"
_cell_formula_units_Z 16
_cell_length_a 20.903080
_cell_length_b 4.999735
_cell_length_c 9.266755
_cell_angle_alpha 113.103773
_cell_angle_beta 51.683791
_cell_angle_gamma 116.057782
_cell_volume 672.648532
_symmetry_space_group_name_H-M "P -1"
_symmetry_group_IT_number 2
_symmetry_cell_setting 'triclinic'
loop_
_space_group_symop_operation_xyz
x,y,z
-x,-y,-z
loop_
_atom_site_type_symbol
_atom_site_label
_atom_site_fract_x
_atom_site_fract_y
_atom_site_fract_z
Si Si1 0.751637 0.378801 0.770031
Si Si2 0.905112 0.993792 0.167562
Si Si3 0.240598 0.325369 0.895559
Si Si4 0.413743 0.828322 0.731571
Si Si5 0.363805 0.257197 0.108012
Si Si6 0.539488 0.813854 0.786069
Si Si7 0.169953 0.460711 0.608723
Si Si8 0.659642 0.148129 0.442912
O O1 0.715156 0.027999 0.793035
O O2 0.812342 0.460788 0.566515
O O3 0.668919 0.483896 0.863277
O O4 0.791390 0.610693 0.890188
O O5 0.838272 0.742609 0.114423
O O6 0.879362 0.870807 0.339541
O O7 0.883532 0.304829 0.223670
O O8 0.000000 0.000000 0.000000
O O9 0.317028 0.622720 0.829726
O O10 0.289040 0.067721 0.749757
O O11 0.472805 0.689036 0.723082
O O12 0.417105 0.842065 0.555549
O O13 0.412402 0.126901 0.886814
O O14 0.420099 0.371743 0.195340
O O15 0.618605 0.996930 0.616734
O O16 0.500000 0.000000 0.000000
O O17 0.265222 0.554989 0.563140
#
# Coordination Sequence:
#
# PCOD9104096 Si02
#       8
#     2   2   2   2   2   2   2   2
#     4  11  21  40  65  92 127 166 219 258 310 384
#     4  11  24  45  69 101 134 162 207 265 323 389
#     4  10  23  39  64  93 122 173 212 264 325 383
#     4  10  20  39  57  87 126 166 223 264 323 373
#     4  10  21  38  58  90 127 172 209 267 315 365
#     4  10  22  38  57  91 132 172 222 274 324 366
#     4  11  23  40  70  98 126 173 213 255 323 387
#     4  11  20  39  61  90 126 171 222 267 316 386
#
# _framework density 23.786566000000001
#
# number of rings (size 3 to 8) (size 9 to 14) (size 15 to 20)
#    0.000    1.500    3.750    1.500    1.750    0.500 
#    2.250    3.750    0.000    0.000    0.000    0.000 
#    0.000    0.000    0.000    0.000    0.000    0.000 
#
# Total GULP energy -89384.212052 kJ/mol
# GULP energy per Si atom -5586.513253 kJ/mol
# Density = 2.373243 g / cm^3
# Si number density = 23.786566 Si / 1000 Ang^3
#
#
#
# Elastic Constant Matrix: (Units=GPa)
#
#
# Indices 1 2 3 4 5 6 
#
# 1 70.7055 13.4794 9.5220 2.8292 -4.2878 -3.9614
# 2 13.4794 64.8549 17.8345 -9.9435 -5.0801 -6.9652
# 3 9.5220 17.8345 72.4791 -1.3511 12.8859 5.9353
# 4 2.8292 -9.9435 -1.3511 35.9366 1.9562 3.9926
# 5 -4.2878 -5.0801 12.8859 1.9562 48.7372 0.7777
# 6 -3.9614 -6.9652 5.9353 3.9926 0.7777 28.1397
#
#
#
# Elastic Compliance Matrix: (Units=1/GPa)
#
#
# Indices 1 2 3 4 5 6 
#
# 1 0.015210 -0.002650 -0.001853 -0.002328 0.001611 0.002162
# 2 -0.002650 0.018776 -0.005064 0.004547 0.002807 0.004620
# 3 -0.001853 -0.005064 0.016581 0.000185 -0.005004 -0.004900
# 4 -0.002328 0.004547 0.000185 0.029706 -0.000917 -0.003431
# 5 0.001611 0.002807 -0.005004 -0.000917 0.022289 0.001491
# 6 0.002162 0.004620 -0.004900 -0.003431 0.001491 0.038464
#
#
# Mechanical properties :
#
#
# Convention : Reuss Voigt Hill
#
# Bulk Modulus (GPa) = 31.81521 32.19014 32.00268
# Shear Modulus (GPa) = 29.30185 33.70959 31.50572
#
# Velocity S-wave (km/s) = 3.51360 3.76861 3.64334
# Velocity P-wave (km/s) = 5.46487 5.70078 5.58407
#
# Compressibility (1/GPa) = 0.03143151
#
# Stress axis : x y z
#
# Youngs Moduli (GPa) = 65.74652 53.26023 60.31005
#
# Poissons Ratio (x) = 0.14116 0.11175
# Poissons Ratio (y) = 0.17425 0.30543
# Poissons Ratio (z) = 0.12182 0.26973
#
# Static dielectric constant tensor:
#      x y z
#    x 1.948790 -0.045760 0.079950 
#    y -0.045760 1.942610 -0.013720 
#    z 0.079950 -0.013720 2.056660 
# 
# From -- ./inp_files/44334.got.cif
#   From: 2010.05.17/outbox.cif.g08.bks.cpg/sg2_23_cif.got.tgz:44334.got - 2010.06.03 11:33:40.
