data_PCOD9104143
_publ_section_title
;
Structure prediction by ZEFSAII (Michael W. Deem and Ramdas Pophale) SiO2 
 PCOD9104143
Probable space group: P -1
;
_chemical_formula_sum "Si O2"
_cell_formula_units_Z 8
_cell_length_a 7.800922
_cell_length_b 7.147907
_cell_length_c 10.879418
_cell_angle_alpha 42.053245
_cell_angle_beta 60.322349
_cell_angle_gamma 61.473899
_cell_volume 346.683151
_symmetry_space_group_name_H-M "P -1"
_symmetry_group_IT_number 2
_symmetry_cell_setting 'triclinic'
loop_
_space_group_symop_operation_xyz
x,y,z
-x,-y,-z
loop_
_atom_site_type_symbol
_atom_site_label
_atom_site_fract_x
_atom_site_fract_y
_atom_site_fract_z
Si Si1 0.903603 0.327040 0.862952
Si Si2 0.532298 0.324146 0.846594
Si Si3 0.137676 0.710126 0.452598
Si Si4 0.127436 0.712669 0.735150
O O1 0.671343 0.353883 0.899855
O O2 0.009375 0.468027 0.644814
O O3 0.971997 0.500961 0.867411
O O4 0.000000 0.000000 0.000000
O O5 0.666669 0.377046 0.655744
O O6 0.325616 0.547237 0.809829
O O7 0.500000 0.000000 0.000000
O O8 0.194258 0.785836 0.536126
O O9 0.995790 0.994207 0.312782
#
# Coordination Sequence:
#
# PCOD9104143 Si02
#       4
#     2   2   2   2
#     4  10  20  39  58  86 115 147 192 235 279 336
#     4  12  21  36  63  85 113 155 188 227 290 335
#     4   9  21  41  58  84 119 145 188 241 275 335
#     4   9  21  40  59  82 119 145 191 234 283 330
#
# _framework density 23.075827
#
# number of rings (size 3 to 8) (size 9 to 14) (size 15 to 20)
#    1.500    0.500    2.500    1.500    0.000    2.000 
#    0.000    1.250    0.000    0.000    0.000    0.000 
#    0.000    0.000    0.000    0.000    0.000    0.000 
#
# Total GULP energy -44699.668274 kJ/mol
# GULP energy per Si atom -5587.458534 kJ/mol
# Density = 2.302331 g / cm^3
# Si number density = 23.075827 Si / 1000 Ang^3
#
#
#
# Elastic Constant Matrix: (Units=GPa)
#
#
# Indices 1 2 3 4 5 6 
#
# 1 191.9251 63.6850 48.7238 -25.6989 0.3667 -36.8607
# 2 63.6850 115.4819 52.7864 -14.7993 3.1427 -26.7924
# 3 48.7238 52.7864 130.1702 -29.5902 -13.4671 -21.8983
# 4 -25.6989 -14.7993 -29.5902 55.5334 -4.1236 5.3759
# 5 0.3667 3.1427 -13.4671 -4.1236 35.6415 -12.4460
# 6 -36.8607 -26.7924 -21.8983 5.3759 -12.4460 44.3081
#
#
#
# Elastic Compliance Matrix: (Units=1/GPa)
#
#
# Indices 1 2 3 4 5 6 
#
# 1 0.007336 -0.002643 -0.000148 0.002305 0.002016 0.004718
# 2 -0.002643 0.012590 -0.003804 -0.000309 -0.001451 0.003164
# 3 -0.000148 -0.003804 0.012094 0.005423 0.007257 0.004934
# 4 0.002305 -0.000309 0.005423 0.021984 0.005771 0.003364
# 5 0.002016 -0.001451 0.007257 0.005771 0.036435 0.013921
# 6 0.004718 0.003164 0.004934 0.003364 0.013921 0.034348
#
#
# Mechanical properties :
#
#
# Convention : Reuss Voigt Hill
#
# Bulk Modulus (GPa) = 53.10836 85.32974 69.21905
# Shear Modulus (GPa) = 34.66136 45.25539 39.95837
#
# Velocity S-wave (km/s) = 3.87985 4.43330 4.16578
# Velocity P-wave (km/s) = 6.56778 7.95386 7.29382
#
# Compressibility (1/GPa) = 0.01882943
#
# Stress axis : x y z
#
# Youngs Moduli (GPa) = 136.31888 79.43082 82.68571
#
# Poissons Ratio (x) = 0.20991 0.01224
# Poissons Ratio (y) = 0.36025 0.31456
# Poissons Ratio (z) = 0.02018 0.30218
#
# Static dielectric constant tensor:
#      x y z
#    x 1.927010 -0.067980 0.021860 
#    y -0.067980 7.357240 0.975390 
#    z 0.021860 0.975390 2.035690 
# 
# From -- ./inp_files/15247.got.cif
#   From: 2010.05.17/outbox.cif.g08.bks.cpg/sg2_8_cif.got.tgz:15247.got - 2010.06.03 11:33:40.
