data_PCOD9104152
_publ_section_title
;
Structure prediction by ZEFSAII (Michael W. Deem and Ramdas Pophale) SiO2 
 PCOD9104152
Probable space group: P -1
;
_chemical_formula_sum "Si O2"
_cell_formula_units_Z 16
_cell_length_a 24.012211
_cell_length_b 15.333208
_cell_length_c 8.488284
_cell_angle_alpha 113.566485
_cell_angle_beta 122.574878
_cell_angle_gamma 17.948454
_cell_volume 731.636181
_symmetry_space_group_name_H-M "P -1"
_symmetry_group_IT_number 2
_symmetry_cell_setting 'triclinic'
loop_
_space_group_symop_operation_xyz
x,y,z
-x,-y,-z
loop_
_atom_site_type_symbol
_atom_site_label
_atom_site_fract_x
_atom_site_fract_y
_atom_site_fract_z
Si Si1 0.097483 0.313333 0.665974
Si Si2 0.329327 0.714212 0.256815
Si Si3 0.384289 0.819646 0.263147
Si Si4 0.823050 0.462149 0.056564
Si Si5 0.454789 0.340173 0.258522
Si Si6 0.485759 0.886413 0.406400
Si Si7 0.905099 0.517478 0.985104
Si Si8 0.737404 0.664568 0.403945
O O1 0.044939 0.453267 0.829794
O O2 0.000000 0.500000 0.500000
O O3 0.979185 0.375909 0.554508
O O4 0.353014 0.955674 0.776648
O O5 0.500000 0.500000 0.500000
O O6 0.418542 0.658663 0.210135
O O7 0.333787 0.594057 0.172478
O O8 0.084013 0.084257 0.192434
O O9 0.417745 0.802247 0.489075
O O10 0.509880 0.739664 0.329445
O O11 0.149212 0.147536 0.055825
O O12 0.810322 0.569789 0.999379
O O13 0.713931 0.643835 0.186617
O O14 0.710184 0.520497 0.866396
O O15 0.416636 0.031985 0.571728
O O16 0.689550 0.657571 0.467977
O O17 0.279598 0.203917 0.218254
#
# Coordination Sequence:
#
# PCOD9104152 Si02
#       8
#     2   2   2   2   2   2   2   2
#     4  12  20  36  60  89 127 159 199 253 304 353
#     4   9  20  41  66  91 115 157 207 260 300 348
#     4  10  20  39  58  87 120 159 202 245 299 359
#     4  11  23  38  63  96 121 154 208 254 297 356
#     4  11  22  37  66  92 121 156 205 262 301 348
#     4  11  24  37  56  89 132 166 194 246 308 376
#     4  11  22  35  60  89 124 162 199 245 304 366
#     4  11  23  37  55  87 130 157 202 242 309 356
#
# _framework density 21.868790000000001
#
# number of rings (size 3 to 8) (size 9 to 14) (size 15 to 20)
#    0.000    1.250    3.750    3.000    5.250    1.000 
#    0.000    0.000    0.000    9.750    9.750    0.000 
#    0.000    0.000    0.000    0.000    0.000    0.000 
#
# Total GULP energy -89187.443428 kJ/mol
# GULP energy per Si atom -5574.215214 kJ/mol
# Density = 2.181902 g / cm^3
# Si number density = 21.868790 Si / 1000 Ang^3
#
#
#
# Elastic Constant Matrix: (Units=GPa)
#
#
# Indices 1 2 3 4 5 6 
#
# 1 165.5255 31.5415 6.2484 -10.9571 19.6061 15.0920
# 2 31.5415 58.1189 15.0712 -15.6814 -9.6160 6.5523
# 3 6.2484 15.0712 62.0465 -15.9005 7.3314 9.9942
# 4 -10.9571 -15.6814 -15.9005 26.7961 0.8892 3.1577
# 5 19.6061 -9.6160 7.3314 0.8892 34.0428 -7.8589
# 6 15.0920 6.5523 9.9942 3.1577 -7.8589 36.2196
#
#
#
# Elastic Compliance Matrix: (Units=1/GPa)
#
#
# Indices 1 2 3 4 5 6 
#
# 1 0.008726 -0.005494 0.003224 0.003225 -0.008671 -0.005694
# 2 -0.005494 0.025819 -0.004667 0.009656 0.011331 0.000523
# 3 0.003224 -0.004667 0.023594 0.014211 -0.011087 -0.010654
# 4 0.003225 0.009656 0.014211 0.054499 -0.006663 -0.013209
# 5 -0.008671 0.011331 -0.011087 -0.006663 0.043512 0.014644
# 6 -0.005694 0.000523 -0.010654 -0.013209 0.014644 0.037156
#
#
# Mechanical properties :
#
#
# Convention : Reuss Voigt Hill
#
# Bulk Modulus (GPa) = 22.59135 43.49033 33.04084
# Shear Modulus (GPa) = 22.52907 34.93369 28.73138
#
# Velocity S-wave (km/s) = 3.21314 4.00111 3.62858
# Velocity P-wave (km/s) = 4.91106 6.42459 5.71812
#
# Compressibility (1/GPa) = 0.04426474
#
# Stress axis : x y z
#
# Youngs Moduli (GPa) = 114.59583 38.73058 42.38410
#
# Poissons Ratio (x) = 0.21280 -0.13664
# Poissons Ratio (y) = 0.62964 0.19780
# Poissons Ratio (z) = -0.36945 0.18075
#
# Static dielectric constant tensor:
#      x y z
#    x 1.874410 0.003300 -0.013590 
#    y 0.003300 1.788530 0.000750 
#    z -0.013590 0.000750 1.905800 
# 
# From -- ./inp_files/354555.got.cif
#   From: 2010.05.17/outbox.cif.g08.bks.cpg/sg2_178_cif.got.tgz:354555.got - 2010.06.03 11:33:40.
