data_PCOD9104912
_publ_section_title
;
Structure prediction by ZEFSAII (Michael W. Deem and Ramdas Pophale) SiO2 
 PCOD9104912
Probable space group: P -1
;
_chemical_formula_sum "Si O2"
_cell_formula_units_Z 16
_cell_length_a 17.679167
_cell_length_b 9.572648
_cell_length_c 9.794153
_cell_angle_alpha 118.755353
_cell_angle_beta 146.446617
_cell_angle_gamma 63.080397
_cell_volume 798.553958
_symmetry_space_group_name_H-M "P -1"
_symmetry_group_IT_number 2
_symmetry_cell_setting 'triclinic'
loop_
_space_group_symop_operation_xyz
x,y,z
-x,-y,-z
loop_
_atom_site_type_symbol
_atom_site_label
_atom_site_fract_x
_atom_site_fract_y
_atom_site_fract_z
Si Si1 0.019098 0.163797 0.684366
Si Si2 0.605821 0.527441 0.048771
Si Si3 0.093372 0.603250 0.600149
Si Si4 0.667963 0.907936 0.871535
Si Si5 0.122780 0.921251 0.319990
Si Si6 0.572694 0.201707 0.711568
Si Si7 0.841339 0.146637 0.953346
Si Si8 0.366689 0.126044 0.876274
O O1 0.996623 0.304293 0.608099
O O2 0.902585 0.181123 0.632872
O O3 0.174863 0.136902 0.957191
O O4 0.000000 0.000000 0.500000
O O5 0.769267 0.484310 0.303227
O O6 0.600977 0.706811 0.065161
O O7 0.500000 0.500000 0.000000
O O8 0.576572 0.389395 0.831254
O O9 0.139215 0.725066 0.840062
O O10 0.000000 0.500000 0.500000
O O11 0.571417 0.824996 0.583794
O O12 0.615196 0.097983 0.863365
O O13 0.658520 0.856253 0.990458
O O14 0.234973 0.046660 0.576749
O O15 0.157140 0.816810 0.187754
O O16 0.972152 0.017077 0.112747
O O17 0.685559 0.115515 0.735638
O O18 0.500000 0.000000 0.000000
#
# Coordination Sequence:
#
# PCOD9104912 Si02
#       8
#     2   2   2   2   2   2   2   2
#     4  12  20  39  67  96 128 169 220 268 313 386
#     4  11  25  44  64  94 130 174 215 276 337 390
#     4  11  23  43  69  93 132 177 219 264 335 394
#     4  11  21  39  65  98 126 173 219 262 321 391
#     4  11  22  37  65  98 130 165 224 272 316 382
#     4  10  22  41  64  92 135 174 215 265 333 387
#     4  10  20  39  62  95 129 173 212 268 323 380
#     4  12  25  40  66  94 126 167 222 272 327 398
#
# _framework density 20.036214999999999
#
# number of rings (size 3 to 8) (size 9 to 14) (size 15 to 20)
#    0.000    1.000    3.750    3.750    1.750    1.500 
#    2.250    1.875    0.000    0.000    0.000    0.000 
#    0.000    0.000    0.000    0.000    0.000    0.000 
#
# Total GULP energy -89199.947491 kJ/mol
# GULP energy per Si atom -5574.996718 kJ/mol
# Density = 1.999061 g / cm^3
# Si number density = 20.036215 Si / 1000 Ang^3
#
#
#
# Elastic Constant Matrix: (Units=GPa)
#
#
# Indices 1 2 3 4 5 6 
#
# 1 134.9045 28.6501 37.1356 -12.2975 9.7365 13.6643
# 2 28.6501 90.3781 37.5774 -15.8584 10.4738 12.4747
# 3 37.1356 37.5774 113.3821 -14.1095 25.0766 6.3157
# 4 -12.2975 -15.8584 -14.1095 16.9460 1.0379 1.2302
# 5 9.7365 10.4738 25.0766 1.0379 38.8801 -3.4608
# 6 13.6643 12.4747 6.3157 1.2302 -3.4608 34.4028
#
#
#
# Elastic Compliance Matrix: (Units=1/GPa)
#
#
# Indices 1 2 3 4 5 6 
#
# 1 0.008869 -0.000691 -0.001575 0.004806 -0.001441 -0.003300
# 2 -0.000691 0.015702 -0.002284 0.012924 -0.003446 -0.005809
# 3 -0.001575 -0.002284 0.012916 0.008090 -0.007713 -0.001982
# 4 0.004806 0.012924 0.008090 0.083037 -0.013221 -0.012380
# 5 -0.001441 -0.003446 -0.007713 -0.013221 0.032962 0.007027
# 6 -0.003300 -0.005809 -0.001982 -0.012380 0.007027 0.033998
#
#
# Mechanical properties :
#
#
# Convention : Reuss Voigt Hill
#
# Bulk Modulus (GPa) = 35.22721 60.59899 47.91310
# Shear Modulus (GPa) = 24.26631 33.73254 28.99943
#
# Velocity S-wave (km/s) = 3.48389 4.10759 3.80853
# Velocity P-wave (km/s) = 5.81406 7.26683 6.58066
#
# Compressibility (1/GPa) = 0.02838715
#
# Stress axis : x y z
#
# Youngs Moduli (GPa) = 112.74748 63.68576 77.42600
#
# Poissons Ratio (x) = 0.04400 0.12198
# Poissons Ratio (y) = 0.07789 0.17682
# Poissons Ratio (z) = 0.17763 0.14544
#
# Static dielectric constant tensor:
#      x y z
#    x 1.810050 0.001070 0.032250 
#    y 0.001070 1.708590 -0.049260 
#    z 0.032250 -0.049260 1.681570 
# 
# From -- ./inp_files/299392.got.cif
#   From: 2010.05.17/outbox.cif.g08.bks.cpg/sg2_150_cif.got.tgz:299392.got - 2010.06.03 11:33:40.
