data_PCOD9104092
_publ_section_title
;
Structure prediction by ZEFSAII (Michael W. Deem and Ramdas Pophale) SiO2 
 PCOD9104092
Probable space group: P -1
;
_chemical_formula_sum "Si O2"
_cell_formula_units_Z 14
_cell_length_a 14.348194
_cell_length_b 8.318808
_cell_length_c 11.156068
_cell_angle_alpha 86.585890
_cell_angle_beta 150.655311
_cell_angle_gamma 99.785654
_cell_volume 632.150820
_symmetry_space_group_name_H-M "P -1"
_symmetry_group_IT_number 2
_symmetry_cell_setting 'triclinic'
loop_
_space_group_symop_operation_xyz
x,y,z
-x,-y,-z
loop_
_atom_site_type_symbol
_atom_site_label
_atom_site_fract_x
_atom_site_fract_y
_atom_site_fract_z
Si Si1 0.018713 0.487849 0.831632
Si Si2 0.762234 0.238219 0.381156
Si Si3 0.012217 0.188944 0.469994
Si Si4 0.554406 0.363562 0.758674
Si Si5 0.585933 0.625538 0.984116
Si Si6 0.179465 0.307596 0.216841
Si Si7 0.803478 0.896120 0.550984
O O1 0.890384 0.405223 0.579040
O O2 0.888647 0.565259 0.773519
O O3 0.220482 0.620681 0.020328
O O4 0.090771 0.341741 0.990417
O O5 0.537599 0.236143 0.152628
O O6 0.820059 0.234605 0.306232
O O7 0.812192 0.080041 0.508770
O O8 0.080328 0.193288 0.409041
O O9 0.188609 0.299964 0.739239
O O10 0.000000 0.000000 0.500000
O O11 0.555835 0.526588 0.831062
O O12 0.415617 0.350033 0.486664
O O13 0.423882 0.208906 0.694380
O O14 0.500000 0.500000 0.000000
O O15 0.119919 0.132761 0.228924
#
# Coordination Sequence:
#
# PCOD9104092 Si02
#       7
#     2   2   2   2   2   2   2
#     4  11  20  37  66  84 112 158 191 236 289 334
#     4  11  23  38  59  87 117 157 189 234 294 338
#     4  10  22  40  58  86 118 152 188 236 293 341
#     4  10  20  39  57  87 115 150 193 240 284 334
#     4  12  22  39  59  86 117 149 197 243 276 347
#     4   9  21  39  60  87 118 145 199 238 279 344
#     4   9  21  41  54  84 124 145 191 240 285 339
#
# _framework density 22.146612999999999
#
# number of rings (size 3 to 8) (size 9 to 14) (size 15 to 20)
#    0.857    0.857    4.286    0.429    0.000    4.571 
#    5.143    0.000    0.000    2.571    0.000    0.000 
#    0.000    0.000    0.000    0.000    0.000    0.000 
#
# Total GULP energy -78092.557242 kJ/mol
# GULP energy per Si atom -5578.039803 kJ/mol
# Density = 2.209621 g / cm^3
# Si number density = 22.146613 Si / 1000 Ang^3
#
#
#
# Elastic Constant Matrix: (Units=GPa)
#
#
# Indices 1 2 3 4 5 6 
#
# 1 51.5840 0.6872 12.8269 6.5987 7.5900 4.8721
# 2 0.6872 57.2398 8.9342 -2.0515 1.9086 5.5064
# 3 12.8269 8.9342 47.8466 -8.1673 9.3552 1.3456
# 4 6.5987 -2.0515 -8.1673 27.7342 4.9178 2.8201
# 5 7.5900 1.9086 9.3552 4.9178 34.6291 -4.9675
# 6 4.8721 5.5064 1.3456 2.8201 -4.9675 36.2278
#
#
#
# Elastic Compliance Matrix: (Units=1/GPa)
#
#
# Indices 1 2 3 4 5 6 
#
# 1 0.022532 0.000900 -0.006728 -0.006525 -0.002641 -0.002771
# 2 0.000900 0.018309 -0.003313 0.000609 -0.000820 -0.002941
# 3 -0.006728 -0.003313 0.026587 0.010610 -0.007232 -0.001397
# 4 -0.006525 0.000609 0.010610 0.042626 -0.008102 -0.004038
# 5 -0.002641 -0.000820 -0.007232 -0.008102 0.033462 0.005967
# 6 -0.002771 -0.002941 -0.001397 -0.004038 0.005967 0.029607
#
#
# Mechanical properties :
#
#
# Convention : Reuss Voigt Hill
#
# Bulk Modulus (GPa) = 20.34758 22.39631 21.37194
# Shear Modulus (GPa) = 24.06317 28.66636 26.36477
#
# Velocity S-wave (km/s) = 3.29985 3.60167 3.45405
# Velocity P-wave (km/s) = 4.87096 5.23743 5.05752
#
# Compressibility (1/GPa) = 0.04914589
#
# Stress axis : x y z
#
# Youngs Moduli (GPa) = 44.38125 54.61874 37.61252
#
# Poissons Ratio (x) = -0.04918 0.25306
# Poissons Ratio (y) = -0.03996 0.12462
# Poissons Ratio (z) = 0.29860 0.18096
#
# Static dielectric constant tensor:
#      x y z
#    x 1.821550 0.030800 -0.002370 
#    y 0.030800 1.832330 -0.056490 
#    z -0.002370 -0.056490 1.783210 
# 
# From -- ./inp_files/447575.got.cif
#   From: 2010.05.17/outbox.cif.g08.bks.cpg/sg2_224_cif.got.tgz:447575.got - 2010.06.03 11:33:40.
