data_PCOD9104252
_publ_section_title
;
Structure prediction by ZEFSAII (Michael W. Deem and Ramdas Pophale) SiO2 
 PCOD9104252
Probable space group: P -1
;
_chemical_formula_sum "Si O2"
_cell_formula_units_Z 14
_cell_length_a 5.403212
_cell_length_b 5.037121
_cell_length_c 23.614594
_cell_angle_alpha 102.322689
_cell_angle_beta 115.234822
_cell_angle_gamma 87.311620
_cell_volume 567.273447
_symmetry_space_group_name_H-M "P -1"
_symmetry_group_IT_number 2
_symmetry_cell_setting 'triclinic'
loop_
_space_group_symop_operation_xyz
x,y,z
-x,-y,-z
loop_
_atom_site_type_symbol
_atom_site_label
_atom_site_fract_x
_atom_site_fract_y
_atom_site_fract_z
Si Si1 0.767009 0.514992 0.136111
Si Si2 0.178107 0.680020 0.654922
Si Si3 0.741612 0.867511 0.408984
Si Si4 0.348823 0.934490 0.800317
Si Si5 0.901879 0.927280 0.896590
Si Si6 0.686555 0.351521 0.555675
Si Si7 0.749111 0.699483 0.987267
O O1 0.806019 0.818915 0.176180
O O2 0.531875 0.465457 0.062720
O O3 0.025554 0.370707 0.129481
O O4 0.688190 0.328309 0.174760
O O5 0.240834 0.858679 0.613073
O O6 0.256663 0.851239 0.725270
O O7 0.324953 0.394491 0.650719
O O8 0.856945 0.582288 0.619138
O O9 0.510964 0.840007 0.433343
O O10 0.055327 0.797782 0.453504
O O11 0.668601 0.031971 0.838738
O O12 0.771469 0.901683 0.944887
O O13 0.178576 0.109517 0.943107
O O14 0.500000 0.500000 0.500000
O O15 0.000000 0.500000 0.000000
#
# Coordination Sequence:
#
# PCOD9104252 Si02
#       7
#     2   2   2   2   2   2   2
#     4  11  24  39  68  90 126 172 226 274 357 408
#     4  10  25  44  68  99 144 184 239 290 355 417
#     4  10  24  43  73 103 144 189 235 294 356 417
#     4  11  24  45  60  95 130 173 229 285 337 427
#     4  10  23  39  60  92 123 172 213 285 343 418
#     4  10  24  45  72 110 145 188 238 293 355 421
#     4  10  20  39  59  89 130 158 221 278 343 416
#
# _framework density 24.679455999999998
#
# number of rings (size 3 to 8) (size 9 to 14) (size 15 to 20)
#    0.857    0.857    1.429    1.714    4.000    2.857 
#    0.000    0.000    0.000    0.000    0.000    0.000 
#    0.000    0.000    0.000    0.000    0.000    0.000 
#
# Total GULP energy -78297.200601 kJ/mol
# GULP energy per Si atom -5592.657186 kJ/mol
# Density = 2.462328 g / cm^3
# Si number density = 24.679456 Si / 1000 Ang^3
#
#
#
# Elastic Constant Matrix: (Units=GPa)
#
#
# Indices 1 2 3 4 5 6 
#
# 1 122.0329 34.4512 37.9991 4.9567 -0.1110 11.3523
# 2 34.4512 103.5739 20.0547 9.0024 2.6684 12.4423
# 3 37.9991 20.0547 118.7905 10.5397 5.5529 8.7757
# 4 4.9567 9.0024 10.5397 35.9838 -2.6950 -9.1710
# 5 -0.1110 2.6684 5.5529 -2.6950 18.3584 4.7105
# 6 11.3523 12.4423 8.7757 -9.1710 4.7105 58.8733
#
#
#
# Elastic Compliance Matrix: (Units=1/GPa)
#
#
# Indices 1 2 3 4 5 6 
#
# 1 0.009894 -0.002673 -0.002700 -0.000062 0.001531 -0.001072
# 2 -0.002673 0.011194 -0.000557 -0.002909 -0.001360 -0.002111
# 3 -0.002700 -0.000557 0.009850 -0.002866 -0.003071 -0.001031
# 4 -0.000062 -0.002909 -0.002866 0.031112 0.004434 0.005546
# 5 0.001531 -0.001360 -0.003071 0.004434 0.057138 -0.003431
# 6 -0.001072 -0.002111 -0.001031 0.005546 -0.003431 0.018931
#
#
# Mechanical properties :
#
#
# Convention : Reuss Voigt Hill
#
# Bulk Modulus (GPa) = 52.42177 58.82303 55.62240
# Shear Modulus (GPa) = 31.98208 39.43594 35.70901
#
# Velocity S-wave (km/s) = 3.60377 4.00174 3.80796
# Velocity P-wave (km/s) = 6.21316 6.72596 6.47464
#
# Compressibility (1/GPa) = 0.01907604
#
# Stress axis : x y z
#
# Youngs Moduli (GPa) = 101.07411 89.33748 101.52240
#
# Poissons Ratio (x) = 0.23882 0.27415
# Poissons Ratio (y) = 0.27020 0.05654
# Poissons Ratio (z) = 0.27294 0.04975
#
# Static dielectric constant tensor:
#      x y z
#    x 2.043910 0.051050 -0.007680 
#    y 0.051050 2.008680 0.024970 
#    z -0.007680 0.024970 1.947720 
# 
# From -- ./inp_files/603347.got.cif
#   From: 2010.05.17/outbox.cif.g08.bks.cpg/sg2_302_cif.got.tgz:603347.got - 2010.06.03 11:33:40.
