data_PCOD9104209
_publ_section_title
;
Structure prediction by ZEFSAII (Michael W. Deem and Ramdas Pophale) SiO2 
 PCOD9104209
Probable space group: P -1
;
_chemical_formula_sum "Si O2"
_cell_formula_units_Z 16
_cell_length_a 14.372771
_cell_length_b 19.031619
_cell_length_c 8.693532
_cell_angle_alpha 60.483937
_cell_angle_beta 120.945334
_cell_angle_gamma 158.071192
_cell_volume 760.755367
_symmetry_space_group_name_H-M "P -1"
_symmetry_group_IT_number 2
_symmetry_cell_setting 'triclinic'
loop_
_space_group_symop_operation_xyz
x,y,z
-x,-y,-z
loop_
_atom_site_type_symbol
_atom_site_label
_atom_site_fract_x
_atom_site_fract_y
_atom_site_fract_z
Si Si1 0.041979 0.049344 0.718477
Si Si2 0.370738 0.236789 0.088314
Si Si3 0.261583 0.383958 0.002699
Si Si4 0.239885 0.884366 0.248029
Si Si5 0.044795 0.897290 0.684815
Si Si6 0.865274 0.367525 0.708793
Si Si7 0.576712 0.208228 0.358928
Si Si8 0.493774 0.902418 0.058029
O O1 0.032161 0.122654 0.527273
O O2 0.211645 0.166258 0.888662
O O3 0.770432 0.843370 0.783367
O O4 0.130462 0.035706 0.699969
O O5 0.639232 0.458899 0.062287
O O6 0.411954 0.169769 0.191669
O O7 0.009334 0.226718 0.856789
O O8 0.500000 0.500000 0.000000
O O9 0.176124 0.288802 0.195173
O O10 0.161414 0.740575 0.279825
O O11 0.395063 0.008179 0.401424
O O12 0.442757 0.055743 0.112280
O O13 0.273021 0.987749 0.783852
O O14 0.655035 0.274566 0.531374
O O15 0.139664 0.592761 0.685366
O O16 0.768224 0.302199 0.870940
O O17 0.500000 0.000000 0.000000
#
# Coordination Sequence:
#
# PCOD9104209 Si02
#       8
#     2   2   2   2   2   2   2   2
#     4  10  22  36  60  86 117 154 201 246 297 355
#     4  11  21  37  59  90 115 156 201 242 297 361
#     4  11  21  37  60  85 120 156 197 243 297 357
#     4  10  21  39  60  85 118 157 191 243 298 349
#     4  10  20  39  59  85 119 158 194 247 300 349
#     4  10  21  39  58  89 115 152 197 246 291 348
#     4  11  22  36  63  87 118 151 198 244 292 355
#     4   9  19  36  61  81 116 156 192 239 295 346
#
# _framework density 21.031728000000001
#
# number of rings (size 3 to 8) (size 9 to 14) (size 15 to 20)
#    0.000    1.750    2.500    2.625    1.750    1.000 
#    0.000    0.000    0.000    0.000    0.000    0.000 
#    0.000    0.000    0.000    0.000    0.000    0.000 
#
# Total GULP energy -89089.611905 kJ/mol
# GULP energy per Si atom -5568.100744 kJ/mol
# Density = 2.098386 g / cm^3
# Si number density = 21.031728 Si / 1000 Ang^3
#
#
#
# Elastic Constant Matrix: (Units=GPa)
#
#
# Indices 1 2 3 4 5 6 
#
# 1 70.1820 9.7661 12.2374 5.5589 16.3902 5.4445
# 2 9.7661 92.8578 19.1603 -4.4123 -5.6496 -7.2457
# 3 12.2374 19.1603 82.5028 -3.6287 12.5713 3.2560
# 4 5.5589 -4.4123 -3.6287 31.1495 4.2539 -2.9522
# 5 16.3902 -5.6496 12.5713 4.2539 28.5211 -8.5275
# 6 5.4445 -7.2457 3.2560 -2.9522 -8.5275 25.1842
#
#
#
# Elastic Compliance Matrix: (Units=1/GPa)
#
#
# Indices 1 2 3 4 5 6 
#
# 1 0.019265 -0.004058 0.000665 -0.002917 -0.014971 -0.010829
# 2 -0.004058 0.013353 -0.004149 0.001698 0.009105 0.008537
# 3 0.000665 -0.004149 0.014828 0.001768 -0.009918 -0.006406
# 4 -0.002917 0.001698 0.001768 0.033804 -0.002623 0.003965
# 5 -0.014971 0.009105 -0.009918 -0.002623 0.058162 0.026525
# 6 -0.010829 0.008537 -0.006406 0.003965 0.026525 0.054779
#
#
# Mechanical properties :
#
#
# Convention : Reuss Voigt Hill
#
# Bulk Modulus (GPa) = 30.90027 36.43002 33.66514
# Shear Modulus (GPa) = 22.72097 30.59623 26.65860
#
# Velocity S-wave (km/s) = 3.29039 3.81828 3.56412
# Velocity P-wave (km/s) = 5.39997 6.06614 5.74272
#
# Compressibility (1/GPa) = 0.03236217
#
# Stress axis : x y z
#
# Youngs Moduli (GPa) = 51.90827 74.89074 67.44212
#
# Poissons Ratio (x) = 0.30389 -0.04486
# Poissons Ratio (y) = 0.21063 0.27980
# Poissons Ratio (z) = -0.03452 0.31070
#
# Static dielectric constant tensor:
#      x y z
#    x 1.855870 -0.007930 0.003420 
#    y -0.007930 1.756250 -0.027020 
#    z 0.003420 -0.027020 1.810090 
# 
# From -- ./inp_files/218966.got.cif
#   From: 2010.05.17/outbox.cif.g08.bks.cpg/sg2_110_cif.got.tgz:218966.got - 2010.06.03 11:33:40.
