data_PCOD9104695
_publ_section_title
;
Structure prediction by ZEFSAII (Michael W. Deem and Ramdas Pophale) SiO2 
 PCOD9104695
Probable space group: P -1
;
_chemical_formula_sum "Si O2"
_cell_formula_units_Z 16
_cell_length_a 11.540323
_cell_length_b 9.263974
_cell_length_c 7.431900
_cell_angle_alpha 50.326418
_cell_angle_beta 90.773538
_cell_angle_gamma 88.486341
_cell_volume 610.862178
_symmetry_space_group_name_H-M "P -1"
_symmetry_group_IT_number 2
_symmetry_cell_setting 'triclinic'
loop_
_space_group_symop_operation_xyz
x,y,z
-x,-y,-z
loop_
_atom_site_type_symbol
_atom_site_label
_atom_site_fract_x
_atom_site_fract_y
_atom_site_fract_z
Si Si1 0.371197 0.555896 0.875071
Si Si2 0.310897 0.665417 0.152594
Si Si3 0.655852 0.844463 0.696785
Si Si4 0.483311 0.304685 0.503659
Si Si5 0.939699 0.488956 0.702984
Si Si6 0.090736 0.136730 0.986081
Si Si7 0.341479 0.079390 0.961975
Si Si8 0.107716 0.127690 0.384705
O O1 0.389724 0.632982 0.614511
O O2 0.500000 0.500000 0.000000
O O3 0.315702 0.690411 0.916393
O O4 0.304299 0.365202 0.055546
O O5 0.407290 0.504279 0.338834
O O6 0.187551 0.586872 0.260810
O O7 0.330553 0.865834 0.074263
O O8 0.554502 0.814841 0.576863
O O9 0.760155 0.903251 0.522410
O O10 0.620273 0.932288 0.817409
O O11 0.433222 0.195378 0.759812
O O12 0.933087 0.675751 0.674943
O O13 0.000000 0.500000 0.500000
O O14 0.019783 0.318295 0.919170
O O15 0.209236 0.169419 0.855792
O O16 0.142110 0.062350 0.232254
O O17 0.000000 0.000000 0.000000
O O18 0.000000 0.000000 0.500000
#
# Coordination Sequence:
#
# PCOD9104695 Si02
#       8
#     2   2   2   2   2   2   2   2
#     4   8  17  39  64  84 115 162 198 249 312 354
#     4  10  20  39  62  84 125 158 199 253 303 356
#     4   9  20  39  60  85 127 154 197 255 299 354
#     4  10  21  42  66  87 119 163 201 249 311 360
#     4  12  22  37  60  85 119 164 202 245 303 361
#     4  11  23  38  55  86 123 156 204 248 291 362
#     4  11  23  38  61  93 121 158 203 252 299 362
#     4  11  23  37  59  86 120 161 202 248 300 363
#
# _framework density 26.192485999999999
#
# number of rings (size 3 to 8) (size 9 to 14) (size 15 to 20)
#    0.000    2.000    3.750    1.875    3.500    1.000 
#    0.000    8.125    0.000    0.000    0.000    0.000 
#    0.000    0.000    0.000    0.000    0.000    0.000 
#
# Total GULP energy -89225.543036 kJ/mol
# GULP energy per Si atom -5576.596440 kJ/mol
# Density = 2.613287 g / cm^3
# Si number density = 26.192486 Si / 1000 Ang^3
#
#
#
# Elastic Constant Matrix: (Units=GPa)
#
#
# Indices 1 2 3 4 5 6 
#
# 1 89.6814 33.7216 44.0752 -6.2166 -30.4413 -2.5883
# 2 33.7216 214.1523 57.0758 -1.1608 -12.2574 0.1155
# 3 44.0752 57.0758 132.5795 13.3815 -35.3636 -9.1917
# 4 -6.2166 -1.1608 13.3815 52.9204 -6.8237 -3.5957
# 5 -30.4413 -12.2574 -35.3636 -6.8237 37.2968 -1.3682
# 6 -2.5883 0.1155 -9.1917 -3.5957 -1.3682 30.5544
#
#
#
# Elastic Compliance Matrix: (Units=1/GPa)
#
#
# Indices 1 2 3 4 5 6 
#
# 1 0.017327 -0.001429 -0.002102 0.004281 0.012532 0.001906
# 2 -0.001429 0.005441 -0.002393 0.000286 -0.001627 -0.000901
# 3 -0.002102 -0.002393 0.012037 -0.001979 0.008681 0.003608
# 4 0.004281 0.000286 -0.001979 0.020796 0.005607 0.002465
# 5 0.012532 -0.001627 0.008681 0.005607 0.045997 0.006399
# 6 0.001906 -0.000901 0.003608 0.002465 0.006399 0.034555
#
#
# Mechanical properties :
#
#
# Convention : Reuss Voigt Hill
#
# Bulk Modulus (GPa) = 43.55907 78.46204 61.01056
# Shear Modulus (GPa) = 32.12256 44.25705 38.18981
#
# Velocity S-wave (km/s) = 3.50580 4.11504 3.82258
# Velocity P-wave (km/s) = 5.74926 7.25252 6.54420
#
# Compressibility (1/GPa) = 0.02295733
#
# Stress axis : x y z
#
# Youngs Moduli (GPa) = 57.71486 183.78456 83.07627
#
# Poissons Ratio (x) = 0.26255 0.17465
# Poissons Ratio (y) = 0.08245 0.19879
# Poissons Ratio (z) = 0.12134 0.43977
#
# Static dielectric constant tensor:
#      x y z
#    x 0.473190 0.020080 -0.967680 
#    y 0.020080 2.199780 -0.216300 
#    z -0.967680 -0.216300 2.132470 
# 
# From -- ./inp_files/294473.got.cif
#   From: 2010.05.17/outbox.cif.g08.bks.cpg/sg2_148_cif.got.tgz:294473.got - 2010.06.03 11:33:40.
