data_PCOD9104722
_publ_section_title
;
Structure prediction by ZEFSAII (Michael W. Deem and Ramdas Pophale) SiO2 
 PCOD9104722
Probable space group: P -1
;
_chemical_formula_sum "Si O2"
_cell_formula_units_Z 16
_cell_length_a 15.217890
_cell_length_b 8.074787
_cell_length_c 8.105359
_cell_angle_alpha 117.412162
_cell_angle_beta 101.656891
_cell_angle_gamma 118.072686
_cell_volume 659.325354
_symmetry_space_group_name_H-M "P -1"
_symmetry_group_IT_number 2
_symmetry_cell_setting 'triclinic'
loop_
_space_group_symop_operation_xyz
x,y,z
-x,-y,-z
loop_
_atom_site_type_symbol
_atom_site_label
_atom_site_fract_x
_atom_site_fract_y
_atom_site_fract_z
Si Si1 0.404305 0.575311 0.826457
Si Si2 0.349533 0.648712 0.497054
Si Si3 0.965977 0.822368 0.250604
Si Si4 0.833712 0.302438 0.487889
Si Si5 0.875270 0.929066 0.864383
Si Si6 0.230531 0.201639 0.813874
Si Si7 0.096439 0.635888 0.824643
Si Si8 0.531514 0.372208 0.771204
O O1 0.412619 0.704838 0.723872
O O2 0.272420 0.389330 0.764916
O O3 0.434081 0.398044 0.716152
O O4 0.477529 0.726581 0.091488
O O5 0.279679 0.749090 0.506378
O O6 0.436240 0.718534 0.409523
O O7 0.238196 0.355781 0.320408
O O8 0.864047 0.811370 0.124934
O O9 0.907170 0.544221 0.138518
O O10 0.081709 0.954365 0.249436
O O11 0.000000 0.000000 0.500000
O O12 0.857554 0.380263 0.340196
O O13 0.959275 0.515758 0.713303
O O14 0.817909 0.060145 0.378082
O O15 0.839585 0.082539 0.994898
O O16 0.000000 0.000000 0.000000
O O17 0.350068 0.344114 0.026973
#
# Coordination Sequence:
#
# PCOD9104722 Si02
#       8
#     2   2   2   2   2   2   2   2
#     4   9  21  41  69  89 116 159 211 256 316 360
#     4  12  22  39  67  91 122 169 204 248 311 368
#     4  12  22  37  60  86 121 164 204 242 298 366
#     4  11  22  36  57  90 122 166 203 246 306 359
#     4  12  24  39  56  91 126 165 205 246 299 367
#     4  10  20  39  62  86 125 165 197 256 314 355
#     4  11  23  37  54  86 131 163 206 247 288 361
#     4   9  21  42  67  89 119 155 211 262 310 360
#
# _framework density 24.267230000000001
#
# number of rings (size 3 to 8) (size 9 to 14) (size 15 to 20)
#    0.750    0.500    2.500    5.250    0.000    0.000 
#    0.000    1.250    2.750    0.000    0.000    0.000 
#    0.000    0.000    0.000    0.000    0.000    0.000 
#
# Total GULP energy -89284.997031 kJ/mol
# GULP energy per Si atom -5580.312314 kJ/mol
# Density = 2.421200 g / cm^3
# Si number density = 24.267230 Si / 1000 Ang^3
#
#
#
# Elastic Constant Matrix: (Units=GPa)
#
#
# Indices 1 2 3 4 5 6 
#
# 1 116.1119 7.2725 14.6993 -14.6186 -35.2225 -3.9560
# 2 7.2725 77.2783 19.7725 8.2735 -14.7674 -12.3129
# 3 14.6993 19.7725 43.6004 -8.0268 -9.8047 -2.3543
# 4 -14.6186 8.2735 -8.0268 39.7341 11.0240 -5.7796
# 5 -35.2225 -14.7674 -9.8047 11.0240 37.6576 2.3283
# 6 -3.9560 -12.3129 -2.3543 -5.7796 2.3283 34.8307
#
#
#
# Elastic Compliance Matrix: (Units=1/GPa)
#
#
# Indices 1 2 3 4 5 6 
#
# 1 0.012366 0.001667 -0.002161 0.000795 0.011350 0.001221
# 2 0.001667 0.017633 -0.007661 -0.006201 0.008027 0.004339
# 3 -0.002161 -0.007661 0.028430 0.006404 0.000503 -0.000003
# 4 0.000795 -0.006201 0.006404 0.031264 -0.009430 0.004149
# 5 0.011350 0.008027 0.000503 -0.009430 0.043228 -0.000294
# 6 0.001221 0.004339 -0.000003 0.004149 -0.000294 0.031091
#
#
# Mechanical properties :
#
#
# Convention : Reuss Voigt Hill
#
# Bulk Modulus (GPa) = 23.74150 35.60879 29.67514
# Shear Modulus (GPa) = 25.72548 35.46092 30.59320
#
# Velocity S-wave (km/s) = 3.25944 3.82680 3.55446
# Velocity P-wave (km/s) = 4.89590 5.85075 5.39450
#
# Compressibility (1/GPa) = 0.04212034
#
# Stress axis : x y z
#
# Youngs Moduli (GPa) = 80.86678 56.71318 35.17431
#
# Poissons Ratio (x) = -0.09456 0.07600
# Poissons Ratio (y) = -0.13484 0.26946
# Poissons Ratio (z) = 0.17473 0.43446
#
# Static dielectric constant tensor:
#      x y z
#    x 1.916930 -0.019310 0.018220 
#    y -0.019310 1.993360 -0.109040 
#    z 0.018220 -0.109040 2.018860 
# 
# From -- ./inp_files/202176.got.cif
#   From: 2010.05.17/outbox.cif.g08.bks.cpg/sg2_102_cif.got.tgz:202176.got - 2010.06.03 11:33:40.
