data_PCOD9104814
_publ_section_title
;
Structure prediction by ZEFSAII (Michael W. Deem and Ramdas Pophale) SiO2 
 PCOD9104814
Probable space group: P -1
;
_chemical_formula_sum "Si O2"
_cell_formula_units_Z 14
_cell_length_a 8.250209
_cell_length_b 6.496931
_cell_length_c 15.789102
_cell_angle_alpha 100.106312
_cell_angle_beta 62.371070
_cell_angle_gamma 63.778486
_cell_volume 590.611470
_symmetry_space_group_name_H-M "P -1"
_symmetry_group_IT_number 2
_symmetry_cell_setting 'triclinic'
loop_
_space_group_symop_operation_xyz
x,y,z
-x,-y,-z
loop_
_atom_site_type_symbol
_atom_site_label
_atom_site_fract_x
_atom_site_fract_y
_atom_site_fract_z
Si Si1 0.012651 0.398297 0.083205
Si Si2 0.580672 0.701260 0.757428
Si Si3 0.104178 0.927982 0.827881
Si Si4 0.306532 0.512271 0.097717
Si Si5 0.245324 0.757028 0.453683
Si Si6 0.715242 0.609065 0.326982
Si Si7 0.981904 0.415031 0.403746
O O1 0.245079 0.329071 0.060717
O O2 0.794890 0.310847 0.280113
O O3 0.809088 0.613816 0.212550
O O4 0.000000 0.500000 0.000000
O O5 0.314692 0.908795 0.816646
O O6 0.623010 0.575958 0.829964
O O7 0.663052 0.466774 0.655004
O O8 0.754486 0.776108 0.705152
O O9 0.999590 0.842162 0.917969
O O10 0.918015 0.194764 0.845645
O O11 0.500000 0.500000 0.000000
O O12 0.443365 0.793672 0.416915
O O13 0.180547 0.671910 0.546568
O O14 0.000000 0.000000 0.500000
O O15 0.852398 0.619167 0.372117
O O16 0.000000 0.500000 0.500000
#
# Coordination Sequence:
#
# PCOD9104814 Si02
#       7
#     2   2   2   2   2   2   2
#     4  10  22  42  66  95 130 170 220 266 335 396
#     4  10  21  44  60  94 135 165 221 274 323 399
#     4   9  23  43  66  93 136 171 212 275 334 383
#     4  12  25  41  70  98 128 171 225 272 337 404
#     4  10  22  36  63  94 126 173 219 263 333 391
#     4   9  20  43  63  90 134 173 213 273 331 390
#     4  10  20  39  62  90 131 168 217 272 321 385
#
# _framework density 23.704246999999999
#
# number of rings (size 3 to 8) (size 9 to 14) (size 15 to 20)
#    0.857    1.143    1.429    1.286    2.000    4.000 
#    0.000    2.857    0.000    0.000    0.000    0.000 
#    0.000    0.000    0.000    0.000    0.000    0.000 
#
# Total GULP energy -78078.876778 kJ/mol
# GULP energy per Si atom -5577.062627 kJ/mol
# Density = 2.365029 g / cm^3
# Si number density = 23.704247 Si / 1000 Ang^3
#
#
#
# Elastic Constant Matrix: (Units=GPa)
#
#
# Indices 1 2 3 4 5 6 
#
# 1 123.2134 30.2217 60.6346 -10.6728 -26.4189 -22.8296
# 2 30.2217 104.2878 57.0423 -16.1230 8.7910 -28.3780
# 3 60.6346 57.0423 124.5276 -37.9483 -16.9847 -17.5715
# 4 -10.6728 -16.1230 -37.9483 51.6445 -7.7153 -2.2397
# 5 -26.4189 8.7910 -16.9847 -7.7153 39.5244 -3.0749
# 6 -22.8296 -28.3780 -17.5715 -2.2397 -3.0749 36.4694
#
#
#
# Elastic Compliance Matrix: (Units=1/GPa)
#
#
# Indices 1 2 3 4 5 6 
#
# 1 0.013191 -0.000343 -0.003773 0.001354 0.008076 0.006937
# 2 -0.000343 0.016396 -0.007354 -0.000974 -0.006574 0.008387
# 3 -0.003773 -0.007354 0.018597 0.012139 0.009665 0.002437
# 4 0.001354 -0.000974 0.012139 0.030588 0.013003 0.008914
# 5 0.008076 -0.006574 0.009665 0.013003 0.039532 0.008729
# 6 0.006937 0.008387 0.002437 0.008914 0.008729 0.040746
#
#
# Mechanical properties :
#
#
# Convention : Reuss Voigt Hill
#
# Bulk Modulus (GPa) = 39.61063 71.98067 55.79565
# Shear Modulus (GPa) = 26.25997 39.13632 32.69815
#
# Velocity S-wave (km/s) = 3.33200 4.06769 3.71809
# Velocity P-wave (km/s) = 5.61690 7.24524 6.48240
#
# Compressibility (1/GPa) = 0.02524575
#
# Stress axis : x y z
#
# Youngs Moduli (GPa) = 75.80921 60.99039 53.77117
#
# Poissons Ratio (x) = 0.02090 0.20288
# Poissons Ratio (y) = 0.02598 0.39541
# Poissons Ratio (z) = 0.28602 0.44850
#
# Static dielectric constant tensor:
#      x y z
#    x 1.962300 0.001230 0.015750 
#    y 0.001230 1.870540 0.032560 
#    z 0.015750 0.032560 1.941170 
# 
# From -- ./inp_files/495174.got.cif
#   From: 2010.05.17/outbox.cif.g08.bks.cpg/sg2_248_cif.got.tgz:495174.got - 2010.06.03 11:33:40.
