data_PCOD9104655
_publ_section_title
;
Structure prediction by ZEFSAII (Michael W. Deem and Ramdas Pophale) SiO2 
 PCOD9104655
Probable space group: P -1
;
_chemical_formula_sum "Si O2"
_cell_formula_units_Z 16
_cell_length_a 10.721878
_cell_length_b 6.483577
_cell_length_c 12.226073
_cell_angle_alpha 100.521322
_cell_angle_beta 57.972324
_cell_angle_gamma 88.871898
_cell_volume 701.474969
_symmetry_space_group_name_H-M "P -1"
_symmetry_group_IT_number 2
_symmetry_cell_setting 'triclinic'
loop_
_space_group_symop_operation_xyz
x,y,z
-x,-y,-z
loop_
_atom_site_type_symbol
_atom_site_label
_atom_site_fract_x
_atom_site_fract_y
_atom_site_fract_z
Si Si1 0.708926 0.365922 0.823557
Si Si2 0.689225 0.581229 0.216471
Si Si3 0.691480 0.945560 0.712903
Si Si4 0.868956 0.741439 0.815124
Si Si5 0.445933 0.726124 0.904407
Si Si6 0.587188 0.091935 0.566154
Si Si7 0.159415 0.080451 0.922446
Si Si8 0.782269 0.264681 0.319125
O O1 0.742664 0.178450 0.704434
O O2 0.833480 0.500863 0.818741
O O3 0.579797 0.541492 0.856499
O O4 0.645197 0.237267 0.938833
O O5 0.659100 0.384139 0.137288
O O6 0.539812 0.749753 0.296907
O O7 0.720396 0.487153 0.313128
O O8 0.824132 0.694219 0.119022
O O9 0.666499 0.909170 0.592106
O O10 0.805662 0.818601 0.732832
O O11 0.529813 0.908572 0.833106
O O12 0.042822 0.748309 0.743097
O O13 0.795772 0.877910 0.967415
O O14 0.701342 0.220697 0.463748
O O15 0.500000 0.000000 0.500000
O O16 0.239430 0.915934 0.779420
O O17 0.000000 0.000000 0.000000
#
# Coordination Sequence:
#
# PCOD9104655 Si02
#       8
#     2   2   2   2   2   2   2   2
#     4  10  20  39  61  95 138 165 213 269 328 398
#     4  12  23  42  71  98 130 175 219 270 330 385
#     4  11  24  40  67  95 134 174 215 271 330 387
#     4  10  24  43  66 100 133 172 218 268 333 396
#     4  10  21  36  64  99 131 169 210 268 334 386
#     4  12  25  47  69  95 132 172 228 273 322 388
#     4  10  23  43  67 102 136 173 218 266 332 395
#     4  11  26  44  67  96 133 181 224 268 320 385
#
# _framework density 22.809082
#
# number of rings (size 3 to 8) (size 9 to 14) (size 15 to 20)
#    0.000    1.250    3.750    1.500    1.750    4.500 
#    0.000    0.625    0.000    0.000    0.000    0.000 
#    0.000    0.000    0.000    0.000    0.000    0.000 
#
# Total GULP energy -89233.175391 kJ/mol
# GULP energy per Si atom -5577.073462 kJ/mol
# Density = 2.275717 g / cm^3
# Si number density = 22.809082 Si / 1000 Ang^3
#
#
#
# Elastic Constant Matrix: (Units=GPa)
#
#
# Indices 1 2 3 4 5 6 
#
# 1 92.7304 48.7963 32.6439 -26.5547 12.0764 20.0772
# 2 48.7963 90.3194 32.1683 -28.2979 6.2911 23.7149
# 3 32.6439 32.1683 78.8789 -35.9193 12.1390 3.8474
# 4 -26.5547 -28.2979 -35.9193 45.2736 1.9583 7.5008
# 5 12.0764 6.2911 12.1390 1.9583 37.9340 -4.8731
# 6 20.0772 23.7149 3.8474 7.5008 -4.8731 43.0987
#
#
#
# Elastic Compliance Matrix: (Units=1/GPa)
#
#
# Indices 1 2 3 4 5 6 
#
# 1 0.018721 -0.004018 0.000169 0.010423 -0.007060 -0.009137
# 2 -0.004018 0.020848 0.000608 0.013433 -0.004675 -0.012520
# 3 0.000169 0.000608 0.023768 0.020967 -0.009780 -0.007290
# 4 0.010423 0.013433 0.020967 0.058412 -0.018662 -0.026394
# 5 -0.007060 -0.004675 -0.009780 -0.018662 0.035272 0.013970
# 6 -0.009137 -0.012520 -0.007290 -0.026394 0.013970 0.041172
#
#
# Mechanical properties :
#
#
# Convention : Reuss Voigt Hill
#
# Bulk Modulus (GPa) = 17.58867 54.34951 35.96909
# Shear Modulus (GPa) = 22.35858 35.14927 28.75392
#
# Velocity S-wave (km/s) = 3.13429 3.92984 3.55439
# Velocity P-wave (km/s) = 4.56359 6.66868 5.71391
#
# Compressibility (1/GPa) = 0.05685480
#
# Stress axis : x y z
#
# Youngs Moduli (GPa) = 53.41532 47.96662 42.07286
#
# Poissons Ratio (x) = 0.19274 -0.00712
# Poissons Ratio (y) = 0.21464 -0.02557
# Poissons Ratio (z) = -0.00904 -0.02915
#
# Static dielectric constant tensor:
#      x y z
#    x 1.889510 -0.009970 0.048130 
#    y -0.009970 1.858530 0.026680 
#    z 0.048130 0.026680 1.888470 
# 
# From -- ./inp_files/82587.got.cif
#   From: 2010.05.17/outbox.cif.g08.bks.cpg/sg2_42_cif.got.tgz:82587.got - 2010.06.03 11:33:40.
