data_PCOD9104476
_publ_section_title
;
Structure prediction by ZEFSAII (Michael W. Deem and Ramdas Pophale) SiO2 
 PCOD9104476
Probable space group: P -1
;
_chemical_formula_sum "Si O2"
_cell_formula_units_Z 14
_cell_length_a 9.025554
_cell_length_b 16.929256
_cell_length_c 19.459367
_cell_angle_alpha 16.157981
_cell_angle_beta 108.532695
_cell_angle_gamma 97.314956
_cell_volume 579.205270
_symmetry_space_group_name_H-M "P -1"
_symmetry_group_IT_number 2
_symmetry_cell_setting 'triclinic'
loop_
_space_group_symop_operation_xyz
x,y,z
-x,-y,-z
loop_
_atom_site_type_symbol
_atom_site_label
_atom_site_fract_x
_atom_site_fract_y
_atom_site_fract_z
Si Si1 0.098437 0.065905 0.399702
Si Si2 0.298303 0.966424 0.165780
Si Si3 0.419531 0.025211 0.542751
Si Si4 0.338307 0.942252 0.038211
Si Si5 0.926398 0.054024 0.108885
Si Si6 0.443620 0.026107 0.695510
Si Si7 0.113544 0.925965 0.761028
O O1 0.314394 0.862554 0.641300
O O2 0.069833 0.909328 0.458845
O O3 0.000000 0.000000 0.500000
O O4 0.000000 0.500000 0.000000
O O5 0.238969 0.109288 0.959178
O O6 0.506322 0.518376 0.558274
O O7 0.382412 0.115711 0.102417
O O8 0.117301 0.000014 0.148194
O O9 0.540750 0.895017 0.741967
O O10 0.500000 0.000000 0.500000
O O11 0.236254 0.477252 0.154713
O O12 0.160297 0.090002 0.832119
O O13 0.500000 0.000000 0.000000
O O14 0.727468 0.510938 0.708207
O O15 0.973667 0.897548 0.324139
O O16 0.295226 0.930665 0.763580
#
# Coordination Sequence:
#
# PCOD9104476 Si02
#       7
#     2   2   2   2   2   2   2
#     4  10  20  39  61  84 120 164 211 262 318 374
#     4  10  22  38  60  89 116 154 196 246 303 371
#     4  10  22  38  56  84 117 158 208 261 313 370
#     4  10  21  39  62  86 121 151 194 245 302 368
#     4  10  22  38  59  87 120 154 197 249 302 372
#     4  10  21  40  56  83 122 152 200 252 308 363
#     4  10  21  39  57  81 119 159 201 255 310 372
#
# _framework density 24.171049
#
# number of rings (size 3 to 8) (size 9 to 14) (size 15 to 20)
#    0.000    2.000    1.429    1.286    2.000    2.286 
#    2.571    0.000    0.000    0.000    0.000    0.000 
#    0.000    0.000    0.000    0.000    0.000    0.000 
#
# Total GULP energy -78050.757544 kJ/mol
# GULP energy per Si atom -5575.054110 kJ/mol
# Density = 2.411603 g / cm^3
# Si number density = 24.171049 Si / 1000 Ang^3
#
#
#
# Elastic Constant Matrix: (Units=GPa)
#
#
# Indices 1 2 3 4 5 6 
#
# 1 141.2382 110.6683 -14.3074 12.8731 -7.0061 0.7488
# 2 110.6683 321.0159 48.1476 22.7661 5.1950 8.4681
# 3 -14.3074 48.1476 81.6028 -0.9812 13.4195 5.0357
# 4 12.8731 22.7661 -0.9812 38.4385 -4.3381 2.7950
# 5 -7.0061 5.1950 13.4195 -4.3381 23.5466 -3.7439
# 6 0.7488 8.4681 5.0357 2.7950 -3.7439 61.5617
#
#
#
# Elastic Compliance Matrix: (Units=1/GPa)
#
#
# Indices 1 2 3 4 5 6 
#
# 1 0.011181 -0.004476 0.004284 -0.000805 0.001768 0.000273
# 2 -0.004476 0.005386 -0.003846 -0.001847 -0.000721 -0.000332
# 3 0.004284 -0.003846 0.016590 0.000524 -0.007451 -0.001357
# 4 -0.000805 -0.001847 0.000524 0.028001 0.004908 -0.000752
# 5 0.001768 -0.000721 -0.007451 0.004908 0.048851 0.003435
# 6 0.000273 -0.000332 -0.001357 -0.000752 0.003435 0.016640
#
#
# Mechanical properties :
#
#
# Convention : Reuss Voigt Hill
#
# Bulk Modulus (GPa) = 39.86993 92.54156 66.20574
# Shear Modulus (GPa) = 34.94409 51.33259 43.13834
#
# Velocity S-wave (km/s) = 3.80636 4.61339 4.22917
# Velocity P-wave (km/s) = 5.98737 8.16988 7.16225
#
# Compressibility (1/GPa) = 0.02508156
#
# Stress axis : x y z
#
# Youngs Moduli (GPa) = 89.43875 185.65460 60.27688
#
# Poissons Ratio (x) = 0.83096 -0.25822
# Poissons Ratio (y) = 0.40031 0.23182
# Poissons Ratio (z) = -0.38314 0.71401
#
# Static dielectric constant tensor:
#      x y z
#    x 2.035480 -0.068120 -0.043460 
#    y -0.068120 1.942090 0.029180 
#    z -0.043460 0.029180 2.022840 
# 
# From -- ./inp_files/45577.got.cif
#   From: 2010.05.17/outbox.cif.g08.bks.cpg/sg2_23_cif.got.tgz:45577.got - 2010.06.03 11:33:40.
