data_PCOD9104805
_publ_section_title
;
Structure prediction by ZEFSAII (Michael W. Deem and Ramdas Pophale) SiO2 
 PCOD9104805
Probable space group: P -1
;
_chemical_formula_sum "Si O2"
_cell_formula_units_Z 14
_cell_length_a 9.985162
_cell_length_b 6.974049
_cell_length_c 16.111980
_cell_angle_alpha 86.250797
_cell_angle_beta 142.545541
_cell_angle_gamma 71.311130
_cell_volume 537.627033
_symmetry_space_group_name_H-M "P -1"
_symmetry_group_IT_number 2
_symmetry_cell_setting 'triclinic'
loop_
_space_group_symop_operation_xyz
x,y,z
-x,-y,-z
loop_
_atom_site_type_symbol
_atom_site_label
_atom_site_fract_x
_atom_site_fract_y
_atom_site_fract_z
Si Si1 0.429760 0.179250 0.853562
Si Si2 0.954829 0.013439 0.223507
Si Si3 0.588988 0.109790 0.658106
Si Si4 0.886450 0.478092 0.687971
Si Si5 0.364334 0.774977 0.786712
Si Si6 0.575517 0.418526 0.782111
Si Si7 0.001329 0.346313 0.108639
O O1 0.498853 0.283975 0.810127
O O2 0.150267 0.377145 0.761179
O O3 0.390276 0.988278 0.803369
O O4 0.685173 0.064282 0.046826
O O5 0.092901 0.084961 0.222162
O O6 0.164946 0.722565 0.343846
O O7 0.873451 0.150530 0.265761
O O8 0.357457 0.253145 0.472169
O O9 0.577245 0.308555 0.699283
O O10 0.655213 0.880552 0.743484
O O11 0.932850 0.501954 0.805541
O O12 0.342463 0.699273 0.686052
O O13 0.658735 0.526881 0.968820
O O14 0.875404 0.347335 0.955290
#
# Coordination Sequence:
#
# PCOD9104805 Si02
#       7
#     2   2   2   2   2   2   2
#     4  11  19  39  71  85 123 159 221 246 293 370
#     4  11  19  40  66  88 117 166 210 256 292 370
#     4  12  25  38  60  94 136 152 200 257 324 362
#     4  11  23  40  61  97 121 162 203 264 307 355
#     4   9  20  38  67  94 110 157 226 248 285 357
#     4  10  23  41  64  93 121 171 199 252 308 366
#     4  10  20  39  62  90 123 163 210 248 301 369
#
# _framework density 26.040357
#
# number of rings (size 3 to 8) (size 9 to 14) (size 15 to 20)
#    0.857    0.571    4.286    2.143    2.000    2.286 
#    2.571    5.000    0.000    0.000    0.000    0.000 
#    0.000    0.000    0.000    0.000    0.000    0.000 
#
# Total GULP energy -78013.656090 kJ/mol
# GULP energy per Si atom -5572.404006 kJ/mol
# Density = 2.598109 g / cm^3
# Si number density = 26.040357 Si / 1000 Ang^3
#
#
#
# Elastic Constant Matrix: (Units=GPa)
#
#
# Indices 1 2 3 4 5 6 
#
# 1 74.4379 30.8367 24.4664 -0.5711 1.2592 -10.3480
# 2 30.8367 187.1244 14.4760 -12.1346 5.0815 -16.3084
# 3 24.4664 14.4760 57.2821 -18.6321 0.8604 -11.1761
# 4 -0.5711 -12.1346 -18.6321 31.9570 -4.3525 -1.9136
# 5 1.2592 5.0815 0.8604 -4.3525 14.1671 -3.1644
# 6 -10.3480 -16.3084 -11.1761 -1.9136 -3.1644 39.1191
#
#
#
# Elastic Compliance Matrix: (Units=1/GPa)
#
#
# Indices 1 2 3 4 5 6 
#
# 1 0.017330 -0.002464 -0.008494 -0.005775 -0.001757 0.000706
# 2 -0.002464 0.006076 0.000876 0.002817 -0.000653 0.002216
# 3 -0.008494 0.000876 0.028007 0.017755 0.005862 0.007462
# 4 -0.005775 0.002817 0.017755 0.045007 0.014052 0.008058
# 5 -0.001757 -0.000653 0.005862 0.014052 0.076686 0.007828
# 6 0.000706 0.002216 0.007462 0.008058 0.007828 0.029833
#
#
# Mechanical properties :
#
#
# Convention : Reuss Voigt Hill
#
# Bulk Modulus (GPa) = 32.00119 50.93363 41.46741
# Shear Modulus (GPa) = 21.41147 33.65300 27.53223
#
# Velocity S-wave (km/s) = 2.87059 3.59881 3.25513
# Velocity P-wave (km/s) = 4.82729 6.07211 5.48513
#
# Compressibility (1/GPa) = 0.03124884
#
# Stress axis : x y z
#
# Youngs Moduli (GPa) = 57.70325 164.58319 35.70509
#
# Poissons Ratio (x) = 0.40554 0.30327
# Poissons Ratio (y) = 0.14218 -0.03126
# Poissons Ratio (z) = 0.49012 -0.14412
#
# Static dielectric constant tensor:
#      x y z
#    x 2.182610 -0.005700 0.017100 
#    y -0.005700 2.062810 -0.015420 
#    z 0.017100 -0.015420 2.047130 
# 
# From -- ./inp_files/343586.got.cif
#   From: 2010.05.17/outbox.cif.g08.bks.cpg/sg2_172_cif.got.tgz:343586.got - 2010.06.03 11:33:40.
