data_PCOD9104528
_publ_section_title
;
Structure prediction by ZEFSAII (Michael W. Deem and Ramdas Pophale) SiO2 
 PCOD9104528
Probable space group: P -1
;
_chemical_formula_sum "Si O2"
_cell_formula_units_Z 16
_cell_length_a 15.245100
_cell_length_b 13.352282
_cell_length_c 11.123407
_cell_angle_alpha 118.368061
_cell_angle_beta 52.116520
_cell_angle_gamma 151.794390
_cell_volume 831.312099
_symmetry_space_group_name_H-M "P -1"
_symmetry_group_IT_number 2
_symmetry_cell_setting 'triclinic'
loop_
_space_group_symop_operation_xyz
x,y,z
-x,-y,-z
loop_
_atom_site_type_symbol
_atom_site_label
_atom_site_fract_x
_atom_site_fract_y
_atom_site_fract_z
Si Si1 0.327203 0.190226 0.035260
Si Si2 0.251844 0.729497 0.921764
Si Si3 0.680422 0.012669 0.404984
Si Si4 0.258690 0.400158 0.207490
Si Si5 0.925909 0.233134 0.563764
Si Si6 0.615446 0.922921 0.858553
Si Si7 0.052165 0.912673 0.905978
Si Si8 0.229453 0.693373 0.642089
O O1 0.280776 0.283990 0.146884
O O2 0.385910 0.179417 0.102542
O O3 0.514682 0.351336 0.871175
O O4 0.131868 0.958649 0.999851
O O5 0.391207 0.755516 0.888510
O O6 0.298120 0.764722 0.762062
O O7 0.000000 0.500000 0.000000
O O8 0.320480 0.907754 0.025321
O O9 0.757765 0.107208 0.527698
O O10 0.761715 0.959748 0.269480
O O11 0.799592 0.207511 0.332047
O O12 0.434895 0.816632 0.477985
O O13 0.114776 0.328973 0.392617
O O14 0.142738 0.314179 0.126495
O O15 0.030538 0.439929 0.643186
O O16 0.795439 0.062793 0.684871
O O17 0.000000 0.000000 0.000000
#
# Coordination Sequence:
#
# PCOD9104528 Si02
#       8
#     2   2   2   2   2   2   2   2
#     4  10  20  39  61  88 115 155 197 241 289 348
#     4  11  23  41  57  81 118 158 195 237 290 361
#     4  10  21  35  56  87 114 150 198 239 292 345
#     4   9  21  38  62  87 118 150 198 245 286 344
#     4  11  21  38  56  88 119 151 189 242 296 349
#     4  11  24  38  60  86 120 154 195 241 298 354
#     4   9  18  36  59  85 114 148 193 243 288 340
#     4  11  21  36  58  81 116 156 192 241 290 346
#
# _framework density 19.246683000000001
#
# number of rings (size 3 to 8) (size 9 to 14) (size 15 to 20)
#    0.000    1.750    2.500    1.875    0.000    4.500 
#    0.000    0.000    0.000    0.750    0.000    0.000 
#    0.000    0.000    0.000    0.000    0.000    0.000 
#
# Total GULP energy -89139.184020 kJ/mol
# GULP energy per Si atom -5571.199001 kJ/mol
# Density = 1.920288 g / cm^3
# Si number density = 19.246683 Si / 1000 Ang^3
#
#
#
# Elastic Constant Matrix: (Units=GPa)
#
#
# Indices 1 2 3 4 5 6 
#
# 1 112.3747 32.6754 55.0789 -5.0640 18.7999 6.9025
# 2 32.6754 77.9186 37.3579 0.6504 6.6720 12.5653
# 3 55.0789 37.3579 90.3434 2.5730 2.7913 3.1454
# 4 -5.0640 0.6504 2.5730 30.1711 11.4672 6.9245
# 5 18.7999 6.6720 2.7913 11.4672 35.8879 -0.5019
# 6 6.9025 12.5653 3.1454 6.9245 -0.5019 16.1807
#
#
#
# Elastic Compliance Matrix: (Units=1/GPa)
#
#
# Indices 1 2 3 4 5 6 
#
# 1 0.016652 0.000274 -0.009851 0.010313 -0.011445 -0.010170
# 2 0.000274 0.019455 -0.007645 0.006101 -0.005346 -0.016515
# 3 -0.009851 -0.007645 0.019881 -0.008520 0.007900 0.010166
# 4 0.010313 0.006101 -0.008520 0.050926 -0.022566 -0.029975
# 5 -0.011445 -0.005346 0.007900 -0.022566 0.041708 0.018449
# 6 -0.010170 -0.016515 0.010166 -0.029975 0.018449 0.090389
#
#
# Mechanical properties :
#
#
# Convention : Reuss Voigt Hill
#
# Bulk Modulus (GPa) = 46.42055 58.98455 52.70255
# Shear Modulus (GPa) = 17.81665 26.81626 22.31645
#
# Velocity S-wave (km/s) = 3.04583 3.73673 3.40883
# Velocity P-wave (km/s) = 6.04488 7.02358 6.55253
#
# Compressibility (1/GPa) = 0.02154219
#
# Stress axis : x y z
#
# Youngs Moduli (GPa) = 60.05364 51.40172 50.29940
#
# Poissons Ratio (x) = -0.01410 0.49552
# Poissons Ratio (y) = -0.01647 0.38456
# Poissons Ratio (z) = 0.59161 0.39299
#
# Static dielectric constant tensor:
#      x y z
#    x 1.671890 0.027870 -0.025530 
#    y 0.027870 1.697380 -0.012560 
#    z -0.025530 -0.012560 1.719090 
# 
# From -- ./inp_files/315570.got.cif
#   From: 2010.05.17/outbox.cif.g08.bks.cpg/sg2_158_cif.got.tgz:315570.got - 2010.06.03 11:33:40.
