data_PCOD9104943
_publ_section_title
;
Structure prediction by ZEFSAII (Michael W. Deem and Ramdas Pophale) SiO2 
 PCOD9104943
Probable space group: P -1
;
_chemical_formula_sum "Si O2"
_cell_formula_units_Z 16
_cell_length_a 22.142669
_cell_length_b 18.557850
_cell_length_c 12.796137
_cell_angle_alpha 141.557053
_cell_angle_beta 28.472280
_cell_angle_gamma 161.893895
_cell_volume 728.907251
_symmetry_space_group_name_H-M "P -1"
_symmetry_group_IT_number 2
_symmetry_cell_setting 'triclinic'
loop_
_space_group_symop_operation_xyz
x,y,z
-x,-y,-z
loop_
_atom_site_type_symbol
_atom_site_label
_atom_site_fract_x
_atom_site_fract_y
_atom_site_fract_z
Si Si1 0.710247 0.471711 0.285370
Si Si2 0.816879 0.616446 0.881712
Si Si3 0.718213 0.741490 0.018429
Si Si4 0.776214 0.510862 0.456471
Si Si5 0.265564 0.650564 0.453748
Si Si6 0.830763 0.963782 0.473260
Si Si7 0.882404 0.204129 0.162197
Si Si8 0.301318 0.266208 0.381401
O O1 0.823881 0.512527 0.266841
O O2 0.646991 0.555806 0.500559
O O3 0.418075 0.181031 0.374675
O O4 0.914942 0.637411 0.064768
O O5 0.828237 0.743491 0.942066
O O6 0.509423 0.366625 0.107027
O O7 0.857927 0.544298 0.657390
O O8 0.995645 0.749623 0.864529
O O9 0.534916 0.694557 0.291776
O O10 0.500000 0.500000 0.000000
O O11 0.978085 0.967307 0.805777
O O12 0.811536 0.445675 0.419667
O O13 0.975562 0.780013 0.484001
O O14 0.173068 0.704743 0.629912
O O15 0.593031 0.912390 0.245699
O O16 0.687507 0.773890 0.565147
O O17 0.000000 0.000000 0.500000
#
# Coordination Sequence:
#
# PCOD9104943 Si02
#       8
#     2   2   2   2   2   2   2   2
#     4  12  25  41  64 101 136 166 214 270 327 396
#     4  12  22  44  70  96 132 170 221 274 323 397
#     4  10  20  39  63 100 131 166 216 259 334 395
#     4  11  24  42  66  96 133 178 209 267 334 387
#     4  11  26  48  70  90 132 177 228 278 316 382
#     4  11  23  39  61  98 137 170 211 261 333 396
#     4  11  28  45  67 100 124 180 231 267 325 385
#     4  12  22  38  65 101 136 173 206 264 343 393
#
# _framework density 21.950665999999998
#
# number of rings (size 3 to 8) (size 9 to 14) (size 15 to 20)
#    0.000    0.750    6.250    2.250    3.500    1.000 
#    0.000    0.625    0.000    0.000    0.000    0.000 
#    0.000    0.000    0.000    0.000    0.000    0.000 
#
# Total GULP energy -89512.572809 kJ/mol
# GULP energy per Si atom -5594.535801 kJ/mol
# Density = 2.190071 g / cm^3
# Si number density = 21.950666 Si / 1000 Ang^3
#
#
#
# Elastic Constant Matrix: (Units=GPa)
#
#
# Indices 1 2 3 4 5 6 
#
# 1 123.5936 19.3325 30.1311 6.4255 14.0616 7.8326
# 2 19.3325 60.7448 16.7175 -6.1987 3.1883 8.8158
# 3 30.1311 16.7175 39.2989 -2.9562 11.4447 11.0360
# 4 6.4255 -6.1987 -2.9562 24.2426 -3.7111 1.1693
# 5 14.0616 3.1883 11.4447 -3.7111 33.9179 -1.3345
# 6 7.8326 8.8158 11.0360 1.1693 -1.3345 35.2650
#
#
#
# Elastic Compliance Matrix: (Units=1/GPa)
#
#
# Indices 1 2 3 4 5 6 
#
# 1 0.010580 -0.001802 -0.007128 -0.004504 -0.002289 0.000394
# 2 -0.001802 0.019581 -0.006248 0.005075 0.001466 -0.002652
# 3 -0.007128 -0.006248 0.039422 0.004082 -0.009694 -0.009694
# 4 -0.004504 0.005075 0.004082 0.045117 0.004837 -0.002859
# 5 -0.002289 0.001466 -0.009694 0.004837 0.034264 0.004312
# 6 0.000394 -0.002652 -0.009694 -0.002859 0.004312 0.032224
#
#
# Mechanical properties :
#
#
# Convention : Reuss Voigt Hill
#
# Bulk Modulus (GPa) = 25.49340 39.55552 32.52446
# Shear Modulus (GPa) = 22.25968 29.18217 25.72092
#
# Velocity S-wave (km/s) = 3.18791 3.65011 3.42681
# Velocity P-wave (km/s) = 5.01892 5.98529 5.52328
#
# Compressibility (1/GPa) = 0.03922584
#
# Stress axis : x y z
#
# Youngs Moduli (GPa) = 94.51485 51.06912 25.36664
#
# Poissons Ratio (x) = 0.09203 0.18082
# Poissons Ratio (y) = 0.17033 0.15850
# Poissons Ratio (z) = 0.67374 0.31910
#
# Static dielectric constant tensor:
#      x y z
#    x 1.112290 -0.074380 0.337720 
#    y -0.074380 1.825310 0.050590 
#    z 0.337720 0.050590 1.638770 
# 
# From -- ./inp_files/428092.got.cif
#   From: 2010.05.17/outbox.cif.g08.bks.cpg/sg2_215_cif.got.tgz:428092.got - 2010.06.03 11:33:40.
