data_PCOD9104342
_publ_section_title
;
Structure prediction by ZEFSAII (Michael W. Deem and Ramdas Pophale) SiO2 
 PCOD9104342
Probable space group: P -1
;
_chemical_formula_sum "Si O2"
_cell_formula_units_Z 16
_cell_length_a 5.104736
_cell_length_b 23.043628
_cell_length_c 5.335675
_cell_angle_alpha 75.159596
_cell_angle_beta 92.159244
_cell_angle_gamma 103.945469
_cell_volume 588.631975
_symmetry_space_group_name_H-M "P -1"
_symmetry_group_IT_number 2
_symmetry_cell_setting 'triclinic'
loop_
_space_group_symop_operation_xyz
x,y,z
-x,-y,-z
loop_
_atom_site_type_symbol
_atom_site_label
_atom_site_fract_x
_atom_site_fract_y
_atom_site_fract_z
Si Si1 0.065757 0.808197 0.716855
Si Si2 0.886601 0.396867 0.708122
Si Si3 0.547834 0.627828 0.887997
Si Si4 0.099547 0.690134 0.587418
Si Si5 0.582080 0.953097 0.362778
Si Si6 0.967499 0.082760 0.781404
Si Si7 0.309083 0.509105 0.717777
Si Si8 0.615516 0.844485 0.869426
O O1 0.056462 0.870727 0.498791
O O2 0.297303 0.816017 0.929908
O O3 0.131344 0.761570 0.566217
O O4 0.767340 0.792432 0.842513
O O5 0.874055 0.444634 0.432608
O O6 0.973117 0.338429 0.658370
O O7 0.099499 0.444021 0.835127
O O8 0.591548 0.375605 0.841662
O O9 0.853524 0.659041 0.795874
O O10 0.473961 0.556009 0.876368
O O11 0.368722 0.668099 0.689698
O O12 0.351685 0.940148 0.151662
O O13 0.588643 0.892380 0.594433
O O14 0.887306 0.969920 0.253308
O O15 0.500000 0.000000 0.500000
O O16 0.181393 0.119440 0.950876
O O17 0.500000 0.500000 0.500000
#
# Coordination Sequence:
#
# PCOD9104342 Si02
#       8
#     2   2   2   2   2   2   2   2
#     4  10  22  41  61  85 123 161 212 275 317 378
#     4  10  23  39  60  89 121 160 201 255 318 394
#     4  11  24  39  63  90 121 159 206 256 326 394
#     4  11  24  42  60  89 122 157 209 269 325 381
#     4  10  21  36  58  94 132 164 207 264 316 375
#     4  10  21  38  62  88 121 171 212 254 320 379
#     4  10  20  39  60  87 123 159 200 252 314 394
#     4  10  21  39  62  89 121 167 220 260 317 390
#
# _framework density 27.181668999999999
#
# number of rings (size 3 to 8) (size 9 to 14) (size 15 to 20)
#    0.000    1.750    1.250    2.250    1.750    2.500 
#    0.000    6.250    0.000    0.000    0.000    0.000 
#    0.000    0.000    0.000    0.000    0.000    0.000 
#
# Total GULP energy -89411.751873 kJ/mol
# GULP energy per Si atom -5588.234492 kJ/mol
# Density = 2.711980 g / cm^3
# Si number density = 27.181669 Si / 1000 Ang^3
#
#
#
# Elastic Constant Matrix: (Units=GPa)
#
#
# Indices 1 2 3 4 5 6 
#
# 1 179.4518 43.2815 57.4905 16.1722 27.9527 -7.0648
# 2 43.2815 97.8095 12.8997 37.2557 -1.8797 -29.2162
# 3 57.4905 12.8997 73.5641 26.0842 5.0167 3.0682
# 4 16.1722 37.2557 26.0842 35.8443 3.2600 -7.9396
# 5 27.9527 -1.8797 5.0167 3.2600 54.2790 6.5744
# 6 -7.0648 -29.2162 3.0682 -7.9396 6.5744 46.2795
#
#
#
# Elastic Compliance Matrix: (Units=1/GPa)
#
#
# Indices 1 2 3 4 5 6 
#
# 1 0.010733 -0.007825 -0.010793 0.011693 -0.005528 0.000206
# 2 -0.007825 0.026866 0.011879 -0.031488 0.004674 0.008912
# 3 -0.010793 0.011879 0.030554 -0.030672 0.005252 -0.002183
# 4 0.011693 -0.031488 -0.030672 0.078162 -0.008802 -0.001400
# 5 -0.005528 0.004674 0.005252 -0.008802 0.021821 -0.002851
# 6 0.000206 0.008912 -0.002183 -0.001400 -0.002851 0.027575
#
#
# Mechanical properties :
#
#
# Convention : Reuss Voigt Hill
#
# Bulk Modulus (GPa) = 18.29018 64.24099 41.26559
# Shear Modulus (GPa) = 21.98630 43.09081 32.53855
#
# Velocity S-wave (km/s) = 2.84714 3.98589 3.46363
# Velocity P-wave (km/s) = 4.18948 6.69838 5.58659
#
# Compressibility (1/GPa) = 0.05467414
#
# Stress axis : x y z
#
# Youngs Moduli (GPa) = 93.17065 37.22218 32.72851
#
# Poissons Ratio (x) = 0.29125 0.35325
# Poissons Ratio (y) = 0.72902 -0.38877
# Poissons Ratio (z) = 1.00564 -0.44215
#
# Static dielectric constant tensor:
#      x y z
#    x 2.227490 0.041320 0.057370 
#    y 0.041320 2.143220 0.017810 
#    z 0.057370 0.017810 2.304530 
# 
# From -- ./inp_files/13300.got.cif
#   From: 2010.05.17/outbox.cif.g08.bks.cpg/sg2_7_cif.got.tgz:13300.got - 2010.06.03 11:33:40.
