data_PCOD9104896
_publ_section_title
;
Structure prediction by ZEFSAII (Michael W. Deem and Ramdas Pophale) SiO2 
 PCOD9104896
Probable space group: P -1
;
_chemical_formula_sum "Si O2"
_cell_formula_units_Z 16
_cell_length_a 11.763728
_cell_length_b 10.256189
_cell_length_c 11.680898
_cell_angle_alpha 136.376699
_cell_angle_beta 131.481020
_cell_angle_gamma 63.960421
_cell_volume 726.187296
_symmetry_space_group_name_H-M "P -1"
_symmetry_group_IT_number 2
_symmetry_cell_setting 'triclinic'
loop_
_space_group_symop_operation_xyz
x,y,z
-x,-y,-z
loop_
_atom_site_type_symbol
_atom_site_label
_atom_site_fract_x
_atom_site_fract_y
_atom_site_fract_z
Si Si1 0.463382 0.312421 0.288002
Si Si2 0.824845 0.773222 0.256109
Si Si3 0.331321 0.941491 0.181087
Si Si4 0.355232 0.904672 0.544578
Si Si5 0.178593 0.656919 0.080211
Si Si6 0.084406 0.902074 0.661514
Si Si7 0.594553 0.171362 0.099766
Si Si8 0.873198 0.830152 0.948759
O O1 0.500000 0.500000 0.500000
O O2 0.579591 0.188613 0.357713
O O3 0.504301 0.337513 0.197509
O O4 0.287006 0.238701 0.139485
O O5 0.789234 0.563152 0.049758
O O6 0.882375 0.916103 0.283711
O O7 0.710352 0.899521 0.331266
O O8 0.960674 0.763068 0.430854
O O9 0.489440 0.050623 0.395031
O O10 0.197744 0.083311 0.158273
O O11 0.269771 0.777903 0.119871
O O12 0.378167 0.858305 0.034460
O O13 0.235076 0.763477 0.304466
O O14 0.999230 0.680124 0.947648
O O15 0.238011 0.805574 0.723039
O O16 0.046889 0.991259 0.814796
O O17 0.500000 0.000000 0.000000
#
# Coordination Sequence:
#
# PCOD9104896 Si02
#       8
#     2   2   2   2   2   2   2   2
#     4  11  24  38  69 102 129 165 224 279 331 382
#     4  11  24  39  66  96 137 171 216 271 335 387
#     4  10  23  44  70  91 132 181 215 276 330 384
#     4  11  23  44  65  96 134 174 213 279 327 387
#     4  12  26  42  66 100 135 177 225 256 331 415
#     4  10  20  39  62  94 129 171 208 278 335 369
#     4  11  18  40  69  88 120 169 224 262 329 381
#     4  10  22  42  66  94 129 176 212 281 329 380
#
# _framework density 22.032883000000002
#
# number of rings (size 3 to 8) (size 9 to 14) (size 15 to 20)
#    0.000    1.250    6.250    0.750    3.500    1.000 
#    0.000    5.000    0.000    0.000    0.000    0.000 
#    0.000    0.000    0.000    0.000    0.000    0.000 
#
# Total GULP energy -89106.158437 kJ/mol
# GULP energy per Si atom -5569.134902 kJ/mol
# Density = 2.198274 g / cm^3
# Si number density = 22.032883 Si / 1000 Ang^3
#
#
#
# Elastic Constant Matrix: (Units=GPa)
#
#
# Indices 1 2 3 4 5 6 
#
# 1 52.2428 33.1926 35.3589 -16.6981 -6.9290 -15.4473
# 2 33.1926 91.6463 56.9938 -1.4744 2.0295 -26.3329
# 3 35.3589 56.9938 106.7479 0.3468 -4.3664 -29.9831
# 4 -16.6981 -1.4744 0.3468 26.4050 -7.9547 -0.6713
# 5 -6.9290 2.0295 -4.3664 -7.9547 27.1531 -9.0477
# 6 -15.4473 -26.3329 -29.9831 -0.6713 -9.0477 25.0506
#
#
#
# Elastic Compliance Matrix: (Units=1/GPa)
#
#
# Indices 1 2 3 4 5 6 
#
# 1 0.064684 -0.008935 -0.001145 0.056658 0.049791 0.048626
# 2 -0.008935 0.019663 -0.005871 -0.005565 -0.004165 0.006480
# 3 -0.001145 -0.005871 0.018707 0.002279 0.010245 0.019274
# 4 0.056658 -0.005565 0.002279 0.093292 0.061394 0.056489
# 5 0.049791 -0.004165 0.010245 0.061394 0.094224 0.074264
# 6 0.048626 0.006480 0.019274 0.056489 0.074264 0.128121
#
#
# Mechanical properties :
#
#
# Convention : Reuss Voigt Hill
#
# Bulk Modulus (GPa) = 14.05424 55.74750 34.90087
# Shear Modulus (GPa) = 10.54162 24.06116 17.30139
#
# Velocity S-wave (km/s) = 2.18972 3.30821 2.80528
# Velocity P-wave (km/s) = 3.57572 6.32054 5.13493
#
# Compressibility (1/GPa) = 0.07115292
#
# Stress axis : x y z
#
# Youngs Moduli (GPa) = 15.45979 50.85643 53.45553
#
# Poissons Ratio (x) = 0.45438 0.06120
# Poissons Ratio (y) = 0.13813 0.31385
# Poissons Ratio (z) = 0.01770 0.29859
#
# Static dielectric constant tensor:
#      x y z
#    x 1.893420 -0.091650 -0.064110 
#    y -0.091650 1.964720 0.095200 
#    z -0.064110 0.095200 1.953300 
# 
# From -- ./inp_files/427067.got.cif
#   From: 2010.05.17/outbox.cif.g08.bks.cpg/sg2_214_cif.got.tgz:427067.got - 2010.06.03 11:33:40.
