data_PCOD9104256
_publ_section_title
;
Structure prediction by ZEFSAII (Michael W. Deem and Ramdas Pophale) SiO2 
 PCOD9104256
Probable space group: P -1
;
_chemical_formula_sum "Si O2"
_cell_formula_units_Z 16
_cell_length_a 8.986891
_cell_length_b 21.935886
_cell_length_c 5.406304
_cell_angle_alpha 120.953064
_cell_angle_beta 82.629548
_cell_angle_gamma 133.824502
_cell_volume 613.065578
_symmetry_space_group_name_H-M "P -1"
_symmetry_group_IT_number 2
_symmetry_cell_setting 'triclinic'
loop_
_space_group_symop_operation_xyz
x,y,z
-x,-y,-z
loop_
_atom_site_type_symbol
_atom_site_label
_atom_site_fract_x
_atom_site_fract_y
_atom_site_fract_z
Si Si1 0.090024 0.641795 0.858227
Si Si2 0.761678 0.446311 0.184557
Si Si3 0.857198 0.097908 0.981363
Si Si4 0.366889 0.318669 0.396679
Si Si5 0.278342 0.796077 0.749125
Si Si6 0.198267 0.403599 0.808120
Si Si7 0.658621 0.833434 0.654316
Si Si8 0.121763 0.980464 0.672417
O O1 0.183330 0.617964 0.987910
O O2 0.269862 0.754813 0.931503
O O3 0.985277 0.555541 0.490422
O O4 0.881087 0.616667 0.935650
O O5 0.551481 0.378566 0.270486
O O6 0.730230 0.492837 0.073855
O O7 0.803710 0.030008 0.616696
O O8 0.703673 0.113870 0.042203
O O9 0.842977 0.056953 0.169381
O O10 0.115437 0.213492 0.139710
O O11 0.352339 0.392902 0.669505
O O12 0.417063 0.272407 0.483321
O O13 0.466033 0.821311 0.610301
O O14 0.039768 0.698669 0.476238
O O15 0.856282 0.898455 0.552416
O O16 0.770232 0.907917 0.031469
#
# Coordination Sequence:
#
# PCOD9104256 Si02
#       8
#     2   2   2   2   2   2   2   2
#     4  10  21  37  61  88 129 163 207 270 317 379
#     4  10  20  39  59  90 125 164 214 263 319 381
#     4  10  24  44  68  97 132 171 215 271 325 388
#     4  10  21  40  62  92 126 169 218 260 320 387
#     4  10  22  40  63  94 127 169 217 264 323 388
#     4  10  22  38  60  91 127 166 214 263 324 374
#     4  10  22  42  66  93 128 170 215 267 326 392
#     4  10  24  46  68  95 134 169 214 272 331 384
#
# _framework density 26.098348999999999
#
# number of rings (size 3 to 8) (size 9 to 14) (size 15 to 20)
#    0.000    2.000    1.250    0.750    5.250    7.000 
#    6.750    0.000    0.000    0.000    0.000    0.000 
#    0.000    0.000    0.000    0.000    0.000    0.000 
#
# Total GULP energy -89556.618754 kJ/mol
# GULP energy per Si atom -5597.288672 kJ/mol
# Density = 2.603895 g / cm^3
# Si number density = 26.098349 Si / 1000 Ang^3
#
#
#
# Elastic Constant Matrix: (Units=GPa)
#
#
# Indices 1 2 3 4 5 6 
#
# 1 168.7202 53.5810 40.5455 -1.1228 -33.2519 4.3875
# 2 53.5810 102.5745 28.2811 7.5982 -12.2470 -9.5711
# 3 40.5455 28.2811 97.3103 -2.8089 -24.2488 -23.6001
# 4 -1.1228 7.5982 -2.8089 26.3392 -4.4143 -5.5547
# 5 -33.2519 -12.2470 -24.2488 -4.4143 46.7894 8.1883
# 6 4.3875 -9.5711 -23.6001 -5.5547 8.1883 36.2979
#
#
#
# Elastic Compliance Matrix: (Units=1/GPa)
#
#
# Indices 1 2 3 4 5 6 
#
# 1 0.008833 -0.003871 -0.002413 0.001090 0.004922 -0.004601
# 2 -0.003871 0.012646 -0.001920 -0.003742 -0.001182 0.002248
# 3 -0.002413 -0.001920 0.015432 0.004873 0.004571 0.009533
# 4 0.001090 -0.003742 0.004873 0.041999 0.004997 0.007350
# 5 0.004922 -0.001182 0.004571 0.004997 0.028012 -0.003489
# 6 -0.004601 0.002248 0.009533 0.007350 -0.003489 0.036809
#
#
# Mechanical properties :
#
#
# Convention : Reuss Voigt Hill
#
# Bulk Modulus (GPa) = 48.77402 68.15780 58.46591
# Shear Modulus (GPa) = 29.94478 38.29846 34.12162
#
# Velocity S-wave (km/s) = 3.39098 3.83491 3.61976
# Velocity P-wave (km/s) = 5.83616 6.76618 6.31830
#
# Compressibility (1/GPa) = 0.02050272
#
# Stress axis : x y z
#
# Youngs Moduli (GPa) = 113.20972 79.07471 64.80132
#
# Poissons Ratio (x) = 0.30611 0.15639
# Poissons Ratio (y) = 0.43826 0.12440
# Poissons Ratio (z) = 0.27321 0.15180
#
# Static dielectric constant tensor:
#      x y z
#    x 2.077600 -0.004020 0.063310 
#    y -0.004020 2.037840 -0.002080 
#    z 0.063310 -0.002080 2.062940 
# 
# From -- ./inp_files/37899.got.cif
#   From: 2010.05.17/outbox.cif.g08.bks.cpg/sg2_19_cif.got.tgz:37899.got - 2010.06.03 11:33:40.
