data_PCOD9104107
_publ_section_title
;
Structure prediction by ZEFSAII (Michael W. Deem and Ramdas Pophale) SiO2 
 PCOD9104107
Probable space group: P -1
;
_chemical_formula_sum "Si O2"
_cell_formula_units_Z 14
_cell_length_a 24.908065
_cell_length_b 22.395927
_cell_length_c 6.659635
_cell_angle_alpha 54.169541
_cell_angle_beta 53.390569
_cell_angle_gamma 11.155144
_cell_volume 576.936132
_symmetry_space_group_name_H-M "P -1"
_symmetry_group_IT_number 2
_symmetry_cell_setting 'triclinic'
loop_
_space_group_symop_operation_xyz
x,y,z
-x,-y,-z
loop_
_atom_site_type_symbol
_atom_site_label
_atom_site_fract_x
_atom_site_fract_y
_atom_site_fract_z
Si Si1 0.371066 0.306523 0.836782
Si Si2 0.449352 0.731644 0.996972
Si Si3 0.793662 0.771652 0.177339
Si Si4 0.745329 0.682108 0.249391
Si Si5 0.720616 0.329370 0.871907
Si Si6 0.147965 0.692312 0.686719
Si Si7 0.105152 0.242973 0.679330
O O1 0.648181 0.998646 0.955478
O O2 0.404886 0.222158 0.726783
O O3 0.282745 0.484641 0.654379
O O4 0.130605 0.531749 0.077777
O O5 0.682254 0.495007 0.114807
O O6 0.581148 0.539634 0.911419
O O7 0.329543 0.937615 0.779227
O O8 0.177010 0.980253 0.203335
O O9 0.364126 0.131792 0.742068
O O10 0.793376 0.789781 0.376636
O O11 0.094768 0.447900 0.036420
O O12 0.952764 0.420962 0.459712
O O13 0.802344 0.282371 0.575351
O O14 0.500000 0.500000 0.000000
O O15 0.000000 0.000000 0.000000
#
# Coordination Sequence:
#
# PCOD9104107 Si02
#       7
#     2   2   2   2   2   2   2
#     4  10  22  38  60  90 128 172 231 273 340 403
#     4  11  25  45  72 103 139 186 232 278 351 413
#     4  10  20  39  57  89 129 171 225 281 340 395
#     4  10  22  35  60  90 129 175 220 288 336 386
#     4  12  28  47  74 110 139 176 228 278 351 430
#     4  11  25  46  73 101 144 184 225 292 338 411
#     4  10  22  38  60  91 126 173 233 275 333 408
#
# _framework density 24.266116
#
# number of rings (size 3 to 8) (size 9 to 14) (size 15 to 20)
#    0.000    1.429    1.429    2.571    2.000    8.571 
#    0.000    0.000    0.000    0.000    0.000    0.000 
#    0.000    0.000    0.000    0.000    0.000    0.000 
#
# Total GULP energy -78368.789688 kJ/mol
# GULP energy per Si atom -5597.770692 kJ/mol
# Density = 2.421089 g / cm^3
# Si number density = 24.266116 Si / 1000 Ang^3
#
#
#
# Elastic Constant Matrix: (Units=GPa)
#
#
# Indices 1 2 3 4 5 6 
#
# 1 122.1778 25.6251 33.1824 2.8025 12.1289 4.6679
# 2 25.6251 70.9579 16.5516 -7.4279 3.9236 10.3694
# 3 33.1824 16.5516 103.7367 -10.3005 -4.9524 5.0544
# 4 2.8025 -7.4279 -10.3005 47.5151 -2.3833 3.3715
# 5 12.1289 3.9236 -4.9524 -2.3833 53.5836 3.1380
# 6 4.6679 10.3694 5.0544 3.3715 3.1380 51.1160
#
#
#
# Elastic Compliance Matrix: (Units=1/GPa)
#
#
# Indices 1 2 3 4 5 6 
#
# 1 0.009893 -0.002971 -0.003000 -0.001837 -0.002396 0.000264
# 2 -0.002971 0.016194 -0.001239 0.002638 -0.000332 -0.003045
# 3 -0.003000 -0.001239 0.011189 0.002569 0.001969 -0.000871
# 4 -0.001837 0.002638 0.002569 0.022359 0.001583 -0.002193
# 5 -0.002396 -0.000332 0.001969 0.001583 0.019553 -0.001213
# 6 0.000264 -0.003045 -0.000871 -0.002193 -0.001213 0.020462
#
#
# Mechanical properties :
#
#
# Convention : Reuss Voigt Hill
#
# Bulk Modulus (GPa) = 43.75384 49.73229 46.74306
# Shear Modulus (GPa) = 41.08863 45.21049 43.14956
#
# Velocity S-wave (km/s) = 4.11938 4.32106 4.22142
# Velocity P-wave (km/s) = 6.37932 6.74051 6.56240
#
# Compressibility (1/GPa) = 0.02285514
#
# Stress axis : x y z
#
# Youngs Moduli (GPa) = 101.08506 61.74996 89.37587
#
# Poissons Ratio (x) = 0.18347 0.26813
# Poissons Ratio (y) = 0.30035 0.11074
# Poissons Ratio (z) = 0.30326 0.07651
#
# Static dielectric constant tensor:
#      x y z
#    x 1.932250 -0.029170 -0.030030 
#    y -0.029170 1.948860 0.054700 
#    z -0.030030 0.054700 1.919100 
# 
# From -- ./inp_files/128877.got.cif
#   From: 2010.05.17/outbox.cif.g08.bks.cpg/sg2_65_cif.got.tgz:128877.got - 2010.06.03 11:33:40.
