data_PCOD9104952
_publ_section_title
;
Structure prediction by ZEFSAII (Michael W. Deem and Ramdas Pophale) SiO2 
 PCOD9104952
Probable space group: P -1
;
_chemical_formula_sum "Si O2"
_cell_formula_units_Z 16
_cell_length_a 8.342185
_cell_length_b 13.400169
_cell_length_c 13.626326
_cell_angle_alpha 150.952000
_cell_angle_beta 101.817349
_cell_angle_gamma 92.084596
_cell_volume 645.292972
_symmetry_space_group_name_H-M "P -1"
_symmetry_group_IT_number 2
_symmetry_cell_setting 'triclinic'
loop_
_space_group_symop_operation_xyz
x,y,z
-x,-y,-z
loop_
_atom_site_type_symbol
_atom_site_label
_atom_site_fract_x
_atom_site_fract_y
_atom_site_fract_z
Si Si1 0.592885 0.330899 0.391370
Si Si2 0.928510 0.015037 0.311751
Si Si3 0.118215 0.252070 0.116982
Si Si4 0.483067 0.688510 0.283464
Si Si5 0.099816 0.342670 0.866420
Si Si6 0.539019 0.895794 0.253521
Si Si7 0.227504 0.459536 0.762560
Si Si8 0.754762 0.097413 0.058565
O O1 0.500000 0.500000 0.500000
O O2 0.734134 0.482651 0.622961
O O3 0.701486 0.268553 0.263913
O O4 0.426769 0.079972 0.175325
O O5 0.001658 0.912427 0.322415
O O6 0.725607 0.974579 0.283013
O O7 0.926632 0.846258 0.080980
O O8 0.055185 0.281291 0.524451
O O9 0.934256 0.224652 0.124382
O O10 0.194686 0.079232 0.023700
O O11 0.544121 0.762251 0.240825
O O12 0.615502 0.618544 0.300561
O O13 0.470588 0.888246 0.513962
O O14 0.286948 0.472598 0.062066
O O15 0.144012 0.369342 0.781201
O O16 0.000000 0.500000 0.000000
O O17 0.353978 0.731955 0.029027
#
# Coordination Sequence:
#
# PCOD9104952 Si02
#       8
#     2   2   2   2   2   2   2   2
#     4   9  18  38  72  94 117 162 203 236 300 384
#     4  12  24  39  58  93 126 160 207 265 306 358
#     4  10  22  39  61  95 129 157 203 252 308 364
#     4  10  20  39  63  80 108 160 212 261 306 362
#     4  11  22  39  63  83 117 168 215 257 310 367
#     4  10  21  39  58  83 112 151 209 258 306 357
#     4  11  22  39  60  83 117 160 208 256 307 367
#     4   9  19  41  68  93 122 165 198 240 307 384
#
# _framework density 24.794938999999999
#
# number of rings (size 3 to 8) (size 9 to 14) (size 15 to 20)
#    0.000    1.750    2.500    2.250    5.250    1.000 
#    4.500    2.500    0.000    0.000    0.000    0.000 
#    0.000    0.000    0.000    0.000    0.000    0.000 
#
# Total GULP energy -89350.687219 kJ/mol
# GULP energy per Si atom -5584.417951 kJ/mol
# Density = 2.473850 g / cm^3
# Si number density = 24.794939 Si / 1000 Ang^3
#
#
#
# Elastic Constant Matrix: (Units=GPa)
#
#
# Indices 1 2 3 4 5 6 
#
# 1 111.7740 18.7415 48.8434 4.8406 -21.7197 15.9874
# 2 18.7415 46.8346 12.5810 5.6869 -9.8713 2.4213
# 3 48.8434 12.5810 174.7197 -1.5987 -17.4439 12.3220
# 4 4.8406 5.6869 -1.5987 19.9068 -0.0320 -2.8008
# 5 -21.7197 -9.8713 -17.4439 -0.0320 44.9543 2.2817
# 6 15.9874 2.4213 12.3220 -2.8008 2.2817 13.3836
#
#
#
# Elastic Compliance Matrix: (Units=1/GPa)
#
#
# Indices 1 2 3 4 5 6 
#
# 1 0.014056 -0.002238 -0.002000 -0.005284 0.006369 -0.016736
# 2 -0.002238 0.024292 -0.000526 -0.006909 0.004217 -0.003402
# 3 -0.002000 -0.000526 0.006777 0.000632 0.001747 -0.003920
# 4 -0.005284 -0.006909 0.000632 0.056290 -0.004778 0.019574
# 5 0.006369 0.004217 0.001747 -0.004778 0.027720 -0.015706
# 6 -0.016736 -0.003402 -0.003920 0.019574 -0.015706 0.105709
#
#
# Mechanical properties :
#
#
# Convention : Reuss Voigt Hill
#
# Bulk Modulus (GPa) = 28.09242 54.85113 41.47177
# Shear Modulus (GPa) = 19.51300 32.52642 26.01971
#
# Velocity S-wave (km/s) = 2.80835 3.62583 3.24295
# Velocity P-wave (km/s) = 4.67657 6.30070 5.54838
#
# Compressibility (1/GPa) = 0.03559679
#
# Stress axis : x y z
#
# Youngs Moduli (GPa) = 71.14209 41.16551 147.55197
#
# Poissons Ratio (x) = 0.09214 0.29518
# Poissons Ratio (y) = 0.15923 0.07759
# Poissons Ratio (z) = 0.14232 0.02165
#
# Static dielectric constant tensor:
#      x y z
#    x 2.046100 -0.031220 0.049040 
#    y -0.031220 2.029480 -0.017490 
#    z 0.049040 -0.017490 2.034290 
# 
# From -- ./inp_files/562443.got.cif
#   From: 2010.05.17/outbox.cif.g08.bks.cpg/sg2_282_cif.got.tgz:562443.got - 2010.06.03 11:33:40.
