data_PCOD9104562
_publ_section_title
;
Structure prediction by ZEFSAII (Michael W. Deem and Ramdas Pophale) SiO2 
 PCOD9104562
Probable space group: P -1
;
_chemical_formula_sum "Si O2"
_cell_formula_units_Z 14
_cell_length_a 28.637285
_cell_length_b 8.599978
_cell_length_c 22.350748
_cell_angle_alpha 139.017682
_cell_angle_beta 170.668567
_cell_angle_gamma 40.481604
_cell_volume 578.939384
_symmetry_space_group_name_H-M "P -1"
_symmetry_group_IT_number 2
_symmetry_cell_setting 'triclinic'
loop_
_space_group_symop_operation_xyz
x,y,z
-x,-y,-z
loop_
_atom_site_type_symbol
_atom_site_label
_atom_site_fract_x
_atom_site_fract_y
_atom_site_fract_z
Si Si1 0.305362 0.915184 0.677105
Si Si2 0.296025 0.690291 0.155666
Si Si3 0.437747 0.783119 0.994935
Si Si4 0.196266 0.021400 0.313654
Si Si5 0.889144 0.835681 0.226107
Si Si6 0.802512 0.496663 0.808663
Si Si7 0.622451 0.591848 0.419064
O O1 0.473037 0.659926 0.792159
O O2 0.007128 0.882345 0.323028
O O3 0.500000 0.000000 0.000000
O O4 0.298137 0.107382 0.670953
O O5 0.528845 0.694333 0.505450
O O6 0.453905 0.711914 0.298429
O O7 0.206611 0.425022 0.965421
O O8 0.018728 0.879089 0.875640
O O9 0.164863 0.826689 0.617012
O O10 0.345269 0.945741 0.983236
O O11 0.500000 0.500000 0.000000
O O12 0.386075 0.222463 0.591940
O O13 0.323830 0.752429 0.413992
O O14 0.000000 0.000000 0.000000
O O15 0.000000 0.500000 0.000000
O O16 0.039099 0.496623 0.159625
#
# Coordination Sequence:
#
# PCOD9104562 Si02
#       7
#     2   2   2   2   2   2   2
#     4  10  20  39  62  87 123 157 198 252 300 356
#     4  11  21  40  64  86 126 160 197 251 303 354
#     4  10  22  40  64  88 120 158 205 251 301 360
#     4  10  22  39  61  88 120 157 208 244 299 358
#     4  10  21  39  63  87 120 162 198 248 310 350
#     4   9  22  39  61  88 123 156 202 245 301 356
#     4  10  20  39  61  89 120 162 201 247 301 356
#
# _framework density 24.182151999999999
#
# number of rings (size 3 to 8) (size 9 to 14) (size 15 to 20)
#    0.000    2.000    2.857    0.000    0.000    9.143 
#    0.000    2.857    0.000    0.000    0.000    0.000 
#    0.000    0.000    0.000    0.000    0.000    0.000 
#
# Total GULP energy -78274.293967 kJ/mol
# GULP energy per Si atom -5591.020998 kJ/mol
# Density = 2.412711 g / cm^3
# Si number density = 24.182152 Si / 1000 Ang^3
#
#
#
# Elastic Constant Matrix: (Units=GPa)
#
#
# Indices 1 2 3 4 5 6 
#
# 1 112.1973 47.7435 24.9461 -5.6331 31.7487 -0.7607
# 2 47.7435 104.7672 3.6293 15.0313 16.0424 1.9643
# 3 24.9461 3.6293 50.5064 -0.4315 9.1145 4.4336
# 4 -5.6331 15.0313 -0.4315 36.1169 1.7209 6.6374
# 5 31.7487 16.0424 9.1145 1.7209 42.3369 8.5561
# 6 -0.7607 1.9643 4.4336 6.6374 8.5561 40.9518
#
#
#
# Elastic Compliance Matrix: (Units=1/GPa)
#
#
# Indices 1 2 3 4 5 6 
#
# 1 0.015658 -0.006359 -0.005855 0.005023 -0.008729 0.002239
# 2 -0.006359 0.013386 0.002206 -0.006542 -0.000548 0.000176
# 3 -0.005855 0.002206 0.022883 -0.001088 -0.000855 -0.002337
# 4 0.005023 -0.006542 -0.001088 0.032053 -0.001475 -0.004362
# 5 -0.008729 -0.000548 -0.000855 -0.001475 0.031926 -0.006475
# 6 0.002239 0.000176 -0.002337 -0.004362 -0.006475 0.026765
#
#
# Mechanical properties :
#
#
# Convention : Reuss Voigt Hill
#
# Bulk Modulus (GPa) = 31.33665 46.67874 39.00769
# Shear Modulus (GPa) = 28.84787 36.62457 32.73622
#
# Velocity S-wave (km/s) = 3.45764 3.89592 3.68331
# Velocity P-wave (km/s) = 5.37839 6.29146 5.85276
#
# Compressibility (1/GPa) = 0.03191152
#
# Stress axis : x y z
#
# Youngs Moduli (GPa) = 63.86535 74.70712 43.70035
#
# Poissons Ratio (x) = 0.47504 0.25588
# Poissons Ratio (y) = 0.40610 -0.09642
# Poissons Ratio (z) = 0.37395 -0.16484
#
# Static dielectric constant tensor:
#      x y z
#    x 1.930940 0.005340 -0.006230 
#    y 0.005340 1.920790 0.031610 
#    z -0.006230 0.031610 1.995600 
# 
# From -- ./inp_files/49219.got.cif
#   From: 2010.05.17/outbox.cif.g08.bks.cpg/sg2_25_cif.got.tgz:49219.got - 2010.06.03 11:33:40.
