data_PCOD9104745
_publ_section_title
;
Structure prediction by ZEFSAII (Michael W. Deem and Ramdas Pophale) SiO2 
 PCOD9104745
Probable space group: P -1
;
_chemical_formula_sum "Si O2"
_cell_formula_units_Z 14
_cell_length_a 8.176351
_cell_length_b 12.809369
_cell_length_c 12.282672
_cell_angle_alpha 147.406767
_cell_angle_beta 95.920462
_cell_angle_gamma 101.512087
_cell_volume 582.461655
_symmetry_space_group_name_H-M "P -1"
_symmetry_group_IT_number 2
_symmetry_cell_setting 'triclinic'
loop_
_space_group_symop_operation_xyz
x,y,z
-x,-y,-z
loop_
_atom_site_type_symbol
_atom_site_label
_atom_site_fract_x
_atom_site_fract_y
_atom_site_fract_z
Si Si1 0.186205 0.442044 0.672609
Si Si2 0.943821 0.733351 0.104765
Si Si3 0.293921 0.910811 0.855341
Si Si4 0.604468 0.810695 0.115224
Si Si5 0.717482 0.550303 0.557569
Si Si6 0.945448 0.197899 0.054752
Si Si7 0.149271 0.780003 0.380552
O O1 0.206984 0.361270 0.482806
O O2 0.126130 0.625814 0.805359
O O3 0.014300 0.257187 0.574939
O O4 0.390460 0.591091 0.882583
O O5 0.872361 0.466245 0.844699
O O6 0.067331 0.881223 0.138480
O O7 0.749955 0.737369 0.102255
O O8 0.078509 0.817557 0.293626
O O9 0.237025 0.652277 0.602322
O O10 0.172582 0.938629 0.966363
O O11 0.323396 0.049813 0.870820
O O12 0.500000 0.000000 0.000000
O O13 0.643067 0.008950 0.378734
O O14 0.500000 0.500000 0.500000
O O15 0.833720 0.691210 0.795228
#
# Coordination Sequence:
#
# PCOD9104745 Si02
#       7
#     2   2   2   2   2   2   2
#     4  10  21  40  64  93 129 167 212 266 319 385
#     4  10  23  43  67  93 127 168 220 272 310 386
#     4  11  21  38  59  89 129 162 200 262 318 375
#     4  12  22  41  68  94 127 172 216 263 323 386
#     4  11  21  38  62  92 124 165 213 259 321 390
#     4  10  20  39  62  87 127 166 207 262 323 377
#     4  10  23  46  66  91 130 171 215 270 329 362
#
# _framework density 24.035914999999999
#
# number of rings (size 3 to 8) (size 9 to 14) (size 15 to 20)
#    0.000    1.429    2.857    5.571    0.000    1.143 
#    2.571    9.286    0.000    0.000    0.000    0.000 
#    0.000    0.000    0.000    0.000    0.000    0.000 
#
# Total GULP energy -78201.915287 kJ/mol
# GULP energy per Si atom -5585.851092 kJ/mol
# Density = 2.398121 g / cm^3
# Si number density = 24.035915 Si / 1000 Ang^3
#
#
#
# Elastic Constant Matrix: (Units=GPa)
#
#
# Indices 1 2 3 4 5 6 
#
# 1 55.5550 -5.0539 0.6224 4.3561 1.6655 -14.6535
# 2 -5.0539 50.1835 30.4027 1.0132 -0.3636 -15.1391
# 3 0.6224 30.4027 72.3999 -23.8182 5.5672 -5.1684
# 4 4.3561 1.0132 -23.8182 28.3475 -7.8869 -2.3742
# 5 1.6655 -0.3636 5.5672 -7.8869 43.0866 -4.4732
# 6 -14.6535 -15.1391 -5.1684 -2.3742 -4.4732 34.1464
#
#
#
# Elastic Compliance Matrix: (Units=1/GPa)
#
#
# Indices 1 2 3 4 5 6 
#
# 1 0.023000 0.010061 -0.006132 -0.008013 -0.000147 0.012826
# 2 0.010061 0.040190 -0.022389 -0.020056 0.000987 0.017482
# 3 -0.006132 -0.022389 0.032186 0.028456 0.000513 -0.005640
# 4 -0.008013 -0.020056 0.028456 0.063067 0.007735 -0.002625
# 5 -0.000147 0.000987 0.000513 0.007735 0.025016 0.004267
# 6 0.012826 0.017482 -0.005640 -0.002625 0.004267 0.042064
#
#
# Mechanical properties :
#
#
# Convention : Reuss Voigt Hill
#
# Bulk Modulus (GPa) = 17.10663 25.56452 21.33557
# Shear Modulus (GPa) = 17.73503 31.26057 24.49780
#
# Velocity S-wave (km/s) = 2.71930 3.61026 3.19598
# Velocity P-wave (km/s) = 4.12213 5.29507 4.74498
#
# Compressibility (1/GPa) = 0.05845688
#
# Stress axis : x y z
#
# Youngs Moduli (GPa) = 43.47823 24.88163 31.06916
#
# Poissons Ratio (x) = -0.25034 0.19051
# Poissons Ratio (y) = -0.43744 0.69562
# Poissons Ratio (z) = 0.26660 0.55708
#
# Static dielectric constant tensor:
#      x y z
#    x 1.868930 0.034170 -0.010140 
#    y 0.034170 1.889820 0.014370 
#    z -0.010140 0.014370 1.878370 
# 
# From -- ./inp_files/235986.got.cif
#   From: 2010.05.17/outbox.cif.g08.bks.cpg/sg2_118_cif.got.tgz:235986.got - 2010.06.03 11:33:40.
