data_PCOD9104753
_publ_section_title
;
Structure prediction by ZEFSAII (Michael W. Deem and Ramdas Pophale) SiO2 
 PCOD9104753
Probable space group: P -1
;
_chemical_formula_sum "Si O2"
_cell_formula_units_Z 14
_cell_length_a 9.956127
_cell_length_b 11.812900
_cell_length_c 9.906499
_cell_angle_alpha 113.642051
_cell_angle_beta 135.719422
_cell_angle_gamma 65.736872
_cell_volume 731.075520
_symmetry_space_group_name_H-M "P -1"
_symmetry_group_IT_number 2
_symmetry_cell_setting 'triclinic'
loop_
_space_group_symop_operation_xyz
x,y,z
-x,-y,-z
loop_
_atom_site_type_symbol
_atom_site_label
_atom_site_fract_x
_atom_site_fract_y
_atom_site_fract_z
Si Si1 0.959634 0.611770 0.283257
Si Si2 0.363582 0.422500 0.442786
Si Si3 0.069396 0.946378 0.171577
Si Si4 0.543641 0.244268 0.724572
Si Si5 0.883547 0.799259 0.549983
Si Si6 0.164250 0.625533 0.881077
Si Si7 0.901286 0.708871 0.984572
O O1 0.172484 0.521635 0.400705
O O2 0.948768 0.734433 0.424258
O O3 0.816359 0.523115 0.198673
O O4 0.918348 0.649919 0.116685
O O5 0.500000 0.500000 0.500000
O O6 0.475367 0.349037 0.612338
O O7 0.288000 0.322707 0.241846
O O8 0.287518 0.864681 0.267273
O O9 0.928462 0.852903 0.073762
O O10 0.070469 0.063778 0.325537
O O11 0.000000 0.000000 0.000000
O O12 0.348746 0.194916 0.600065
O O13 0.646209 0.311032 0.949305
O O14 0.002467 0.705833 0.704539
O O15 0.077343 0.644396 0.980388
#
# Coordination Sequence:
#
# PCOD9104753 Si02
#       7
#     2   2   2   2   2   2   2
#     4  11  23  39  61  93 136 152 196 265 316 354
#     4  11  20  38  65  95 121 161 212 247 303 377
#     4  11  21  42  65  86 122 164 214 251 292 369
#     4  11  21  37  67  92 113 167 215 243 300 367
#     4  12  23  40  62  94 125 166 198 255 312 357
#     4  10  20  40  62  89 124 159 202 252 303 360
#     4  10  20  39  62  88 121 167 199 251 300 356
#
# _framework density 19.149868999999999
#
# number of rings (size 3 to 8) (size 9 to 14) (size 15 to 20)
#    0.000    1.143    5.714    5.143    0.000    1.143 
#    2.571    0.000    0.000    2.571    0.000    0.000 
#    0.000    0.000    0.000    0.000    0.000    0.000 
#
# Total GULP energy -78166.979323 kJ/mol
# GULP energy per Si atom -5583.355666 kJ/mol
# Density = 1.910628 g / cm^3
# Si number density = 19.149869 Si / 1000 Ang^3
#
#
#
# Elastic Constant Matrix: (Units=GPa)
#
#
# Indices 1 2 3 4 5 6 
#
# 1 33.1297 7.2072 20.3007 7.2348 9.4572 3.4030
# 2 7.2072 48.4236 8.5333 15.6484 14.7562 8.5139
# 3 20.3007 8.5333 89.8972 9.3068 19.6238 -3.8972
# 4 7.2348 15.6484 9.3068 45.8942 7.6378 2.5236
# 5 9.4572 14.7562 19.6238 7.6378 29.1449 10.9294
# 6 3.4030 8.5139 -3.8972 2.5236 10.9294 25.3383
#
#
#
# Elastic Compliance Matrix: (Units=1/GPa)
#
#
# Indices 1 2 3 4 5 6 
#
# 1 0.037125 -0.001321 -0.007101 -0.003021 -0.004539 -0.003375
# 2 -0.001321 0.026832 0.000594 -0.007143 -0.010344 -0.003574
# 3 -0.007101 0.000594 0.015576 -0.000805 -0.011314 0.008110
# 4 -0.003021 -0.007143 -0.000805 0.025111 -0.001801 0.000958
# 5 -0.004539 -0.010344 -0.011314 -0.001801 0.057459 -0.022260
# 6 -0.003375 -0.003574 0.008110 0.000958 -0.022260 0.051874
#
#
# Mechanical properties :
#
#
# Convention : Reuss Voigt Hill
#
# Bulk Modulus (GPa) = 15.65524 27.05920 21.35722
# Shear Modulus (GPa) = 19.92620 29.10277 24.51449
#
# Velocity S-wave (km/s) = 3.22924 3.90261 3.58178
# Velocity P-wave (km/s) = 4.70073 5.87095 5.31812
#
# Compressibility (1/GPa) = 0.06387638
#
# Stress axis : x y z
#
# Youngs Moduli (GPa) = 26.93588 37.26906 64.20245
#
# Poissons Ratio (x) = 0.04925 0.45590
# Poissons Ratio (y) = 0.03559 -0.03814
# Poissons Ratio (z) = 0.19127 -0.02214
#
# Static dielectric constant tensor:
#      x y z
#    x 1.667990 0.004220 0.024850 
#    y 0.004220 1.675000 0.036880 
#    z 0.024850 0.036880 1.698070 
# 
# From -- ./inp_files/175710.got.cif
#   From: 2010.05.17/outbox.cif.g08.bks.cpg/sg2_88_cif.got.tgz:175710.got - 2010.06.03 11:33:40.
