data_PCOD9104133
_publ_section_title
;
Structure prediction by ZEFSAII (Michael W. Deem and Ramdas Pophale) SiO2 
 PCOD9104133
Probable space group: P -1
;
_chemical_formula_sum "Si O2"
_cell_formula_units_Z 16
_cell_length_a 14.291421
_cell_length_b 14.038869
_cell_length_c 8.956746
_cell_angle_alpha 146.744832
_cell_angle_beta 127.389811
_cell_angle_gamma 43.744206
_cell_volume 681.350097
_symmetry_space_group_name_H-M "P -1"
_symmetry_group_IT_number 2
_symmetry_cell_setting 'triclinic'
loop_
_space_group_symop_operation_xyz
x,y,z
-x,-y,-z
loop_
_atom_site_type_symbol
_atom_site_label
_atom_site_fract_x
_atom_site_fract_y
_atom_site_fract_z
Si Si1 0.200468 0.790252 0.237843
Si Si2 0.576058 0.560982 0.533665
Si Si3 0.037380 0.672451 0.744978
Si Si4 0.802464 0.896366 0.592007
Si Si5 0.594089 0.974172 0.737040
Si Si6 0.706657 0.722832 0.051595
Si Si7 0.687383 0.041227 0.214682
Si Si8 0.657642 0.528321 0.258388
O O1 0.194317 0.952766 0.326859
O O2 0.227616 0.855667 0.509391
O O3 0.072399 0.758500 0.040886
O O4 0.330024 0.587197 0.035196
O O5 0.500000 0.500000 0.500000
O O6 0.470363 0.793101 0.698972
O O7 0.605200 0.468878 0.276975
O O8 0.704374 0.545284 0.726508
O O9 0.280661 0.141216 0.885880
O O10 0.184302 0.562443 0.667434
O O11 0.000000 0.500000 0.500000
O O12 0.663006 0.985864 0.666802
O O13 0.923427 0.835041 0.743628
O O14 0.808531 0.707845 0.260656
O O15 0.597043 0.762539 0.477238
O O16 0.692413 0.978946 0.967875
O O17 0.556399 0.847845 0.143301
#
# Coordination Sequence:
#
# PCOD9104133 Si02
#       8
#     2   2   2   2   2   2   2   2
#     4   9  23  37  60  87 118 149 206 240 296 341
#     4  11  22  36  59  89 127 152 192 250 299 352
#     4  10  21  39  61  83 119 162 199 244 292 346
#     4  11  21  38  61  86 117 159 201 246 284 361
#     4  11  19  37  64  85 121 156 197 234 305 357
#     4  10  21  37  58  87 120 158 194 239 305 349
#     4  10  20  39  58  84 121 159 183 247 304 352
#     4  10  21  38  60  85 121 153 200 237 299 348
#
# _framework density 23.482786999999998
#
# number of rings (size 3 to 8) (size 9 to 14) (size 15 to 20)
#    0.750    1.000    3.750    1.500    3.500    2.500 
#    0.000    1.250    0.000    0.000    0.000    0.000 
#    0.000    0.000    0.000    0.000    0.000    0.000 
#
# Total GULP energy -89254.122748 kJ/mol
# GULP energy per Si atom -5578.382672 kJ/mol
# Density = 2.342934 g / cm^3
# Si number density = 23.482787 Si / 1000 Ang^3
#
#
#
# Elastic Constant Matrix: (Units=GPa)
#
#
# Indices 1 2 3 4 5 6 
#
# 1 40.6334 13.3760 2.0562 -9.1219 16.6948 4.6127
# 2 13.3760 47.1346 28.8478 -13.5072 8.7353 -1.6644
# 3 2.0562 28.8478 132.5022 -35.3115 37.4568 3.5347
# 4 -9.1219 -13.5072 -35.3115 41.6886 -10.8877 10.6482
# 5 16.6948 8.7353 37.4568 -10.8877 29.3287 0.7382
# 6 4.6127 -1.6644 3.5347 10.6482 0.7382 19.9257
#
#
#
# Elastic Compliance Matrix: (Units=1/GPa)
#
#
# Indices 1 2 3 4 5 6 
#
# 1 0.055427 -0.015597 0.021850 0.020358 -0.046570 -0.027164
# 2 -0.015597 0.029522 -0.010326 -0.001412 0.012542 0.008198
# 3 0.021850 -0.010326 0.024044 0.017935 -0.032944 -0.018550
# 4 0.020358 -0.001412 0.017935 0.047474 -0.015624 -0.032804
# 5 -0.046570 0.012542 -0.032944 -0.015624 0.092576 0.022592
# 6 -0.027164 0.008198 -0.018550 -0.032804 0.022592 0.077143
#
#
# Mechanical properties :
#
#
# Convention : Reuss Voigt Hill
#
# Bulk Modulus (GPa) = 9.91595 34.31446 22.11521
# Shear Modulus (GPa) = 13.58892 29.92129 21.75511
#
# Velocity S-wave (km/s) = 2.40818 3.57344 3.04703
# Velocity P-wave (km/s) = 3.45894 5.62763 4.67089
#
# Compressibility (1/GPa) = 0.10084758
#
# Stress axis : x y z
#
# Youngs Moduli (GPa) = 18.04181 33.87289 41.59101
#
# Poissons Ratio (x) = 0.52831 -0.90878
# Poissons Ratio (y) = 0.28139 0.42947
# Poissons Ratio (z) = -0.39422 0.34977
#
# Static dielectric constant tensor:
#      x y z
#    x 1.883110 -0.004150 0.003240 
#    y -0.004150 1.785690 0.087410 
#    z 0.003240 0.087410 1.929750 
# 
# From -- ./inp_files/314364.got.cif
#   From: 2010.05.17/outbox.cif.g08.bks.cpg/sg2_158_cif.got.tgz:314364.got - 2010.06.03 11:33:40.
