data_PCOD9104468
_publ_section_title
;
Structure prediction by ZEFSAII (Michael W. Deem and Ramdas Pophale) SiO2 
 PCOD9104468
Probable space group: P -1
;
_chemical_formula_sum "Si O2"
_cell_formula_units_Z 14
_cell_length_a 6.689978
_cell_length_b 8.858355
_cell_length_c 17.981738
_cell_angle_alpha 110.127503
_cell_angle_beta 46.322054
_cell_angle_gamma 101.935506
_cell_volume 722.890249
_symmetry_space_group_name_H-M "P -1"
_symmetry_group_IT_number 2
_symmetry_cell_setting 'triclinic'
loop_
_space_group_symop_operation_xyz
x,y,z
-x,-y,-z
loop_
_atom_site_type_symbol
_atom_site_label
_atom_site_fract_x
_atom_site_fract_y
_atom_site_fract_z
Si Si1 0.900007 0.263197 0.235493
Si Si2 0.772923 0.986135 0.330521
Si Si3 0.145233 0.092577 0.542699
Si Si4 0.034748 0.661479 0.165033
Si Si5 0.353468 0.613903 0.822112
Si Si6 0.084723 0.562516 0.303888
Si Si7 0.522449 0.192055 0.032001
O O1 0.679801 0.292334 0.231595
O O2 0.884211 0.414544 0.321090
O O3 0.206224 0.259915 0.120377
O O4 0.887513 0.102099 0.258726
O O5 0.928001 0.975120 0.368170
O O6 0.798639 0.804082 0.262311
O O7 0.468953 0.057030 0.439752
O O8 0.055805 0.280507 0.596188
O O9 0.000000 0.000000 0.500000
O O10 0.138821 0.612103 0.212368
O O11 0.894028 0.511311 0.136466
O O12 0.281684 0.735921 0.068462
O O13 0.638002 0.506869 0.739730
O O14 0.357261 0.742164 0.909854
O O15 0.500000 0.000000 0.000000
#
# Coordination Sequence:
#
# PCOD9104468 Si02
#       7
#     2   2   2   2   2   2   2
#     4  10  22  40  58  86 120 151 191 241 291 339
#     4  10  21  39  60  86 115 149 192 246 287 338
#     4  10  21  38  62  86 111 149 197 238 291 348
#     4  10  20  39  61  83 117 159 195 235 285 341
#     4  10  22  38  59  85 118 159 196 228 287 351
#     4   9  21  39  59  84 118 153 190 243 286 343
#     4  11  22  38  58  89 121 151 193 244 286 335
#
# _framework density 19.366703000000001
#
# number of rings (size 3 to 8) (size 9 to 14) (size 15 to 20)
#    0.000    2.000    1.429    1.286    0.000   10.857 
#    2.571    1.429    0.000    0.000    0.000    0.000 
#    0.000    0.000    0.000    0.000    0.000    0.000 
#
# Total GULP energy -78071.492803 kJ/mol
# GULP energy per Si atom -5576.535200 kJ/mol
# Density = 1.932262 g / cm^3
# Si number density = 19.366703 Si / 1000 Ang^3
#
#
#
# Elastic Constant Matrix: (Units=GPa)
#
#
# Indices 1 2 3 4 5 6 
#
# 1 105.2156 41.4724 23.9245 17.2872 9.9771 0.0535
# 2 41.4724 113.7158 33.3301 25.7782 13.6319 -4.3532
# 3 23.9245 33.3301 63.3331 20.6909 -1.1250 1.8922
# 4 17.2872 25.7782 20.6909 37.7222 2.7356 3.1959
# 5 9.9771 13.6319 -1.1250 2.7356 18.5552 10.2191
# 6 0.0535 -4.3532 1.8922 3.1959 10.2191 25.2308
#
#
#
# Elastic Compliance Matrix: (Units=1/GPa)
#
#
# Indices 1 2 3 4 5 6 
#
# 1 0.011949 -0.002215 -0.002813 -0.002195 -0.006035 0.002526
# 2 -0.002215 0.014562 -0.005501 -0.005686 -0.014174 0.009391
# 3 -0.002813 -0.005501 0.022650 -0.007675 0.011556 -0.006350
# 4 -0.002195 -0.005686 -0.007675 0.035916 0.002991 -0.006161
# 5 -0.006035 -0.014174 0.011556 0.002991 0.089887 -0.040085
# 6 0.002526 0.009391 -0.006350 -0.006161 -0.040085 0.058741
#
#
# Mechanical properties :
#
#
# Convention : Reuss Voigt Hill
#
# Bulk Modulus (GPa) = 35.58647 53.30205 44.44426
# Shear Modulus (GPa) = 18.92993 28.53748 23.73370
#
# Velocity S-wave (km/s) = 3.12981 3.84283 3.50450
# Velocity P-wave (km/s) = 5.61034 6.87547 6.27487
#
# Compressibility (1/GPa) = 0.02810057
#
# Stress axis : x y z
#
# Youngs Moduli (GPa) = 83.68935 68.67278 44.15044
#
# Poissons Ratio (x) = 0.15214 0.12422
# Poissons Ratio (y) = 0.18540 0.24288
# Poissons Ratio (z) = 0.23546 0.37778
#
# Static dielectric constant tensor:
#      x y z
#    x 1.681310 -0.009340 -0.011600 
#    y -0.009340 1.700640 0.010760 
#    z -0.011600 0.010760 1.709390 
# 
# From -- ./inp_files/26717.got.cif
#   From: 2010.05.17/outbox.cif.g08.bks.cpg/sg2_14_cif.got.tgz:26717.got - 2010.06.03 11:33:40.
