data_PCOD9104522
_publ_section_title
;
Structure prediction by ZEFSAII (Michael W. Deem and Ramdas Pophale) SiO2 
 PCOD9104522
Probable space group: P -1
;
_chemical_formula_sum "Si O2"
_cell_formula_units_Z 12
_cell_length_a 17.978631
_cell_length_b 5.074397
_cell_length_c 4.884092
_cell_angle_alpha 94.980440
_cell_angle_beta 71.366777
_cell_angle_gamma 107.075172
_cell_volume 403.599880
_symmetry_space_group_name_H-M "P -1"
_symmetry_group_IT_number 2
_symmetry_cell_setting 'triclinic'
loop_
_space_group_symop_operation_xyz
x,y,z
-x,-y,-z
loop_
_atom_site_type_symbol
_atom_site_label
_atom_site_fract_x
_atom_site_fract_y
_atom_site_fract_z
Si Si1 0.467832 0.210988 0.760772
Si Si2 0.945092 0.287414 0.334585
Si Si3 0.759247 0.789461 0.032931
Si Si4 0.689327 0.180414 0.794467
Si Si5 0.631939 0.507374 0.498505
Si Si6 0.903354 0.730191 0.198010
O O1 0.600350 0.982104 0.979608
O O2 0.554422 0.407288 0.784633
O O3 0.420716 0.397333 0.669629
O O4 0.500000 0.000000 0.500000
O O5 0.875695 0.424886 0.328634
O O6 0.000000 0.500000 0.500000
O O7 0.910371 0.971571 0.429833
O O8 0.007257 0.260761 0.018635
O O9 0.711526 0.766271 0.381635
O O10 0.847993 0.786679 0.027950
O O11 0.715405 0.491511 0.921411
O O12 0.748626 0.030034 0.871676
O O13 0.674831 0.267638 0.505196
#
# Coordination Sequence:
#
# PCOD9104522 Si02
#       6
#     2   2   2   2   2   2
#     4  10  20  39  61  87 123 165 220 279 326 385
#     4  10  21  41  70  99 127 173 224 265 329 402
#     4  11  24  42  60  93 132 168 213 271 334 395
#     4  11  24  39  63  89 125 173 220 265 332 401
#     4  10  23  39  59  90 124 167 218 273 331 390
#     4  10  22  41  65  97 138 170 215 282 326 391
#
# _framework density 29.732416000000001
#
# number of rings (size 3 to 8) (size 9 to 14) (size 15 to 20)
#    0.000    1.667    1.667    2.000    2.333    2.000 
#    0.000    3.333    0.000    0.000    0.000    0.000 
#    0.000    0.000    0.000    0.000    0.000    0.000 
#
# Total GULP energy -66937.346345 kJ/mol
# GULP energy per Si atom -5578.112195 kJ/mol
# Density = 2.966474 g / cm^3
# Si number density = 29.732416 Si / 1000 Ang^3
#
#
#
# Elastic Constant Matrix: (Units=GPa)
#
#
# Indices 1 2 3 4 5 6 
#
# 1 159.3260 84.8048 37.3336 -16.4950 15.7894 -44.1526
# 2 84.8048 278.8529 60.5202 -18.3548 30.7411 -72.5196
# 3 37.3336 60.5202 103.9658 -21.7035 21.5811 -21.0147
# 4 -16.4950 -18.3548 -21.7035 61.6543 0.1373 24.7308
# 5 15.7894 30.7411 21.5811 0.1373 38.0999 -6.6314
# 6 -44.1526 -72.5196 -21.0147 24.7308 -6.6314 64.1877
#
#
#
# Elastic Compliance Matrix: (Units=1/GPa)
#
#
# Indices 1 2 3 4 5 6 
#
# 1 0.008391 -0.001092 -0.001365 -0.000181 -0.001118 0.004045
# 2 -0.001092 0.005941 -0.001716 -0.001407 -0.002372 0.005696
# 3 -0.001365 -0.001716 0.012935 0.003991 -0.005522 -0.000751
# 4 -0.000181 -0.001407 0.003991 0.020622 -0.002626 -0.008625
# 5 -0.001118 -0.002372 -0.005522 -0.002626 0.031590 -0.000982
# 6 0.004045 0.005696 -0.000751 -0.008625 -0.000982 0.027773
#
#
# Mechanical properties :
#
#
# Convention : Reuss Voigt Hill
#
# Bulk Modulus (GPa) = 52.85511 100.82910 76.84210
# Shear Modulus (GPa) = 41.01509 56.75413 48.88461
#
# Velocity S-wave (km/s) = 3.71816 4.37376 4.05921
# Velocity P-wave (km/s) = 6.02067 7.71311 6.91883
#
# Compressibility (1/GPa) = 0.01891965
#
# Stress axis : x y z
#
# Youngs Moduli (GPa) = 119.17939 168.32237 77.30801
#
# Poissons Ratio (x) = 0.18384 0.10556
# Poissons Ratio (y) = 0.13016 0.13267
# Poissons Ratio (z) = 0.16273 0.28886
#
# Static dielectric constant tensor:
#      x y z
#    x 2.301630 0.064510 -0.114430 
#    y 0.064510 2.549880 0.245380 
#    z -0.114430 0.245380 2.882740 
# 
# From -- ./inp_files/102931.got.cif
#   From: 2010.05.17/outbox.cif.g08.bks.cpg/sg2_52_cif.got.tgz:102931.got - 2010.06.03 11:33:40.
