data_PCOD9104495
_publ_section_title
;
Structure prediction by ZEFSAII (Michael W. Deem and Ramdas Pophale) SiO2 
 PCOD9104495
Probable space group: P -1
;
_chemical_formula_sum "Si O2"
_cell_formula_units_Z 16
_cell_length_a 25.904759
_cell_length_b 15.902908
_cell_length_c 6.508337
_cell_angle_alpha 107.197757
_cell_angle_beta 124.288047
_cell_angle_gamma 26.516964
_cell_volume 816.021285
_symmetry_space_group_name_H-M "P -1"
_symmetry_group_IT_number 2
_symmetry_cell_setting 'triclinic'
loop_
_space_group_symop_operation_xyz
x,y,z
-x,-y,-z
loop_
_atom_site_type_symbol
_atom_site_label
_atom_site_fract_x
_atom_site_fract_y
_atom_site_fract_z
Si Si1 0.224495 0.144651 0.802703
Si Si2 0.689756 0.816805 0.658485
Si Si3 0.881613 0.565624 0.519776
Si Si4 0.930977 0.035528 0.177279
Si Si5 0.669099 0.706958 0.889657
Si Si6 0.378233 0.655121 0.146963
Si Si7 0.220589 0.626071 0.228491
Si Si8 0.516190 0.332261 0.911224
O O1 0.170489 0.273395 0.581181
O O2 0.064894 0.313372 0.675900
O O3 0.301860 0.113330 0.113849
O O4 0.352640 0.903031 0.866353
O O5 0.844122 0.617157 0.712870
O O6 0.685668 0.733903 0.725140
O O7 0.523651 0.041599 0.319975
O O8 0.769171 0.635893 0.221183
O O9 0.803473 0.128156 0.031072
O O10 0.835009 0.229099 0.957015
O O11 0.000000 0.000000 0.500000
O O12 0.075977 0.807581 0.201375
O O13 0.738791 0.518815 0.892064
O O14 0.500000 0.500000 0.500000
O O15 0.398122 0.716457 0.099557
O O16 0.432819 0.503255 0.014855
O O17 0.378613 0.455403 0.577222
#
# Coordination Sequence:
#
# PCOD9104495 Si02
#       8
#     2   2   2   2   2   2   2   2
#     4  10  22  39  62  88 123 159 204 244 303 359
#     4  10  20  39  61  85 125 160 195 251 299 355
#     4  10  22  39  58  92 124 159 198 253 297 356
#     4  11  24  42  64  91 124 160 202 260 311 365
#     4  10  22  37  60  91 121 155 205 246 298 359
#     4  11  24  42  63  93 125 159 207 259 312 366
#     4  11  23  41  65  92 124 163 208 254 309 369
#     4  11  23  41  66  90 124 165 207 256 307 370
#
# _framework density 19.607330999999999
#
# number of rings (size 3 to 8) (size 9 to 14) (size 15 to 20)
#    0.000    1.500    3.750    0.750    0.000    6.000 
#    0.000    0.000    0.000    0.000    0.000    0.000 
#    0.000    0.000    0.000    0.000    0.000    0.000 
#
# Total GULP energy -89433.547923 kJ/mol
# GULP energy per Si atom -5589.596745 kJ/mol
# Density = 1.956270 g / cm^3
# Si number density = 19.607331 Si / 1000 Ang^3
#
#
#
# Elastic Constant Matrix: (Units=GPa)
#
#
# Indices 1 2 3 4 5 6 
#
# 1 62.6509 26.6746 -2.0333 -3.0436 13.7753 -17.9167
# 2 26.6746 59.2268 -9.4020 -13.6884 -4.3879 4.8342
# 3 -2.0333 -9.4020 35.1649 -10.5314 9.0295 -3.2273
# 4 -3.0436 -13.6884 -10.5314 27.2690 -5.6063 0.6735
# 5 13.7753 -4.3879 9.0295 -5.6063 25.5346 -2.7914
# 6 -17.9167 4.8342 -3.2273 0.6735 -2.7914 32.2309
#
#
#
# Elastic Compliance Matrix: (Units=1/GPa)
#
#
# Indices 1 2 3 4 5 6 
#
# 1 0.036961 -0.023209 0.000374 -0.012962 -0.024477 0.022215
# 2 -0.023209 0.037116 0.009366 0.023981 0.019061 -0.016381
# 3 0.000374 0.009366 0.038563 0.017928 -0.008119 0.001587
# 4 -0.012962 0.023981 0.017928 0.057797 0.016503 -0.008786
# 5 -0.024477 0.019061 -0.008119 0.016503 0.060786 -0.012359
# 6 0.022215 -0.016381 0.001587 -0.008786 -0.012359 0.045104
#
#
# Mechanical properties :
#
#
# Convention : Reuss Voigt Hill
#
# Bulk Modulus (GPa) = 11.66870 20.83568 16.25219
# Shear Modulus (GPa) = 15.06785 26.46046 20.76416
#
# Velocity S-wave (km/s) = 2.77516 3.67756 3.25776
# Velocity P-wave (km/s) = 4.02899 5.35558 4.73893
#
# Compressibility (1/GPa) = 0.08569934
#
# Stress axis : x y z
#
# Youngs Moduli (GPa) = 27.05591 26.94270 25.93181
#
# Poissons Ratio (x) = 0.62532 -0.00969
# Poissons Ratio (y) = 0.62795 -0.24287
# Poissons Ratio (z) = -0.01011 -0.25234
#
# Static dielectric constant tensor:
#      x y z
#    x 1.681420 -0.011990 0.006450 
#    y -0.011990 1.642130 -0.008950 
#    z 0.006450 -0.008950 1.678600 
# 
# From -- ./inp_files/37563.got.cif
#   From: 2010.05.17/outbox.cif.g08.bks.cpg/sg2_19_cif.got.tgz:37563.got - 2010.06.03 11:33:40.
