data_PCOD9104924
_publ_section_title
;
Structure prediction by ZEFSAII (Michael W. Deem and Ramdas Pophale) SiO2 
 PCOD9104924
Probable space group: P -1
;
_chemical_formula_sum "Si O2"
_cell_formula_units_Z 14
_cell_length_a 11.509890
_cell_length_b 17.331668
_cell_length_c 11.445337
_cell_angle_alpha 30.760644
_cell_angle_beta 40.693574
_cell_angle_gamma 30.902043
_cell_volume 597.820164
_symmetry_space_group_name_H-M "P -1"
_symmetry_group_IT_number 2
_symmetry_cell_setting 'triclinic'
loop_
_space_group_symop_operation_xyz
x,y,z
-x,-y,-z
loop_
_atom_site_type_symbol
_atom_site_label
_atom_site_fract_x
_atom_site_fract_y
_atom_site_fract_z
Si Si1 0.471231 0.848307 0.356199
Si Si2 0.863171 0.139650 0.773795
Si Si3 0.667502 0.411703 0.143614
Si Si4 0.845516 0.869677 0.977097
Si Si5 0.320380 0.191763 0.189418
Si Si6 0.212921 0.552999 0.727680
Si Si7 0.347853 0.831106 0.863514
O O1 0.450031 0.688116 0.620163
O O2 0.716904 0.780529 0.216967
O O3 0.392907 0.001994 0.318215
O O4 0.294629 0.973844 0.222553
O O5 0.740736 0.331105 0.542385
O O6 0.772138 0.193638 0.904226
O O7 0.135944 0.018535 0.718798
O O8 0.833303 0.987488 0.943455
O O9 0.742960 0.423744 0.201695
O O10 0.494164 0.629879 0.946498
O O11 0.896629 0.282979 0.061765
O O12 0.477775 0.146271 0.238308
O O13 0.054628 0.334374 0.233916
O O14 0.340330 0.326719 0.910486
#
# Coordination Sequence:
#
# PCOD9104924 Si02
#       7
#     2   2   2   2   2   2   2
#     4  11  21  37  65  97 125 159 202 269 315 361
#     4  11  22  43  64  87 127 173 205 251 314 377
#     4  11  22  42  64  97 126 161 210 264 311 373
#     4  11  22  36  66  96 125 160 208 260 319 368
#     4  10  20  39  62  97 124 155 210 266 304 375
#     4  10  21  37  67  93 124 159 210 260 314 364
#     4  10  25  42  62  88 129 167 213 250 304 381
#
# _framework density 23.418413999999999
#
# number of rings (size 3 to 8) (size 9 to 14) (size 15 to 20)
#    0.000    1.429    4.286    1.286    0.000    5.714 
#    0.000    0.714    3.143    0.000    0.000    0.000 
#    0.000    0.000    0.000    0.000    0.000    0.000 
#
# Total GULP energy -78381.247959 kJ/mol
# GULP energy per Si atom -5598.660568 kJ/mol
# Density = 2.336511 g / cm^3
# Si number density = 23.418414 Si / 1000 Ang^3
#
#
#
# Elastic Constant Matrix: (Units=GPa)
#
#
# Indices 1 2 3 4 5 6 
#
# 1 88.8739 32.1688 27.7722 -15.5299 -22.3136 -18.6189
# 2 32.1688 82.6780 41.9922 -9.2971 10.4782 -9.2907
# 3 27.7722 41.9922 84.7400 -4.0738 -1.3274 -10.6497
# 4 -15.5299 -9.2971 -4.0738 32.0734 1.5767 -0.8194
# 5 -22.3136 10.4782 -1.3274 1.5767 28.0588 -3.0207
# 6 -18.6189 -9.2907 -10.6497 -0.8194 -3.0207 39.6595
#
#
#
# Elastic Compliance Matrix: (Units=1/GPa)
#
#
# Indices 1 2 3 4 5 6 
#
# 1 0.025226 -0.010238 -0.001005 0.008197 0.024584 0.011216
# 2 -0.010238 0.022254 -0.008275 0.001211 -0.017246 -0.003104
# 3 -0.001005 -0.008275 0.016525 -0.000894 0.003366 0.002265
# 4 0.008197 0.001211 -0.000894 0.035287 0.004576 0.004970
# 5 0.024584 -0.017246 0.003366 0.004576 0.062963 0.013295
# 6 0.011216 -0.003104 0.002265 0.004970 0.013295 0.031477
#
#
# Mechanical properties :
#
#
# Convention : Reuss Voigt Hill
#
# Bulk Modulus (GPa) = 40.04838 51.12870 45.58854
# Shear Modulus (GPa) = 20.73899 30.24891 25.49395
#
# Velocity S-wave (km/s) = 2.97911 3.59788 3.30302
# Velocity P-wave (km/s) = 5.38255 6.25618 5.83573
#
# Compressibility (1/GPa) = 0.02496980
#
# Stress axis : x y z
#
# Youngs Moduli (GPa) = 39.64135 44.93507 60.51394
#
# Poissons Ratio (x) = 0.46004 0.06084
# Poissons Ratio (y) = 0.40585 0.50073
# Poissons Ratio (z) = 0.03986 0.37182
#
# Static dielectric constant tensor:
#      x y z
#    x 1.890810 -0.016520 -0.007660 
#    y -0.016520 1.881510 0.040710 
#    z -0.007660 0.040710 1.894500 
# 
# From -- ./inp_files/158404.got.cif
#   From: 2010.05.17/outbox.cif.g08.bks.cpg/sg2_80_cif.got.tgz:158404.got - 2010.06.03 11:33:40.
