data_PCOD9104865
_publ_section_title
;
Structure prediction by ZEFSAII (Michael W. Deem and Ramdas Pophale) SiO2 
 PCOD9104865
Probable space group: P -1
;
_chemical_formula_sum "Si O2"
_cell_formula_units_Z 10
_cell_length_a 16.610589
_cell_length_b 7.525969
_cell_length_c 11.532098
_cell_angle_alpha 52.885042
_cell_angle_beta 19.397395
_cell_angle_gamma 56.442280
_cell_volume 381.071152
_symmetry_space_group_name_H-M "P -1"
_symmetry_group_IT_number 2
_symmetry_cell_setting 'triclinic'
loop_
_space_group_symop_operation_xyz
x,y,z
-x,-y,-z
loop_
_atom_site_type_symbol
_atom_site_label
_atom_site_fract_x
_atom_site_fract_y
_atom_site_fract_z
Si Si1 0.568619 0.864459 0.707173
Si Si2 0.762219 0.768470 0.243847
Si Si3 0.013305 0.184000 0.312139
Si Si4 0.121318 0.492751 0.463054
Si Si5 0.307330 0.722192 0.490781
O O1 0.660322 0.900309 0.436529
O O2 0.778804 0.742449 0.542084
O O3 0.531965 0.095069 0.731295
O O4 0.347224 0.678432 0.079785
O O5 0.616010 0.528687 0.524414
O O6 0.802205 0.865419 0.022826
O O7 0.040767 0.713939 0.917285
O O8 0.050341 0.416435 0.238850
O O9 0.761691 0.200405 0.575127
O O10 0.000000 0.000000 0.500000
O O11 0.000000 0.500000 0.500000
#
# Coordination Sequence:
#
# PCOD9104865 Si02
#       5
#     2   2   2   2   2
#     4  11  21  41  71  91 125 177 210 260 327 377
#     4   9  19  39  64  95 123 170 216 253 316 391
#     4  10  20  39  62  92 132 166 205 268 317 368
#     4  11  24  41  61 100 133 160 219 271 313 380
#     4   9  18  36  68  90 125 165 216 255 317 383
#
# _framework density 26.241821000000002
#
# number of rings (size 3 to 8) (size 9 to 14) (size 15 to 20)
#    1.200    0.800    2.000    1.800    0.000    0.800 
#    3.600    2.000    0.000    0.000    0.000    0.000 
#    0.000    0.000    0.000    0.000    0.000    0.000 
#
# Total GULP energy -55963.250045 kJ/mol
# GULP energy per Si atom -5596.325005 kJ/mol
# Density = 2.618209 g / cm^3
# Si number density = 26.241821 Si / 1000 Ang^3
#
#
#
# Elastic Constant Matrix: (Units=GPa)
#
#
# Indices 1 2 3 4 5 6 
#
# 1 221.7371 44.1593 55.2459 -13.6963 30.8403 18.2488
# 2 44.1593 78.2700 18.4655 -10.6246 4.3392 17.7016
# 3 55.2459 18.4655 76.4046 -4.0294 11.3885 10.2075
# 4 -13.6963 -10.6246 -4.0294 42.7810 1.9965 2.1361
# 5 30.8403 4.3392 11.3885 1.9965 54.0514 -5.9274
# 6 18.2488 17.7016 10.2075 2.1361 -5.9274 46.6984
#
#
#
# Elastic Compliance Matrix: (Units=1/GPa)
#
#
# Indices 1 2 3 4 5 6 
#
# 1 0.006398 -0.002137 -0.003409 0.001404 -0.002964 -0.001385
# 2 -0.002137 0.015957 -0.001377 0.003427 -0.000460 -0.005128
# 3 -0.003409 -0.001377 0.016404 0.000285 -0.001625 -0.001951
# 4 0.001404 0.003427 0.000285 0.024983 -0.002428 -0.003361
# 5 -0.002964 -0.000460 -0.001625 -0.002428 0.021153 0.004484
# 6 -0.001385 -0.005128 -0.001951 -0.003361 0.004484 0.025049
#
#
# Mechanical properties :
#
#
# Convention : Reuss Voigt Hill
#
# Bulk Modulus (GPa) = 40.13880 68.01701 54.07790
# Shear Modulus (GPa) = 37.85210 45.94223 41.89717
#
# Velocity S-wave (km/s) = 3.80206 4.18871 4.00006
# Velocity P-wave (km/s) = 5.88244 7.02633 6.47968
#
# Compressibility (1/GPa) = 0.02491355
#
# Stress axis : x y z
#
# Youngs Moduli (GPa) = 156.30504 62.66732 60.96252
#
# Poissons Ratio (x) = 0.13393 0.20779
# Poissons Ratio (y) = 0.33405 0.08393
# Poissons Ratio (z) = 0.53277 0.08628
#
# Static dielectric constant tensor:
#      x y z
#    x 2.038550 -0.052930 -0.027970 
#    y -0.052930 2.134630 0.059590 
#    z -0.027970 0.059590 2.116140 
# 
# From -- ./inp_files/174240.got.cif
#   From: 2010.05.17/outbox.cif.g08.bks.cpg/sg2_88_cif.got.tgz:174240.got - 2010.06.03 11:33:40.
