data_PCOD9104098
_publ_section_title
;
Structure prediction by ZEFSAII (Michael W. Deem and Ramdas Pophale) SiO2 
 PCOD9104098
Probable space group: P -1
;
_chemical_formula_sum "Si O2"
_cell_formula_units_Z 16
_cell_length_a 23.790950
_cell_length_b 5.072064
_cell_length_c 17.985626
_cell_angle_alpha 104.783957
_cell_angle_beta 16.390382
_cell_angle_gamma 101.602180
_cell_volume 584.504028
_symmetry_space_group_name_H-M "P -1"
_symmetry_group_IT_number 2
_symmetry_cell_setting 'triclinic'
loop_
_space_group_symop_operation_xyz
x,y,z
-x,-y,-z
loop_
_atom_site_type_symbol
_atom_site_label
_atom_site_fract_x
_atom_site_fract_y
_atom_site_fract_z
Si Si1 0.246554 0.884650 0.783933
Si Si2 0.418652 0.875241 0.708173
Si Si3 0.690643 0.219829 0.788487
Si Si4 0.038291 0.343690 0.586636
Si Si5 0.716987 0.496458 0.412406
Si Si6 0.439384 0.740451 0.200371
Si Si7 0.950442 0.417362 0.250290
Si Si8 0.664081 0.713476 0.044545
O O1 0.303543 0.732485 0.779878
O O2 0.154732 0.721813 0.822792
O O3 0.456535 0.928608 0.482556
O O4 0.123249 0.179420 0.983615
O O5 0.585565 0.704863 0.537143
O O6 0.269446 0.067888 0.966358
O O7 0.817699 0.448276 0.611021
O O8 0.577434 0.138285 0.851836
O O9 0.851502 0.963219 0.590907
O O10 0.531444 0.413001 0.055570
O O11 0.004500 0.404063 0.722522
O O12 0.830957 0.445080 0.814243
O O13 0.852120 0.583236 0.314286
O O14 0.543231 0.367671 0.667250
O O15 0.219220 0.754579 0.514851
O O16 0.597510 0.854493 0.061167
#
# Coordination Sequence:
#
# PCOD9104098 Si02
#       8
#     2   2   2   2   2   2   2   2
#     4  10  20  39  57  87 128 160 213 259 317 378
#     4  10  21  37  59  90 123 164 206 264 319 372
#     4  10  24  45  67  95 133 167 214 267 329 379
#     4  11  24  43  67  98 129 171 214 268 320 387
#     4  10  22  37  61  88 125 170 207 264 315 377
#     4   9  22  43  65  93 125 172 206 270 320 387
#     4  10  21  40  61  91 123 166 215 262 314 384
#     4  10  22  40  62  93 129 163 218 260 320 382
#
# _framework density 27.373633999999999
#
# number of rings (size 3 to 8) (size 9 to 14) (size 15 to 20)
#    0.000    2.000    1.250    0.750    3.500    6.000 
#    6.750    0.000    0.000    0.000    0.000    0.000 
#    0.000    0.000    0.000    0.000    0.000    0.000 
#
# Total GULP energy -89566.342890 kJ/mol
# GULP energy per Si atom -5597.896431 kJ/mol
# Density = 2.731133 g / cm^3
# Si number density = 27.373634 Si / 1000 Ang^3
#
#
#
# Elastic Constant Matrix: (Units=GPa)
#
#
# Indices 1 2 3 4 5 6 
#
# 1 118.3377 7.4317 4.0778 -9.6033 -14.6240 -9.0243
# 2 7.4317 77.5881 19.3120 17.9493 3.3359 -5.1161
# 3 4.0778 19.3120 121.3291 20.7510 -0.3423 -1.2173
# 4 -9.6033 17.9493 20.7510 32.9991 -5.9666 -6.3144
# 5 -14.6240 3.3359 -0.3423 -5.9666 35.6060 6.6128
# 6 -9.0243 -5.1161 -1.2173 -6.3144 6.6128 32.4319
#
#
#
# Elastic Compliance Matrix: (Units=1/GPa)
#
#
# Indices 1 2 3 4 5 6 
#
# 1 0.009893 -0.002130 -0.000983 0.006013 0.004783 0.002576
# 2 -0.002130 0.015658 -0.000856 -0.009160 -0.004050 0.000887
# 3 -0.000983 -0.000856 0.009451 -0.006155 -0.001072 -0.001034
# 4 0.006013 -0.009160 -0.006155 0.043872 0.009390 0.006624
# 5 0.004783 -0.004050 -0.001072 0.009390 0.032773 -0.004202
# 6 0.002576 0.000887 -0.001034 0.006624 -0.004202 0.033798
#
#
# Mechanical properties :
#
#
# Convention : Reuss Voigt Hill
#
# Bulk Modulus (GPa) = 36.94999 42.09978 39.52489
# Shear Modulus (GPa) = 30.78740 39.30294 35.04517
#
# Velocity S-wave (km/s) = 3.35731 3.79330 3.58194
# Velocity P-wave (km/s) = 5.34382 5.88205 5.61938
#
# Compressibility (1/GPa) = 0.02706360
#
# Stress axis : x y z
#
# Youngs Moduli (GPa) = 101.07680 63.86685 105.81313
#
# Poissons Ratio (x) = 0.13604 0.10397
# Poissons Ratio (y) = 0.21529 0.09062
# Poissons Ratio (z) = 0.09932 0.05470
#
# Static dielectric constant tensor:
#      x y z
#    x 2.259220 0.063790 -0.015050 
#    y 0.063790 2.192240 -0.027810 
#    z -0.015050 -0.027810 2.089300 
# 
# From -- ./inp_files/39703.got.cif
#   From: 2010.05.17/outbox.cif.g08.bks.cpg/sg2_20_cif.got.tgz:39703.got - 2010.06.03 11:33:40.
