data_PCOD9104193
_publ_section_title
;
Structure prediction by ZEFSAII (Michael W. Deem and Ramdas Pophale) SiO2 
 PCOD9104193
Probable space group: P -1
;
_chemical_formula_sum "Si O2"
_cell_formula_units_Z 16
_cell_length_a 5.325786
_cell_length_b 11.236814
_cell_length_c 17.628156
_cell_angle_alpha 106.187097
_cell_angle_beta 57.587190
_cell_angle_gamma 71.977857
_cell_volume 705.158015
_symmetry_space_group_name_H-M "P -1"
_symmetry_group_IT_number 2
_symmetry_cell_setting 'triclinic'
loop_
_space_group_symop_operation_xyz
x,y,z
-x,-y,-z
loop_
_atom_site_type_symbol
_atom_site_label
_atom_site_fract_x
_atom_site_fract_y
_atom_site_fract_z
Si Si1 0.890634 0.887882 0.376706
Si Si2 0.645734 0.583708 0.623382
Si Si3 0.754914 0.596270 0.988416
Si Si4 0.200119 0.722656 0.443562
Si Si5 0.836816 0.393426 0.818115
Si Si6 0.576962 0.670409 0.808532
Si Si7 0.766452 0.823993 0.931833
Si Si8 0.374574 0.817605 0.589745
O O1 0.179434 0.807976 0.384495
O O2 0.928672 0.755173 0.296575
O O3 0.500000 0.000000 0.500000
O O4 0.910193 0.002774 0.339289
O O5 0.768333 0.618312 0.687538
O O6 0.351177 0.727656 0.647501
O O7 0.000000 0.500000 0.500000
O O8 0.568421 0.458037 0.632474
O O9 0.371851 0.635321 0.088067
O O10 0.961537 0.478666 0.864711
O O11 0.704554 0.749203 0.000700
O O12 0.000000 0.500000 0.000000
O O13 0.777612 0.780553 0.528535
O O14 0.330842 0.759503 0.505159
O O15 0.604160 0.529931 0.820477
O O16 0.707006 0.747294 0.856280
O O17 0.164841 0.782430 0.870051
O O18 0.500000 0.000000 0.000000
#
# Coordination Sequence:
#
# PCOD9104193 Si02
#       8
#     2   2   2   2   2   2   2   2
#     4  10  21  41  61  96 131 173 216 271 330 391
#     4  10  22  41  63  94 133 176 221 267 317 397
#     4  10  21  43  68  99 127 171 231 278 336 398
#     4  10  20  39  59  82 124 171 212 260 311 381
#     4  10  21  42  69  96 132 178 225 278 332 405
#     4  11  23  43  70 100 131 181 225 265 341 406
#     4  11  25  45  71 101 135 167 218 289 345 397
#     4  10  22  37  57  87 126 166 212 261 316 371
#
# _framework density 22.689951000000001
#
# number of rings (size 3 to 8) (size 9 to 14) (size 15 to 20)
#    0.000    1.750    2.500    1.125    0.000    5.000 
#   13.500    0.000    0.000    0.000    0.000    0.000 
#    0.000    0.000    0.000    0.000    0.000    0.000 
#
# Total GULP energy -89219.430002 kJ/mol
# GULP energy per Si atom -5576.214375 kJ/mol
# Density = 2.263831 g / cm^3
# Si number density = 22.689951 Si / 1000 Ang^3
#
#
#
# Elastic Constant Matrix: (Units=GPa)
#
#
# Indices 1 2 3 4 5 6 
#
# 1 74.2814 17.6748 20.0798 -3.9416 15.3392 -20.1082
# 2 17.6748 174.7553 38.4409 21.4873 11.2279 -33.3398
# 3 20.0798 38.4409 108.3346 8.4500 18.5237 -13.4306
# 4 -3.9416 21.4873 8.4500 41.5740 1.0502 1.1566
# 5 15.3392 11.2279 18.5237 1.0502 31.7934 -11.3545
# 6 -20.1082 -33.3398 -13.4306 1.1566 -11.3545 25.9902
#
#
#
# Elastic Compliance Matrix: (Units=1/GPa)
#
#
# Indices 1 2 3 4 5 6 
#
# 1 0.017898 0.001057 -0.001595 0.001209 -0.003558 0.012771
# 2 0.001057 0.008750 -0.001775 -0.004448 0.001925 0.012163
# 3 -0.001595 -0.001775 0.011133 -0.001374 -0.005003 0.000118
# 4 0.001209 -0.004448 -0.001374 0.026998 -0.001766 -0.007453
# 5 -0.003558 0.001925 -0.005003 -0.001766 0.040838 0.015051
# 6 0.012771 0.012163 0.000118 -0.007453 0.015051 0.070928
#
#
# Mechanical properties :
#
#
# Convention : Reuss Voigt Hill
#
# Bulk Modulus (GPa) = 30.16156 56.64025 43.40091
# Shear Modulus (GPa) = 26.01151 38.61657 32.31404
#
# Velocity S-wave (km/s) = 3.38951 4.12991 3.77789
# Velocity P-wave (km/s) = 5.35165 6.91075 6.18056
#
# Compressibility (1/GPa) = 0.03315478
#
# Stress axis : x y z
#
# Youngs Moduli (GPa) = 55.87215 114.29134 89.82105
#
# Poissons Ratio (x) = -0.12080 0.14328
# Poissons Ratio (y) = -0.05905 0.15942
# Poissons Ratio (z) = 0.08912 0.20285
#
# Static dielectric constant tensor:
#      x y z
#    x 2.123130 -0.105960 0.072540 
#    y -0.105960 2.157520 -0.248760 
#    z 0.072540 -0.248760 2.065640 
# 
# From -- ./inp_files/549201.got.cif
#   From: 2010.05.17/outbox.cif.g08.bks.cpg/sg2_275_cif.got.tgz:549201.got - 2010.06.03 11:33:40.
