data_PCOD9104169
_publ_section_title
;
Structure prediction by ZEFSAII (Michael W. Deem and Ramdas Pophale) SiO2 
 PCOD9104169
Probable space group: P -1
;
_chemical_formula_sum "Si O2"
_cell_formula_units_Z 16
_cell_length_a 15.177443
_cell_length_b 14.960726
_cell_length_c 9.371824
_cell_angle_alpha 39.927255
_cell_angle_beta 62.432846
_cell_angle_gamma 40.774906
_cell_volume 855.947060
_symmetry_space_group_name_H-M "P -1"
_symmetry_group_IT_number 2
_symmetry_cell_setting 'triclinic'
loop_
_space_group_symop_operation_xyz
x,y,z
-x,-y,-z
loop_
_atom_site_type_symbol
_atom_site_label
_atom_site_fract_x
_atom_site_fract_y
_atom_site_fract_z
Si Si1 0.336975 0.542916 0.191484
Si Si2 0.149661 0.209441 0.674733
Si Si3 0.178022 0.211004 0.328919
Si Si4 0.671693 0.225976 0.331751
Si Si5 0.157574 0.498544 0.811564
Si Si6 0.186338 0.433718 0.538810
Si Si7 0.142686 0.898329 0.101885
Si Si8 0.140644 0.825808 0.518529
O O1 0.504404 0.375434 0.278022
O O2 0.273991 0.450340 0.352314
O O3 0.265580 0.680403 0.215988
O O4 0.293958 0.687303 0.916632
O O5 0.195770 0.219537 0.473437
O O6 0.207888 0.252143 0.701151
O O7 0.979273 0.377322 0.598696
O O8 0.188218 0.010973 0.902775
O O9 0.011815 0.348772 0.260709
O O10 0.258367 0.990245 0.497602
O O11 0.214890 0.309923 0.087454
O O12 0.735229 0.215331 0.445698
O O13 0.211617 0.438676 0.681007
O O14 0.177885 0.625342 0.720541
O O15 0.116693 0.900270 0.284713
O O16 0.000000 0.000000 0.000000
O O17 0.000000 0.000000 0.500000
#
# Coordination Sequence:
#
# PCOD9104169 Si02
#       8
#     2   2   2   2   2   2   2   2
#     4  11  23  44  64  85 132 170 210 262 310 368
#     4  10  21  34  65  92 118 159 208 255 311 370
#     4  10  20  39  58  90 130 155 202 257 315 371
#     4  11  25  41  63  93 126 171 211 257 316 370
#     4  10  21  37  61  91 126 157 197 265 315 364
#     4  10  21  38  59  92 121 161 206 254 312 372
#     4  12  21  40  67  93 125 162 209 266 310 368
#     4  12  24  37  66  98 122 159 211 263 317 370
#
# _framework density 18.692744999999999
#
# number of rings (size 3 to 8) (size 9 to 14) (size 15 to 20)
#    0.000    1.250    5.000    1.500    3.500    1.500 
#    0.000    2.500    0.000    0.000    0.000    0.000 
#    0.000    0.000    0.000    0.000    0.000    0.000 
#
# Total GULP energy -89328.748869 kJ/mol
# GULP energy per Si atom -5583.046804 kJ/mol
# Density = 1.865020 g / cm^3
# Si number density = 18.692745 Si / 1000 Ang^3
#
#
#
# Elastic Constant Matrix: (Units=GPa)
#
#
# Indices 1 2 3 4 5 6 
#
# 1 83.9409 39.2585 44.5424 1.0322 -12.4201 20.8531
# 2 39.2585 69.1825 39.8144 11.2479 3.5074 9.0381
# 3 44.5424 39.8144 115.1764 10.9391 -8.8228 -2.6326
# 4 1.0322 11.2479 10.9391 31.2592 6.1150 -3.9089
# 5 -12.4201 3.5074 -8.8228 6.1150 31.2479 1.4172
# 6 20.8531 9.0381 -2.6326 -3.9089 1.4172 20.3746
#
#
#
# Elastic Compliance Matrix: (Units=1/GPa)
#
#
# Indices 1 2 3 4 5 6 
#
# 1 0.028573 -0.008647 -0.007725 -0.000809 0.011546 -0.027365
# 2 -0.008647 0.023818 -0.004891 -0.005730 -0.006233 -0.003013
# 3 -0.007725 -0.004891 0.013870 -0.001638 0.001195 0.011471
# 4 -0.000809 -0.005730 -0.001638 0.037582 -0.007991 0.010925
# 5 0.011546 -0.006233 0.001195 -0.007991 0.039791 -0.013198
# 6 -0.027365 -0.003013 0.011471 0.010925 -0.013198 0.082921
#
#
# Mechanical properties :
#
#
# Convention : Reuss Voigt Hill
#
# Bulk Modulus (GPa) = 42.13447 57.28114 49.70781
# Shear Modulus (GPa) = 18.05105 26.22197 22.13651
#
# Velocity S-wave (km/s) = 3.11090 3.74945 3.44500
# Velocity P-wave (km/s) = 5.95760 7.03239 6.51719
#
# Compressibility (1/GPa) = 0.02373353
#
# Stress axis : x y z
#
# Youngs Moduli (GPa) = 34.99815 41.98558 72.09783
#
# Poissons Ratio (x) = 0.36305 0.55696
# Poissons Ratio (y) = 0.30263 0.35266
# Poissons Ratio (z) = 0.27036 0.20537
#
# Static dielectric constant tensor:
#      x y z
#    x 1.634090 0.010820 -0.016170 
#    y 0.010820 1.635700 0.006250 
#    z -0.016170 0.006250 1.660060 
# 
# From -- ./inp_files/238542.got.cif
#   From: 2010.05.17/outbox.cif.g08.bks.cpg/sg2_120_cif.got.tgz:238542.got - 2010.06.03 11:33:40.
