data_PCOD9104762
_publ_section_title
;
Structure prediction by ZEFSAII (Michael W. Deem and Ramdas Pophale) SiO2 
 PCOD9104762
Probable space group: P -1
;
_chemical_formula_sum "Si O2"
_cell_formula_units_Z 14
_cell_length_a 14.690052
_cell_length_b 13.819680
_cell_length_c 8.796977
_cell_angle_alpha 107.686985
_cell_angle_beta 131.472143
_cell_angle_gamma 34.589289
_cell_volume 625.480829
_symmetry_space_group_name_H-M "P -1"
_symmetry_group_IT_number 2
_symmetry_cell_setting 'triclinic'
loop_
_space_group_symop_operation_xyz
x,y,z
-x,-y,-z
loop_
_atom_site_type_symbol
_atom_site_label
_atom_site_fract_x
_atom_site_fract_y
_atom_site_fract_z
Si Si1 0.540884 0.351921 0.022527
Si Si2 0.381289 0.647725 0.304381
Si Si3 0.328769 0.078444 0.979681
Si Si4 0.250367 0.474801 0.512727
Si Si5 0.389881 0.846570 0.756962
Si Si6 0.702439 0.717264 0.770635
Si Si7 0.986494 0.086516 0.217225
O O1 0.326433 0.439866 0.753160
O O2 0.500000 0.500000 0.000000
O O3 0.576763 0.291381 0.206948
O O4 0.802548 0.143111 0.126288
O O5 0.500000 0.500000 0.500000
O O6 0.609441 0.533664 0.416655
O O7 0.208890 0.863775 0.279868
O O8 0.185212 0.736242 0.015695
O O9 0.041344 0.307477 0.732637
O O10 0.381531 0.922055 0.935109
O O11 0.381193 0.105861 0.202635
O O12 0.500000 0.000000 0.000000
O O13 0.356380 0.297466 0.459109
O O14 0.590426 0.735222 0.799347
O O15 0.124904 0.052600 0.479068
O O16 0.000000 0.500000 0.000000
#
# Coordination Sequence:
#
# PCOD9104762 Si02
#       7
#     2   2   2   2   2   2   2
#     4  11  25  38  60  96 136 173 214 264 329 402
#     4  10  22  37  62  95 131 169 214 265 317 392
#     4   9  20  38  62  89 117 162 216 272 329 375
#     4  10  20  39  62  88 125 169 214 262 326 383
#     4  11  21  39  64  91 131 171 209 269 332 379
#     4   9  19  39  64  88 117 166 225 274 319 382
#     4  10  22  38  60  94 129 170 218 255 321 404
#
# _framework density 22.382781000000001
#
# number of rings (size 3 to 8) (size 9 to 14) (size 15 to 20)
#    0.000    2.000    1.429    1.286    6.000    0.000 
#    0.000    7.143    0.000    6.857    0.000    0.000 
#    0.000    0.000    0.000    0.000    0.000    0.000 
#
# Total GULP energy -77983.543223 kJ/mol
# GULP energy per Si atom -5570.253087 kJ/mol
# Density = 2.233184 g / cm^3
# Si number density = 22.382781 Si / 1000 Ang^3
#
#
#
# Elastic Constant Matrix: (Units=GPa)
#
#
# Indices 1 2 3 4 5 6 
#
# 1 68.0222 22.0871 55.3930 -22.4311 3.7390 -5.2043
# 2 22.0871 103.0054 39.9214 10.1970 -6.0037 0.6544
# 3 55.3930 39.9214 126.8300 2.9665 -4.5141 13.5044
# 4 -22.4311 10.1970 2.9665 47.8573 -4.1160 8.7834
# 5 3.7390 -6.0037 -4.5141 -4.1160 32.1410 -9.9716
# 6 -5.2043 0.6544 13.5044 8.7834 -9.9716 30.9706
#
#
#
# Elastic Compliance Matrix: (Units=1/GPa)
#
#
# Indices 1 2 3 4 5 6 
#
# 1 0.033920 -0.003232 -0.015002 0.016027 -0.002439 0.006979
# 2 -0.003232 0.011850 -0.002368 -0.004085 0.002408 0.002173
# 3 -0.015002 -0.002368 0.016154 -0.006088 0.000417 -0.007654
# 4 0.016027 -0.004085 -0.006088 0.030213 -0.000651 -0.003344
# 5 -0.002439 0.002408 0.000417 -0.000651 0.035195 0.010874
# 6 0.006979 0.002173 -0.007654 -0.003344 0.010874 0.041202
#
#
# Mechanical properties :
#
#
# Convention : Reuss Voigt Hill
#
# Bulk Modulus (GPa) = 48.26381 59.18450 53.72416
# Shear Modulus (GPa) = 23.07895 34.22418 28.65156
#
# Velocity S-wave (km/s) = 3.21456 3.91454 3.58169
# Velocity P-wave (km/s) = 5.94875 6.85061 6.41555
#
# Compressibility (1/GPa) = 0.02071946
#
# Stress axis : x y z
#
# Youngs Moduli (GPa) = 29.48077 84.38718 61.90232
#
# Poissons Ratio (x) = 0.27275 0.92867
# Poissons Ratio (y) = 0.09529 0.14661
# Poissons Ratio (z) = 0.44228 0.19987
#
# Static dielectric constant tensor:
#      x y z
#    x 1.838470 0.018710 -0.014810 
#    y 0.018710 2.013150 0.122100 
#    z -0.014810 0.122100 1.887840 
# 
# From -- ./inp_files/315497.got.cif
#   From: 2010.05.17/outbox.cif.g08.bks.cpg/sg2_158_cif.got.tgz:315497.got - 2010.06.03 11:33:40.
