data_PCOD9104838
_publ_section_title
;
Structure prediction by ZEFSAII (Michael W. Deem and Ramdas Pophale) SiO2 
 PCOD9104838
Probable space group: P -1
;
_chemical_formula_sum "Si O2"
_cell_formula_units_Z 16
_cell_length_a 10.160966
_cell_length_b 8.418280
_cell_length_c 11.604735
_cell_angle_alpha 55.854256
_cell_angle_beta 122.664877
_cell_angle_gamma 93.031442
_cell_volume 645.512914
_symmetry_space_group_name_H-M "P -1"
_symmetry_group_IT_number 2
_symmetry_cell_setting 'triclinic'
loop_
_space_group_symop_operation_xyz
x,y,z
-x,-y,-z
loop_
_atom_site_type_symbol
_atom_site_label
_atom_site_fract_x
_atom_site_fract_y
_atom_site_fract_z
Si Si1 0.118917 0.056187 0.407074
Si Si2 0.795252 0.876873 0.928659
Si Si3 0.531668 0.861568 0.248897
Si Si4 0.029160 0.879145 0.219136
Si Si5 0.769539 0.312781 0.226173
Si Si6 0.495166 0.297866 0.943574
Si Si7 0.804987 0.629637 0.834922
Si Si8 0.314753 0.496434 0.396263
O O1 0.965226 0.242734 0.314868
O O2 0.217085 0.157107 0.329176
O O3 0.034955 0.930422 0.334699
O O4 0.228091 0.885934 0.616939
O O5 0.749959 0.704319 0.908943
O O6 0.629944 0.075118 0.771855
O O7 0.939895 0.928080 0.907189
O O8 0.863754 0.850107 0.102538
O O9 0.513809 0.732679 0.183134
O O10 0.683060 0.714456 0.455295
O O11 0.519834 0.080449 0.104170
O O12 0.178443 0.678760 0.327011
O O13 0.670405 0.515922 0.169465
O O14 0.659204 0.336671 0.049214
O O15 0.729058 0.513218 0.755487
O O16 0.000000 0.500000 0.000000
O O17 0.500000 0.500000 0.500000
#
# Coordination Sequence:
#
# PCOD9104838 Si02
#       8
#     2   2   2   2   2   2   2   2
#     4  10  22  39  66  93 125 164 214 264 306 376
#     4  10  21  39  62  88 128 171 211 255 312 380
#     4  11  23  41  60  93 126 166 212 262 315 376
#     4  10  20  39  62  91 127 169 212 255 312 380
#     4  10  21  42  63  92 121 166 211 261 317 369
#     4  10  23  40  63  87 127 165 209 262 317 375
#     4  11  24  41  63  96 131 167 212 260 313 383
#     4  12  24  41  63  95 133 169 209 261 320 377
#
# _framework density 24.786490000000001
#
# number of rings (size 3 to 8) (size 9 to 14) (size 15 to 20)
#    0.000    1.500    2.500    2.250    1.750    1.500 
#    4.500    0.000    0.000    8.250    0.000    0.000 
#    0.000    0.000    0.000    0.000    0.000    0.000 
#
# Total GULP energy -89402.240969 kJ/mol
# GULP energy per Si atom -5587.640061 kJ/mol
# Density = 2.473007 g / cm^3
# Si number density = 24.786490 Si / 1000 Ang^3
#
#
#
# Elastic Constant Matrix: (Units=GPa)
#
#
# Indices 1 2 3 4 5 6 
#
# 1 33.1147 30.0414 11.5651 -5.1655 3.1347 0.4374
# 2 30.0414 151.6269 65.5184 12.7649 22.6430 -28.7357
# 3 11.5651 65.5184 115.4923 7.3381 7.1548 -5.8857
# 4 -5.1655 12.7649 7.3381 57.2747 -1.1922 -1.8602
# 5 3.1347 22.6430 7.1548 -1.1922 36.3498 -9.3792
# 6 0.4374 -28.7357 -5.8857 -1.8602 -9.3792 42.8294
#
#
#
# Elastic Compliance Matrix: (Units=1/GPa)
#
#
# Indices 1 2 3 4 5 6 
#
# 1 0.040016 -0.010306 0.001070 0.005578 0.001221 -0.006667
# 2 -0.010306 0.013419 -0.005736 -0.003047 -0.004587 0.007183
# 3 0.001070 -0.005736 0.011670 -0.000176 0.000630 -0.002126
# 4 0.005578 -0.003047 -0.000176 0.018673 0.001828 -0.000914
# 5 0.001221 -0.004587 0.000630 0.001828 0.031208 0.003910
# 6 -0.006667 0.007183 -0.002126 -0.000914 0.003910 0.028760
#
#
# Mechanical properties :
#
#
# Convention : Reuss Voigt Hill
#
# Bulk Modulus (GPa) = 28.44210 57.16486 42.80348
# Shear Modulus (GPa) = 26.96716 40.16471 33.56593
#
# Velocity S-wave (km/s) = 3.30203 4.02982 3.68394
# Velocity P-wave (km/s) = 5.10271 6.69071 5.94992
#
# Compressibility (1/GPa) = 0.03515915
#
# Stress axis : x y z
#
# Youngs Moduli (GPa) = 24.98970 74.52316 85.69266
#
# Poissons Ratio (x) = 0.76802 -0.09165
# Poissons Ratio (y) = 0.25754 0.49157
# Poissons Ratio (z) = -0.02673 0.42750
#
# Static dielectric constant tensor:
#      x y z
#    x 2.061480 0.114860 -0.060800 
#    y 0.114860 2.051780 -0.005950 
#    z -0.060800 -0.005950 1.939530 
# 
# From -- ./inp_files/399794.got.cif
#   From: 2010.05.17/outbox.cif.g08.bks.cpg/sg2_200_cif.got.tgz:399794.got - 2010.06.03 11:33:40.
