data_PCOD9104823
_publ_section_title
;
Structure prediction by ZEFSAII (Michael W. Deem and Ramdas Pophale) SiO2 
 PCOD9104823
Probable space group: P -1
;
_chemical_formula_sum "Si O2"
_cell_formula_units_Z 12
_cell_length_a 9.709184
_cell_length_b 10.119584
_cell_length_c 10.105940
_cell_angle_alpha 113.565551
_cell_angle_beta 122.306929
_cell_angle_gamma 44.195403
_cell_volume 584.799888
_symmetry_space_group_name_H-M "P -1"
_symmetry_group_IT_number 2
_symmetry_cell_setting 'triclinic'
loop_
_space_group_symop_operation_xyz
x,y,z
-x,-y,-z
loop_
_atom_site_type_symbol
_atom_site_label
_atom_site_fract_x
_atom_site_fract_y
_atom_site_fract_z
Si Si1 0.786754 0.305684 0.509847
Si Si2 0.501951 0.943914 0.191974
Si Si3 0.229100 0.998583 0.490388
Si Si4 0.235775 0.297556 0.012173
Si Si5 0.220187 0.871636 0.143080
Si Si6 0.371691 0.519244 0.231321
O O1 0.591837 0.458597 0.375604
O O2 0.777294 0.394305 0.679297
O O3 0.006289 0.194201 0.501827
O O4 0.748162 0.161086 0.475263
O O5 0.583493 0.999017 0.374581
O O6 0.406687 0.847303 0.151192
O O7 0.311719 0.136900 0.094229
O O8 0.700943 0.807141 0.138411
O O9 0.207171 0.962437 0.313432
O O10 0.393509 0.344283 0.125812
O O11 0.000000 0.500000 0.000000
O O12 0.277320 0.675660 0.133543
O O13 0.000000 0.000000 0.000000
#
# Coordination Sequence:
#
# PCOD9104823 Si02
#       6
#     2   2   2   2   2   2
#     4   9  19  36  67  92 115 164 213 256 308 369
#     4  11  24  42  64  95 129 167 207 261 322 367
#     4  10  20  40  65  89 126 163 211 256 314 372
#     4  11  23  40  67  92 127 164 214 260 309 379
#     4  11  25  41  62  91 130 168 206 260 321 371
#     4  10  20  39  62  91 123 160 212 259 302 377
#
# _framework density 20.519838
#
# number of rings (size 3 to 8) (size 9 to 14) (size 15 to 20)
#    0.000    1.667    1.667    2.500    2.333    3.333 
#    3.000    0.833    0.000    0.000    0.000    0.000 
#    0.000    0.000    0.000    0.000    0.000    0.000 
#
# Total GULP energy -67004.350657 kJ/mol
# GULP energy per Si atom -5583.695888 kJ/mol
# Density = 2.047313 g / cm^3
# Si number density = 20.519838 Si / 1000 Ang^3
#
#
#
# Elastic Constant Matrix: (Units=GPa)
#
#
# Indices 1 2 3 4 5 6 
#
# 1 44.7739 -4.3968 18.4044 -10.7171 -0.6608 -10.4887
# 2 -4.3968 62.8918 14.9697 -12.2890 -12.9371 -11.1652
# 3 18.4044 14.9697 82.2509 -9.5796 -1.6320 3.7211
# 4 -10.7171 -12.2890 -9.5796 37.9154 5.5524 3.6521
# 5 -0.6608 -12.9371 -1.6320 5.5524 20.3541 3.2264
# 6 -10.4887 -11.1652 3.7211 3.6521 3.2264 36.0561
#
#
#
# Elastic Compliance Matrix: (Units=1/GPa)
#
#
# Indices 1 2 3 4 5 6 
#
# 1 0.030965 0.007922 -0.007922 0.008019 0.001421 0.011339
# 2 0.007922 0.022664 -0.005375 0.005768 0.011346 0.008278
# 3 -0.007922 -0.005375 0.015195 0.000641 -0.001767 -0.005444
# 4 0.008019 0.005768 0.000641 0.031242 -0.004753 0.001313
# 5 0.001421 0.011346 -0.001767 -0.004753 0.057632 -0.000567
# 6 0.011339 0.008278 -0.005444 0.001313 -0.000567 0.034076
#
#
# Mechanical properties :
#
#
# Convention : Reuss Voigt Hill
#
# Bulk Modulus (GPa) = 17.21897 27.54124 22.38011
# Shear Modulus (GPa) = 22.53457 29.59441 26.06449
#
# Velocity S-wave (km/s) = 3.31748 3.80180 3.56787
# Velocity P-wave (km/s) = 4.80456 5.72035 5.28234
#
# Compressibility (1/GPa) = 0.05807548
#
# Stress axis : x y z
#
# Youngs Moduli (GPa) = 32.29434 44.12241 65.81290
#
# Poissons Ratio (x) = -0.34956 0.52134
# Poissons Ratio (y) = -0.25585 0.35376
# Poissons Ratio (z) = 0.25582 0.23717
#
# Static dielectric constant tensor:
#      x y z
#    x 1.715650 -0.033380 -0.005410 
#    y -0.033380 1.736630 0.006320 
#    z -0.005410 0.006320 1.740300 
# 
# From -- ./inp_files/145479.got.cif
#   From: 2010.05.17/outbox.cif.g08.bks.cpg/sg2_73_cif.got.tgz:145479.got - 2010.06.03 11:33:40.
