data_PCOD9104122
_publ_section_title
;
Structure prediction by ZEFSAII (Michael W. Deem and Ramdas Pophale) SiO2 
 PCOD9104122
Probable space group: P -1
;
_chemical_formula_sum "Si O2"
_cell_formula_units_Z 16
_cell_length_a 15.880757
_cell_length_b 23.704754
_cell_length_c 23.634035
_cell_angle_alpha 12.473407
_cell_angle_beta 26.684564
_cell_angle_gamma 27.625805
_cell_volume 854.449831
_symmetry_space_group_name_H-M "P -1"
_symmetry_group_IT_number 2
_symmetry_cell_setting 'triclinic'
loop_
_space_group_symop_operation_xyz
x,y,z
-x,-y,-z
loop_
_atom_site_type_symbol
_atom_site_label
_atom_site_fract_x
_atom_site_fract_y
_atom_site_fract_z
Si Si1 0.734274 0.725477 0.239868
Si Si2 0.298361 0.382881 0.120756
Si Si3 0.198073 0.767262 0.234682
Si Si4 0.365295 0.945063 0.187192
Si Si5 0.550304 0.121239 0.410314
Si Si6 0.348495 0.718272 0.076154
Si Si7 0.191173 0.225248 0.605171
Si Si8 0.137554 0.453526 0.787604
O O1 0.755743 0.466623 0.519105
O O2 0.515011 0.847682 0.241488
O O3 0.826741 0.651997 0.194998
O O4 0.826420 0.954760 0.990756
O O5 0.084997 0.470747 0.143389
O O6 0.314726 0.106018 0.414802
O O7 0.360571 0.607381 0.905482
O O8 0.451229 0.343225 0.016701
O O9 0.357207 0.752595 0.104543
O O10 0.006553 0.743995 0.338258
O O11 0.246884 0.707114 0.478786
O O12 0.500000 0.000000 0.000000
O O13 0.227943 0.220992 0.003183
O O14 0.354523 0.175123 0.509087
O O15 0.500000 0.000000 0.500000
O O16 0.232582 0.480548 0.364020
O O17 0.230658 0.978525 0.865052
#
# Coordination Sequence:
#
# PCOD9104122 Si02
#       8
#     2   2   2   2   2   2   2   2
#     4  11  23  34  56  88 109 136 177 232 293 317
#     4  10  22  36  57  81 105 151 190 217 265 336
#     4  12  22  35  58  81 112 143 188 239 261 325
#     4  10  20  39  58  82 116 145 171 224 288 342
#     4  10  21  34  52  78 120 145 175 233 276 313
#     4  10  21  40  54  77 111 152 192 222 267 314
#     4  10  21  35  55  78 108 154 191 220 270 320
#     4  11  21  37  62  82 114 143 183 221 273 361
#
# _framework density 18.7255
#
# number of rings (size 3 to 8) (size 9 to 14) (size 15 to 20)
#    0.000    1.500    0.000    7.125    3.500    0.000 
#    0.000    0.000    0.000    4.500    0.000    0.000 
#    0.000    0.000    0.000    0.000    0.000    0.000 
#
# Total GULP energy -89365.604867 kJ/mol
# GULP energy per Si atom -5585.350304 kJ/mol
# Density = 1.868288 g / cm^3
# Si number density = 18.725500 Si / 1000 Ang^3
#
#
#
# Elastic Constant Matrix: (Units=GPa)
#
#
# Indices 1 2 3 4 5 6 
#
# 1 34.3607 14.3998 11.1612 7.0636 8.3030 -3.5284
# 2 14.3998 88.5941 8.7910 -14.9373 0.7721 -25.6838
# 3 11.1612 8.7910 94.8729 -6.0861 -9.6526 10.6920
# 4 7.0636 -14.9373 -6.0861 21.1960 -0.9114 -2.1436
# 5 8.3030 0.7721 -9.6526 -0.9114 24.3051 0.3038
# 6 -3.5284 -25.6838 10.6920 -2.1436 0.3038 21.6846
#
#
#
# Elastic Compliance Matrix: (Units=1/GPa)
#
#
# Indices 1 2 3 4 5 6 
#
# 1 0.047327 -0.014116 -0.007231 -0.029457 -0.019595 -0.008091
# 2 -0.014116 0.029206 -0.003014 0.028258 0.003301 0.036529
# 3 -0.007231 -0.003014 0.014042 0.003523 0.008418 -0.011440
# 4 -0.029457 0.028258 0.003523 0.082014 0.013204 0.034861
# 5 -0.019595 0.003301 0.008418 0.013204 0.051606 -0.002847
# 6 -0.008091 0.036529 -0.011440 0.034861 -0.002847 0.097192
#
#
# Mechanical properties :
#
#
# Convention : Reuss Voigt Hill
#
# Bulk Modulus (GPa) = 23.89301 31.83684 27.86493
# Shear Modulus (GPa) = 13.01872 25.66885 19.34379
#
# Velocity S-wave (km/s) = 2.63960 3.70644 3.21755
# Velocity P-wave (km/s) = 4.69865 5.94607 5.35878
#
# Compressibility (1/GPa) = 0.04185324
#
# Stress axis : x y z
#
# Youngs Moduli (GPa) = 21.12945 34.23896 71.21463
#
# Poissons Ratio (x) = 0.48333 0.51497
# Poissons Ratio (y) = 0.29827 0.21463
# Poissons Ratio (z) = 0.15279 0.10319
#
# Static dielectric constant tensor:
#      x y z
#    x 1.629080 0.003150 0.004070 
#    y 0.003150 1.671730 -0.016890 
#    z 0.004070 -0.016890 1.658990 
# 
# From -- ./inp_files/80128.got.cif
#   From: 2010.05.17/outbox.cif.g08.bks.cpg/sg2_41_cif.got.tgz:80128.got - 2010.06.03 11:33:40.
