data_PCOD9104331
_publ_section_title
;
Structure prediction by ZEFSAII (Michael W. Deem and Ramdas Pophale) SiO2 
 PCOD9104331
Probable space group: P -1
;
_chemical_formula_sum "Si O2"
_cell_formula_units_Z 11
_cell_length_a 18.523830
_cell_length_b 5.000928
_cell_length_c 5.639434
_cell_angle_alpha 86.864601
_cell_angle_beta 114.196111
_cell_angle_gamma 79.439223
_cell_volume 463.514461
_symmetry_space_group_name_H-M "P -1"
_symmetry_group_IT_number 2
_symmetry_cell_setting 'triclinic'
loop_
_space_group_symop_operation_xyz
x,y,z
-x,-y,-z
loop_
_atom_site_type_symbol
_atom_site_label
_atom_site_fract_x
_atom_site_fract_y
_atom_site_fract_z
Si Si1 0.868576 0.122072 0.921455
Si Si2 0.500000 0.000000 0.500000
Si Si3 0.433796 0.533096 0.699869
Si Si4 0.018148 0.273597 0.242494
Si Si5 0.251455 0.688596 0.619764
Si Si6 0.172925 0.252214 0.742117
O O1 0.796807 0.335201 0.688870
O O2 0.927715 0.999946 0.790589
O O3 0.779383 0.508227 0.225818
O O4 0.834139 0.882229 0.006738
O O5 0.447163 0.781446 0.540934
O O6 0.551657 0.750351 0.411571
O O7 0.345905 0.604108 0.699910
O O8 0.500000 0.500000 0.000000
O O9 0.080274 0.340959 0.515108
O O10 0.930141 0.216289 0.183504
O O11 0.000000 0.500000 0.000000
O O12 0.222892 0.999731 0.661229
#
# Coordination Sequence:
#
# PCOD9104331 Si02
#       6
#     2   1   2   2   2   2
#     4  10  23  39  59  89 126 168 215 268 318 388
#     4  10  24  44  74 102 126 180 220 264 346 402
#     4  11  24  45  71 101 138 172 223 277 331 405
#     4  10  20  39  60  86 126 165 218 271 313 380
#     4  11  25  42  61  96 130 163 214 273 322 391
#     4  11  24  39  64  91 125 174 211 261 338 383
#
# _framework density 23.731731
#
# number of rings (size 3 to 8) (size 9 to 14) (size 15 to 20)
#    0.000    1.455    1.818    2.182    2.545    5.091 
#    0.000    0.000    0.000    0.000    0.000    0.000 
#    0.000    0.000    0.000    0.000    0.000    0.000 
#
# Total GULP energy -61295.697966 kJ/mol
# GULP energy per Si atom -5572.336179 kJ/mol
# Density = 2.367772 g / cm^3
# Si number density = 23.731731 Si / 1000 Ang^3
#
#
#
# Elastic Constant Matrix: (Units=GPa)
#
#
# Indices 1 2 3 4 5 6 
#
# 1 163.6139 36.8069 31.8490 -21.4522 12.4902 -26.1999
# 2 36.8069 140.2496 20.7872 16.2686 14.7031 -0.9383
# 3 31.8490 20.7872 43.9545 -1.0615 3.3604 -10.8439
# 4 -21.4522 16.2686 -1.0615 33.1189 3.7515 -5.4577
# 5 12.4902 14.7031 3.3604 3.7515 32.4032 -13.1003
# 6 -26.1999 -0.9383 -10.8439 -5.4577 -13.1003 46.0203
#
#
#
# Elastic Compliance Matrix: (Units=1/GPa)
#
#
# Indices 1 2 3 4 5 6 
#
# 1 0.009491 -0.002725 -0.004056 0.008302 -0.000891 0.005123
# 2 -0.002725 0.009500 -0.003389 -0.006779 -0.003753 -0.004029
# 3 -0.004056 -0.003389 0.028370 0.000527 0.002107 0.004969
# 4 0.008302 -0.006779 0.000527 0.040565 -0.001158 0.009193
# 5 -0.000891 -0.003753 0.002107 -0.001158 0.036989 0.010305
# 6 0.005123 -0.004029 0.004969 0.009193 0.010305 0.029758
#
#
# Mechanical properties :
#
#
# Convention : Reuss Voigt Hill
#
# Bulk Modulus (GPa) = 37.00768 58.52268 47.76518
# Shear Modulus (GPa) = 27.17064 39.53349 33.35207
#
# Velocity S-wave (km/s) = 3.38732 4.08591 3.75290
# Velocity P-wave (km/s) = 5.56117 6.85370 6.24098
#
# Compressibility (1/GPa) = 0.02702141
#
# Stress axis : x y z
#
# Youngs Moduli (GPa) = 105.35824 105.25790 35.24830
#
# Poissons Ratio (x) = 0.28683 0.14297
# Poissons Ratio (y) = 0.28710 0.11946
# Poissons Ratio (z) = 0.42735 0.35674
#
# Static dielectric constant tensor:
#      x y z
#    x 1.856840 0.010290 -0.004000 
#    y 0.010290 1.946800 0.063010 
#    z -0.004000 0.063010 1.996660 
# 
# From -- ./inp_files/113564.got.cif
#   From: 2010.05.17/outbox.cif.g08.bks.cpg/sg2_57_cif.got.tgz:113564.got - 2010.06.03 11:33:40.
