data_PCOD9104198
_publ_section_title
;
Structure prediction by ZEFSAII (Michael W. Deem and Ramdas Pophale) SiO2 
 PCOD9104198
Probable space group: P -1
;
_chemical_formula_sum "Si O2"
_cell_formula_units_Z 16
_cell_length_a 15.180927
_cell_length_b 14.211712
_cell_length_c 6.819072
_cell_angle_alpha 110.920680
_cell_angle_beta 88.216813
_cell_angle_gamma 144.439320
_cell_volume 702.215473
_symmetry_space_group_name_H-M "P -1"
_symmetry_group_IT_number 2
_symmetry_cell_setting 'triclinic'
loop_
_space_group_symop_operation_xyz
x,y,z
-x,-y,-z
loop_
_atom_site_type_symbol
_atom_site_label
_atom_site_fract_x
_atom_site_fract_y
_atom_site_fract_z
Si Si1 0.853420 0.192324 0.439990
Si Si2 0.317013 0.779100 0.585396
Si Si3 0.837145 0.018417 0.993404
Si Si4 0.799494 0.702772 0.691723
Si Si5 0.762145 0.468569 0.290481
Si Si6 0.844958 0.913361 0.536351
Si Si7 0.651528 0.697673 0.013965
Si Si8 0.525968 0.169171 0.757184
O O1 0.841434 0.301661 0.511673
O O2 0.846628 0.137065 0.179524
O O3 0.032826 0.331840 0.622643
O O4 0.667330 0.983052 0.392458
O O5 0.279017 0.673577 0.694472
O O6 0.366415 0.755895 0.384091
O O7 0.474999 0.014624 0.759601
O O8 0.995527 0.111622 0.151028
O O9 0.662001 0.792639 0.913918
O O10 0.867065 0.028282 0.769117
O O11 0.731850 0.531132 0.487325
O O12 0.758460 0.744995 0.559517
O O13 0.731556 0.679505 0.883012
O O14 0.640351 0.351554 0.023117
O O15 0.750088 0.848254 0.297503
O O16 0.000000 0.000000 0.500000
O O17 0.500000 0.500000 0.000000
#
# Coordination Sequence:
#
# PCOD9104198 Si02
#       8
#     2   2   2   2   2   2   2   2
#     4   9  21  38  58  89 118 147 196 242 277 347
#     4   9  20  42  58  84 121 152 190 240 289 342
#     4  10  20  39  59  84 117 149 193 238 279 348
#     4  10  22  37  58  88 113 148 197 237 280 350
#     4  11  21  37  63  85 116 154 192 239 292 339
#     4  11  19  38  64  75 111 160 186 226 292 340
#     4  11  23  37  57  87 117 149 189 241 288 339
#     4   9  21  40  59  83 119 156 188 238 290 343
#
# _framework density 22.785028000000001
#
# number of rings (size 3 to 8) (size 9 to 14) (size 15 to 20)
#    0.750    1.250    2.500    1.500    0.000    6.500 
#    0.000    1.250    0.000    0.000    0.000    0.000 
#    0.000    0.000    0.000    0.000    0.000    0.000 
#
# Total GULP energy -89102.492667 kJ/mol
# GULP energy per Si atom -5568.905792 kJ/mol
# Density = 2.273317 g / cm^3
# Si number density = 22.785028 Si / 1000 Ang^3
#
#
#
# Elastic Constant Matrix: (Units=GPa)
#
#
# Indices 1 2 3 4 5 6 
#
# 1 67.6935 21.0831 23.1919 -9.5813 -16.9514 9.2425
# 2 21.0831 93.6524 41.4515 -12.7002 -3.8892 17.6698
# 3 23.1919 41.4515 115.9036 -2.6912 -20.2736 16.4097
# 4 -9.5813 -12.7002 -2.6912 32.0477 3.0625 -4.0190
# 5 -16.9514 -3.8892 -20.2736 3.0625 26.5917 -7.0612
# 6 9.2425 17.6698 16.4097 -4.0190 -7.0612 21.9914
#
#
#
# Elastic Compliance Matrix: (Units=1/GPa)
#
#
# Indices 1 2 3 4 5 6 
#
# 1 0.019204 -0.002882 -0.000714 0.003378 0.010565 -0.001213
# 2 -0.002882 0.015368 -0.004610 0.004303 -0.005941 -0.008818
# 3 -0.000714 -0.004610 0.012117 -0.002121 0.007556 -0.002998
# 4 0.003378 0.004303 -0.002121 0.034232 -0.002176 0.002263
# 5 0.010565 -0.005941 0.007556 -0.002176 0.052440 0.011135
# 6 -0.001213 -0.008818 -0.002998 0.002263 0.011135 0.059293
#
#
# Mechanical properties :
#
#
# Convention : Reuss Voigt Hill
#
# Bulk Modulus (GPa) = 33.02886 49.85583 41.44235
# Shear Modulus (GPa) = 22.81465 28.89435 25.85450
#
# Velocity S-wave (km/s) = 3.16777 3.56494 3.37221
# Velocity P-wave (km/s) = 5.28271 6.23487 5.77843
#
# Compressibility (1/GPa) = 0.03027655
#
# Stress axis : x y z
#
# Youngs Moduli (GPa) = 52.07279 65.07210 82.53190
#
# Poissons Ratio (x) = 0.18751 0.05892
# Poissons Ratio (y) = 0.15005 0.38050
# Poissons Ratio (z) = 0.03717 0.30001
#
# Static dielectric constant tensor:
#      x y z
#    x 1.883010 0.001050 -0.008150 
#    y 0.001050 1.994550 0.060390 
#    z -0.008150 0.060390 1.850450 
# 
# From -- ./inp_files/111532.got.cif
#   From: 2010.05.17/outbox.cif.g08.bks.cpg/sg2_56_cif.got.tgz:111532.got - 2010.06.03 11:33:40.
