data_PCOD9104099
_publ_section_title
;
Structure prediction by ZEFSAII (Michael W. Deem and Ramdas Pophale) SiO2 
 PCOD9104099
Probable space group: P -1
;
_chemical_formula_sum "Si O2"
_cell_formula_units_Z 16
_cell_length_a 9.927051
_cell_length_b 11.848454
_cell_length_c 8.593252
_cell_angle_alpha 64.654524
_cell_angle_beta 78.267096
_cell_angle_gamma 53.542719
_cell_volume 732.875211
_symmetry_space_group_name_H-M "P -1"
_symmetry_group_IT_number 2
_symmetry_cell_setting 'triclinic'
loop_
_space_group_symop_operation_xyz
x,y,z
-x,-y,-z
loop_
_atom_site_type_symbol
_atom_site_label
_atom_site_fract_x
_atom_site_fract_y
_atom_site_fract_z
Si Si1 0.259004 0.078804 0.371429
Si Si2 0.754545 0.718311 0.529819
Si Si3 0.688822 0.641768 0.266387
Si Si4 0.870764 0.071028 0.344850
Si Si5 0.382498 0.941538 0.083951
Si Si6 0.033441 0.595358 0.149068
Si Si7 0.875416 0.345796 0.224875
Si Si8 0.091377 0.132876 0.795187
O O1 0.343805 0.155959 0.385131
O O2 0.065088 0.225198 0.311328
O O3 0.270589 0.953780 0.556031
O O4 0.307395 0.004971 0.234642
O O5 0.668975 0.689618 0.424141
O O6 0.875516 0.555482 0.679360
O O7 0.849603 0.783934 0.381325
O O8 0.510513 0.759482 0.160164
O O9 0.762636 0.467979 0.311423
O O10 0.836529 0.657682 0.157491
O O11 0.814134 0.242289 0.243795
O O12 0.957008 0.961504 0.240220
O O13 0.000000 0.000000 0.500000
O O14 0.500000 0.000000 0.000000
O O15 0.242836 0.013113 0.942323
O O16 0.042689 0.726839 0.148854
O O17 0.108969 0.569980 0.975425
#
# Coordination Sequence:
#
# PCOD9104099 Si02
#       8
#     2   2   2   2   2   2   2   2
#     4  10  21  39  60  87 120 153 197 248 290 347
#     4  10  21  33  58  88 124 149 187 250 303 341
#     4  11  22  36  57  91 123 156 190 242 305 357
#     4   9  22  40  61  86 116 158 204 246 287 339
#     4  12  22  38  60  91 123 157 189 237 306 363
#     4  11  20  33  59  93 121 147 191 256 303 338
#     4  11  21  38  60  86 115 158 201 245 291 347
#     4  10  20  39  57  88 124 153 193 248 290 350
#
# _framework density 21.831821000000001
#
# number of rings (size 3 to 8) (size 9 to 14) (size 15 to 20)
#    0.000    1.500    5.000    1.875    5.250    1.000 
#    0.000    1.250    0.000    0.000    0.000    0.000 
#    0.000    0.000    0.000    0.000    0.000    0.000 
#
# Total GULP energy -89276.671105 kJ/mol
# GULP energy per Si atom -5579.791944 kJ/mol
# Density = 2.178213 g / cm^3
# Si number density = 21.831821 Si / 1000 Ang^3
#
#
#
# Elastic Constant Matrix: (Units=GPa)
#
#
# Indices 1 2 3 4 5 6 
#
# 1 40.2636 50.6352 27.1244 -4.8806 11.9078 16.1635
# 2 50.6352 137.8319 36.5450 -12.8077 16.2085 29.9071
# 3 27.1244 36.5450 100.5986 -6.5043 10.8971 -2.5428
# 4 -4.8806 -12.8077 -6.5043 36.6368 5.9112 10.2208
# 5 11.9078 16.2085 10.8971 5.9112 16.6747 -4.8624
# 6 16.1635 29.9071 -2.5428 10.2208 -4.8624 38.6685
#
#
#
# Elastic Compliance Matrix: (Units=1/GPa)
#
#
# Indices 1 2 3 4 5 6 
#
# 1 0.087923 -0.005426 -0.012502 0.034541 -0.076801 -0.052165
# 2 -0.005426 0.017377 -0.002104 0.013337 -0.021484 -0.017537
# 3 -0.012502 -0.002104 0.013395 -0.003689 0.006297 0.009500
# 4 0.034541 0.013337 -0.003689 0.061490 -0.071675 -0.050262
# 5 -0.076801 -0.021484 0.006297 -0.071675 0.183577 0.091162
# 6 -0.052165 -0.017537 0.009500 -0.050262 0.091162 0.086602
#
#
# Mechanical properties :
#
#
# Convention : Reuss Voigt Hill
#
# Bulk Modulus (GPa) = 12.71722 56.36705 34.54213
# Shear Modulus (GPa) = 9.67796 29.35531 19.51663
#
# Velocity S-wave (km/s) = 2.10774 3.67087 2.99315
# Velocity P-wave (km/s) = 3.42946 6.62132 5.27272
#
# Compressibility (1/GPa) = 0.07863354
#
# Stress axis : x y z
#
# Youngs Moduli (GPa) = 11.37354 57.54670 74.65460
#
# Poissons Ratio (x) = 0.31223 0.93332
# Poissons Ratio (y) = 0.06171 0.15704
# Poissons Ratio (z) = 0.14219 0.12105
#
# Static dielectric constant tensor:
#      x y z
#    x 1.886080 0.017370 -0.039290 
#    y 0.017370 1.892970 0.070030 
#    z -0.039290 0.070030 1.888310 
# 
# From -- ./inp_files/256880.got.cif
#   From: 2010.05.17/outbox.cif.g08.bks.cpg/sg2_129_cif.got.tgz:256880.got - 2010.06.03 11:33:40.
