data_PCOD9104154
_publ_section_title
;
Structure prediction by ZEFSAII (Michael W. Deem and Ramdas Pophale) SiO2 
 PCOD9104154
Probable space group: P -1
;
_chemical_formula_sum "Si O2"
_cell_formula_units_Z 16
_cell_length_a 9.030215
_cell_length_b 8.555394
_cell_length_c 18.929730
_cell_angle_alpha 138.785263
_cell_angle_beta 59.786347
_cell_angle_gamma 133.563412
_cell_volume 697.873140
_symmetry_space_group_name_H-M "P -1"
_symmetry_group_IT_number 2
_symmetry_cell_setting 'triclinic'
loop_
_space_group_symop_operation_xyz
x,y,z
-x,-y,-z
loop_
_atom_site_type_symbol
_atom_site_label
_atom_site_fract_x
_atom_site_fract_y
_atom_site_fract_z
Si Si1 0.606009 0.172526 0.884001
Si Si2 0.912713 0.626260 0.354166
Si Si3 0.978384 0.778802 0.986335
Si Si4 0.925554 0.824158 0.573026
Si Si5 0.291354 0.164383 0.702815
Si Si6 0.789292 0.393498 0.058041
Si Si7 0.236628 0.993125 0.810421
Si Si8 0.530076 0.567901 0.665187
O O1 0.808070 0.452912 0.899225
O O2 0.419264 0.133689 0.870536
O O3 0.601745 0.883853 0.780920
O O4 0.619413 0.247603 0.989108
O O5 0.961269 0.716040 0.454465
O O6 0.900770 0.336979 0.250295
O O7 0.684727 0.552147 0.364733
O O8 0.059880 0.888228 0.357378
O O9 0.188830 0.804500 0.959277
O O10 0.893993 0.867175 0.103092
O O11 0.000000 0.000000 0.000000
O O12 0.707136 0.606733 0.585411
O O13 0.104238 0.917913 0.618740
O O14 0.228042 0.382598 0.816576
O O15 0.480332 0.354840 0.669698
O O16 0.321434 0.045192 0.727804
O O17 0.000000 0.500000 0.000000
#
# Coordination Sequence:
#
# PCOD9104154 Si02
#       8
#     2   2   2   2   2   2   2   2
#     4  10  22  40  59  85 125 168 203 257 306 367
#     4   9  22  40  66  91 123 160 209 267 310 381
#     4  11  24  36  62  89 127 162 212 259 309 369
#     4  10  20  42  66  90 120 166 208 257 327 368
#     4  11  23  39  62  91 128 164 212 261 309 378
#     4  10  20  39  58  87 121 169 208 247 301 379
#     4  11  23  42  57  94 128 159 214 262 312 363
#     4  10  22  37  65  91 120 164 215 250 310 389
#
# _framework density 22.926805999999999
#
# number of rings (size 3 to 8) (size 9 to 14) (size 15 to 20)
#    0.000    1.750    2.500    2.250    7.000    2.000 
#    0.000    0.625    0.000    0.000    0.000    0.000 
#    0.000    0.000    0.000    0.000    0.000    0.000 
#
# Total GULP energy -89423.626051 kJ/mol
# GULP energy per Si atom -5588.976628 kJ/mol
# Density = 2.287462 g / cm^3
# Si number density = 22.926806 Si / 1000 Ang^3
#
#
#
# Elastic Constant Matrix: (Units=GPa)
#
#
# Indices 1 2 3 4 5 6 
#
# 1 47.1032 23.0733 18.3123 9.4882 18.9757 -11.2226
# 2 23.0733 102.5925 -0.3115 -18.2419 14.0040 0.1106
# 3 18.3123 -0.3115 72.5295 2.3692 33.7529 5.4267
# 4 9.4882 -18.2419 2.3692 32.7240 -2.7590 -0.2112
# 5 18.9757 14.0040 33.7529 -2.7590 32.8558 -6.0418
# 6 -11.2226 0.1106 5.4267 -0.2112 -6.0418 28.1301
#
#
#
# Elastic Compliance Matrix: (Units=1/GPa)
#
#
# Indices 1 2 3 4 5 6 
#
# 1 0.040609 -0.010656 -0.004715 -0.018377 -0.012995 0.014223
# 2 -0.010656 0.014963 0.006182 0.010350 -0.006978 -0.006924
# 3 -0.004715 0.006182 0.033895 -0.000940 -0.037861 -0.016583
# 4 -0.018377 0.010350 -0.000940 0.042526 0.009865 -0.004753
# 5 -0.012995 -0.006978 -0.037861 0.009865 0.084380 0.020344
# 6 0.014223 -0.006924 -0.016583 -0.004753 0.020344 0.048784
#
#
# Mechanical properties :
#
#
# Convention : Reuss Voigt Hill
#
# Bulk Modulus (GPa) = 14.06693 33.81927 23.94310
# Shear Modulus (GPa) = 16.27438 30.81873 23.54655
#
# Velocity S-wave (km/s) = 2.66717 3.67034 3.20821
# Velocity P-wave (km/s) = 3.95398 5.72231 4.91828
#
# Compressibility (1/GPa) = 0.07108874
#
# Stress axis : x y z
#
# Youngs Moduli (GPa) = 24.62519 66.83125 29.50263
#
# Poissons Ratio (x) = 0.71218 0.13910
# Poissons Ratio (y) = 0.26242 -0.18239
# Poissons Ratio (z) = 0.11611 -0.41316
#
# Static dielectric constant tensor:
#      x y z
#    x 1.866610 -0.047070 0.011890 
#    y -0.047070 1.982260 -0.044580 
#    z 0.011890 -0.044580 1.860280 
# 
# From -- ./inp_files/556544.got.cif
#   From: 2010.05.17/outbox.cif.g08.bks.cpg/sg2_279_cif.got.tgz:556544.got - 2010.06.03 11:33:40.
