data_PCOD9104811
_publ_section_title
;
Structure prediction by ZEFSAII (Michael W. Deem and Ramdas Pophale) SiO2 
 PCOD9104811
Probable space group: P -1
;
_chemical_formula_sum "Si O2"
_cell_formula_units_Z 16
_cell_length_a 21.105180
_cell_length_b 21.057885
_cell_length_c 9.115692
_cell_angle_alpha 37.859026
_cell_angle_beta 45.555965
_cell_angle_gamma 19.759441
_cell_volume 822.469426
_symmetry_space_group_name_H-M "P -1"
_symmetry_group_IT_number 2
_symmetry_cell_setting 'triclinic'
loop_
_space_group_symop_operation_xyz
x,y,z
-x,-y,-z
loop_
_atom_site_type_symbol
_atom_site_label
_atom_site_fract_x
_atom_site_fract_y
_atom_site_fract_z
Si Si1 0.574811 0.034042 0.626533
Si Si2 0.388061 0.646295 0.265535
Si Si3 0.401024 0.224868 0.890914
Si Si4 0.457875 0.438945 0.265546
Si Si5 0.966802 0.656586 0.797225
Si Si6 0.349643 0.451313 0.133668
Si Si7 0.261810 0.987448 0.250898
Si Si8 0.042220 0.068144 0.234282
O O1 0.488288 0.126007 0.765077
O O2 0.439043 0.244541 0.363423
O O3 0.788887 0.861753 0.601318
O O4 0.589280 0.896782 0.823955
O O5 0.500000 0.500000 0.500000
O O6 0.376507 0.560308 0.331864
O O7 0.179867 0.901288 0.179865
O O8 0.505836 0.615942 0.051759
O O9 0.546720 0.153649 0.861161
O O10 0.178824 0.485293 0.759028
O O11 0.335811 0.496915 0.245291
O O12 0.653018 0.176212 0.463354
O O13 0.500000 0.500000 0.000000
O O14 0.877739 0.783968 0.865256
O O15 0.000000 0.500000 0.000000
O O16 0.149368 0.676746 0.969581
O O17 0.156254 0.024598 0.239119
O O18 0.000000 0.000000 0.500000
#
# Coordination Sequence:
#
# PCOD9104811 Si02
#       8
#     2   2   2   2   2   2   2   2
#     4   9  18  36  58  94 131 155 199 280 308 373
#     4  11  22  41  64  85 128 174 213 264 324 387
#     4   9  18  34  62  91 126 164 207 250 332 377
#     4  10  20  39  62  90 127 161 212 276 311 370
#     4   9  18  34  63  96 123 159 213 261 316 382
#     4  11  22  40  62  96 131 162 216 274 317 373
#     4  11  21  39  62  92 129 169 212 263 322 383
#     4  12  25  42  63  91 128 180 217 260 328 394
#
# _framework density 19.453610000000001
#
# number of rings (size 3 to 8) (size 9 to 14) (size 15 to 20)
#    0.000    1.750    5.000    1.500    0.000    3.500 
#    0.000    0.625    0.000    3.750    0.000    0.000 
#    0.000    0.000    0.000    0.000    0.000    0.000 
#
# Total GULP energy -89148.378398 kJ/mol
# GULP energy per Si atom -5571.773650 kJ/mol
# Density = 1.940933 g / cm^3
# Si number density = 19.453610 Si / 1000 Ang^3
#
#
#
# Elastic Constant Matrix: (Units=GPa)
#
#
# Indices 1 2 3 4 5 6 
#
# 1 107.4045 45.3341 41.4435 -3.3171 -4.6141 -17.9638
# 2 45.3341 121.5351 36.6798 -20.3984 -3.4195 -21.8414
# 3 41.4435 36.6798 122.4476 -23.4317 -5.8141 -13.8992
# 4 -3.3171 -20.3984 -23.4317 30.9483 -2.2163 4.5406
# 5 -4.6141 -3.4195 -5.8141 -2.2163 27.7188 -4.8252
# 6 -17.9638 -21.8414 -13.8992 4.5406 -4.8252 37.6334
#
#
#
# Elastic Compliance Matrix: (Units=1/GPa)
#
#
# Indices 1 2 3 4 5 6 
#
# 1 0.012737 -0.003769 -0.003568 -0.004213 0.001132 0.003228
# 2 -0.003769 0.011674 -0.000393 0.006505 0.001999 0.004302
# 3 -0.003568 -0.000393 0.011309 0.007870 0.002644 0.001635
# 4 -0.004213 0.006505 0.007870 0.042446 0.005183 0.000214
# 5 0.001132 0.001999 0.002644 0.005183 0.038701 0.007014
# 6 0.003228 0.004302 0.001635 0.000214 0.007014 0.032087
#
#
# Mechanical properties :
#
#
# Convention : Reuss Voigt Hill
#
# Bulk Modulus (GPa) = 49.36023 66.47799 57.91911
# Shear Modulus (GPa) = 29.21100 34.45543 31.83322
#
# Velocity S-wave (km/s) = 3.87922 4.21308 4.04959
# Velocity P-wave (km/s) = 6.74484 7.61009 7.19049
#
# Compressibility (1/GPa) = 0.02025923
#
# Stress axis : x y z
#
# Youngs Moduli (GPa) = 78.51372 85.66104 88.42288
#
# Poissons Ratio (x) = 0.32289 0.31547
# Poissons Ratio (y) = 0.29595 0.03477
# Poissons Ratio (z) = 0.28012 0.03368
#
# Static dielectric constant tensor:
#      x y z
#    x 1.709480 0.017530 -0.018370 
#    y 0.017530 1.696580 -0.002970 
#    z -0.018370 -0.002970 1.694890 
# 
# From -- ./inp_files/349418.got.cif
#   From: 2010.05.17/outbox.cif.g08.bks.cpg/sg2_175_cif.got.tgz:349418.got - 2010.06.03 11:33:40.
