data_PCOD9104550
_publ_section_title
;
Structure prediction by ZEFSAII (Michael W. Deem and Ramdas Pophale) SiO2 
 PCOD9104550
Probable space group: P -1
;
_chemical_formula_sum "Si O2"
_cell_formula_units_Z 16
_cell_length_a 8.314208
_cell_length_b 11.623320
_cell_length_c 16.251024
_cell_angle_alpha 47.559288
_cell_angle_beta 113.240620
_cell_angle_gamma 72.872863
_cell_volume 598.724957
_symmetry_space_group_name_H-M "P -1"
_symmetry_group_IT_number 2
_symmetry_cell_setting 'triclinic'
loop_
_space_group_symop_operation_xyz
x,y,z
-x,-y,-z
loop_
_atom_site_type_symbol
_atom_site_label
_atom_site_fract_x
_atom_site_fract_y
_atom_site_fract_z
Si Si1 0.547384 0.194489 0.760053
Si Si2 0.582537 0.797911 0.446305
Si Si3 0.043914 0.518818 0.820032
Si Si4 0.190285 0.585049 0.114302
Si Si5 0.092470 0.146400 0.568180
Si Si6 0.420775 0.712543 0.114900
Si Si7 0.275850 0.081704 0.804603
Si Si8 0.147279 0.003941 0.392108
O O1 0.390731 0.317059 0.578358
O O2 0.615868 0.281456 0.796213
O O3 0.349178 0.209374 0.763182
O O4 0.883285 0.871164 0.963325
O O5 0.850360 0.586563 0.671586
O O6 0.266879 0.972632 0.341518
O O7 0.626399 0.948173 0.357379
O O8 0.925564 0.504831 0.881817
O O9 0.950549 0.764662 0.696670
O O10 0.406644 0.229059 0.018087
O O11 0.277410 0.684978 0.041180
O O12 0.535546 0.297396 0.358977
O O13 0.793121 0.426381 0.322183
O O14 0.099115 0.954112 0.662717
O O15 0.033173 0.230480 0.611655
O O16 0.245269 0.001915 0.917681
#
# Coordination Sequence:
#
# PCOD9104550 Si02
#       8
#     2   2   2   2   2   2   2   2
#     4  10  22  38  62  91 123 164 208 246 314 371
#     4  10  20  39  61  88 127 157 204 261 292 366
#     4  10  20  43  62  87 123 169 201 254 319 359
#     4   9  20  38  59  89 120 155 211 247 299 382
#     4  10  23  41  61  98 122 159 219 244 304 382
#     4  11  21  41  63  89 129 163 196 264 309 356
#     4  10  22  40  62  89 130 156 207 258 297 376
#     4  10  22  41  65  88 127 165 203 258 317 359
#
# _framework density 26.723455999999999
#
# number of rings (size 3 to 8) (size 9 to 14) (size 15 to 20)
#    0.000    2.000    1.250    2.250    1.750    3.000 
#    9.000   13.125    0.000    0.000    0.000    0.000 
#    0.000    0.000    0.000    0.000    0.000    0.000 
#
# Total GULP energy -89153.948294 kJ/mol
# GULP energy per Si atom -5572.121768 kJ/mol
# Density = 2.666263 g / cm^3
# Si number density = 26.723456 Si / 1000 Ang^3
#
#
#
# Elastic Constant Matrix: (Units=GPa)
#
#
# Indices 1 2 3 4 5 6 
#
# 1 64.2011 9.3140 30.9942 11.0272 -5.6693 3.7060
# 2 9.3140 64.5252 23.3384 -13.7753 -12.0514 -2.0421
# 3 30.9942 23.3384 97.4501 17.5079 -2.5901 14.9543
# 4 11.0272 -13.7753 17.5079 30.3823 1.9334 -6.8239
# 5 -5.6693 -12.0514 -2.5901 1.9334 31.1049 1.1596
# 6 3.7060 -2.0421 14.9543 -6.8239 1.1596 37.3489
#
#
#
# Elastic Compliance Matrix: (Units=1/GPa)
#
#
# Indices 1 2 3 4 5 6 
#
# 1 0.019294 -0.002044 -0.004268 -0.005985 0.002797 -0.001498
# 2 -0.002044 0.025212 -0.010094 0.019561 0.007005 0.008979
# 3 -0.004268 -0.010094 0.018426 -0.015856 -0.001783 -0.010348
# 4 -0.005985 0.019561 -0.015856 0.057173 0.000927 0.018429
# 5 0.002797 0.007005 -0.001783 0.000927 0.035171 -0.000103
# 6 -0.001498 0.008979 -0.010348 0.018429 -0.000103 0.034928
#
#
# Mechanical properties :
#
#
# Convention : Reuss Voigt Hill
#
# Bulk Modulus (GPa) = 33.19985 39.27441 36.23713
# Shear Modulus (GPa) = 21.45416 30.60255 26.02835
#
# Velocity S-wave (km/s) = 2.83648 3.38769 3.12427
# Velocity P-wave (km/s) = 4.81435 5.48000 5.15793
#
# Compressibility (1/GPa) = 0.03012061
#
# Stress axis : x y z
#
# Youngs Moduli (GPa) = 51.82877 39.66316 54.27210
#
# Poissons Ratio (x) = 0.08108 0.23161
# Poissons Ratio (y) = 0.10595 0.54783
# Poissons Ratio (z) = 0.22118 0.40036
#
# Static dielectric constant tensor:
#      x y z
#    x 2.229280 -0.046210 -0.052090 
#    y -0.046210 2.074040 0.044680 
#    z -0.052090 0.044680 2.101820 
# 
# From -- ./inp_files/559790.got.cif
#   From: 2010.05.17/outbox.cif.g08.bks.cpg/sg2_280_cif.got.tgz:559790.got - 2010.06.03 11:33:40.
