data_PCOD9104582
_publ_section_title
;
Structure prediction by ZEFSAII (Michael W. Deem and Ramdas Pophale) SiO2 
 PCOD9104582
Probable space group: P -1
;
_chemical_formula_sum "Si O2"
_cell_formula_units_Z 16
_cell_length_a 11.474542
_cell_length_b 14.737777
_cell_length_c 11.911246
_cell_angle_alpha 39.835600
_cell_angle_beta 39.988634
_cell_angle_gamma 62.451947
_cell_volume 789.522843
_symmetry_space_group_name_H-M "P -1"
_symmetry_group_IT_number 2
_symmetry_cell_setting 'triclinic'
loop_
_space_group_symop_operation_xyz
x,y,z
-x,-y,-z
loop_
_atom_site_type_symbol
_atom_site_label
_atom_site_fract_x
_atom_site_fract_y
_atom_site_fract_z
Si Si1 0.969097 0.823229 0.412775
Si Si2 0.363174 0.526176 0.349400
Si Si3 0.503932 0.139862 0.484485
Si Si4 0.820071 0.062406 0.213186
Si Si5 0.527548 0.659537 0.885863
Si Si6 0.293428 0.594233 0.764026
Si Si7 0.023859 0.339735 0.665499
Si Si8 0.100371 0.606802 0.656825
O O1 0.746987 0.736142 0.679145
O O2 0.014179 0.753548 0.330600
O O3 0.081449 0.766023 0.480291
O O4 0.971179 0.990451 0.224729
O O5 0.560417 0.502483 0.264518
O O6 0.240316 0.379971 0.511225
O O7 0.227189 0.555761 0.518014
O O8 0.413689 0.647282 0.097335
O O9 0.652062 0.048267 0.440551
O O10 0.531850 0.247839 0.254118
O O11 0.579485 0.247481 0.430785
O O12 0.288364 0.033768 0.723419
O O13 0.907478 0.231934 0.949922
O O14 0.500000 0.500000 0.000000
O O15 0.203350 0.614016 0.692868
O O16 0.113794 0.509275 0.058035
O O17 0.000000 0.500000 0.500000
#
# Coordination Sequence:
#
# PCOD9104582 Si02
#       8
#     2   2   2   2   2   2   2   2
#     4  11  21  38  56  93 133 163 205 259 329 373
#     4  12  21  36  66  96 131 164 217 265 329 378
#     4  10  20  39  61  89 129 172 204 259 332 385
#     4  10  23  37  61  96 130 165 205 264 333 391
#     4  11  18  33  62  93 125 160 203 264 325 374
#     4  11  23  42  63  91 136 171 225 266 310 377
#     4  12  22  35  64  99 128 159 206 271 323 384
#     4  11  24  39  62  96 130 177 219 271 306 376
#
# _framework density 20.265405999999999
#
# number of rings (size 3 to 8) (size 9 to 14) (size 15 to 20)
#    0.000    1.000    5.000    3.000    0.000    0.000 
#    0.000    0.625    0.000    3.000    0.000    0.000 
#    0.000    0.000    0.000    0.000    0.000    0.000 
#
# Total GULP energy -89241.521602 kJ/mol
# GULP energy per Si atom -5577.595100 kJ/mol
# Density = 2.021928 g / cm^3
# Si number density = 20.265406 Si / 1000 Ang^3
#
#
#
# Elastic Constant Matrix: (Units=GPa)
#
#
# Indices 1 2 3 4 5 6 
#
# 1 107.2971 27.5442 27.7018 -0.8695 9.3089 -19.4584
# 2 27.5442 84.5347 27.4809 0.9925 13.8419 -21.1019
# 3 27.7018 27.4809 95.4785 5.5468 6.6424 -8.8464
# 4 -0.8695 0.9925 5.5468 37.2439 -2.1996 1.8247
# 5 9.3089 13.8419 6.6424 -2.1996 27.9017 -0.1175
# 6 -19.4584 -21.1019 -8.8464 1.8247 -0.1175 32.1708
#
#
#
# Elastic Compliance Matrix: (Units=1/GPa)
#
#
# Indices 1 2 3 4 5 6 
#
# 1 0.011444 -0.001179 -0.002300 0.000216 -0.002645 0.005494
# 2 -0.001179 0.016763 -0.003050 -0.000911 -0.007229 0.009469
# 3 -0.002300 -0.003050 0.012184 -0.001835 -0.000765 0.000060
# 4 0.000216 -0.000911 -0.001835 0.027451 0.002970 -0.002518
# 5 -0.002645 -0.007229 -0.000765 0.002970 0.040697 -0.006572
# 6 0.005494 0.009469 0.000060 -0.002518 -0.006572 0.040754
#
#
# Mechanical properties :
#
#
# Convention : Reuss Voigt Hill
#
# Bulk Modulus (GPa) = 36.58537 50.30711 43.44624
# Shear Modulus (GPa) = 29.16087 33.10217 31.13152
#
# Velocity S-wave (km/s) = 3.79746 4.04596 3.92368
# Velocity P-wave (km/s) = 6.10900 6.83406 6.48168
#
# Compressibility (1/GPa) = 0.02733333
#
# Stress axis : x y z
#
# Youngs Moduli (GPa) = 87.38105 59.65517 82.07404
#
# Poissons Ratio (x) = 0.07033 0.18881
# Poissons Ratio (y) = 0.10301 0.25029
# Poissons Ratio (z) = 0.20102 0.18192
#
# Static dielectric constant tensor:
#      x y z
#    x 1.724230 -0.045690 -0.019990 
#    y -0.045690 1.801770 0.013880 
#    z -0.019990 0.013880 1.791780 
# 
# From -- ./inp_files/397879.got.cif
#   From: 2010.05.17/outbox.cif.g08.bks.cpg/sg2_199_cif.got.tgz:397879.got - 2010.06.03 11:33:40.
