data_PCOD9104283
_publ_section_title
;
Structure prediction by ZEFSAII (Michael W. Deem and Ramdas Pophale) SiO2 
 PCOD9104283
Probable space group: P -1
;
_chemical_formula_sum "Si O2"
_cell_formula_units_Z 15
_cell_length_a 27.992916
_cell_length_b 5.154094
_cell_length_c 6.464266
_cell_angle_alpha 71.397979
_cell_angle_beta 41.271454
_cell_angle_gamma 84.263450
_cell_volume 568.297951
_symmetry_space_group_name_H-M "P -1"
_symmetry_group_IT_number 2
_symmetry_cell_setting 'triclinic'
loop_
_space_group_symop_operation_xyz
x,y,z
-x,-y,-z
loop_
_atom_site_type_symbol
_atom_site_label
_atom_site_fract_x
_atom_site_fract_y
_atom_site_fract_z
Si Si1 0.171784 0.898231 0.440086
Si Si2 0.566976 0.183367 0.465203
Si Si3 0.279962 0.689041 0.918641
Si Si4 0.843041 0.636655 0.898589
Si Si5 0.000000 0.000000 0.000000
Si Si6 0.751150 0.821923 0.518508
Si Si7 0.054966 0.434067 0.053407
Si Si8 0.410218 0.180579 0.909534
O O1 0.126686 0.584737 0.641381
O O2 0.189317 0.952379 0.606956
O O3 0.251483 0.937367 0.063681
O O4 0.127216 0.112113 0.430546
O O5 0.631548 0.232744 0.414216
O O6 0.480038 0.113388 0.822707
O O7 0.576517 0.482584 0.239720
O O8 0.583681 0.959141 0.300390
O O9 0.218627 0.591893 0.965918
O O10 0.268370 0.438352 0.190693
O O11 0.791334 0.743194 0.208666
O O12 0.909994 0.578733 0.830579
O O13 0.989441 0.319760 0.881547
O O14 0.022948 0.138377 0.127446
O O15 0.673823 0.914106 0.710789
#
# Coordination Sequence:
#
# PCOD9104283 Si02
#       8
#     2   2   2   2   1   2   2   2
#     4  11  23  40  69 100 136 173 226 277 334 393
#     4   9  17  33  55  86 128 174 229 278 332 396
#     4  10  21  37  61  99 131 174 227 289 328 393
#     4  11  25  39  69 102 136 175 225 280 340 389
#     4  10  26  48  78  96 138 174 216 258 330 402
#     4  10  20  39  59  97 135 178 228 288 329 395
#     4  11  24  50  71 102 135 178 211 272 326 405
#     4   9  17  31  58  84 123 185 226 269 344 392
#
# _framework density 26.394606
#
# number of rings (size 3 to 8) (size 9 to 14) (size 15 to 20)
#    0.000    1.867    2.667    0.800    5.600    0.000 
#    0.000    4.667    0.000    0.800    0.000    0.000 
#    0.000    0.000    0.000    0.000    0.000    0.000 
#
# Total GULP energy -83675.540803 kJ/mol
# GULP energy per Si atom -5578.369387 kJ/mol
# Density = 2.633453 g / cm^3
# Si number density = 26.394606 Si / 1000 Ang^3
#
#
#
# Elastic Constant Matrix: (Units=GPa)
#
#
# Indices 1 2 3 4 5 6 
#
# 1 207.7230 33.8293 26.9340 3.4042 5.7258 -6.3859
# 2 33.8293 123.9636 23.2877 13.5559 4.1277 17.6989
# 3 26.9340 23.2877 70.8479 3.4511 -2.8973 3.8938
# 4 3.4042 13.5559 3.4511 44.1867 -3.2362 -3.9877
# 5 5.7258 4.1277 -2.8973 -3.2362 43.5716 3.3638
# 6 -6.3859 17.6989 3.8938 -3.9877 3.3638 44.0503
#
#
#
# Elastic Compliance Matrix: (Units=1/GPa)
#
#
# Indices 1 2 3 4 5 6 
#
# 1 0.005321 -0.001350 -0.001707 0.000219 -0.000788 0.001544
# 2 -0.001350 0.009850 -0.002375 -0.003169 -0.000827 -0.004167
# 3 -0.001707 -0.002375 0.015668 -0.000326 0.001531 -0.000824
# 4 0.000219 -0.003169 -0.000326 0.024047 0.001775 0.003375
# 5 -0.000788 -0.000827 0.001531 0.001775 0.023486 -0.001550
# 6 0.001544 -0.004167 -0.000824 0.003375 -0.001550 0.025096
#
#
# Mechanical properties :
#
#
# Convention : Reuss Voigt Hill
#
# Bulk Modulus (GPa) = 50.06025 63.40407 56.73216
# Shear Modulus (GPa) = 41.32549 47.59395 44.45972
#
# Velocity S-wave (km/s) = 3.96116 4.25098 4.10863
# Velocity P-wave (km/s) = 6.31889 6.94033 6.63689
#
# Compressibility (1/GPa) = 0.01997593
#
# Stress axis : x y z
#
# Youngs Moduli (GPa) = 187.94041 101.51788 63.82361
#
# Poissons Ratio (x) = 0.13701 0.10894
# Poissons Ratio (y) = 0.25365 0.15159
# Poissons Ratio (z) = 0.32081 0.24113
#
# Static dielectric constant tensor:
#      x y z
#    x 2.059460 -0.080040 0.018810 
#    y -0.080040 2.033810 0.004940 
#    z 0.018810 0.004940 2.024780 
# 
# From -- ./inp_files/121130.got.cif
#   From: 2010.05.17/outbox.cif.g08.bks.cpg/sg2_61_cif.got.tgz:121130.got - 2010.06.03 11:33:40.
