data_PCOD9104743
_publ_section_title
;
Structure prediction by ZEFSAII (Michael W. Deem and Ramdas Pophale) SiO2 
 PCOD9104743
Probable space group: P -1
;
_chemical_formula_sum "Si O2"
_cell_formula_units_Z 16
_cell_length_a 9.283095
_cell_length_b 10.193211
_cell_length_c 17.828319
_cell_angle_alpha 144.629754
_cell_angle_beta 79.996954
_cell_angle_gamma 78.266512
_cell_volume 765.572162
_symmetry_space_group_name_H-M "P -1"
_symmetry_group_IT_number 2
_symmetry_cell_setting 'triclinic'
loop_
_space_group_symop_operation_xyz
x,y,z
-x,-y,-z
loop_
_atom_site_type_symbol
_atom_site_label
_atom_site_fract_x
_atom_site_fract_y
_atom_site_fract_z
Si Si1 0.724883 0.429287 0.144036
Si Si2 0.470481 0.813249 0.742200
Si Si3 0.053070 0.944788 0.175750
Si Si4 0.598978 0.163204 0.836482
Si Si5 0.445526 0.036457 0.412472
Si Si6 0.668034 0.007698 0.001697
Si Si7 0.073368 0.635401 0.757133
Si Si8 0.702561 0.183523 0.397108
O O1 0.559649 0.757113 0.323197
O O2 0.646273 0.250206 0.065739
O O3 0.864632 0.306058 0.143248
O O4 0.835347 0.351017 0.019493
O O5 0.351027 0.894677 0.865142
O O6 0.650112 0.483417 0.571222
O O7 0.369041 0.810319 0.677147
O O8 0.513533 0.038808 0.835327
O O9 0.197301 0.975210 0.217101
O O10 0.948251 0.186055 0.231809
O O11 0.919501 0.970476 0.263368
O O12 0.582905 0.071881 0.713030
O O13 0.500000 0.500000 0.000000
O O14 0.242413 0.307829 0.577105
O O15 0.585261 0.116589 0.425419
O O16 0.500000 0.000000 0.000000
O O17 0.870411 0.725422 0.832664
#
# Coordination Sequence:
#
# PCOD9104743 Si02
#       8
#     2   2   2   2   2   2   2   2
#     4  11  22  41  64  90 132 167 204 258 311 372
#     4  10  20  39  62  87 126 156 209 254 310 364
#     4  11  21  39  65  94 124 161 220 249 315 374
#     4  11  23  41  63  90 128 170 193 262 325 374
#     4  11  24  42  64  92 135 164 205 258 322 367
#     4  11  23  39  64  91 122 167 214 254 299 376
#     4  11  23  40  65  94 119 172 212 254 308 371
#     4  10  21  37  63  96 117 160 208 266 299 363
#
# _framework density 20.899401000000001
#
# number of rings (size 3 to 8) (size 9 to 14) (size 15 to 20)
#    0.000    1.250    1.250    7.875    0.000    3.500 
#    2.250    0.625    0.000    0.000    0.000    0.000 
#    0.000    0.000    0.000    0.000    0.000    0.000 
#
# Total GULP energy -89266.832794 kJ/mol
# GULP energy per Si atom -5579.177050 kJ/mol
# Density = 2.085183 g / cm^3
# Si number density = 20.899401 Si / 1000 Ang^3
#
#
#
# Elastic Constant Matrix: (Units=GPa)
#
#
# Indices 1 2 3 4 5 6 
#
# 1 122.5743 33.6134 49.4018 5.1502 -18.7188 14.4114
# 2 33.6134 54.2216 36.1467 2.5624 -8.8837 -2.0312
# 3 49.4018 36.1467 150.6453 10.4626 -21.6166 23.8864
# 4 5.1502 2.5624 10.4626 27.8195 0.4674 -8.6456
# 5 -18.7188 -8.8837 -21.6166 0.4674 35.7041 -3.0441
# 6 14.4114 -2.0312 23.8864 -8.6456 -3.0441 31.7167
#
#
#
# Elastic Compliance Matrix: (Units=1/GPa)
#
#
# Indices 1 2 3 4 5 6 
#
# 1 0.011448 -0.006123 -0.000659 -0.003107 0.003643 -0.005595
# 2 -0.006123 0.026690 -0.006280 0.004271 0.000462 0.010430
# 3 -0.000659 -0.006280 0.010921 -0.006493 0.003960 -0.009718
# 4 -0.003107 0.004271 -0.006493 0.044322 -0.003516 0.018320
# 5 0.003643 0.000462 0.003960 -0.003516 0.032266 -0.002470
# 6 -0.005595 0.010430 -0.009718 0.018320 -0.002470 0.046814
#
#
# Mechanical properties :
#
#
# Convention : Reuss Voigt Hill
#
# Bulk Modulus (GPa) = 43.60400 62.86278 53.23339
# Shear Modulus (GPa) = 24.24454 32.93334 28.58894
#
# Velocity S-wave (km/s) = 3.40966 3.97394 3.70257
# Velocity P-wave (km/s) = 6.03408 7.15544 6.61855
#
# Compressibility (1/GPa) = 0.02293368
#
# Stress axis : x y z
#
# Youngs Moduli (GPa) = 87.35271 37.46721 91.56398
#
# Poissons Ratio (x) = 0.22942 0.06037
# Poissons Ratio (y) = 0.53488 0.57504
# Poissons Ratio (z) = 0.05759 0.23530
#
# Static dielectric constant tensor:
#      x y z
#    x 1.748470 -0.006960 -0.005060 
#    y -0.006960 1.809840 -0.014600 
#    z -0.005060 -0.014600 1.787670 
# 
# From -- ./inp_files/256411.got.cif
#   From: 2010.05.17/outbox.cif.g08.bks.cpg/sg2_129_cif.got.tgz:256411.got - 2010.06.03 11:33:40.
