data_PCOD9104518
_publ_section_title
;
Structure prediction by ZEFSAII (Michael W. Deem and Ramdas Pophale) SiO2 
 PCOD9104518
Probable space group: P -1
;
_chemical_formula_sum "Si O2"
_cell_formula_units_Z 14
_cell_length_a 13.883262
_cell_length_b 12.366281
_cell_length_c 7.216882
_cell_angle_alpha 57.479368
_cell_angle_beta 82.542978
_cell_angle_gamma 44.644092
_cell_volume 664.018723
_symmetry_space_group_name_H-M "P -1"
_symmetry_group_IT_number 2
_symmetry_cell_setting 'triclinic'
loop_
_space_group_symop_operation_xyz
x,y,z
-x,-y,-z
loop_
_atom_site_type_symbol
_atom_site_label
_atom_site_fract_x
_atom_site_fract_y
_atom_site_fract_z
Si Si1 0.986157 0.951436 0.251071
Si Si2 0.031602 0.423106 0.771188
Si Si3 0.224580 0.687656 0.745156
Si Si4 0.195163 0.064903 0.848073
Si Si5 0.784984 0.605055 0.951298
Si Si6 0.488984 0.904402 0.934199
Si Si7 0.516236 0.376760 0.763528
O O1 0.858635 0.148841 0.225960
O O2 0.935133 0.854725 0.326832
O O3 0.140303 0.805043 0.464522
O O4 0.000000 0.000000 0.000000
O O5 0.000000 0.500000 0.500000
O O6 0.877556 0.565247 0.792420
O O7 0.117532 0.199414 0.928110
O O8 0.138830 0.408791 0.873333
O O9 0.403792 0.528035 0.819316
O O10 0.197882 0.564960 0.901782
O O11 0.317863 0.049179 0.776444
O O12 0.306789 0.829654 0.056432
O O13 0.606823 0.813112 0.825987
O O14 0.535703 0.717702 0.182874
O O15 0.500000 0.000000 0.000000
O O16 0.500000 0.500000 0.500000
#
# Coordination Sequence:
#
# PCOD9104518 Si02
#       7
#     2   2   2   2   2   2   2
#     4  11  22  38  60  91 129 162 215 266 313 378
#     4  11  22  37  64  92 124 160 221 261 321 380
#     4  10  22  38  62  87 125 168 211 257 330 374
#     4  10  21  37  64  88 130 164 209 267 315 376
#     4  10  20  39  61  87 121 169 203 266 319 382
#     4   9  18  38  63  87 128 167 205 261 322 374
#     4   9  19  36  62  91 125 167 214 254 320 378
#
# _framework density 21.083743999999999
#
# number of rings (size 3 to 8) (size 9 to 14) (size 15 to 20)
#    0.857    1.143    1.429    2.571    0.000    1.714 
#    0.000    2.143    0.000    0.000    0.000    0.000 
#    0.000    0.000    0.000    0.000    0.000    0.000 
#
# Total GULP energy -78008.588150 kJ/mol
# GULP energy per Si atom -5572.042011 kJ/mol
# Density = 2.103576 g / cm^3
# Si number density = 21.083744 Si / 1000 Ang^3
#
#
#
# Elastic Constant Matrix: (Units=GPa)
#
#
# Indices 1 2 3 4 5 6 
#
# 1 105.1872 42.9045 21.7018 21.8645 5.2868 -3.1663
# 2 42.9045 113.5323 18.8144 10.8489 7.1394 -11.2683
# 3 21.7018 18.8144 76.4977 10.3664 5.1061 -6.8141
# 4 21.8645 10.8489 10.3664 30.3910 1.9783 -4.1748
# 5 5.2868 7.1394 5.1061 1.9783 15.4471 7.3731
# 6 -3.1663 -11.2683 -6.8141 -4.1748 7.3731 38.1580
#
#
#
# Elastic Compliance Matrix: (Units=1/GPa)
#
#
# Indices 1 2 3 4 5 6 
#
# 1 0.013052 -0.004003 -0.001770 -0.007478 -0.000535 -0.001130
# 2 -0.004003 0.011184 -0.000927 0.000079 -0.005338 0.003845
# 3 -0.001770 -0.000927 0.014749 -0.002719 -0.004855 0.002854
# 4 -0.007478 0.000079 -0.002719 0.039965 -0.003599 0.003985
# 5 -0.000535 -0.005338 -0.004855 -0.003599 0.078025 -0.017958
# 6 -0.001130 0.003845 0.002854 0.003985 -0.017958 0.031664
#
#
# Mechanical properties :
#
#
# Convention : Reuss Voigt Hill
#
# Bulk Modulus (GPa) = 39.08458 51.33985 45.21222
# Shear Modulus (GPa) = 23.74530 30.91899 27.33214
#
# Velocity S-wave (km/s) = 3.35959 3.83363 3.60441
# Velocity P-wave (km/s) = 5.79889 6.63317 6.23001
#
# Compressibility (1/GPa) = 0.02558554
#
# Stress axis : x y z
#
# Youngs Moduli (GPa) = 76.61631 89.41156 67.80080
#
# Poissons Ratio (x) = 0.35792 0.11999
# Poissons Ratio (y) = 0.30670 0.06285
# Poissons Ratio (z) = 0.13560 0.08289
#
# Static dielectric constant tensor:
#      x y z
#    x 1.795230 -0.015230 -0.007440 
#    y -0.015230 1.800020 -0.057230 
#    z -0.007440 -0.057230 1.759810 
# 
# From -- ./inp_files/94588.got.cif
#   From: 2010.05.17/outbox.cif.g08.bks.cpg/sg2_48_cif.got.tgz:94588.got - 2010.06.03 11:33:40.
