data_PCOD9104072
_publ_section_title
;
Structure prediction by ZEFSAII (Michael W. Deem and Ramdas Pophale) SiO2 
 PCOD9104072
Probable space group: P -1
;
_chemical_formula_sum "Si O2"
_cell_formula_units_Z 16
_cell_length_a 6.404993
_cell_length_b 25.909163
_cell_length_c 5.222693
_cell_angle_alpha 86.469526
_cell_angle_beta 108.007488
_cell_angle_gamma 116.295954
_cell_volume 736.053880
_symmetry_space_group_name_H-M "P -1"
_symmetry_group_IT_number 2
_symmetry_cell_setting 'triclinic'
loop_
_space_group_symop_operation_xyz
x,y,z
-x,-y,-z
loop_
_atom_site_type_symbol
_atom_site_label
_atom_site_fract_x
_atom_site_fract_y
_atom_site_fract_z
Si Si1 0.264821 0.391260 0.345213
Si Si2 0.001698 0.842056 0.795605
Si Si3 0.104077 0.580461 0.097946
Si Si4 0.549456 0.945617 0.976662
Si Si5 0.982980 0.670952 0.215292
Si Si6 0.681282 0.474142 0.175810
Si Si7 0.343587 0.097691 0.469780
Si Si8 0.894849 0.201912 0.651880
O O1 0.180156 0.343304 0.100687
O O2 0.544893 0.436752 0.383588
O O3 0.184941 0.363074 0.598230
O O4 0.094497 0.422392 0.194908
O O5 0.835267 0.873849 0.664854
O O6 0.985041 0.798904 0.574156
O O7 0.282034 0.891089 0.888398
O O8 0.957832 0.811808 0.063151
O O9 0.165170 0.641567 0.235550
O O10 0.945924 0.529334 0.250503
O O11 0.297299 0.568590 0.014537
O O12 0.668475 0.945577 0.748745
O O13 0.699032 0.934323 0.265504
O O14 0.500000 0.000000 0.000000
O O15 0.108529 0.737918 0.306608
O O16 0.500000 0.500000 0.000000
O O17 0.618993 0.150313 0.561733
#
# Coordination Sequence:
#
# PCOD9104072 Si02
#       8
#     2   2   2   2   2   2   2   2
#     4   9  20  36  55  81 109 141 181 237 290 350
#     4  10  21  38  61  86 118 160 200 243 297 351
#     4   8  19  35  57  82 108 147 183 230 293 356
#     4  10  21  36  59  90 125 158 198 248 291 345
#     4  10  20  39  57  79 114 143 193 245 291 345
#     4   9  16  38  57  81 112 145 180 230 293 365
#     4  10  21  38  58  86 119 160 203 238 299 349
#     4  10  21  39  59  81 117 155 198 250 293 348
#
# _framework density 21.737538000000001
#
# number of rings (size 3 to 8) (size 9 to 14) (size 15 to 20)
#    0.750    1.750    0.000    1.875    0.000    1.500 
#    4.500    4.375    0.000    0.000    0.000    0.000 
#    0.000    0.000    0.000    0.000    0.000    0.000 
#
# Total GULP energy -89310.471364 kJ/mol
# GULP energy per Si atom -5581.904460 kJ/mol
# Density = 2.168806 g / cm^3
# Si number density = 21.737538 Si / 1000 Ang^3
#
#
#
# Elastic Constant Matrix: (Units=GPa)
#
#
# Indices 1 2 3 4 5 6 
#
# 1 71.7315 12.6360 41.2646 4.1432 -14.6851 -23.6104
# 2 12.6360 86.4122 31.3720 9.1212 -18.4287 -34.6475
# 3 41.2646 31.3720 119.9583 -3.4321 -14.3873 -14.5583
# 4 4.1432 9.1212 -3.4321 27.4303 -9.4130 -11.1169
# 5 -14.6851 -18.4287 -14.3873 -9.4130 18.2269 3.2686
# 6 -23.6104 -34.6475 -14.5583 -11.1169 3.2686 34.6271
#
#
#
# Elastic Compliance Matrix: (Units=1/GPa)
#
#
# Indices 1 2 3 4 5 6 
#
# 1 0.047191 0.034761 -0.007625 0.032268 0.071736 0.067340
# 2 0.034761 0.054350 -0.005417 0.036984 0.083471 0.079801
# 3 -0.007625 -0.005417 0.011836 0.002412 -0.000161 -0.004853
# 4 0.032268 0.036984 0.002412 0.083599 0.094491 0.077942
# 5 0.071736 0.083471 -0.000161 0.094491 0.220279 0.141909
# 6 0.067340 0.079801 -0.004853 0.077942 0.141909 0.164229
#
#
# Mechanical properties :
#
#
# Convention : Reuss Voigt Hill
#
# Bulk Modulus (GPa) = 6.37692 49.84970 28.11331
# Shear Modulus (GPa) = 8.47000 28.91215 18.69108
#
# Velocity S-wave (km/s) = 1.97609 3.65095 2.93551
# Velocity P-wave (km/s) = 2.85422 6.38396 4.94477
#
# Compressibility (1/GPa) = 0.15681550
#
# Stress axis : x y z
#
# Youngs Moduli (GPa) = 21.19050 18.39918 84.48526
#
# Poissons Ratio (x) = -0.63957 0.64416
# Poissons Ratio (y) = -0.73660 0.45767
# Poissons Ratio (z) = 0.16157 0.09967
#
# Static dielectric constant tensor:
#      x y z
#    x 1.776240 -0.002400 0.017530 
#    y -0.002400 1.769150 0.012840 
#    z 0.017530 0.012840 1.837680 
# 
# From -- ./inp_files/13357.got.cif
#   From: 2010.05.17/outbox.cif.g08.bks.cpg/sg2_7_cif.got.tgz:13357.got - 2010.06.03 11:33:40.
