data_PCOD9104940
_publ_section_title
;
Structure prediction by ZEFSAII (Michael W. Deem and Ramdas Pophale) SiO2 
 PCOD9104940
Probable space group: P -1
;
_chemical_formula_sum "Si O2"
_cell_formula_units_Z 16
_cell_length_a 9.076479
_cell_length_b 15.426145
_cell_length_c 12.587332
_cell_angle_alpha 57.627585
_cell_angle_beta 111.237820
_cell_angle_gamma 150.209259
_cell_volume 717.174686
_symmetry_space_group_name_H-M "P -1"
_symmetry_group_IT_number 2
_symmetry_cell_setting 'triclinic'
loop_
_space_group_symop_operation_xyz
x,y,z
-x,-y,-z
loop_
_atom_site_type_symbol
_atom_site_label
_atom_site_fract_x
_atom_site_fract_y
_atom_site_fract_z
Si Si1 0.726607 0.074853 0.097101
Si Si2 0.214002 0.134439 0.365936
Si Si3 0.719821 0.584846 0.854368
Si Si4 0.969478 0.878107 0.011059
Si Si5 0.088047 0.707510 0.672565
Si Si6 0.105313 0.545990 0.619097
Si Si7 0.780401 0.054709 0.622605
Si Si8 0.809639 0.180353 0.751546
O O1 0.043731 0.306442 0.058807
O O2 0.533752 0.967868 0.225973
O O3 0.838662 0.030010 0.107113
O O4 0.500000 0.000000 0.000000
O O5 0.262993 0.281724 0.251764
O O6 0.532337 0.257881 0.403132
O O7 0.109782 0.000255 0.330821
O O8 0.000000 0.000000 0.500000
O O9 0.380348 0.354795 0.939950
O O10 0.855975 0.602897 0.774591
O O11 0.138357 0.893781 0.123332
O O12 0.000000 0.000000 0.000000
O O13 0.976747 0.560024 0.655903
O O14 0.164904 0.854533 0.532305
O O15 0.424827 0.854535 0.697926
O O16 0.000000 0.500000 0.500000
O O17 0.000207 0.373672 0.732307
O O18 0.918232 0.209356 0.644175
#
# Coordination Sequence:
#
# PCOD9104940 Si02
#       8
#     2   2   2   2   2   2   2   2
#     4  10  25  47  71  91 126 180 236 289 344 402
#     4  11  24  40  64 104 142 179 219 264 344 417
#     4  12  23  46  70  99 139 180 221 295 352 391
#     4  11  27  48  66  98 131 174 245 301 337 388
#     4  10  21  37  65 100 136 179 218 255 334 430
#     4  11  23  40  65  99 146 184 217 263 332 421
#     4  10  20  39  62  99 139 174 216 261 327 429
#     4  11  22  45  66  96 135 183 222 280 341 402
#
# _framework density 22.309767999999998
#
# number of rings (size 3 to 8) (size 9 to 14) (size 15 to 20)
#    0.000    1.250    5.000    0.375    5.250    0.000 
#    2.250    4.375    0.000    0.000    0.000    0.000 
#    0.000    0.000    0.000    0.000    0.000    0.000 
#
# Total GULP energy -89215.027110 kJ/mol
# GULP energy per Si atom -5575.939194 kJ/mol
# Density = 2.225899 g / cm^3
# Si number density = 22.309768 Si / 1000 Ang^3
#
#
#
# Elastic Constant Matrix: (Units=GPa)
#
#
# Indices 1 2 3 4 5 6 
#
# 1 199.9853 61.0544 50.8047 -9.0056 -10.9882 -35.4714
# 2 61.0544 82.2243 18.9193 -1.8515 -6.3831 -16.8769
# 3 50.8047 18.9193 45.9544 0.7836 4.9077 -2.9141
# 4 -9.0056 -1.8515 0.7836 34.3516 -3.7481 3.1474
# 5 -10.9882 -6.3831 4.9077 -3.7481 37.4046 -7.4578
# 6 -35.4714 -16.8769 -2.9141 3.1474 -7.4578 46.9940
#
#
#
# Elastic Compliance Matrix: (Units=1/GPa)
#
#
# Indices 1 2 3 4 5 6 
#
# 1 0.010146 -0.003438 -0.010000 0.002685 0.005263 0.006459
# 2 -0.003438 0.016364 -0.003020 0.000040 0.002891 0.003550
# 3 -0.010000 -0.003020 0.034695 -0.003948 -0.009955 -0.007796
# 4 0.002685 0.000040 -0.003948 0.030349 0.004448 0.000469
# 5 0.005263 0.002891 -0.009955 0.004448 0.032367 0.009232
# 6 0.006459 0.003550 -0.007796 0.000469 0.009232 0.028380
#
#
# Mechanical properties :
#
#
# Convention : Reuss Voigt Hill
#
# Bulk Modulus (GPa) = 35.34921 65.52451 50.43686
# Shear Modulus (GPa) = 25.68769 36.90909 31.29839
#
# Velocity S-wave (km/s) = 3.39692 4.07183 3.74960
# Velocity P-wave (km/s) = 5.59147 7.17917 6.43448
#
# Compressibility (1/GPa) = 0.02828917
#
# Stress axis : x y z
#
# Youngs Moduli (GPa) = 98.56062 61.11072 28.82245
#
# Poissons Ratio (x) = 0.21011 0.28821
# Poissons Ratio (y) = 0.33887 0.08704
# Poissons Ratio (z) = 0.98557 0.18456
#
# Static dielectric constant tensor:
#      x y z
#    x 1.906750 -0.030760 -0.004350 
#    y -0.030760 1.953890 0.029080 
#    z -0.004350 0.029080 1.923800 
# 
# From -- ./inp_files/177429.got.cif
#   From: 2010.05.17/outbox.cif.g08.bks.cpg/sg2_89_cif.got.tgz:177429.got - 2010.06.03 11:33:40.
