data_PCOD9104354
_publ_section_title
;
Structure prediction by ZEFSAII (Michael W. Deem and Ramdas Pophale) SiO2 
 PCOD9104354
Probable space group: P -1
;
_chemical_formula_sum "Si O2"
_cell_formula_units_Z 15
_cell_length_a 14.566842
_cell_length_b 6.069725
_cell_length_c 13.447684
_cell_angle_alpha 78.075996
_cell_angle_beta 45.290310
_cell_angle_gamma 55.397140
_cell_volume 656.620181
_symmetry_space_group_name_H-M "P -1"
_symmetry_group_IT_number 2
_symmetry_cell_setting 'triclinic'
loop_
_space_group_symop_operation_xyz
x,y,z
-x,-y,-z
loop_
_atom_site_type_symbol
_atom_site_label
_atom_site_fract_x
_atom_site_fract_y
_atom_site_fract_z
Si Si1 0.960842 0.847801 0.263963
Si Si2 0.383114 0.649827 0.732029
Si Si3 0.352829 0.356981 0.372076
Si Si4 0.515553 0.826247 0.908778
Si Si5 0.003417 0.366104 0.405973
Si Si6 0.612698 0.104257 0.492288
Si Si7 0.000000 0.000000 0.000000
Si Si8 0.769582 0.163408 0.827870
O O1 0.077814 0.901696 0.222839
O O2 0.007400 0.551895 0.298524
O O3 0.973963 0.875719 0.133787
O O4 0.770274 0.075321 0.415264
O O5 0.519137 0.577841 0.715594
O O6 0.452197 0.365168 0.643658
O O7 0.387246 0.843589 0.628586
O O8 0.199214 0.805989 0.890450
O O9 0.421102 0.141539 0.245785
O O10 0.162871 0.600444 0.476593
O O11 0.355011 0.185956 0.479048
O O12 0.649820 0.492905 0.860601
O O13 0.340989 0.894295 0.021962
O O14 0.500000 0.000000 0.000000
O O15 0.000000 0.500000 0.500000
O O16 0.158217 0.045477 0.301654
#
# Coordination Sequence:
#
# PCOD9104354 Si02
#       8
#     2   2   2   2   2   2   1   2
#     4  10  21  40  61  89 124 160 207 256 311 369
#     4  10  20  39  60  88 120 157 202 247 308 370
#     4  11  22  38  64  89 118 162 205 250 311 369
#     4  11  25  41  59  89 126 163 209 259 307 372
#     4  11  24  41  64  95 128 162 210 265 310 368
#     4   9  21  37  60  88 122 153 194 256 306 364
#     4  10  22  40  62  88 124 162 204 264 306 360
#     4  11  23  41  64  88 123 168 206 253 318 374
#
# _framework density 22.844256999999999
#
# number of rings (size 3 to 8) (size 9 to 14) (size 15 to 20)
#    0.000    1.600    0.000    4.400    0.000    8.533 
#    0.000    1.333    0.000    0.000    0.000    0.000 
#    0.000    0.000    0.000    0.000    0.000    0.000 
#
# Total GULP energy -83523.283136 kJ/mol
# GULP energy per Si atom -5568.218876 kJ/mol
# Density = 2.279226 g / cm^3
# Si number density = 22.844257 Si / 1000 Ang^3
#
#
#
# Elastic Constant Matrix: (Units=GPa)
#
#
# Indices 1 2 3 4 5 6 
#
# 1 92.6604 2.4886 43.3748 14.0331 -33.0913 5.0124
# 2 2.4886 58.2971 35.8514 5.5297 14.0728 -7.9981
# 3 43.3748 35.8514 129.3556 18.5851 -18.7492 5.1655
# 4 14.0331 5.5297 18.5851 38.1058 -5.7602 4.7290
# 5 -33.0913 14.0728 -18.7492 -5.7602 50.4260 -2.2534
# 6 5.0124 -7.9981 5.1655 4.7290 -2.2534 20.3387
#
#
#
# Elastic Compliance Matrix: (Units=1/GPa)
#
#
# Indices 1 2 3 4 5 6 
#
# 1 0.016192 -0.000811 -0.003431 -0.002554 0.009203 -0.001824
# 2 -0.000811 0.027527 -0.009144 -0.002523 -0.011336 0.012678
# 3 -0.003431 -0.009144 0.012589 -0.002258 0.004503 -0.004924
# 4 -0.002554 -0.002523 -0.002258 0.029657 0.001284 -0.006542
# 5 0.009203 -0.011336 0.004503 0.001284 0.030642 -0.004773
# 6 -0.001824 0.012678 -0.004924 -0.006542 -0.004773 0.056845
#
#
# Mechanical properties :
#
#
# Convention : Reuss Voigt Hill
#
# Bulk Modulus (GPa) = 33.85686 49.30475 41.58080
# Shear Modulus (GPa) = 23.80178 35.01400 29.40789
#
# Velocity S-wave (km/s) = 3.23137 3.91925 3.59182
# Velocity P-wave (km/s) = 5.36426 6.48927 5.95340
#
# Compressibility (1/GPa) = 0.02953611
#
# Stress axis : x y z
#
# Youngs Moduli (GPa) = 61.75843 36.32861 79.43390
#
# Poissons Ratio (x) = 0.02946 0.27253
# Poissons Ratio (y) = 0.05008 0.72634
# Poissons Ratio (z) = 0.21189 0.33219
#
# Static dielectric constant tensor:
#      x y z
#    x 1.912580 -0.019850 0.002130 
#    y -0.019850 1.887520 -0.024720 
#    z 0.002130 -0.024720 1.827280 
# 
# From -- ./inp_files/525284.got.cif
#   From: 2010.05.17/outbox.cif.g08.bks.cpg/sg2_263_cif.got.tgz:525284.got - 2010.06.03 11:33:40.
