data_PCOD9104730
_publ_section_title
;
Structure prediction by ZEFSAII (Michael W. Deem and Ramdas Pophale) SiO2 
 PCOD9104730
Probable space group: P -1
;
_chemical_formula_sum "Si O2"
_cell_formula_units_Z 16
_cell_length_a 22.261889
_cell_length_b 9.338272
_cell_length_c 19.672841
_cell_angle_alpha 138.287624
_cell_angle_beta 159.067382
_cell_angle_gamma 32.940069
_cell_volume 779.684365
_symmetry_space_group_name_H-M "P -1"
_symmetry_group_IT_number 2
_symmetry_cell_setting 'triclinic'
loop_
_space_group_symop_operation_xyz
x,y,z
-x,-y,-z
loop_
_atom_site_type_symbol
_atom_site_label
_atom_site_fract_x
_atom_site_fract_y
_atom_site_fract_z
Si Si1 0.714629 0.778435 0.685028
Si Si2 0.604882 0.216276 0.046269
Si Si3 0.322354 0.632250 0.418388
Si Si4 0.529257 0.367869 0.177390
Si Si5 0.094697 0.938989 0.948160
Si Si6 0.969106 0.202265 0.597333
Si Si7 0.502347 0.172474 0.219292
Si Si8 0.038174 0.584743 0.845245
O O1 0.680221 0.601897 0.634207
O O2 0.881010 0.606720 0.741047
O O3 0.500000 0.000000 0.500000
O O4 0.809464 0.915097 0.870107
O O5 0.561462 0.262212 0.097548
O O6 0.500000 0.500000 0.000000
O O7 0.860310 0.000313 0.236564
O O8 0.501845 0.077444 0.859270
O O9 0.500000 0.500000 0.500000
O O10 0.371102 0.774578 0.577389
O O11 0.090314 0.859397 0.226478
O O12 0.717170 0.387777 0.403542
O O13 0.552006 0.175302 0.193239
O O14 0.298777 0.649619 0.036748
O O15 0.986371 0.858078 0.858876
O O16 0.041528 0.391201 0.723996
O O17 0.000000 0.000000 0.500000
O O18 0.262302 0.433293 0.063430
#
# Coordination Sequence:
#
# PCOD9104730 Si02
#       8
#     2   2   2   2   2   2   2   2
#     4  12  23  40  64  88 119 165 207 250 313 380
#     4  10  22  38  63  95 124 157 203 260 312 360
#     4  12  26  42  61  92 127 162 206 262 313 362
#     4  10  21  41  63  89 121 164 209 249 306 379
#     4  11  24  39  61  92 123 158 206 265 309 359
#     4   9  19  36  61  88 122 162 201 245 302 369
#     4  10  22  41  62  85 122 166 203 248 309 375
#     4  10  20  39  62  87 117 160 209 249 302 376
#
# _framework density 20.521125000000001
#
# number of rings (size 3 to 8) (size 9 to 14) (size 15 to 20)
#    0.000    1.500    0.000    5.625    0.000    7.000 
#    0.000    1.250    0.000    0.000    0.000    0.000 
#    0.000    0.000    0.000    0.000    0.000    0.000 
#
# Total GULP energy -89241.903847 kJ/mol
# GULP energy per Si atom -5577.618990 kJ/mol
# Density = 2.047442 g / cm^3
# Si number density = 20.521125 Si / 1000 Ang^3
#
#
#
# Elastic Constant Matrix: (Units=GPa)
#
#
# Indices 1 2 3 4 5 6 
#
# 1 88.6584 40.2109 34.9635 1.3908 2.1041 16.9467
# 2 40.2109 127.1200 61.2211 14.0710 -15.7468 39.5552
# 3 34.9635 61.2211 153.5311 5.4952 -10.0086 20.8841
# 4 1.3908 14.0710 5.4952 46.7073 -4.2734 2.1343
# 5 2.1041 -15.7468 -10.0086 -4.2734 24.3634 -0.2977
# 6 16.9467 39.5552 20.8841 2.1343 -0.2977 37.6936
#
#
#
# Elastic Compliance Matrix: (Units=1/GPa)
#
#
# Indices 1 2 3 4 5 6 
#
# 1 0.014052 -0.003695 -0.001822 0.000587 -0.004265 -0.001498
# 2 -0.003695 0.016049 -0.003082 -0.002957 0.008745 -0.013236
# 3 -0.001822 -0.003082 0.008332 0.000175 0.001612 -0.000561
# 4 0.000587 -0.002957 0.000175 0.022382 0.002054 0.001491
# 5 -0.004265 0.008745 0.001612 0.002054 0.047992 -0.007890
# 6 -0.001498 -0.013236 -0.000561 0.001491 -0.007890 0.041257
#
#
# Mechanical properties :
#
#
# Convention : Reuss Voigt Hill
#
# Bulk Modulus (GPa) = 47.08997 71.34448 59.21723
# Shear Modulus (GPa) = 28.67954 37.28046 32.98000
#
# Velocity S-wave (km/s) = 3.74245 4.26689 4.01324
# Velocity P-wave (km/s) = 6.45535 7.68875 7.09889
#
# Compressibility (1/GPa) = 0.02123594
#
# Stress axis : x y z
#
# Youngs Moduli (GPa) = 71.16497 62.30992 120.01643
#
# Poissons Ratio (x) = 0.23022 0.21868
# Poissons Ratio (y) = 0.26293 0.36985
# Poissons Ratio (z) = 0.12967 0.19202
#
# Static dielectric constant tensor:
#      x y z
#    x 1.823690 -0.053470 0.038310 
#    y -0.053470 1.787390 0.013300 
#    z 0.038310 0.013300 1.732770 
# 
# From -- ./inp_files/508064.got.cif
#   From: 2010.05.17/outbox.cif.g08.bks.cpg/sg2_255_cif.got.tgz:508064.got - 2010.06.03 11:33:40.
