data_PCOD9104812
_publ_section_title
;
Structure prediction by ZEFSAII (Michael W. Deem and Ramdas Pophale) SiO2 
 PCOD9104812
Probable space group: P -1
;
_chemical_formula_sum "Si O2"
_cell_formula_units_Z 16
_cell_length_a 12.035144
_cell_length_b 14.771309
_cell_length_c 9.546755
_cell_angle_alpha 136.882321
_cell_angle_beta 91.249735
_cell_angle_gamma 55.342225
_cell_volume 681.859673
_symmetry_space_group_name_H-M "P -1"
_symmetry_group_IT_number 2
_symmetry_cell_setting 'triclinic'
loop_
_space_group_symop_operation_xyz
x,y,z
-x,-y,-z
loop_
_atom_site_type_symbol
_atom_site_label
_atom_site_fract_x
_atom_site_fract_y
_atom_site_fract_z
Si Si1 0.997225 0.679365 0.791327
Si Si2 0.273827 0.351406 0.645561
Si Si3 0.744715 0.360000 0.882603
Si Si4 0.172798 0.171131 0.559681
Si Si5 0.940541 0.268336 0.437919
Si Si6 0.437107 0.315414 0.992396
Si Si7 0.965650 0.066682 0.799190
Si Si8 0.308880 0.135191 0.817132
O O1 0.201317 0.437270 0.582281
O O2 0.988908 0.709433 0.660360
O O3 0.841170 0.732966 0.913171
O O4 0.973322 0.849406 0.048371
O O5 0.180111 0.311821 0.661062
O O6 0.496804 0.119263 0.412935
O O7 0.199270 0.548738 0.953071
O O8 0.574725 0.574347 0.018549
O O9 0.875539 0.145470 0.542021
O O10 0.772359 0.259466 0.919943
O O11 0.994207 0.279122 0.602409
O O12 0.218506 0.142702 0.692652
O O13 0.349944 0.915689 0.218081
O O14 0.713054 0.481095 0.672011
O O15 0.035938 0.033483 0.185658
O O16 0.363950 0.231272 0.876866
#
# Coordination Sequence:
#
# PCOD9104812 Si02
#       8
#     2   2   2   2   2   2   2   2
#     4  11  25  41  60  86 123 168 201 238 298 356
#     4  10  20  39  62  90 128 151 192 247 307 355
#     4   9  16  35  60  90 111 145 199 245 299 341
#     4  11  22  36  65  96 122 151 195 249 302 361
#     4  11  25  41  60  86 123 168 201 238 298 356
#     4  10  20  39  62  90 128 151 192 247 307 355
#     4   9  21  38  62  82 118 158 208 252 284 344
#     4  11  22  36  65  96 122 151 195 249 302 361
#
# _framework density 23.465237999999999
#
# number of rings (size 3 to 8) (size 9 to 14) (size 15 to 20)
#    0.000    1.750    2.500    1.875    8.750    4.000 
#    0.000    8.750    0.000    7.500    0.000    0.000 
#    0.000    0.000    0.000    0.000    0.000    0.000 
#
# Total GULP energy -89215.361249 kJ/mol
# GULP energy per Si atom -5575.960078 kJ/mol
# Density = 2.341183 g / cm^3
# Si number density = 23.465238 Si / 1000 Ang^3
#
#
#
# Elastic Constant Matrix: (Units=GPa)
#
#
# Indices 1 2 3 4 5 6 
#
# 1 39.9629 23.1822 26.6977 9.7465 14.2088 -2.1665
# 2 23.1822 136.0277 50.7558 8.2471 -7.7994 14.2534
# 3 26.6977 50.7558 62.6886 20.6919 3.6041 5.7386
# 4 9.7465 8.2471 20.6919 35.3249 4.1615 -1.4146
# 5 14.2088 -7.7994 3.6041 4.1615 32.3983 2.9597
# 6 -2.1665 14.2534 5.7386 -1.4146 2.9597 27.6292
#
#
#
# Elastic Compliance Matrix: (Units=1/GPa)
#
#
# Indices 1 2 3 4 5 6 
#
# 1 0.046125 -0.004171 -0.016363 0.000710 -0.020546 0.011404
# 2 -0.004171 0.012015 -0.008637 0.002507 0.005838 -0.005229
# 3 -0.016363 -0.008637 0.035007 -0.014603 0.003556 -0.005227
# 4 0.000710 0.002507 -0.014603 0.036613 -0.003152 0.004007
# 5 -0.020546 0.005838 0.003556 -0.003152 0.042209 -0.010044
# 6 0.011404 -0.005229 -0.005227 0.004007 -0.010044 0.042152
#
#
# Mechanical properties :
#
#
# Convention : Reuss Voigt Hill
#
# Bulk Modulus (GPa) = 28.73101 48.88341 38.80721
# Shear Modulus (GPa) = 17.60158 28.27339 22.93748
#
# Velocity S-wave (km/s) = 2.74179 3.47494 3.12991
# Velocity P-wave (km/s) = 4.72164 6.08094 5.44388
#
# Compressibility (1/GPa) = 0.03480560
#
# Stress axis : x y z
#
# Youngs Moduli (GPa) = 21.68033 83.22604 28.56545
#
# Poissons Ratio (x) = 0.34715 0.46742
# Poissons Ratio (y) = 0.09043 0.24671
# Poissons Ratio (z) = 0.35476 0.71879
#
# Static dielectric constant tensor:
#      x y z
#    x 1.912510 0.011630 0.017970 
#    y 0.011630 1.892010 0.013270 
#    z 0.017970 0.013270 1.899660 
# 
# From -- ./inp_files/314118.got.cif
#   From: 2010.05.17/outbox.cif.g08.bks.cpg/sg2_158_cif.got.tgz:314118.got - 2010.06.03 11:33:40.
