data_PCOD9104408
_publ_section_title
;
Structure prediction by ZEFSAII (Michael W. Deem and Ramdas Pophale) SiO2 
 PCOD9104408
Probable space group: P -1
;
_chemical_formula_sum "Si O2"
_cell_formula_units_Z 14
_cell_length_a 5.564871
_cell_length_b 8.163950
_cell_length_c 15.262218
_cell_angle_alpha 94.388059
_cell_angle_beta 112.994203
_cell_angle_gamma 117.859235
_cell_volume 534.959259
_symmetry_space_group_name_H-M "P -1"
_symmetry_group_IT_number 2
_symmetry_cell_setting 'triclinic'
loop_
_space_group_symop_operation_xyz
x,y,z
-x,-y,-z
loop_
_atom_site_type_symbol
_atom_site_label
_atom_site_fract_x
_atom_site_fract_y
_atom_site_fract_z
Si Si1 0.313579 0.186747 0.947450
Si Si2 0.571051 0.330554 0.295982
Si Si3 0.664788 0.437099 0.698106
Si Si4 0.881477 0.648945 0.200929
Si Si5 0.380422 0.703744 0.501246
Si Si6 0.036500 0.901821 0.385891
Si Si7 0.573584 0.958661 0.874320
O O1 0.363299 0.363631 0.901719
O O2 0.420596 0.069841 0.896726
O O3 0.469458 0.196146 0.062745
O O4 0.946545 0.088560 0.914992
O O5 0.274176 0.351202 0.262136
O O6 0.744183 0.504739 0.257876
O O7 0.693400 0.372303 0.413457
O O8 0.557956 0.152501 0.240301
O O9 0.709601 0.440757 0.599195
O O10 0.861325 0.393562 0.791923
O O11 0.325034 0.234098 0.648665
O O12 0.050404 0.858610 0.282944
O O13 0.208138 0.816211 0.460606
O O14 0.752191 0.867720 0.559774
#
# Coordination Sequence:
#
# PCOD9104408 Si02
#       7
#     2   2   2   2   2   2   2
#     4  10  23  47  72  99 131 172 221 281 328 402
#     4  11  24  39  62  98 131 175 214 275 333 399
#     4  10  22  38  60  92 134 177 214 267 333 391
#     4  10  23  40  62  94 133 171 217 268 336 393
#     4  10  20  39  60  92 129 173 224 272 320 385
#     4   9  20  38  60  91 123 174 225 271 321 383
#     4  10  24  45  73 101 129 170 227 275 337 390
#
# _framework density 26.170216
#
# number of rings (size 3 to 8) (size 9 to 14) (size 15 to 20)
#    0.000    2.000    0.000    1.714    6.000    6.857 
#    2.571    0.714    0.000    0.000    0.000    0.000 
#    0.000    0.000    0.000    0.000    0.000    0.000 
#
# Total GULP energy -78076.279764 kJ/mol
# GULP energy per Si atom -5576.877126 kJ/mol
# Density = 2.611065 g / cm^3
# Si number density = 26.170216 Si / 1000 Ang^3
#
#
#
# Elastic Constant Matrix: (Units=GPa)
#
#
# Indices 1 2 3 4 5 6 
#
# 1 109.0476 25.8829 42.9602 -3.8239 -2.7287 -7.6707
# 2 25.8829 54.4419 35.3823 -19.8880 -7.5613 8.0858
# 3 42.9602 35.3823 122.2396 -17.3477 -4.5588 -16.3759
# 4 -3.8239 -19.8880 -17.3477 46.9288 -8.8821 -4.2992
# 5 -2.7287 -7.5613 -4.5588 -8.8821 40.9588 -4.3633
# 6 -7.6707 8.0858 -16.3759 -4.2992 -4.3633 36.7413
#
#
#
# Elastic Compliance Matrix: (Units=1/GPa)
#
#
# Indices 1 2 3 4 5 6 
#
# 1 0.011414 -0.004816 -0.002674 -0.002048 -0.000665 0.001933
# 2 -0.004816 0.031091 -0.006771 0.010603 0.006015 -0.008911
# 3 -0.002674 -0.006771 0.012376 0.002341 0.001188 0.006863
# 4 -0.002048 0.010603 0.002341 0.028350 0.008507 0.002610
# 5 -0.000665 0.006015 0.001188 0.008507 0.027817 0.003366
# 6 0.001933 -0.008911 0.006863 0.002610 0.003366 0.033346
#
#
# Mechanical properties :
#
#
# Convention : Reuss Voigt Hill
#
# Bulk Modulus (GPa) = 37.93883 54.90887 46.42385
# Shear Modulus (GPa) = 27.51731 37.02603 32.27167
#
# Velocity S-wave (km/s) = 3.24616 3.76548 3.51543
# Velocity P-wave (km/s) = 5.34589 6.31919 5.85281
#
# Compressibility (1/GPa) = 0.02635822
#
# Stress axis : x y z
#
# Youngs Moduli (GPa) = 87.60840 32.16376 80.79925
#
# Poissons Ratio (x) = 0.15491 0.21605
# Poissons Ratio (y) = 0.42196 0.54712
# Poissons Ratio (z) = 0.23426 0.21779
#
# Static dielectric constant tensor:
#      x y z
#    x 2.569990 -0.002420 -0.020680 
#    y -0.002420 2.124440 0.003270 
#    z -0.020680 0.003270 2.037380 
# 
# From -- ./inp_files/89382.got.cif
#   From: 2010.05.17/outbox.cif.g08.bks.cpg/sg2_45_cif.got.tgz:89382.got - 2010.06.03 11:33:40.
