data_PCOD9104718
_publ_section_title
;
Structure prediction by ZEFSAII (Michael W. Deem and Ramdas Pophale) SiO2 
 PCOD9104718
Probable space group: P -1
;
_chemical_formula_sum "Si O2"
_cell_formula_units_Z 14
_cell_length_a 22.441179
_cell_length_b 14.192691
_cell_length_c 14.801133
_cell_angle_alpha 151.605524
_cell_angle_beta 160.271245
_cell_angle_gamma 20.703771
_cell_volume 562.587679
_symmetry_space_group_name_H-M "P -1"
_symmetry_group_IT_number 2
_symmetry_cell_setting 'triclinic'
loop_
_space_group_symop_operation_xyz
x,y,z
-x,-y,-z
loop_
_atom_site_type_symbol
_atom_site_label
_atom_site_fract_x
_atom_site_fract_y
_atom_site_fract_z
Si Si1 0.455884 0.309591 0.387961
Si Si2 0.411196 0.562176 0.030444
Si Si3 0.950097 0.795300 0.151748
Si Si4 0.826706 0.527125 0.638740
Si Si5 0.000669 0.150436 0.425984
Si Si6 0.283376 0.284788 0.730738
Si Si7 0.562959 0.667709 0.820787
O O1 0.225102 0.534999 0.305823
O O2 0.600992 0.405019 0.669197
O O3 0.354852 0.344480 0.172592
O O4 0.606507 0.011410 0.383836
O O5 0.412281 0.355307 0.912570
O O6 0.130003 0.806747 0.817574
O O7 0.500000 0.500000 0.000000
O O8 0.573226 0.603971 0.345620
O O9 0.953319 0.736734 0.212032
O O10 0.916778 0.046639 0.291394
O O11 0.808367 0.759831 0.850951
O O12 0.909530 0.427516 0.569611
O O13 0.280325 0.920417 0.625771
O O14 0.000000 0.500000 0.500000
O O15 0.336844 0.291893 0.917615
#
# Coordination Sequence:
#
# PCOD9104718 Si02
#       7
#     2   2   2   2   2   2   2
#     4  10  22  41  65  94 125 161 214 261 312 380
#     4  10  23  40  60  91 130 168 205 259 316 365
#     4  10  21  36  63  91 117 165 211 256 312 370
#     4  10  21  38  59  90 125 162 210 257 311 372
#     4  10  20  39  62  86 124 164 208 257 309 370
#     4  12  25  42  66  94 126 168 213 260 318 380
#     4  10  22  42  67  93 124 165 209 266 319 371
#
# _framework density 24.885010000000001
#
# number of rings (size 3 to 8) (size 9 to 14) (size 15 to 20)
#    0.000    1.714    0.000    4.286    0.000    9.143 
#    0.000    8.571    0.000    0.000    0.000    0.000 
#    0.000    0.000    0.000    0.000    0.000    0.000 
#
# Total GULP energy -78290.506399 kJ/mol
# GULP energy per Si atom -5592.179029 kJ/mol
# Density = 2.482837 g / cm^3
# Si number density = 24.885010 Si / 1000 Ang^3
#
#
#
# Elastic Constant Matrix: (Units=GPa)
#
#
# Indices 1 2 3 4 5 6 
#
# 1 72.5629 3.6760 6.1162 7.1888 2.8842 -0.9892
# 2 3.6760 84.5228 37.4051 2.0613 -0.9499 -3.2610
# 3 6.1162 37.4051 159.3408 -2.6790 -17.3849 -8.9052
# 4 7.1888 2.0613 -2.6790 43.1390 2.6670 2.0571
# 5 2.8842 -0.9499 -17.3849 2.6670 36.8577 5.3226
# 6 -0.9892 -3.2610 -8.9052 2.0571 5.3226 29.6375
#
#
#
# Elastic Compliance Matrix: (Units=1/GPa)
#
#
# Indices 1 2 3 4 5 6 
#
# 1 0.014141 -0.000270 -0.000628 -0.002331 -0.001336 0.000655
# 2 -0.000270 0.013299 -0.003214 -0.000752 -0.001207 0.000758
# 3 -0.000628 -0.003214 0.007491 0.000460 0.003285 0.001254
# 4 -0.002331 -0.000752 0.000460 0.023774 -0.001128 -0.001470
# 5 -0.001336 -0.001207 0.003285 -0.001128 0.029472 -0.004405
# 6 0.000655 0.000758 0.001254 -0.001470 -0.004405 0.035116
#
#
# Mechanical properties :
#
#
# Convention : Reuss Voigt Hill
#
# Bulk Modulus (GPa) = 37.44241 45.64679 41.54460
# Shear Modulus (GPa) = 35.60818 39.87546 37.74182
#
# Velocity S-wave (km/s) = 3.78684 4.00733 3.89864
# Velocity P-wave (km/s) = 5.84799 6.30829 6.08250
#
# Compressibility (1/GPa) = 0.02670768
#
# Stress axis : x y z
#
# Youngs Moduli (GPa) = 70.71791 75.19356 133.50114
#
# Poissons Ratio (x) = 0.02031 0.08379
# Poissons Ratio (y) = 0.01910 0.42901
# Poissons Ratio (z) = 0.04439 0.24164
#
# Static dielectric constant tensor:
#      x y z
#    x 2.045850 0.016250 0.068390 
#    y 0.016250 1.952690 -0.022120 
#    z 0.068390 -0.022120 2.025900 
# 
# From -- ./inp_files/543074.got.cif
#   From: 2010.05.17/outbox.cif.g08.bks.cpg/sg2_272_cif.got.tgz:543074.got - 2010.06.03 11:33:40.
