data_PCOD9104905
_publ_section_title
;
Structure prediction by ZEFSAII (Michael W. Deem and Ramdas Pophale) SiO2 
 PCOD9104905
Probable space group: P -1
;
_chemical_formula_sum "Si O2"
_cell_formula_units_Z 14
_cell_length_a 8.264055
_cell_length_b 9.149412
_cell_length_c 17.898106
_cell_angle_alpha 38.050602
_cell_angle_beta 114.653072
_cell_angle_gamma 129.404083
_cell_volume 634.707560
_symmetry_space_group_name_H-M "P -1"
_symmetry_group_IT_number 2
_symmetry_cell_setting 'triclinic'
loop_
_space_group_symop_operation_xyz
x,y,z
-x,-y,-z
loop_
_atom_site_type_symbol
_atom_site_label
_atom_site_fract_x
_atom_site_fract_y
_atom_site_fract_z
Si Si1 0.558961 0.240566 0.330508
Si Si2 0.220385 0.167119 0.068871
Si Si3 0.410723 0.770088 0.820390
Si Si4 0.627547 0.415279 0.789779
Si Si5 0.560351 0.678547 0.363131
Si Si6 0.781953 0.406167 0.456135
Si Si7 0.770877 0.042442 0.008858
O O1 0.662312 0.359586 0.223037
O O2 0.397810 0.335106 0.285082
O O3 0.744900 0.350308 0.382978
O O4 0.416964 0.900969 0.431230
O O5 0.333952 0.082096 0.184785
O O6 0.316049 0.501346 0.963787
O O7 0.279476 0.092498 0.029995
O O8 0.972779 0.037989 0.075111
O O9 0.358830 0.000150 0.734508
O O10 0.620390 0.427198 0.693578
O O11 0.411024 0.139361 0.892050
O O12 0.798713 0.347899 0.879539
O O13 0.500000 0.500000 0.500000
O O14 0.734268 0.641260 0.372693
O O15 0.000000 0.500000 0.500000
#
# Coordination Sequence:
#
# PCOD9104905 Si02
#       7
#     2   2   2   2   2   2   2
#     4  10  21  40  64  85 130 164 205 260 318 370
#     4  10  22  37  63  94 124 162 212 264 320 375
#     4  11  21  40  61  92 127 168 203 266 316 379
#     4  10  21  39  64  90 129 164 206 267 319 376
#     4  11  22  40  62  90 127 169 207 258 322 379
#     4  10  23  42  63  91 120 167 218 258 309 374
#     4  10  20  39  62  95 121 165 215 260 321 379
#
# _framework density 22.057403000000001
#
# number of rings (size 3 to 8) (size 9 to 14) (size 15 to 20)
#    0.000    1.714    4.286    0.000    0.000    3.429 
#    2.571    2.143    0.000    0.000    0.000    0.000 
#    0.000    0.000    0.000    0.000    0.000    0.000 
#
# Total GULP energy -78061.682847 kJ/mol
# GULP energy per Si atom -5575.834489 kJ/mol
# Density = 2.200720 g / cm^3
# Si number density = 22.057403 Si / 1000 Ang^3
#
#
#
# Elastic Constant Matrix: (Units=GPa)
#
#
# Indices 1 2 3 4 5 6 
#
# 1 38.6846 35.9835 23.8113 5.7435 19.8479 -2.5576
# 2 35.9835 87.9415 28.7039 8.4788 19.0329 -1.3486
# 3 23.8113 28.7039 94.9076 3.6158 26.6084 -7.3777
# 4 5.7435 8.4788 3.6158 40.2868 -9.7366 15.5941
# 5 19.8479 19.0329 26.6084 -9.7366 32.5942 1.1320
# 6 -2.5576 -1.3486 -7.3777 15.5941 1.1320 31.7761
#
#
#
# Elastic Compliance Matrix: (Units=1/GPa)
#
#
# Indices 1 2 3 4 5 6 
#
# 1 0.063083 -0.015964 0.001519 -0.021131 -0.037215 0.016448
# 2 -0.015964 0.018630 -0.001437 -0.001624 -0.000469 -0.000014
# 3 0.001519 -0.001437 0.016089 -0.008561 -0.016075 0.008571
# 4 -0.021131 -0.001624 -0.008561 0.049027 0.036461 -0.029116
# 5 -0.037215 -0.000469 -0.016075 0.036461 0.078584 -0.027440
# 6 0.016448 -0.000014 0.008571 -0.029116 -0.027440 0.050050
#
#
# Mechanical properties :
#
#
# Convention : Reuss Voigt Hill
#
# Bulk Modulus (GPa) = 15.14266 44.28123 29.71194
# Shear Modulus (GPa) = 15.18643 29.80043 22.49343
#
# Velocity S-wave (km/s) = 2.62677 3.67964 3.19684
# Velocity P-wave (km/s) = 4.00997 6.17835 5.20826
#
# Compressibility (1/GPa) = 0.06603861
#
# Stress axis : x y z
#
# Youngs Moduli (GPa) = 15.85203 53.67630 62.15251
#
# Poissons Ratio (x) = 0.85688 -0.09439
# Poissons Ratio (y) = 0.25306 0.08931
# Poissons Ratio (z) = -0.02407 0.07713
#
# Static dielectric constant tensor:
#      x y z
#    x 1.839250 0.025010 -0.006890 
#    y 0.025010 1.862550 0.024010 
#    z -0.006890 0.024010 1.922390 
# 
# From -- ./inp_files/215476.got.cif
#   From: 2010.05.17/outbox.cif.g08.bks.cpg/sg2_108_cif.got.tgz:215476.got - 2010.06.03 11:33:40.
