data_PCOD9104027
_publ_section_title
;
Structure prediction by ZEFSAII (Michael W. Deem and Ramdas Pophale) SiO2 
 PCOD9104027
Probable space group: P -1
;
_chemical_formula_sum "Si O2"
_cell_formula_units_Z 13
_cell_length_a 10.971832
_cell_length_b 8.693372
_cell_length_c 8.810011
_cell_angle_alpha 118.151143
_cell_angle_beta 140.133985
_cell_angle_gamma 66.956976
_cell_volume 474.283240
_symmetry_space_group_name_H-M "P -1"
_symmetry_group_IT_number 2
_symmetry_cell_setting 'triclinic'
loop_
_space_group_symop_operation_xyz
x,y,z
-x,-y,-z
loop_
_atom_site_type_symbol
_atom_site_label
_atom_site_fract_x
_atom_site_fract_y
_atom_site_fract_z
Si Si1 0.708924 0.168969 0.473323
Si Si2 0.254086 0.679565 0.963124
Si Si3 0.570880 0.420487 0.223751
Si Si4 0.357109 0.058474 0.257505
Si Si5 0.202806 0.198729 0.747035
Si Si6 0.954578 0.701851 0.021643
Si Si7 0.000000 0.500000 0.500000
O O1 0.681784 0.350462 0.442076
O O2 0.501163 0.118466 0.296951
O O3 0.846225 0.202789 0.761671
O O4 0.786922 0.006765 0.373067
O O5 0.277905 0.577391 0.769777
O O6 0.061808 0.589426 0.770767
O O7 0.440229 0.598244 0.189527
O O8 0.255994 0.882349 0.036372
O O9 0.414629 0.276910 0.971648
O O10 0.500000 0.000000 0.500000
O O11 0.203880 0.216559 0.204999
O O12 0.124389 0.232238 0.856528
O O13 0.078540 0.302609 0.549904
O O14 0.000000 0.500000 0.000000
#
# Coordination Sequence:
#
# PCOD9104027 Si02
#       7
#     2   2   2   2   2   2   1
#     4  12  24  45  79 101 143 189 243 303 362 422
#     4  10  21  40  66 109 141 180 233 293 363 420
#     4  10  20  38  73 102 135 178 232 298 355 419
#     4  12  28  48  72 104 148 195 244 297 360 434
#     4  11  21  43  72 108 139 181 242 298 359 422
#     4  12  29  46  70 108 147 191 242 295 364 438
#     4  10  22  36  70 106 146 176 228 308 354 420
#
# _framework density 27.409783000000001
#
# number of rings (size 3 to 8) (size 9 to 14) (size 15 to 20)
#    0.000    0.923    3.077    3.692    2.154    4.923 
#    0.000    0.000    0.000    0.000    0.000    0.000 
#    0.000    0.000    0.000    0.000    0.000    0.000 
#
# Total GULP energy -72689.185215 kJ/mol
# GULP energy per Si atom -5591.475786 kJ/mol
# Density = 2.734740 g / cm^3
# Si number density = 27.409783 Si / 1000 Ang^3
#
#
#
# Elastic Constant Matrix: (Units=GPa)
#
#
# Indices 1 2 3 4 5 6 
#
# 1 83.5508 51.4562 -8.6778 -6.0648 14.3900 -6.9496
# 2 51.4562 209.0523 60.2528 -18.3538 13.3651 -17.5581
# 3 -8.6778 60.2528 123.8498 -17.6148 30.1347 -4.6026
# 4 -6.0648 -18.3538 -17.6148 68.6399 11.3143 0.4303
# 5 14.3900 13.3651 30.1347 11.3143 27.9701 -7.7576
# 6 -6.9496 -17.5581 -4.6026 0.4303 -7.7576 49.6395
#
#
#
# Elastic Compliance Matrix: (Units=1/GPa)
#
#
# Indices 1 2 3 4 5 6 
#
# 1 0.021697 -0.006684 0.011459 0.006990 -0.023704 -0.002029
# 2 -0.006684 0.007824 -0.006247 -0.001382 0.007672 0.002464
# 3 0.011459 -0.006247 0.020336 0.009461 -0.029598 -0.003427
# 4 0.006990 -0.001382 0.009461 0.020923 -0.022228 -0.002288
# 5 -0.023704 0.007672 -0.029598 -0.022228 0.088105 0.010613
# 6 -0.002029 0.002464 -0.003427 -0.002288 0.010613 0.022093
#
#
# Mechanical properties :
#
#
# Convention : Reuss Voigt Hill
#
# Bulk Modulus (GPa) = 21.31628 69.16835 45.24232
# Shear Modulus (GPa) = 25.05504 50.14468 37.59986
#
# Velocity S-wave (km/s) = 3.02667 4.28184 3.70776
# Velocity P-wave (km/s) = 4.47304 7.05232 5.90522
#
# Compressibility (1/GPa) = 0.04691250
#
# Stress axis : x y z
#
# Youngs Moduli (GPa) = 46.08984 127.80765 49.17365
#
# Poissons Ratio (x) = 0.85430 -0.56346
# Poissons Ratio (y) = 0.30808 0.30717
# Poissons Ratio (z) = -0.52813 0.79837
#
# Static dielectric constant tensor:
#      x y z
#    x 1.142330 -0.169420 -1.207640 
#    y -0.169420 2.030960 -0.138510 
#    z -1.207640 -0.138510 0.966680 
# 
# From -- ./inp_files/173889.got.cif
#   From: 2010.05.17/outbox.cif.g08.bks.cpg/sg2_87_cif.got.tgz:173889.got - 2010.06.03 11:33:40.
