data_PCOD9104355
_publ_section_title
;
Structure prediction by ZEFSAII (Michael W. Deem and Ramdas Pophale) SiO2 
 PCOD9104355
Probable space group: P -1
;
_chemical_formula_sum "Si O2"
_cell_formula_units_Z 14
_cell_length_a 12.557439
_cell_length_b 29.384807
_cell_length_c 30.398638
_cell_angle_alpha 170.313471
_cell_angle_beta 20.713156
_cell_angle_gamma 161.135178
_cell_volume 609.568378
_symmetry_space_group_name_H-M "P -1"
_symmetry_group_IT_number 2
_symmetry_cell_setting 'triclinic'
loop_
_space_group_symop_operation_xyz
x,y,z
-x,-y,-z
loop_
_atom_site_type_symbol
_atom_site_label
_atom_site_fract_x
_atom_site_fract_y
_atom_site_fract_z
Si Si1 0.518205 0.395988 0.328220
Si Si2 0.219436 0.651147 0.983219
Si Si3 0.535515 0.837010 0.188127
Si Si4 0.871173 0.314188 0.198035
Si Si5 0.057349 0.667340 0.965725
Si Si6 0.646319 0.871406 0.538495
Si Si7 0.616696 0.891162 0.306293
O O1 0.768643 0.442936 0.316777
O O2 0.273825 0.553330 0.581091
O O3 0.738465 0.481567 0.281208
O O4 0.320373 0.042018 0.065750
O O5 0.232857 0.772059 0.043933
O O6 0.426728 0.457197 0.729688
O O7 0.840479 0.408523 0.902983
O O8 0.310043 0.914449 0.233270
O O9 0.625434 0.001455 0.357683
O O10 0.584712 0.073842 0.356254
O O11 0.759181 0.657275 0.921589
O O12 0.685353 0.428224 0.889492
O O13 0.970580 0.888924 0.179067
O O14 0.000000 0.000000 0.500000
O O15 0.500000 0.000000 0.500000
#
# Coordination Sequence:
#
# PCOD9104355 Si02
#       7
#     2   2   2   2   2   2   2
#     4  10  22  38  56  82 118 155 196 231 284 348
#     4  10  23  37  61  88 117 154 191 241 299 344
#     4  10  20  39  60  88 121 150 196 246 288 350
#     4  10  22  37  57  84 113 158 194 236 283 339
#     4  10  22  38  56  86 122 153 191 240 297 358
#     4  10  21  38  57  88 117 153 195 238 293 345
#     4  10  22  35  58  92 117 153 188 239 307 355
#
# _framework density 22.967072999999999
#
# number of rings (size 3 to 8) (size 9 to 14) (size 15 to 20)
#    0.000    2.000    1.429    1.714    8.000    4.571 
#    2.571    0.000    0.000    5.143    0.000    0.000 
#    0.000    0.000    0.000    0.000    0.000    0.000 
#
# Total GULP energy -78169.785840 kJ/mol
# GULP energy per Si atom -5583.556131 kJ/mol
# Density = 2.291480 g / cm^3
# Si number density = 22.967073 Si / 1000 Ang^3
#
#
#
# Elastic Constant Matrix: (Units=GPa)
#
#
# Indices 1 2 3 4 5 6 
#
# 1 159.5597 17.5853 63.5112 -23.9627 16.6737 -0.0856
# 2 17.5853 34.0166 18.8912 -16.5139 -3.2732 3.2163
# 3 63.5112 18.8912 153.5513 -23.5951 11.7350 5.2498
# 4 -23.9627 -16.5139 -23.5951 38.5492 -1.1764 -1.4462
# 5 16.6737 -3.2732 11.7350 -1.1764 36.7557 -4.8828
# 6 -0.0856 3.2163 5.2498 -1.4462 -4.8828 11.6249
#
#
#
# Elastic Compliance Matrix: (Units=1/GPa)
#
#
# Indices 1 2 3 4 5 6 
#
# 1 0.008193 -0.001877 -0.002558 0.002668 -0.002867 0.000863
# 2 -0.001877 0.039538 -0.002007 0.014448 0.004639 -0.006301
# 3 -0.002558 -0.002007 0.008508 0.002545 -0.002171 -0.003901
# 4 0.002668 0.014448 0.002545 0.035333 0.000315 -0.000599
# 5 -0.002867 0.004639 -0.002171 0.000315 0.031334 0.012877
# 6 0.000863 -0.006301 -0.003901 -0.000599 0.012877 0.094868
#
#
# Mechanical properties :
#
#
# Convention : Reuss Voigt Hill
#
# Bulk Modulus (GPa) = 23.06560 60.78922 41.92741
# Shear Modulus (GPa) = 20.39895 33.86196 27.13045
#
# Velocity S-wave (km/s) = 2.98347 3.84392 3.44070
# Velocity P-wave (km/s) = 4.68325 6.79900 5.83777
#
# Compressibility (1/GPa) = 0.04335461
#
# Stress axis : x y z
#
# Youngs Moduli (GPa) = 122.05300 25.29194 117.53759
#
# Poissons Ratio (x) = 0.04747 0.30070
# Poissons Ratio (y) = 0.22910 0.23590
# Poissons Ratio (z) = 0.31225 0.05076
#
# Static dielectric constant tensor:
#      x y z
#    x 1.949880 -0.107150 -0.058980 
#    y -0.107150 2.026710 0.083330 
#    z -0.058980 0.083330 1.937460 
# 
# From -- ./inp_files/93544.got.cif
#   From: 2010.05.17/outbox.cif.g08.bks.cpg/sg2_47_cif.got.tgz:93544.got - 2010.06.03 11:33:40.
