data_PCOD9104517
_publ_section_title
;
Structure prediction by ZEFSAII (Michael W. Deem and Ramdas Pophale) SiO2 
 PCOD9104517
Probable space group: P -1
;
_chemical_formula_sum "Si O2"
_cell_formula_units_Z 14
_cell_length_a 8.814049
_cell_length_b 23.869221
_cell_length_c 12.646642
_cell_angle_alpha 150.565716
_cell_angle_beta 30.946731
_cell_angle_gamma 145.144924
_cell_volume 643.180810
_symmetry_space_group_name_H-M "P -1"
_symmetry_group_IT_number 2
_symmetry_cell_setting 'triclinic'
loop_
_space_group_symop_operation_xyz
x,y,z
-x,-y,-z
loop_
_atom_site_type_symbol
_atom_site_label
_atom_site_fract_x
_atom_site_fract_y
_atom_site_fract_z
Si Si1 0.255312 0.626292 0.572843
Si Si2 0.367982 0.332499 0.255453
Si Si3 0.776207 0.874210 0.387162
Si Si4 0.710140 0.000826 0.101523
Si Si5 0.733261 0.556983 0.289233
Si Si6 0.946071 0.169471 0.072259
Si Si7 0.826616 0.248256 0.958704
O O1 0.592863 0.609936 0.361293
O O2 0.234952 0.733298 0.683724
O O3 0.175215 0.668899 0.804828
O O4 0.000000 0.500000 0.500000
O O5 0.448088 0.450643 0.331217
O O6 0.209019 0.353386 0.495882
O O7 0.697681 0.309403 0.041897
O O8 0.170509 0.225925 0.127394
O O9 0.446607 0.895584 0.604956
O O10 0.000000 0.000000 0.500000
O O11 0.882552 0.840803 0.155251
O O12 0.854155 0.783957 0.276631
O O13 0.782251 0.036108 0.993386
O O14 0.451860 0.874543 0.059648
O O15 0.000000 0.000000 0.000000
O O16 0.000000 0.500000 0.000000
#
# Coordination Sequence:
#
# PCOD9104517 Si02
#       7
#     2   2   2   2   2   2   2
#     4  10  20  39  61  87 121 163 198 251 309 358
#     4  10  20  39  61  88 126 162 198 256 314 348
#     4   9  22  40  59  87 123 162 204 252 301 361
#     4  11  22  40  62  93 122 159 210 252 303 370
#     4  10  22  39  62  89 124 161 208 254 302 367
#     4  11  22  39  66  89 122 168 203 251 309 364
#     4   9  20  40  60  86 127 159 200 256 300 360
#
# _framework density 21.766819000000002
#
# number of rings (size 3 to 8) (size 9 to 14) (size 15 to 20)
#    0.000    2.000    2.857    0.000    0.000    8.000 
#    0.000    0.714    0.000    0.000    0.000    0.000 
#    0.000    0.000    0.000    0.000    0.000    0.000 
#
# Total GULP energy -77990.669377 kJ/mol
# GULP energy per Si atom -5570.762098 kJ/mol
# Density = 2.171728 g / cm^3
# Si number density = 21.766819 Si / 1000 Ang^3
#
#
#
# Elastic Constant Matrix: (Units=GPa)
#
#
# Indices 1 2 3 4 5 6 
#
# 1 144.9643 27.4829 72.6928 2.1540 -29.1020 -11.2418
# 2 27.4829 46.9263 7.8595 6.1799 0.5999 -6.7911
# 3 72.6928 7.8595 131.6354 -2.0704 -30.9900 12.1795
# 4 2.1540 6.1799 -2.0704 27.6993 -1.0061 -4.1487
# 5 -29.1020 0.5999 -30.9900 -1.0061 48.6243 15.6359
# 6 -11.2418 -6.7911 12.1795 -4.1487 15.6359 35.7163
#
#
#
# Elastic Compliance Matrix: (Units=1/GPa)
#
#
# Indices 1 2 3 4 5 6 
#
# 1 0.011586 -0.005315 -0.005969 0.000490 0.001961 0.003870
# 2 -0.005315 0.025994 -0.000521 -0.004827 -0.005659 0.005364
# 3 -0.005969 -0.000521 0.013954 0.000366 0.008714 -0.010509
# 4 0.000490 -0.004827 0.000366 0.037682 0.000284 0.003364
# 5 0.001961 -0.005659 0.008714 0.000284 0.033124 -0.017898
# 6 0.003870 0.005364 -0.010509 0.003364 -0.017898 0.042046
#
#
# Mechanical properties :
#
#
# Convention : Reuss Voigt Hill
#
# Bulk Modulus (GPa) = 35.81346 59.95514 47.88430
# Shear Modulus (GPa) = 25.34136 36.77405 31.05770
#
# Velocity S-wave (km/s) = 3.41577 4.11476 3.78145
# Velocity P-wave (km/s) = 5.66088 7.08372 6.41189
#
# Compressibility (1/GPa) = 0.02792246
#
# Stress axis : x y z
#
# Youngs Moduli (GPa) = 86.31304 38.46968 71.66512
#
# Poissons Ratio (x) = 0.20447 0.42780
# Poissons Ratio (y) = 0.45875 0.03737
# Poissons Ratio (z) = 0.51523 0.02006
#
# Static dielectric constant tensor:
#      x y z
#    x 1.813960 -0.041150 -0.049070 
#    y -0.041150 1.877220 -0.008800 
#    z -0.049070 -0.008800 1.829670 
# 
# From -- ./inp_files/131611.got.cif
#   From: 2010.05.17/outbox.cif.g08.bks.cpg/sg2_66_cif.got.tgz:131611.got - 2010.06.03 11:33:40.
