data_PCOD9104942
_publ_section_title
;
Structure prediction by ZEFSAII (Michael W. Deem and Ramdas Pophale) SiO2 
 PCOD9104942
Probable space group: P -1
;
_chemical_formula_sum "Si O2"
_cell_formula_units_Z 16
_cell_length_a 8.239185
_cell_length_b 22.031150
_cell_length_c 11.553532
_cell_angle_alpha 148.773302
_cell_angle_beta 105.133676
_cell_angle_gamma 55.711231
_cell_volume 769.891035
_symmetry_space_group_name_H-M "P -1"
_symmetry_group_IT_number 2
_symmetry_cell_setting 'triclinic'
loop_
_space_group_symop_operation_xyz
x,y,z
-x,-y,-z
loop_
_atom_site_type_symbol
_atom_site_label
_atom_site_fract_x
_atom_site_fract_y
_atom_site_fract_z
Si Si1 0.713718 0.154328 0.087008
Si Si2 0.712902 0.546371 0.958570
Si Si3 0.970698 0.953608 0.239378
Si Si4 0.782220 0.638801 0.615075
Si Si5 0.830136 0.250215 0.826297
Si Si6 0.722870 0.911377 0.973697
Si Si7 0.908592 0.479471 0.132305
Si Si8 0.021371 0.807245 0.644474
O O1 0.447384 0.305020 0.284156
O O2 0.803695 0.173565 0.253034
O O3 0.826010 0.147714 0.980716
O O4 0.808283 0.975949 0.821602
O O5 0.857347 0.356633 0.663837
O O6 0.844881 0.580035 0.956929
O O7 0.446111 0.642687 0.040386
O O8 0.750869 0.568878 0.134764
O O9 0.044156 0.839147 0.174818
O O10 0.923596 0.106567 0.522729
O O11 0.752408 0.011801 0.220449
O O12 0.746878 0.793086 0.870854
O O13 0.813531 0.591793 0.409857
O O14 0.000000 0.500000 0.500000
O O15 0.894669 0.349015 0.953974
O O16 0.927149 0.806813 0.748655
O O17 0.500000 0.000000 0.000000
#
# Coordination Sequence:
#
# PCOD9104942 Si02
#       8
#     2   2   2   2   2   2   2   2
#     4  10  22  39  68  95 132 178 226 283 340 408
#     4  11  24  41  71  98 138 180 227 291 339 415
#     4  10  25  44  66  97 134 182 232 279 352 412
#     4  12  25  41  66 101 139 178 223 288 348 409
#     4  11  24  47  67  97 142 181 227 288 346 420
#     4  11  22  40  67  94 138 175 227 286 337 406
#     4  11  25  42  66 103 134 177 235 275 349 412
#     4  10  20  39  63 100 127 172 229 278 336 403
#
# _framework density 20.782162
#
# number of rings (size 3 to 8) (size 9 to 14) (size 15 to 20)
#    0.000    1.250    2.500    2.625    3.500    0.000 
#    2.250    4.375    0.000    0.000    0.000    0.000 
#    0.000    0.000    0.000    0.000    0.000    0.000 
#
# Total GULP energy -89272.166095 kJ/mol
# GULP energy per Si atom -5579.510381 kJ/mol
# Density = 2.073486 g / cm^3
# Si number density = 20.782162 Si / 1000 Ang^3
#
#
#
# Elastic Constant Matrix: (Units=GPa)
#
#
# Indices 1 2 3 4 5 6 
#
# 1 117.0317 45.9818 49.8147 7.3409 0.4758 -0.9622
# 2 45.9818 77.8155 48.4546 -3.0336 -3.6405 -17.0792
# 3 49.8147 48.4546 88.6571 -11.0050 -6.3176 -9.7561
# 4 7.3409 -3.0336 -11.0050 40.3590 -0.4610 -5.3330
# 5 0.4758 -3.6405 -6.3176 -0.4610 31.2487 7.3341
# 6 -0.9622 -17.0792 -9.7561 -5.3330 7.3341 32.0530
#
#
#
# Elastic Compliance Matrix: (Units=1/GPa)
#
#
# Indices 1 2 3 4 5 6 
#
# 1 0.013532 -0.005808 -0.005688 -0.005128 -0.000920 -0.005063
# 2 -0.005808 0.023912 -0.008493 0.001924 -0.001302 0.010600
# 3 -0.005688 -0.008493 0.020296 0.006209 0.002855 0.001861
# 4 -0.005128 0.001924 0.006209 0.028536 0.000228 0.007457
# 5 -0.000920 -0.001302 0.002855 0.000228 0.034239 -0.007649
# 6 -0.005063 0.010600 0.001861 0.007457 -0.007649 0.040252
#
#
# Mechanical properties :
#
#
# Convention : Reuss Voigt Hill
#
# Bulk Modulus (GPa) = 56.30140 63.55628 59.92884
# Shear Modulus (GPa) = 24.19365 30.01570 27.10467
#
# Velocity S-wave (km/s) = 3.41567 3.80452 3.61533
# Velocity P-wave (km/s) = 6.53497 7.06737 6.80637
#
# Compressibility (1/GPa) = 0.01776155
#
# Stress axis : x y z
#
# Youngs Moduli (GPa) = 73.90077 41.81987 49.27056
#
# Poissons Ratio (x) = 0.24290 0.28025
# Poissons Ratio (y) = 0.42924 0.41845
# Poissons Ratio (z) = 0.42035 0.35517
#
# Static dielectric constant tensor:
#      x y z
#    x 1.810560 -0.012440 0.024500 
#    y -0.012440 1.736670 -0.003580 
#    z 0.024500 -0.003580 1.720720 
# 
# From -- ./inp_files/406787.got.cif
#   From: 2010.05.17/outbox.cif.g08.bks.cpg/sg2_204_cif.got.tgz:406787.got - 2010.06.03 11:33:40.
