data_PCOD9104178
_publ_section_title
;
Structure prediction by ZEFSAII (Michael W. Deem and Ramdas Pophale) SiO2 
 PCOD9104178
Probable space group: P -1
;
_chemical_formula_sum "Si O2"
_cell_formula_units_Z 16
_cell_length_a 11.081599
_cell_length_b 11.588799
_cell_length_c 9.339516
_cell_angle_alpha 125.636711
_cell_angle_beta 124.992303
_cell_angle_gamma 57.015249
_cell_volume 757.697865
_symmetry_space_group_name_H-M "P -1"
_symmetry_group_IT_number 2
_symmetry_cell_setting 'triclinic'
loop_
_space_group_symop_operation_xyz
x,y,z
-x,-y,-z
loop_
_atom_site_type_symbol
_atom_site_label
_atom_site_fract_x
_atom_site_fract_y
_atom_site_fract_z
Si Si1 0.151770 0.323411 0.602435
Si Si2 0.810748 0.397127 0.316186
Si Si3 0.608643 0.344650 0.396272
Si Si4 0.336736 0.058760 0.351898
Si Si5 0.856000 0.107695 0.571897
Si Si6 0.599381 0.869227 0.847189
Si Si7 0.696015 0.877405 0.201779
Si Si8 0.134763 0.864504 0.063622
O O1 0.221499 0.440853 0.659810
O O2 0.207776 0.169128 0.442480
O O3 0.227233 0.275506 0.774473
O O4 0.965844 0.376852 0.503257
O O5 0.678329 0.371452 0.309644
O O6 0.850237 0.281249 0.126185
O O7 0.500000 0.500000 0.500000
O O8 0.759884 0.259746 0.534934
O O9 0.499715 0.237274 0.248834
O O10 0.339289 0.162133 0.292741
O O11 0.500000 0.000000 0.500000
O O12 0.287138 0.914174 0.179729
O O13 0.887432 0.139152 0.781313
O O14 0.744043 0.005558 0.408169
O O15 0.000000 0.000000 0.500000
O O16 0.488863 0.042069 0.878295
O O17 0.733752 0.859903 0.046524
O O18 0.000000 0.000000 0.000000
#
# Coordination Sequence:
#
# PCOD9104178 Si02
#       8
#     2   2   2   2   2   2   2   2
#     4  11  22  45  65  96 138 179 228 275 359 404
#     4  11  26  42  69  98 138 185 227 290 341 423
#     4  11  24  46  65  97 140 183 229 282 361 413
#     4  12  22  41  69  98 140 179 227 284 339 414
#     4  11  23  41  70  97 136 175 227 288 343 414
#     4  10  23  36  65  94 128 174 227 275 337 406
#     4  10  20  39  58  94 124 172 222 272 331 401
#     4  12  24  42  67 108 136 177 245 286 346 417
#
# _framework density 21.116596000000001
#
# number of rings (size 3 to 8) (size 9 to 14) (size 15 to 20)
#    0.000    1.000    3.750    3.000    7.000    1.000 
#    0.000    1.875    0.000    5.250    0.000    0.000 
#    0.000    0.000    0.000    0.000    0.000    0.000 
#
# Total GULP energy -89196.755392 kJ/mol
# GULP energy per Si atom -5574.797212 kJ/mol
# Density = 2.106853 g / cm^3
# Si number density = 21.116596 Si / 1000 Ang^3
#
#
#
# Elastic Constant Matrix: (Units=GPa)
#
#
# Indices 1 2 3 4 5 6 
#
# 1 72.4569 24.1194 26.4455 -9.6026 -16.6079 16.4835
# 2 24.1194 132.4927 53.2405 -17.4372 -12.8995 7.6442
# 3 26.4455 53.2405 111.5663 -17.2984 -19.8325 13.8478
# 4 -9.6026 -17.4372 -17.2984 41.8055 4.4953 -4.1008
# 5 -16.6079 -12.8995 -19.8325 4.4953 31.6221 0.5316
# 6 16.4835 7.6442 13.8478 -4.1008 0.5316 32.6423
#
#
#
# Elastic Compliance Matrix: (Units=1/GPa)
#
#
# Indices 1 2 3 4 5 6 
#
# 1 0.018790 -0.001525 -0.000874 0.001537 0.008626 -0.008708
# 2 -0.001525 0.009688 -0.003924 0.002066 0.000389 0.000419
# 3 -0.000874 -0.003924 0.012943 0.002515 0.005766 -0.003909
# 4 0.001537 0.002066 0.002515 0.026330 -0.000533 0.000990
# 5 0.008626 0.000389 0.005766 -0.000533 0.040133 -0.007614
# 6 -0.008708 0.000419 -0.003909 0.000990 -0.007614 0.036841
#
#
# Mechanical properties :
#
#
# Convention : Reuss Voigt Hill
#
# Bulk Modulus (GPa) = 34.75231 58.23632 46.49431
# Shear Modulus (GPa) = 29.94711 35.39467 32.67089
#
# Velocity S-wave (km/s) = 3.76996 4.09853 3.93767
# Velocity P-wave (km/s) = 5.95342 7.07358 6.53754
#
# Compressibility (1/GPa) = 0.02877507
#
# Stress axis : x y z
#
# Youngs Moduli (GPa) = 53.22059 103.22429 77.26142
#
# Poissons Ratio (x) = 0.15742 0.06749
# Poissons Ratio (y) = 0.08116 0.30318
# Poissons Ratio (z) = 0.04649 0.40506
#
# Static dielectric constant tensor:
#      x y z
#    x 2.010950 -0.048970 -0.001440 
#    y -0.048970 1.784300 -0.091200 
#    z -0.001440 -0.091200 1.973770 
# 
# From -- ./inp_files/260735.got.cif
#   From: 2010.05.17/outbox.cif.g08.bks.cpg/sg2_131_cif.got.tgz:260735.got - 2010.06.03 11:33:40.
