data_PCOD9104021
_publ_section_title
;
Structure prediction by ZEFSAII (Michael W. Deem and Ramdas Pophale) SiO2 
 PCOD9104021
Probable space group: P -1
;
_chemical_formula_sum "Si O2"
_cell_formula_units_Z 15
_cell_length_a 14.385065
_cell_length_b 11.894456
_cell_length_c 10.050062
_cell_angle_alpha 58.928341
_cell_angle_beta 41.023660
_cell_angle_gamma 30.814241
_cell_volume 531.885730
_symmetry_space_group_name_H-M "P -1"
_symmetry_group_IT_number 2
_symmetry_cell_setting 'triclinic'
loop_
_space_group_symop_operation_xyz
x,y,z
-x,-y,-z
loop_
_atom_site_type_symbol
_atom_site_label
_atom_site_fract_x
_atom_site_fract_y
_atom_site_fract_z
Si Si1 0.783625 0.637526 0.400212
Si Si2 0.444266 0.946114 0.320110
Si Si3 0.067377 0.024543 0.066442
Si Si4 0.473934 0.837496 0.889322
Si Si5 0.060634 0.664730 0.204521
Si Si6 0.141812 0.716987 0.496706
Si Si7 0.683665 0.206814 0.563831
Si Si8 0.500000 0.500000 0.000000
O O1 0.615316 0.750797 0.647009
O O2 0.990993 0.586514 0.246644
O O3 0.884526 0.417718 0.384151
O O4 0.606555 0.819959 0.358264
O O5 0.492958 0.050753 0.139426
O O6 0.142712 0.177740 0.549958
O O7 0.508236 0.762500 0.284879
O O8 0.180257 0.034168 0.052993
O O9 0.997994 0.168812 0.929346
O O10 0.312628 0.741579 0.958666
O O11 0.829122 0.130332 0.317255
O O12 0.640503 0.582780 0.919650
O O13 0.330683 0.638639 0.448467
O O14 0.262283 0.662997 0.258622
O O15 0.859543 0.999049 0.612699
#
# Coordination Sequence:
#
# PCOD9104021 Si02
#       8
#     2   2   2   2   2   2   2   1
#     4  11  19  38  65  93 126 171 226 282 315 384
#     4  11  20  37  62  94 130 176 220 272 332 385
#     4  11  22  42  60 102 129 171 216 279 317 386
#     4  11  20  38  66  95 127 171 229 274 322 377
#     4  11  21  36  65  97 129 173 228 271 324 382
#     4  10  20  41  64  93 128 174 212 268 329 389
#     4  10  24  39  61  92 138 171 209 267 340 394
#     4  10  20  38  72  92 130 164 216 270 314 382
#
# _framework density 28.201547999999999
#
# number of rings (size 3 to 8) (size 9 to 14) (size 15 to 20)
#    0.000    1.333    4.000    4.000    1.867    1.067 
#    4.800    0.667    0.000    8.000    0.000    0.000 
#    0.000    0.000    0.000    0.000    0.000    0.000 
#
# Total GULP energy -83884.231649 kJ/mol
# GULP energy per Si atom -5592.282110 kJ/mol
# Density = 2.813736 g / cm^3
# Si number density = 28.201548 Si / 1000 Ang^3
#
#
#
# Elastic Constant Matrix: (Units=GPa)
#
#
# Indices 1 2 3 4 5 6 
#
# 1 154.9026 40.3715 13.0435 -6.6312 -14.9585 15.3984
# 2 40.3715 159.0452 18.1922 -33.7988 -13.4996 -3.5300
# 3 13.0435 18.1922 62.5011 -13.7268 -8.9395 1.0458
# 4 -6.6312 -33.7988 -13.7268 42.5510 2.9983 -8.7918
# 5 -14.9585 -13.4996 -8.9395 2.9983 34.9785 -5.5246
# 6 15.3984 -3.5300 1.0458 -8.7918 -5.5246 62.7765
#
#
#
# Elastic Compliance Matrix: (Units=1/GPa)
#
#
# Indices 1 2 3 4 5 6 
#
# 1 0.007354 -0.001885 -0.000930 -0.001180 0.001983 -0.001885
# 2 -0.001885 0.008425 -0.000350 0.006559 0.002117 0.002047
# 3 -0.000930 -0.000350 0.017985 0.005317 0.003764 0.000985
# 4 -0.001180 0.006559 0.005317 0.031184 0.001514 0.005070
# 5 0.001983 0.002117 0.003764 0.001514 0.031490 0.002553
# 6 -0.001885 0.002047 0.000985 0.005070 0.002553 0.017425
#
#
# Mechanical properties :
#
#
# Convention : Reuss Voigt Hill
#
# Bulk Modulus (GPa) = 36.44993 57.74035 47.09514
# Shear Modulus (GPa) = 38.65897 48.38399 43.52148
#
# Velocity S-wave (km/s) = 3.70646 4.14653 3.93266
# Velocity P-wave (km/s) = 5.59196 6.59118 6.11202
#
# Compressibility (1/GPa) = 0.02743489
#
# Stress axis : x y z
#
# Youngs Moduli (GPa) = 135.98964 118.69544 55.60093
#
# Poissons Ratio (x) = 0.22368 0.05171
# Poissons Ratio (y) = 0.25627 0.01945
# Poissons Ratio (z) = 0.12648 0.04152
#
# Static dielectric constant tensor:
#      x y z
#    x 2.217170 0.043270 -0.008720 
#    y 0.043270 2.182340 0.004480 
#    z -0.008720 0.004480 2.141570 
# 
# From -- ./inp_files/449867.got.cif
#   From: 2010.05.17/outbox.cif.g08.bks.cpg/sg2_225_cif.got.tgz:449867.got - 2010.06.03 11:33:40.
