data_PCOD9104559
_publ_section_title
;
Structure prediction by ZEFSAII (Michael W. Deem and Ramdas Pophale) SiO2 
 PCOD9104559
Probable space group: P -1
;
_chemical_formula_sum "Si O2"
_cell_formula_units_Z 16
_cell_length_a 8.670812
_cell_length_b 19.212455
_cell_length_c 16.707789
_cell_angle_alpha 21.241381
_cell_angle_beta 82.362666
_cell_angle_gamma 71.103001
_cell_volume 830.077204
_symmetry_space_group_name_H-M "P -1"
_symmetry_group_IT_number 2
_symmetry_cell_setting 'triclinic'
loop_
_space_group_symop_operation_xyz
x,y,z
-x,-y,-z
loop_
_atom_site_type_symbol
_atom_site_label
_atom_site_fract_x
_atom_site_fract_y
_atom_site_fract_z
Si Si1 0.801305 0.181825 0.776037
Si Si2 0.597268 0.992512 0.416443
Si Si3 0.589476 0.030127 0.042137
Si Si4 0.000327 0.570587 0.515980
Si Si5 0.305858 0.745131 0.765312
Si Si6 0.080868 0.526651 0.048030
Si Si7 0.758106 0.919028 0.912582
Si Si8 0.744863 0.918449 0.735828
O O1 0.836764 0.379543 0.541421
O O2 0.773401 0.072598 0.815176
O O3 0.645064 0.209949 0.819357
O O4 0.000000 0.000000 0.000000
O O5 0.752599 0.729904 0.665192
O O6 0.500000 0.000000 0.500000
O O7 0.681908 0.137554 0.280274
O O8 0.436443 0.090052 0.257570
O O9 0.429222 0.081223 0.060684
O O10 0.790439 0.796412 0.302023
O O11 0.500000 0.000000 0.000000
O O12 0.000000 0.500000 0.500000
O O13 0.065155 0.344400 0.805442
O O14 0.266154 0.909553 0.516095
O O15 0.500000 0.500000 0.000000
O O16 0.154616 0.685963 0.850756
O O17 0.000000 0.500000 0.000000
O O18 0.922446 0.663512 0.977899
O O19 0.752846 0.998018 0.738200
#
# Coordination Sequence:
#
# PCOD9104559 Si02
#       8
#     2   2   2   2   2   2   2   2
#     4   9  18  37  63  89 113 159 206 236 281 369
#     4  10  20  39  61  89 118 152 202 251 294 374
#     4   9  18  36  62  85 114 158 199 238 285 361
#     4  11  19  37  65  87 117 162 205 241 290 361
#     4  11  20  40  66  86 116 162 209 246 303 371
#     4  12  21  39  67  89 114 163 212 243 303 373
#     4  11  23  41  55  91 130 149 197 260 306 342
#     4  11  24  40  60  92 125 155 201 266 308 354
#
# _framework density 19.275314999999999
#
# number of rings (size 3 to 8) (size 9 to 14) (size 15 to 20)
#    0.000    1.500    8.750    0.375    0.000    1.500 
#    4.500    2.500    0.000    0.000    0.000    0.000 
#    0.000    0.000    0.000    0.000    0.000    0.000 
#
# Total GULP energy -89160.326964 kJ/mol
# GULP energy per Si atom -5572.520435 kJ/mol
# Density = 1.923144 g / cm^3
# Si number density = 19.275315 Si / 1000 Ang^3
#
#
#
# Elastic Constant Matrix: (Units=GPa)
#
#
# Indices 1 2 3 4 5 6 
#
# 1 116.4933 35.2169 33.8667 -7.6364 -4.5049 19.1927
# 2 35.2169 90.8161 24.0521 -4.3426 2.4353 14.8801
# 3 33.8667 24.0521 86.3787 -10.3678 5.4388 0.7118
# 4 -7.6364 -4.3426 -10.3678 17.8043 4.9636 2.1031
# 5 -4.5049 2.4353 5.4388 4.9636 37.8249 -18.2868
# 6 19.1927 14.8801 0.7118 2.1031 -18.2868 22.2079
#
#
#
# Elastic Compliance Matrix: (Units=1/GPa)
#
#
# Indices 1 2 3 4 5 6 
#
# 1 0.012792 -0.000741 -0.003333 0.007373 -0.007157 -0.017043
# 2 -0.000741 0.015910 -0.002301 0.007846 -0.011595 -0.020237
# 3 -0.003333 -0.002301 0.014553 0.007156 -0.002817 0.000959
# 4 0.007373 0.007846 0.007156 0.080619 -0.034324 -0.047757
# 5 -0.007157 -0.011595 -0.002817 -0.034324 0.065796 0.071474
# 6 -0.017043 -0.020237 0.000959 -0.047757 0.071474 0.136664
#
#
# Mechanical properties :
#
#
# Convention : Reuss Voigt Hill
#
# Bulk Modulus (GPa) = 32.78174 53.32883 43.05529
# Shear Modulus (GPa) = 14.31638 28.93760 21.62699
#
# Velocity S-wave (km/s) = 2.72827 3.87884 3.35327
# Velocity P-wave (km/s) = 5.19313 6.91285 6.11376
#
# Compressibility (1/GPa) = 0.03050478
#
# Stress axis : x y z
#
# Youngs Moduli (GPa) = 78.17683 62.85408 68.71557
#
# Poissons Ratio (x) = 0.04655 0.22902
# Poissons Ratio (y) = 0.05790 0.15812
# Poissons Ratio (z) = 0.26056 0.14464
#
# Static dielectric constant tensor:
#      x y z
#    x 1.737920 -0.006650 -0.007410 
#    y -0.006650 1.658130 0.002030 
#    z -0.007410 0.002030 1.749470 
# 
# From -- ./inp_files/562026.got.cif
#   From: 2010.05.17/outbox.cif.g08.bks.cpg/sg2_282_cif.got.tgz:562026.got - 2010.06.03 11:33:40.
