data_PCOD9104389
_publ_section_title
;
Structure prediction by ZEFSAII (Michael W. Deem and Ramdas Pophale) SiO2 
 PCOD9104389
Probable space group: P -1
;
_chemical_formula_sum "Si O2"
_cell_formula_units_Z 15
_cell_length_a 12.451781
_cell_length_b 6.314543
_cell_length_c 10.917454
_cell_angle_alpha 63.598235
_cell_angle_beta 104.423295
_cell_angle_gamma 89.396037
_cell_volume 737.326844
_symmetry_space_group_name_H-M "P -1"
_symmetry_group_IT_number 2
_symmetry_cell_setting 'triclinic'
loop_
_space_group_symop_operation_xyz
x,y,z
-x,-y,-z
loop_
_atom_site_type_symbol
_atom_site_label
_atom_site_fract_x
_atom_site_fract_y
_atom_site_fract_z
Si Si1 0.061966 0.196785 0.358904
Si Si2 0.768848 0.643819 0.298826
Si Si3 0.000000 0.500000 0.500000
Si Si4 0.426067 0.175519 0.623716
Si Si5 0.345205 0.668349 0.353456
Si Si6 0.121911 0.660894 0.146518
Si Si7 0.280864 0.834677 0.566800
Si Si8 0.932267 0.985557 0.168072
O O1 0.994670 0.353313 0.405005
O O2 0.101709 0.388434 0.226374
O O3 0.985262 0.035403 0.301966
O O4 0.170921 0.031425 0.484574
O O5 0.657014 0.768514 0.299622
O O6 0.738293 0.396704 0.300172
O O7 0.863510 0.556550 0.450142
O O8 0.830677 0.830648 0.192641
O O9 0.394028 0.390977 0.461536
O O10 0.553871 0.187614 0.690449
O O11 0.390215 0.940115 0.615487
O O12 0.243618 0.688616 0.225367
O O13 0.301233 0.760457 0.450458
O O14 0.103135 0.772796 0.978152
O O15 0.030844 0.821391 0.165435
#
# Coordination Sequence:
#
# PCOD9104389 Si02
#       8
#     2   2   1   2   2   2   2   2
#     4  12  22  39  61  93 122 162 198 251 314 361
#     4  11  23  37  53  95 120 160 195 244 306 368
#     4  12  22  36  58  90 128 152 194 254 310 364
#     4  10  21  36  62  89 124 154 196 258 310 354
#     4  10  20  39  60  91 119 157 204 252 303 358
#     4  11  22  43  61  87 119 167 212 244 291 363
#     4  11  20  35  61  89 126 150 196 251 319 355
#     4  11  25  40  61  83 128 167 204 246 290 369
#
# _framework density 20.34376
#
# number of rings (size 3 to 8) (size 9 to 14) (size 15 to 20)
#    0.000    1.067    5.333    2.400    1.867    1.067 
#    0.000    0.667    0.000    0.800    0.000    0.000 
#    0.000    0.000    0.000    0.000    0.000    0.000 
#
# Total GULP energy -83565.118890 kJ/mol
# GULP energy per Si atom -5571.007926 kJ/mol
# Density = 2.029746 g / cm^3
# Si number density = 20.343760 Si / 1000 Ang^3
#
#
#
# Elastic Constant Matrix: (Units=GPa)
#
#
# Indices 1 2 3 4 5 6 
#
# 1 123.7967 11.7863 26.5703 -1.4013 -10.5448 21.5580
# 2 11.7863 46.6251 7.1748 -5.8539 -14.7146 17.8573
# 3 26.5703 7.1748 62.1242 -13.5179 -10.0357 16.1762
# 4 -1.4013 -5.8539 -13.5179 23.9306 4.8630 -7.3824
# 5 -10.5448 -14.7146 -10.0357 4.8630 19.4116 -3.7212
# 6 21.5580 17.8573 16.1762 -7.3824 -3.7212 39.7864
#
#
#
# Elastic Compliance Matrix: (Units=1/GPa)
#
#
# Indices 1 2 3 4 5 6 
#
# 1 0.009794 0.000641 -0.003124 -0.003278 0.004141 -0.004546
# 2 0.000641 0.034542 0.003934 0.000938 0.025476 -0.014894
# 3 -0.003124 0.003934 0.022205 0.009461 0.009151 -0.006490
# 4 -0.003278 0.000938 0.009461 0.050638 -0.007679 0.006187
# 5 0.004141 0.025476 0.009151 -0.007679 0.077513 -0.011574
# 6 -0.004546 -0.014894 -0.006490 0.006187 -0.011574 0.036986
#
#
# Mechanical properties :
#
#
# Convention : Reuss Voigt Hill
#
# Bulk Modulus (GPa) = 14.39988 35.95655 25.17821
# Shear Modulus (GPa) = 19.84725 29.09337 24.47031
#
# Velocity S-wave (km/s) = 3.12684 3.78575 3.47196
# Velocity P-wave (km/s) = 4.48662 6.06812 5.33629
#
# Compressibility (1/GPa) = 0.06944502
#
# Stress axis : x y z
#
# Youngs Moduli (GPa) = 102.09927 28.95003 45.03440
#
# Poissons Ratio (x) = -0.01856 0.14067
# Poissons Ratio (y) = -0.06546 -0.17717
# Poissons Ratio (z) = 0.31893 -0.11389
#
# Static dielectric constant tensor:
#      x y z
#    x 1.754820 0.023780 -0.020920 
#    y 0.023780 1.799040 -0.052380 
#    z -0.020920 -0.052380 1.782930 
# 
# From -- ./inp_files/409885.got.cif
#   From: 2010.05.17/outbox.cif.g08.bks.cpg/sg2_205_cif.got.tgz:409885.got - 2010.06.03 11:33:40.
