data_PCOD9104915
_publ_section_title
;
Structure prediction by ZEFSAII (Michael W. Deem and Ramdas Pophale) SiO2 
 PCOD9104915
Probable space group: P -1
;
_chemical_formula_sum "Si O2"
_cell_formula_units_Z 16
_cell_length_a 13.838686
_cell_length_b 8.038539
_cell_length_c 24.652202
_cell_angle_alpha 133.819176
_cell_angle_beta 22.856276
_cell_angle_gamma 122.851050
_cell_volume 722.509338
_symmetry_space_group_name_H-M "P -1"
_symmetry_group_IT_number 2
_symmetry_cell_setting 'triclinic'
loop_
_space_group_symop_operation_xyz
x,y,z
-x,-y,-z
loop_
_atom_site_type_symbol
_atom_site_label
_atom_site_fract_x
_atom_site_fract_y
_atom_site_fract_z
Si Si1 0.552277 0.217619 0.086383
Si Si2 0.236422 0.821116 0.262406
Si Si3 0.695089 0.511670 0.355673
Si Si4 0.228664 0.050617 0.982920
Si Si5 0.500904 0.441997 0.322197
Si Si6 0.947182 0.352105 0.572202
Si Si7 0.646597 0.044843 0.487848
Si Si8 0.774272 0.140122 0.844906
O O1 0.295867 0.447392 0.286874
O O2 0.425232 0.008561 0.093095
O O3 0.681879 0.288899 0.981938
O O4 0.755926 0.090844 0.999565
O O5 0.156504 0.673380 0.318710
O O6 0.229323 0.739160 0.185116
O O7 0.521018 0.854258 0.130672
O O8 0.025041 0.095447 0.441986
O O9 0.500000 0.500000 0.500000
O O10 0.549994 0.499761 0.371633
O O11 0.966772 0.283154 0.164767
O O12 0.722024 0.775380 0.413269
O O13 0.282822 0.820429 0.862604
O O14 0.511848 0.692173 0.344352
O O15 0.217536 0.411666 0.451082
O O16 0.500000 0.000000 0.500000
O O17 0.940633 0.051920 0.330006
#
# Coordination Sequence:
#
# PCOD9104915 Si02
#       8
#     2   2   2   2   2   2   2   2
#     4  10  22  36  64  92 126 160 206 264 305 387
#     4   9  22  37  62  96 127 163 203 263 315 379
#     4  11  26  43  65  92 128 167 218 265 311 371
#     4  10  23  43  65  95 128 168 208 260 320 373
#     4  10  22  43  70  89 126 171 212 260 311 377
#     4  10  20  39  62  96 127 160 210 253 321 374
#     4  10  23  41  64  89 123 168 212 262 310 370
#     4  10  21  38  58  89 124 163 204 253 318 367
#
# _framework density 22.145043000000001
#
# number of rings (size 3 to 8) (size 9 to 14) (size 15 to 20)
#    0.000    2.000    1.250    0.375    8.750    3.000 
#    0.000    0.625    0.000    0.000    0.000    0.000 
#    0.000    0.000    0.000    0.000    0.000    0.000 
#
# Total GULP energy -89151.894154 kJ/mol
# GULP energy per Si atom -5571.993385 kJ/mol
# Density = 2.209464 g / cm^3
# Si number density = 22.145043 Si / 1000 Ang^3
#
#
#
# Elastic Constant Matrix: (Units=GPa)
#
#
# Indices 1 2 3 4 5 6 
#
# 1 73.8531 32.0731 10.2600 -11.2099 7.4447 -8.6104
# 2 32.0731 86.4388 32.3363 31.4448 10.1300 -6.5573
# 3 10.2600 32.3363 78.4736 13.9983 -2.4226 -23.0097
# 4 -11.2099 31.4448 13.9983 22.6686 -13.7317 -7.7074
# 5 7.4447 10.1300 -2.4226 -13.7317 30.4934 -1.3965
# 6 -8.6104 -6.5573 -23.0097 -7.7074 -1.3965 19.9372
#
#
#
# Elastic Compliance Matrix: (Units=1/GPa)
#
#
# Indices 1 2 3 4 5 6 
#
# 1 0.003061 0.014982 -0.005511 -0.034554 -0.022411 -0.015039
# 2 0.014982 -0.015960 0.004418 0.053077 0.027213 0.028745
# 3 -0.005511 0.004418 0.018652 -0.020794 -0.007453 0.012039
# 4 -0.034554 0.053077 -0.020794 -0.084699 -0.051638 -0.057824
# 5 -0.022411 0.027213 -0.007453 -0.051638 0.004051 -0.029008
# 6 -0.015039 0.028745 0.012039 -0.057824 -0.029008 0.042625
#
#
# Mechanical properties :
#
#
# Convention : Reuss Voigt Hill
#
# Bulk Modulus (GPa) = 29.82364 43.12272 36.47318
# Shear Modulus (GPa) = -102.31269 25.55960 -38.37655
#
# Velocity S-wave (km/s) = -6.80452 3.40102 -4.16740
# Velocity P-wave (km/s) = 6.94540 5.91082 2.57885
#
# Compressibility (1/GPa) = 0.03353045
#
# Stress axis : x y z
#
# Youngs Moduli (GPa) = 326.72717 -62.65709 53.61287
#
# Poissons Ratio (x) = 0.93871 0.29548
# Poissons Ratio (y) = -4.89495 -0.23688
# Poissons Ratio (z) = 1.80073 0.27684
#
# Static dielectric constant tensor:
#      x y z
#    x 1.850910 -0.141450 0.037310 
#    y -0.141450 1.704910 0.106190 
#    z 0.037310 0.106190 1.801670 
# 
# From -- ./inp_files/495679.got.cif
#   From: 2010.05.17/outbox.cif.g08.bks.cpg/sg2_248_cif.got.tgz:495679.got - 2010.06.03 11:33:40.
