data_PCOD9104995
_publ_section_title
;
Structure prediction by ZEFSAII (Michael W. Deem and Ramdas Pophale) SiO2 
 PCOD9104995
Probable space group: P -1
;
_chemical_formula_sum "Si O2"
_cell_formula_units_Z 12
_cell_length_a 5.317626
_cell_length_b 24.978841
_cell_length_c 12.370733
_cell_angle_alpha 29.122931
_cell_angle_beta 47.590802
_cell_angle_gamma 46.638758
_cell_volume 568.343802
_symmetry_space_group_name_H-M "P -1"
_symmetry_group_IT_number 2
_symmetry_cell_setting 'triclinic'
loop_
_space_group_symop_operation_xyz
x,y,z
-x,-y,-z
loop_
_atom_site_type_symbol
_atom_site_label
_atom_site_fract_x
_atom_site_fract_y
_atom_site_fract_z
Si Si1 0.613364 0.044098 0.626603
Si Si2 0.738152 0.885616 0.188135
Si Si3 0.636669 0.316328 0.343166
Si Si4 0.540722 0.745888 0.830312
Si Si5 0.577971 0.536730 0.070626
Si Si6 0.733616 0.103194 0.158605
O O1 0.502243 0.974468 0.683854
O O2 0.941034 0.972449 0.729385
O O3 0.276808 0.081827 0.738763
O O4 0.686491 0.157118 0.355378
O O5 0.551370 0.783611 0.416155
O O6 0.098715 0.854488 0.071118
O O7 0.500000 0.000000 0.000000
O O8 0.493906 0.415170 0.300159
O O9 0.059361 0.267060 0.303481
O O10 0.558256 0.384996 0.132079
O O11 0.474406 0.795738 0.881476
O O12 0.472799 0.622518 0.050078
O O13 0.000000 0.500000 0.000000
#
# Coordination Sequence:
#
# PCOD9104995 Si02
#       6
#     2   2   2   2   2   2
#     4  11  22  39  59  90 126 171 204 242 298 375
#     4  10  21  40  61  91 125 166 198 246 308 374
#     4  10  20  39  63  87 120 160 211 250 298 369
#     4  11  21  36  63  90 120 161 207 260 300 353
#     4   9  20  37  62  89 112 158 216 254 295 354
#     4  11  25  37  59  94 131 159 201 252 312 359
#
# _framework density 21.113980000000002
#
# number of rings (size 3 to 8) (size 9 to 14) (size 15 to 20)
#    0.000    1.667    1.667    3.500    2.333    1.333 
#    0.000    0.833    0.000    9.000    0.000    0.000 
#    0.000    0.000    0.000    0.000    0.000    0.000 
#
# Total GULP energy -66992.499768 kJ/mol
# GULP energy per Si atom -5582.708314 kJ/mol
# Density = 2.106592 g / cm^3
# Si number density = 21.113980 Si / 1000 Ang^3
#
#
#
# Elastic Constant Matrix: (Units=GPa)
#
#
# Indices 1 2 3 4 5 6 
#
# 1 83.4262 30.6419 8.9432 -18.6835 6.6112 6.8875
# 2 30.6419 178.7389 55.2678 -15.9103 -14.0938 43.1129
# 3 8.9432 55.2678 70.2380 -15.9744 -13.1837 5.8159
# 4 -18.6835 -15.9103 -15.9744 39.2627 9.3893 -8.6353
# 5 6.6112 -14.0938 -13.1837 9.3893 30.4872 -7.6562
# 6 6.8875 43.1129 5.8159 -8.6353 -7.6562 39.4423
#
#
#
# Elastic Compliance Matrix: (Units=1/GPa)
#
#
# Indices 1 2 3 4 5 6 
#
# 1 0.015236 -0.002891 0.000897 0.008208 -0.006557 0.000891
# 2 -0.002891 0.010910 -0.007847 -0.002604 0.000377 -0.010761
# 3 0.000897 -0.007847 0.022235 0.006626 0.005685 0.007697
# 4 0.008208 -0.002604 0.006626 0.034586 -0.009208 0.006221
# 5 -0.006557 0.000377 0.005685 -0.009208 0.041165 0.005870
# 6 0.000891 -0.010761 0.007697 0.006221 0.005870 0.038326
#
#
# Mechanical properties :
#
#
# Convention : Reuss Voigt Hill
#
# Bulk Modulus (GPa) = 34.84441 58.01212 46.42826
# Shear Modulus (GPa) = 26.08145 37.67510 31.87828
#
# Velocity S-wave (km/s) = 3.51845 4.22876 3.88985
# Velocity P-wave (km/s) = 5.74846 7.16788 6.49705
#
# Compressibility (1/GPa) = 0.02869901
#
# Stress axis : x y z
#
# Youngs Moduli (GPa) = 65.63230 91.65727 44.97481
#
# Poissons Ratio (x) = 0.26495 -0.04033
# Poissons Ratio (y) = 0.18972 0.35293
# Poissons Ratio (z) = -0.05886 0.71926
#
# Static dielectric constant tensor:
#      x y z
#    x 1.980050 -0.095450 0.209110 
#    y -0.095450 1.926660 -0.164300 
#    z 0.209110 -0.164300 2.060410 
# 
# From -- ./inp_files/23953.got.cif
#   From: 2010.05.17/outbox.cif.g08.bks.cpg/sg2_12_cif.got.tgz:23953.got - 2010.06.03 11:33:40.
