data_PCOD9104787
_publ_section_title
;
Structure prediction by ZEFSAII (Michael W. Deem and Ramdas Pophale) SiO2 
 PCOD9104787
Probable space group: P -1
;
_chemical_formula_sum "Si O2"
_cell_formula_units_Z 10
_cell_length_a 7.387443
_cell_length_b 9.532908
_cell_length_c 5.735932
_cell_angle_alpha 82.999195
_cell_angle_beta 89.891473
_cell_angle_gamma 86.295269
_cell_volume 400.089432
_symmetry_space_group_name_H-M "P -1"
_symmetry_group_IT_number 2
_symmetry_cell_setting 'triclinic'
loop_
_space_group_symop_operation_xyz
x,y,z
-x,-y,-z
loop_
_atom_site_type_symbol
_atom_site_label
_atom_site_fract_x
_atom_site_fract_y
_atom_site_fract_z
Si Si1 0.504100 0.786023 0.910783
Si Si2 0.780032 0.210168 0.472330
Si Si3 0.042576 0.421198 0.263263
Si Si4 0.620275 0.449625 0.725863
Si Si5 0.800793 0.996452 0.886942
O O1 0.412998 0.783690 0.657215
O O2 0.486549 0.634351 0.064699
O O3 0.351334 0.896633 0.010370
O O4 0.301589 0.148627 0.077394
O O5 0.757617 0.320713 0.662428
O O6 0.818677 0.056770 0.612865
O O7 0.258621 0.418831 0.256055
O O8 0.933015 0.279200 0.301623
O O9 0.000000 0.500000 0.500000
O O10 0.000000 0.500000 0.000000
O O11 0.500000 0.500000 0.500000
O O12 0.000000 0.000000 0.000000
#
# Coordination Sequence:
#
# PCOD9104787 Si02
#       5
#     2   2   2   2   2
#     4  10  21  42  61  84 127 157 208 267 317 380
#     4  10  21  40  60  85 124 163 206 263 319 381
#     4  10  20  39  62  89 127 166 208 260 321 383
#     4  10  22  38  58  91 124 163 208 260 321 384
#     4  10  23  40  62  89 117 162 213 265 322 377
#
# _framework density 24.994413999999999
#
# number of rings (size 3 to 8) (size 9 to 14) (size 15 to 20)
#    0.000    2.000    2.000    0.600    2.800    1.600 
#    3.600    0.000    0.000    0.000    0.000    0.000 
#    0.000    0.000    0.000    0.000    0.000    0.000 
#
# Total GULP energy -55775.734914 kJ/mol
# GULP energy per Si atom -5577.573491 kJ/mol
# Density = 2.493753 g / cm^3
# Si number density = 24.994414 Si / 1000 Ang^3
#
#
#
# Elastic Constant Matrix: (Units=GPa)
#
#
# Indices 1 2 3 4 5 6 
#
# 1 230.9962 55.3544 63.6390 -32.3565 10.0431 51.6777
# 2 55.3544 128.6802 31.7112 -16.2798 -6.3943 40.9088
# 3 63.6390 31.7112 122.5847 -36.8036 8.3578 11.1889
# 4 -32.3565 -16.2798 -36.8036 56.3982 -10.2487 -8.9844
# 5 10.0431 -6.3943 8.3578 -10.2487 59.5627 4.8338
# 6 51.6777 40.9088 11.1889 -8.9844 4.8338 43.8931
#
#
#
# Elastic Compliance Matrix: (Units=1/GPa)
#
#
# Indices 1 2 3 4 5 6 
#
# 1 0.006772 0.000164 -0.002565 0.001107 0.000014 -0.007247
# 2 0.000164 0.011909 -0.002075 0.000916 0.002581 -0.010859
# 3 -0.002565 -0.002075 0.011530 0.005856 -0.000667 0.003287
# 4 0.001107 0.000916 0.005856 0.023118 0.003007 0.000751
# 5 0.000014 0.002581 -0.000667 0.003007 0.017968 -0.003615
# 6 -0.007247 -0.010859 0.003287 0.000751 -0.003615 0.041149
#
#
# Mechanical properties :
#
#
# Convention : Reuss Voigt Hill
#
# Bulk Modulus (GPa) = 47.04440 87.07448 67.05944
# Shear Modulus (GPa) = 38.91487 54.07458 46.49472
#
# Velocity S-wave (km/s) = 3.95009 4.65635 4.31769
# Velocity P-wave (km/s) = 6.29818 7.98887 7.19337
#
# Compressibility (1/GPa) = 0.02125651
#
# Stress axis : x y z
#
# Youngs Moduli (GPa) = 147.66083 83.97218 86.73261
#
# Poissons Ratio (x) = -0.01373 0.22250
# Poissons Ratio (y) = -0.02414 0.17999
# Poissons Ratio (z) = 0.37880 0.17426
#
# Static dielectric constant tensor:
#      x y z
#    x 1.755280 0.172850 0.132330 
#    y 0.172850 1.854780 -0.116790 
#    z 0.132330 -0.116790 1.871840 
# 
# From -- ./inp_files/16152.got.cif
#   From: 2010.05.17/outbox.cif.g08.bks.cpg/sg2_9_cif.got.tgz:16152.got - 2010.06.03 11:33:40.
