data_PCOD9104315
_publ_section_title
;
Structure prediction by ZEFSAII (Michael W. Deem and Ramdas Pophale) SiO2 
 PCOD9104315
Probable space group: P -1
;
_chemical_formula_sum "Si O2"
_cell_formula_units_Z 14
_cell_length_a 9.686110
_cell_length_b 17.844776
_cell_length_c 12.234899
_cell_angle_alpha 137.143235
_cell_angle_beta 50.889777
_cell_angle_gamma 152.789455
_cell_volume 656.203367
_symmetry_space_group_name_H-M "P -1"
_symmetry_group_IT_number 2
_symmetry_cell_setting 'triclinic'
loop_
_space_group_symop_operation_xyz
x,y,z
-x,-y,-z
loop_
_atom_site_type_symbol
_atom_site_label
_atom_site_fract_x
_atom_site_fract_y
_atom_site_fract_z
Si Si1 0.070468 0.506529 0.789810
Si Si2 0.460581 0.657701 0.225481
Si Si3 0.721530 0.648383 0.903717
Si Si4 0.658975 0.697109 0.612159
Si Si5 0.184352 0.753988 0.168053
Si Si6 0.804521 0.753145 0.352242
Si Si7 0.113297 0.938044 0.837049
O O1 0.397443 0.651999 0.729333
O O2 0.785547 0.372700 0.707006
O O3 0.997021 0.372666 0.768289
O O4 0.077976 0.621646 0.981277
O O5 0.259324 0.446912 0.127527
O O6 0.687842 0.778921 0.344886
O O7 0.651806 0.719963 0.089132
O O8 0.427431 0.466269 0.786414
O O9 0.987701 0.795342 0.842469
O O10 0.500000 0.500000 0.500000
O O11 0.756126 0.766705 0.513799
O O12 0.945849 0.838315 0.699497
O O13 0.122020 0.851246 0.280156
O O14 0.530801 0.897523 0.170890
O O15 0.000000 0.000000 0.000000
#
# Coordination Sequence:
#
# PCOD9104315 Si02
#       7
#     2   2   2   2   2   2   2
#     4  11  20  37  63  91 116 162 207 235 300 367
#     4   9  18  36  66  86 114 163 205 239 284 375
#     4   9  17  36  62  85 118 151 201 242 293 346
#     4  12  22  39  60  90 125 155 197 258 301 347
#     4  11  21  35  63  91 118 156 205 247 295 355
#     4  10  20  39  60  85 119 157 199 240 298 355
#     4  12  23  36  60  96 123 152 202 260 293 345
#
# _framework density 21.334848000000001
#
# number of rings (size 3 to 8) (size 9 to 14) (size 15 to 20)
#    0.857    0.571    5.714    0.857    0.000    1.143 
#    0.000    2.857    0.000    3.429    0.000    0.000 
#    0.000    0.000    0.000    0.000    0.000    0.000 
#
# Total GULP energy -78118.067369 kJ/mol
# GULP energy per Si atom -5579.861955 kJ/mol
# Density = 2.128629 g / cm^3
# Si number density = 21.334848 Si / 1000 Ang^3
#
#
#
# Elastic Constant Matrix: (Units=GPa)
#
#
# Indices 1 2 3 4 5 6 
#
# 1 118.3559 26.6901 25.2768 -5.7967 24.9247 24.4298
# 2 26.6901 56.8269 21.5689 -16.7597 16.7592 11.8991
# 3 25.2768 21.5689 63.1371 -12.5724 28.9044 1.6181
# 4 -5.7967 -16.7597 -12.5724 28.3032 -0.3232 0.3984
# 5 24.9247 16.7592 28.9044 -0.3232 38.4917 0.9566
# 6 24.4298 11.8991 1.6181 0.3984 0.9566 31.1056
#
#
#
# Elastic Compliance Matrix: (Units=1/GPa)
#
#
# Indices 1 2 3 4 5 6 
#
# 1 0.012178 -0.001181 -0.001071 0.001372 -0.006335 -0.008880
# 2 -0.001181 0.028443 -0.000948 0.016197 -0.010528 -0.009787
# 3 -0.001071 -0.000948 0.027893 0.011381 -0.019749 0.000214
# 4 0.001372 0.016197 0.011381 0.050191 -0.015866 -0.008020
# 5 -0.006335 -0.010528 -0.019749 -0.015866 0.049146 0.008722
# 6 -0.008880 -0.009787 0.000214 -0.008020 0.008722 0.042690
#
#
# Mechanical properties :
#
#
# Convention : Reuss Voigt Hill
#
# Bulk Modulus (GPa) = 16.09923 42.82127 29.46025
# Shear Modulus (GPa) = 21.03960 30.56570 25.80265
#
# Velocity S-wave (km/s) = 3.14373 3.78916 3.48143
# Velocity P-wave (km/s) = 4.55409 6.26564 5.47713
#
# Compressibility (1/GPa) = 0.06211477
#
# Stress axis : x y z
#
# Youngs Moduli (GPa) = 82.11260 35.15789 35.85088
#
# Poissons Ratio (x) = 0.04152 0.03840
# Poissons Ratio (y) = 0.09698 0.03398
# Poissons Ratio (z) = 0.08795 0.03333
#
# Static dielectric constant tensor:
#      x y z
#    x 1.808320 0.000660 -0.016780 
#    y 0.000660 1.762780 0.016800 
#    z -0.016780 0.016800 1.801260 
# 
# From -- ./inp_files/403212.got.cif
#   From: 2010.05.17/outbox.cif.g08.bks.cpg/sg2_202_cif.got.tgz:403212.got - 2010.06.03 11:33:40.
