data_PCOD9104864
_publ_section_title
;
Structure prediction by ZEFSAII (Michael W. Deem and Ramdas Pophale) SiO2 
 PCOD9104864
Probable space group: P -1
;
_chemical_formula_sum "Si O2"
_cell_formula_units_Z 16
_cell_length_a 8.160133
_cell_length_b 9.068052
_cell_length_c 16.008647
_cell_angle_alpha 41.022442
_cell_angle_beta 94.024204
_cell_angle_gamma 109.152447
_cell_volume 703.785861
_symmetry_space_group_name_H-M "P -1"
_symmetry_group_IT_number 2
_symmetry_cell_setting 'triclinic'
loop_
_space_group_symop_operation_xyz
x,y,z
-x,-y,-z
loop_
_atom_site_type_symbol
_atom_site_label
_atom_site_fract_x
_atom_site_fract_y
_atom_site_fract_z
Si Si1 0.803412 0.935627 0.801632
Si Si2 0.731977 0.395731 0.967382
Si Si3 0.819236 0.861406 0.360857
Si Si4 0.133896 0.282956 0.402209
Si Si5 0.453025 0.662407 0.187990
Si Si6 0.070659 0.593637 0.795968
Si Si7 0.506199 0.087698 0.745574
Si Si8 0.195757 0.195765 0.951026
O O1 0.738872 0.663212 0.874710
O O2 0.673960 0.067466 0.712916
O O3 0.014944 0.082452 0.721522
O O4 0.773182 0.886713 0.920596
O O5 0.623194 0.297246 0.919894
O O6 0.933556 0.438526 0.930815
O O7 0.637231 0.195026 0.119833
O O8 0.856857 0.123434 0.295250
O O9 0.618534 0.783753 0.350364
O O10 0.838012 0.691414 0.508583
O O11 0.331527 0.372509 0.328120
O O12 0.041187 0.432879 0.283073
O O13 0.000000 0.000000 0.500000
O O14 0.663968 0.776051 0.129008
O O15 0.421878 0.788522 0.215252
O O16 0.207268 0.471265 0.842544
O O17 0.000000 0.000000 0.000000
#
# Coordination Sequence:
#
# PCOD9104864 Si02
#       8
#     2   2   2   2   2   2   2   2
#     4  11  24  39  65  97 134 167 211 266 326 391
#     4  10  20  39  62  92 131 167 208 261 323 391
#     4  10  22  43  63  92 128 170 223 264 313 382
#     4   9  21  46  66  86 124 172 223 275 309 369
#     4  11  24  39  65  92 131 166 218 261 321 385
#     4   9  20  38  67  90 124 174 210 265 324 369
#     4  12  23  38  63  97 132 170 203 267 335 380
#     4  12  24  38  63 103 136 163 208 261 330 400
#
# _framework density 22.734188
#
# number of rings (size 3 to 8) (size 9 to 14) (size 15 to 20)
#    0.000    1.500    1.250    4.500    5.250    2.500 
#    2.250    1.875    0.000    0.000    0.000    0.000 
#    0.000    0.000    0.000    0.000    0.000    0.000 
#
# Total GULP energy -89327.963063 kJ/mol
# GULP energy per Si atom -5582.997691 kJ/mol
# Density = 2.268244 g / cm^3
# Si number density = 22.734188 Si / 1000 Ang^3
#
#
#
# Elastic Constant Matrix: (Units=GPa)
#
#
# Indices 1 2 3 4 5 6 
#
# 1 94.7430 28.5418 43.8219 5.1295 2.5274 -8.9260
# 2 28.5418 70.8280 9.5240 8.3991 -0.2007 0.2883
# 3 43.8219 9.5240 101.9781 5.7104 -8.1192 1.7761
# 4 5.1295 8.3991 5.7104 28.4057 17.1586 1.5595
# 5 2.5274 -0.2007 -8.1192 17.1586 26.4060 6.9739
# 6 -8.9260 0.2883 1.7761 1.5595 6.9739 34.8958
#
#
#
# Elastic Compliance Matrix: (Units=1/GPa)
#
#
# Indices 1 2 3 4 5 6 
#
# 1 0.016580 -0.006385 -0.007716 0.005805 -0.009448 0.006315
# 2 -0.006385 0.017528 0.002360 -0.009421 0.008426 -0.003161
# 3 -0.007716 0.002360 0.014550 -0.009708 0.012823 -0.004862
# 4 0.005805 -0.009421 -0.009708 0.069192 -0.050991 0.009155
# 5 -0.009448 0.008426 0.012823 -0.050991 0.080385 -0.016925
# 6 0.006315 -0.003161 -0.004862 0.009155 -0.016925 0.033519
#
#
# Mechanical properties :
#
#
# Convention : Reuss Voigt Hill
#
# Bulk Modulus (GPa) = 39.71732 47.92494 43.82113
# Shear Modulus (GPa) = 18.96619 30.31893 24.64256
#
# Velocity S-wave (km/s) = 2.89149 3.65585 3.29590
# Velocity P-wave (km/s) = 5.35311 6.24072 5.81388
#
# Compressibility (1/GPa) = 0.02517793
#
# Stress axis : x y z
#
# Youngs Moduli (GPa) = 60.31483 57.05128 68.72660
#
# Poissons Ratio (x) = 0.36425 0.53027
# Poissons Ratio (y) = 0.38509 -0.16220
# Poissons Ratio (z) = 0.46536 -0.13464
#
# Static dielectric constant tensor:
#      x y z
#    x 1.908220 0.051070 0.025080 
#    y 0.051070 1.866540 -0.026400 
#    z 0.025080 -0.026400 1.863270 
# 
# From -- ./inp_files/206979.got.cif
#   From: 2010.05.17/outbox.cif.g08.bks.cpg/sg2_104_cif.got.tgz:206979.got - 2010.06.03 11:33:40.
