data_PCOD9104308
_publ_section_title
;
Structure prediction by ZEFSAII (Michael W. Deem and Ramdas Pophale) SiO2 
 PCOD9104308
Probable space group: P -1
;
_chemical_formula_sum "Si O2"
_cell_formula_units_Z 16
_cell_length_a 15.091940
_cell_length_b 9.619228
_cell_length_c 10.620402
_cell_angle_alpha 146.590263
_cell_angle_beta 125.688415
_cell_angle_gamma 60.669113
_cell_volume 689.501302
_symmetry_space_group_name_H-M "P -1"
_symmetry_group_IT_number 2
_symmetry_cell_setting 'triclinic'
loop_
_space_group_symop_operation_xyz
x,y,z
-x,-y,-z
loop_
_atom_site_type_symbol
_atom_site_label
_atom_site_fract_x
_atom_site_fract_y
_atom_site_fract_z
Si Si1 0.995574 0.154720 0.280455
Si Si2 0.334060 0.932406 0.896338
Si Si3 0.854981 0.235726 0.995843
Si Si4 0.441495 0.108471 0.655099
Si Si5 0.974740 0.645330 0.263005
Si Si6 0.659259 0.391317 0.111831
Si Si7 0.131253 0.257331 0.002474
Si Si8 0.447457 0.774844 0.636824
O O1 0.010200 0.245216 0.503189
O O2 0.930931 0.307665 0.235033
O O3 0.105773 0.040295 0.225105
O O4 0.916831 0.914983 0.056823
O O5 0.297991 0.713118 0.797552
O O6 0.348132 0.822584 0.685908
O O7 0.254775 0.172285 0.025265
O O8 0.452870 0.037872 0.107989
O O9 0.887519 0.420845 0.049095
O O10 0.733520 0.270046 0.972067
O O11 0.348055 0.309133 0.690824
O O12 0.500000 0.000000 0.500000
O O13 0.412594 0.874318 0.545014
O O14 0.536734 0.282605 0.925667
O O15 0.087676 0.530930 0.214962
O O16 0.923271 0.799604 0.221814
O O17 0.500000 0.500000 0.500000
#
# Coordination Sequence:
#
# PCOD9104308 Si02
#       8
#     2   2   2   2   2   2   2   2
#     4  10  20  39  60  84 120 155 199 246 296 350
#     4  10  21  40  62  84 120 159 198 245 296 354
#     4  10  21  37  59  88 118 155 198 248 292 355
#     4  10  22  40  62  89 121 153 196 246 300 359
#     4  10  22  37  58  88 121 156 197 247 296 352
#     4  10  21  40  61  84 121 160 194 246 299 350
#     4  10  21  39  59  85 120 157 199 245 297 351
#     4  10  22  40  62  90 118 153 199 245 298 358
#
# _framework density 23.205178
#
# number of rings (size 3 to 8) (size 9 to 14) (size 15 to 20)
#    0.000    2.000    1.250    1.500    1.750    3.000 
#    4.500    0.000    0.000    0.000    0.000    0.000 
#    0.000    0.000    0.000    0.000    0.000    0.000 
#
# Total GULP energy -89215.252117 kJ/mol
# GULP energy per Si atom -5575.953257 kJ/mol
# Density = 2.315236 g / cm^3
# Si number density = 23.205178 Si / 1000 Ang^3
#
#
#
# Elastic Constant Matrix: (Units=GPa)
#
#
# Indices 1 2 3 4 5 6 
#
# 1 113.8633 45.8172 12.2744 2.3602 -35.5121 -2.5736
# 2 45.8172 149.9979 22.8262 1.0753 -21.6851 28.8053
# 3 12.2744 22.8262 54.2683 -13.1929 -30.2363 3.8190
# 4 2.3602 1.0753 -13.1929 25.2805 4.9400 -4.7867
# 5 -35.5121 -21.6851 -30.2363 4.9400 41.1653 -0.4888
# 6 -2.5736 28.8053 3.8190 -4.7867 -0.4888 41.0325
#
#
#
# Elastic Compliance Matrix: (Units=1/GPa)
#
#
# Indices 1 2 3 4 5 6 
#
# 1 0.014487 -0.003808 0.006683 -0.000130 0.015454 0.003129
# 2 -0.003808 0.009704 -0.003952 -0.003311 -0.000763 -0.007079
# 3 0.006683 -0.003952 0.038988 0.014204 0.030635 0.001587
# 4 -0.000130 -0.003311 0.014204 0.047802 0.002919 0.006605
# 5 0.015454 -0.000763 0.030635 0.002919 0.059370 -0.000299
# 6 0.003129 -0.007079 0.001587 0.006605 -0.000299 0.030156
#
#
# Mechanical properties :
#
#
# Convention : Reuss Voigt Hill
#
# Bulk Modulus (GPa) = 16.38660 53.32945 34.85802
# Shear Modulus (GPa) = 22.42124 37.30975 29.86549
#
# Velocity S-wave (km/s) = 3.11178 4.01411 3.59140
# Velocity P-wave (km/s) = 4.47077 6.67201 5.67906
#
# Compressibility (1/GPa) = 0.06102547
#
# Stress axis : x y z
#
# Youngs Moduli (GPa) = 69.02519 103.04762 25.64914
#
# Poissons Ratio (x) = 0.39241 -0.17142
# Poissons Ratio (y) = 0.26285 0.10137
# Poissons Ratio (z) = -0.46132 0.40726
#
# Static dielectric constant tensor:
#      x y z
#    x 1.849970 -0.015490 0.040640 
#    y -0.015490 1.910240 0.023970 
#    z 0.040640 0.023970 1.970130 
# 
# From -- ./inp_files/299889.got.cif
#   From: 2010.05.17/outbox.cif.g08.bks.cpg/sg2_150_cif.got.tgz:299889.got - 2010.06.03 11:33:40.
