data_PCOD9104806
_publ_section_title
;
Structure prediction by ZEFSAII (Michael W. Deem and Ramdas Pophale) SiO2 
 PCOD9104806
Probable space group: P -1
;
_chemical_formula_sum "Si O2"
_cell_formula_units_Z 16
_cell_length_a 17.925190
_cell_length_b 21.260653
_cell_length_c 6.646184
_cell_angle_alpha 122.749981
_cell_angle_beta 56.686218
_cell_angle_gamma 163.041654
_cell_volume 616.107627
_symmetry_space_group_name_H-M "P -1"
_symmetry_group_IT_number 2
_symmetry_cell_setting 'triclinic'
loop_
_space_group_symop_operation_xyz
x,y,z
-x,-y,-z
loop_
_atom_site_type_symbol
_atom_site_label
_atom_site_fract_x
_atom_site_fract_y
_atom_site_fract_z
Si Si1 0.091574 0.932887 0.309500
Si Si2 0.601985 0.147276 0.830695
Si Si3 0.938211 0.662860 0.285462
Si Si4 0.531400 0.931374 0.555089
Si Si5 0.273497 0.183800 0.821999
Si Si6 0.795705 0.423024 0.335973
Si Si7 0.511360 0.298419 0.053149
Si Si8 0.386030 0.351718 0.575118
O O1 0.951547 0.752262 0.304278
O O2 0.901798 0.842439 0.327596
O O3 0.194158 0.057158 0.565986
O O4 0.301513 0.077906 0.079635
O O5 0.462869 0.057962 0.674704
O O6 0.900218 0.355834 0.714038
O O7 0.449697 0.951414 0.780538
O O8 0.652934 0.254060 0.097251
O O9 0.778088 0.494157 0.408866
O O10 0.807988 0.512133 0.034763
O O11 0.212434 0.880110 0.367681
O O12 0.343993 0.714255 0.495616
O O13 0.431280 0.369325 0.775969
O O14 0.441135 0.276514 0.905385
O O15 0.000000 0.000000 0.000000
O O16 0.447313 0.320921 0.328470
O O17 0.500000 0.500000 0.500000
#
# Coordination Sequence:
#
# PCOD9104806 Si02
#       8
#     2   2   2   2   2   2   2   2
#     4  11  22  41  60  84 121 158 200 260 309 360
#     4   9  20  37  66  94 115 151 205 242 283 353
#     4  11  24  39  57  86 128 164 193 243 307 366
#     4  10  20  39  63  90 121 159 195 242 296 350
#     4  11  21  39  65  88 109 155 210 265 308 358
#     4  10  20  39  62  90 124 156 195 244 294 349
#     4  11  22  41  60  86 119 158 206 255 309 363
#     4  11  21  39  65  88 117 150 207 266 308 358
#
# _framework density 25.969487999999998
#
# number of rings (size 3 to 8) (size 9 to 14) (size 15 to 20)
#    0.000    1.500    3.750    2.250    0.000    1.500 
#    2.250    3.750    0.000    0.000    0.000    0.000 
#    0.000    0.000    0.000    0.000    0.000    0.000 
#
# Total GULP energy -89089.699817 kJ/mol
# GULP energy per Si atom -5568.106239 kJ/mol
# Density = 2.591038 g / cm^3
# Si number density = 25.969488 Si / 1000 Ang^3
#
#
#
# Elastic Constant Matrix: (Units=GPa)
#
#
# Indices 1 2 3 4 5 6 
#
# 1 156.5659 49.0100 39.1880 -9.3836 31.5574 -22.4388
# 2 49.0100 111.7004 22.6928 -1.9143 12.0760 -21.8735
# 3 39.1880 22.6928 93.9175 7.6629 29.8220 -4.3700
# 4 -9.3836 -1.9143 7.6629 29.0601 -3.9071 15.3820
# 5 31.5574 12.0760 29.8220 -3.9071 48.2069 8.7332
# 6 -22.4388 -21.8735 -4.3700 15.3820 8.7332 70.4681
#
#
#
# Elastic Compliance Matrix: (Units=1/GPa)
#
#
# Indices 1 2 3 4 5 6 
#
# 1 0.008922 -0.002648 -0.001704 0.001429 -0.004396 0.002146
# 2 -0.002648 0.010983 -0.000918 -0.001631 -0.001126 0.003005
# 3 -0.001704 -0.000918 0.015237 -0.007384 -0.009199 0.002869
# 4 0.001429 -0.001631 -0.007384 0.043997 0.009656 -0.011310
# 5 -0.004396 -0.001126 -0.009199 0.009656 0.031896 -0.008381
# 6 0.002146 0.003005 0.002869 -0.011310 -0.008381 0.019492
#
#
# Mechanical properties :
#
#
# Convention : Reuss Voigt Hill
#
# Bulk Modulus (GPa) = 40.64705 64.88502 52.76604
# Shear Modulus (GPa) = 33.49658 46.29989 39.89823
#
# Velocity S-wave (km/s) = 3.59534 4.22697 3.92388
# Velocity P-wave (km/s) = 5.73769 6.99016 6.39466
#
# Compressibility (1/GPa) = 0.02460203
#
# Stress axis : x y z
#
# Youngs Moduli (GPa) = 112.08472 91.04754 65.62775
#
# Poissons Ratio (x) = 0.24113 0.11180
# Poissons Ratio (y) = 0.29685 0.06026
# Poissons Ratio (z) = 0.19094 0.08361
#
# Static dielectric constant tensor:
#      x y z
#    x 2.123740 0.017130 -0.017480 
#    y 0.017130 2.184200 -0.087310 
#    z -0.017480 -0.087310 2.101630 
# 
# From -- ./inp_files/112474.got.cif
#   From: 2010.05.17/outbox.cif.g08.bks.cpg/sg2_57_cif.got.tgz:112474.got - 2010.06.03 11:33:40.
