data_PCOD9104162
_publ_section_title
;
Structure prediction by ZEFSAII (Michael W. Deem and Ramdas Pophale) SiO2 
 PCOD9104162
Probable space group: P -1
;
_chemical_formula_sum "Si O2"
_cell_formula_units_Z 16
_cell_length_a 5.917585
_cell_length_b 24.566280
_cell_length_c 9.474710
_cell_angle_alpha 44.299495
_cell_angle_beta 124.278656
_cell_angle_gamma 105.901691
_cell_volume 774.733364
_symmetry_space_group_name_H-M "P -1"
_symmetry_group_IT_number 2
_symmetry_cell_setting 'triclinic'
loop_
_space_group_symop_operation_xyz
x,y,z
-x,-y,-z
loop_
_atom_site_type_symbol
_atom_site_label
_atom_site_fract_x
_atom_site_fract_y
_atom_site_fract_z
Si Si1 0.220643 0.937044 0.606566
Si Si2 0.256977 0.871688 0.253273
Si Si3 0.080892 0.417155 0.093568
Si Si4 0.811570 0.459708 0.618283
Si Si5 0.284167 0.651331 0.457864
Si Si6 0.278760 0.993844 0.231242
Si Si7 0.397081 0.812142 0.113716
Si Si8 0.036333 0.716910 0.515187
O O1 0.158564 0.947845 0.400447
O O2 0.512102 0.960257 0.705116
O O3 0.261892 0.851071 0.850689
O O4 0.000000 0.000000 0.500000
O O5 0.430595 0.922597 0.313163
O O6 0.343864 0.870397 0.122527
O O7 0.235663 0.781872 0.459359
O O8 0.954570 0.933197 0.048911
O O9 0.410248 0.383587 0.302699
O O10 0.936568 0.345744 0.230338
O O11 0.000000 0.500000 0.000000
O O12 0.001877 0.433872 0.871555
O O13 0.500000 0.500000 0.500000
O O14 0.750900 0.392862 0.615343
O O15 0.000000 0.500000 0.500000
O O16 0.248257 0.742729 0.233595
O O17 0.073822 0.657311 0.503764
O O18 0.724825 0.771873 0.295439
#
# Coordination Sequence:
#
# PCOD9104162 Si02
#       8
#     2   2   2   2   2   2   2   2
#     4  11  21  37  58  87 122 165 210 266 322 390
#     4  10  20  39  58  89 120 162 213 266 323 393
#     4  11  23  43  72 100 134 174 224 275 337 409
#     4  12  27  45  73 107 139 177 228 282 342 411
#     4  10  24  43  68  99 134 178 219 278 340 400
#     4  10  22  34  59  88 119 159 214 267 324 385
#     4  10  21  39  62  88 127 170 214 261 334 392
#     4  10  22  41  65  90 133 174 212 272 337 399
#
# _framework density 20.652267999999999
#
# number of rings (size 3 to 8) (size 9 to 14) (size 15 to 20)
#    0.000    1.500    3.750    0.750    3.500    3.500 
#    0.000    6.250    0.000    0.000    0.000    0.000 
#    0.000    0.000    0.000    0.000    0.000    0.000 
#
# Total GULP energy -89073.888799 kJ/mol
# GULP energy per Si atom -5567.118050 kJ/mol
# Density = 2.060526 g / cm^3
# Si number density = 20.652268 Si / 1000 Ang^3
#
#
#
# Elastic Constant Matrix: (Units=GPa)
#
#
# Indices 1 2 3 4 5 6 
#
# 1 48.4493 10.3781 23.0023 -3.2160 -15.2360 -19.4997
# 2 10.3781 109.0830 34.6867 9.7221 -11.0832 -34.1722
# 3 23.0023 34.6867 127.8398 4.5089 -33.3408 -6.0756
# 4 -3.2160 9.7221 4.5089 29.3610 -7.4193 0.6435
# 5 -15.2360 -11.0832 -33.3408 -7.4193 27.4902 2.4333
# 6 -19.4997 -34.1722 -6.0756 0.6435 2.4333 27.9711
#
#
#
# Elastic Compliance Matrix: (Units=1/GPa)
#
#
# Indices 1 2 3 4 5 6 
#
# 1 0.044882 0.012178 -0.003408 0.006412 0.023555 0.043230
# 2 0.012178 0.020456 -0.004664 -0.004061 0.005404 0.032091
# 3 -0.003408 -0.004664 0.012653 0.002620 0.012860 -0.006504
# 4 0.006412 -0.004061 0.002620 0.039804 0.016034 -0.002233
# 5 0.023555 0.005404 0.012860 0.016034 0.069820 0.019374
# 6 0.043230 0.032091 -0.006504 -0.002233 0.019374 0.102047
#
#
# Mechanical properties :
#
#
# Convention : Reuss Voigt Hill
#
# Bulk Modulus (GPa) = 11.60053 46.83403 29.21728
# Shear Modulus (GPa) = 16.11946 31.45146 23.78546
#
# Velocity S-wave (km/s) = 2.79681 3.90668 3.39737
# Velocity P-wave (km/s) = 4.00734 6.56324 5.43760
#
# Compressibility (1/GPa) = 0.08620297
#
# Stress axis : x y z
#
# Youngs Moduli (GPa) = 22.28074 48.88592 79.03085
#
# Poissons Ratio (x) = -0.59534 0.26936
# Poissons Ratio (y) = -0.27134 0.36859
# Poissons Ratio (z) = 0.07594 0.22799
#
# Static dielectric constant tensor:
#      x y z
#    x 1.921290 0.038220 -0.051820 
#    y 0.038220 1.639590 -0.022140 
#    z -0.051820 -0.022140 1.766400 
# 
# From -- ./inp_files/46978.got.cif
#   From: 2010.05.17/outbox.cif.g08.bks.cpg/sg2_24_cif.got.tgz:46978.got - 2010.06.03 11:33:40.
