data_PCOD9104382
_publ_section_title
;
Structure prediction by ZEFSAII (Michael W. Deem and Ramdas Pophale) SiO2 
 PCOD9104382
Probable space group: P -1
;
_chemical_formula_sum "Si O2"
_cell_formula_units_Z 16
_cell_length_a 8.921323
_cell_length_b 10.961119
_cell_length_c 11.362816
_cell_angle_alpha 63.886326
_cell_angle_beta 49.911626
_cell_angle_gamma 76.191337
_cell_volume 761.686011
_symmetry_space_group_name_H-M "P -1"
_symmetry_group_IT_number 2
_symmetry_cell_setting 'triclinic'
loop_
_space_group_symop_operation_xyz
x,y,z
-x,-y,-z
loop_
_atom_site_type_symbol
_atom_site_label
_atom_site_fract_x
_atom_site_fract_y
_atom_site_fract_z
Si Si1 0.337534 0.537409 0.659944
Si Si2 0.235711 0.946469 0.438235
Si Si3 0.176293 0.076041 0.953351
Si Si4 0.687364 0.127024 0.835166
Si Si5 0.971207 0.661658 0.704765
Si Si6 0.108008 0.206456 0.524869
Si Si7 0.566946 0.819181 0.433868
Si Si8 0.706990 0.708916 0.034802
O O1 0.500000 0.500000 0.500000
O O2 0.122310 0.548508 0.706690
O O3 0.424205 0.686822 0.589434
O O4 0.326992 0.426954 0.814279
O O5 0.304088 0.951256 0.263841
O O6 0.114471 0.800965 0.575553
O O7 0.423644 0.939536 0.432637
O O8 0.124777 0.072433 0.490327
O O9 0.314746 0.167440 0.755593
O O10 0.129622 0.187231 0.028237
O O11 0.285383 0.967017 0.024235
O O12 0.000000 0.000000 0.000000
O O13 0.496391 0.214035 0.901469
O O14 0.894546 0.213396 0.687279
O O15 0.872156 0.664012 0.625734
O O16 0.799972 0.671925 0.880475
O O17 0.267102 0.185212 0.551407
#
# Coordination Sequence:
#
# PCOD9104382 Si02
#       8
#     2   2   2   2   2   2   2   2
#     4  11  22  46  66  88 119 167 214 242 305 371
#     4  10  20  39  60  90 124 170 202 244 313 371
#     4  12  23  38  62  98 130 155 205 257 315 354
#     4  11  22  38  64  92 122 167 205 248 311 369
#     4  10  23  38  64  94 117 162 212 252 298 367
#     4  11  21  39  58  92 132 157 204 254 313 363
#     4  11  23  39  62  93 125 167 201 258 306 364
#     4  12  23  43  67  89 124 165 208 256 295 372
#
# _framework density 21.006029000000002
#
# number of rings (size 3 to 8) (size 9 to 14) (size 15 to 20)
#    0.000    1.000    3.750    5.625    1.750    0.000 
#    0.000    4.375    0.000    0.000    0.000    0.000 
#    0.000    0.000    0.000    0.000    0.000    0.000 
#
# Total GULP energy -89148.488663 kJ/mol
# GULP energy per Si atom -5571.780541 kJ/mol
# Density = 2.095822 g / cm^3
# Si number density = 21.006029 Si / 1000 Ang^3
#
#
#
# Elastic Constant Matrix: (Units=GPa)
#
#
# Indices 1 2 3 4 5 6 
#
# 1 144.4155 38.3415 54.7506 0.3333 25.1671 -37.9729
# 2 38.3415 51.3406 28.3998 2.0697 6.5394 -32.2118
# 3 54.7506 28.3998 119.4749 -2.3182 23.3749 -23.2187
# 4 0.3333 2.0697 -2.3182 33.8449 -12.1332 -5.6404
# 5 25.1671 6.5394 23.3749 -12.1332 36.1934 -4.5221
# 6 -37.9729 -32.2118 -23.2187 -5.6404 -4.5221 30.9012
#
#
#
# Elastic Compliance Matrix: (Units=1/GPa)
#
#
# Indices 1 2 3 4 5 6 
#
# 1 0.011912 0.001891 -0.002060 0.000030 -0.005503 0.014263
# 2 0.001891 0.058438 -0.002410 0.006567 -0.000297 0.062586
# 3 -0.002060 -0.002410 0.011447 -0.000526 -0.005367 0.002677
# 4 0.000030 0.006567 -0.000526 0.036349 0.013199 0.015053
# 5 -0.005503 -0.000297 -0.005367 0.013199 0.039027 -0.002984
# 6 0.014263 0.062586 0.002677 0.015053 -0.002984 0.119451
#
#
# Mechanical properties :
#
#
# Convention : Reuss Voigt Hill
#
# Bulk Modulus (GPa) = 13.04766 62.02387 37.53577
# Shear Modulus (GPa) = 16.26933 33.10383 24.68658
#
# Velocity S-wave (km/s) = 2.78602 3.97409 3.43186
# Velocity P-wave (km/s) = 4.07113 7.11679 5.79753
#
# Compressibility (1/GPa) = 0.07664208
#
# Stress axis : x y z
#
# Youngs Moduli (GPa) = 83.94717 17.11202 87.36248
#
# Poissons Ratio (x) = -0.03237 0.17993
# Poissons Ratio (y) = -0.15878 0.21050
# Poissons Ratio (z) = 0.17289 0.04123
#
# Static dielectric constant tensor:
#      x y z
#    x 1.844190 0.021700 -0.028210 
#    y 0.021700 1.835750 -0.040820 
#    z -0.028210 -0.040820 1.822820 
# 
# From -- ./inp_files/378889.got.cif
#   From: 2010.05.17/outbox.cif.g08.bks.cpg/sg2_190_cif.got.tgz:378889.got - 2010.06.03 11:33:40.
