data_PCOD9104712
_publ_section_title
;
Structure prediction by ZEFSAII (Michael W. Deem and Ramdas Pophale) SiO2 
 PCOD9104712
Probable space group: P -1
;
_chemical_formula_sum "Si O2"
_cell_formula_units_Z 10
_cell_length_a 9.346676
_cell_length_b 10.904830
_cell_length_c 8.726627
_cell_angle_alpha 124.689542
_cell_angle_beta 82.621174
_cell_angle_gamma 136.066039
_cell_volume 441.395964
_symmetry_space_group_name_H-M "P -1"
_symmetry_group_IT_number 2
_symmetry_cell_setting 'triclinic'
loop_
_space_group_symop_operation_xyz
x,y,z
-x,-y,-z
loop_
_atom_site_type_symbol
_atom_site_label
_atom_site_fract_x
_atom_site_fract_y
_atom_site_fract_z
Si Si1 0.619543 0.415748 0.286235
Si Si2 0.986435 0.946489 0.643964
Si Si3 0.863821 0.225390 0.586897
Si Si4 0.335832 0.377601 0.085339
Si Si5 0.440463 0.774607 0.521967
O O1 0.265735 0.333679 0.489603
O O2 0.411020 0.300541 0.126018
O O3 0.560044 0.260095 0.323204
O O4 0.852980 0.539821 0.254008
O O5 0.156737 0.942128 0.631146
O O6 0.000000 0.000000 0.500000
O O7 0.072892 0.142160 0.886194
O O8 0.764494 0.281572 0.545607
O O9 0.689172 0.050138 0.627912
O O10 0.388569 0.575886 0.302019
O O11 0.500000 0.500000 0.000000
#
# Coordination Sequence:
#
# PCOD9104712 Si02
#       5
#     2   2   2   2   2
#     4  10  22  40  65  87 125 160 201 252 301 356
#     4  10  20  39  62  86 120 160 197 245 300 357
#     4   9  21  40  64  85 127 159 199 254 303 351
#     4  12  20  38  66  90 120 163 203 246 307 360
#     4  11  21  38  67  90 121 163 204 247 304 361
#
# _framework density 22.655398000000002
#
# number of rings (size 3 to 8) (size 9 to 14) (size 15 to 20)
#    1.200    0.400    4.000    1.200    0.000    0.800 
#    0.000    7.000    4.400    0.000    0.000    0.000 
#    0.000    0.000    0.000    0.000    0.000    0.000 
#
# Total GULP energy -55789.364922 kJ/mol
# GULP energy per Si atom -5578.936492 kJ/mol
# Density = 2.260383 g / cm^3
# Si number density = 22.655398 Si / 1000 Ang^3
#
#
#
# Elastic Constant Matrix: (Units=GPa)
#
#
# Indices 1 2 3 4 5 6 
#
# 1 154.7122 36.0544 38.5141 -14.6601 15.9180 -18.0483
# 2 36.0544 111.4184 28.3108 -17.1185 19.2270 -21.2058
# 3 38.5141 28.3108 51.6091 -5.3318 28.4555 -6.8278
# 4 -14.6601 -17.1185 -5.3318 17.6695 -1.0799 8.7089
# 5 15.9180 19.2270 28.4555 -1.0799 21.2451 -9.1363
# 6 -18.0483 -21.2058 -6.8278 8.7089 -9.1363 36.1241
#
#
#
# Elastic Compliance Matrix: (Units=1/GPa)
#
#
# Indices 1 2 3 4 5 6 
#
# 1 0.009210 -0.000887 -0.013059 0.001350 0.013481 0.004697
# 2 -0.000887 0.012875 0.000819 0.010303 -0.010661 0.002089
# 3 -0.013059 0.000819 0.111163 0.029219 -0.151425 -0.030375
# 4 0.001350 0.010303 0.029219 0.083918 -0.054577 -0.021789
# 5 0.013481 -0.010661 -0.151425 -0.054577 0.269532 0.053182
# 6 0.004697 0.002089 -0.030375 -0.021789 0.053182 0.044217
#
#
# Mechanical properties :
#
#
# Convention : Reuss Voigt Hill
#
# Bulk Modulus (GPa) = 9.34637 58.16649 33.75643
# Shear Modulus (GPa) = 8.43407 29.33175 18.88291
#
# Velocity S-wave (km/s) = 1.93154 3.60209 2.89014
# Velocity P-wave (km/s) = 3.01809 6.55974 5.10583
#
# Compressibility (1/GPa) = 0.10699339
#
# Stress axis : x y z
#
# Youngs Moduli (GPa) = 108.57785 77.67252 8.99578
#
# Poissons Ratio (x) = 0.06891 0.11747
# Poissons Ratio (y) = 0.09633 -0.00736
# Poissons Ratio (z) = 1.41788 -0.06359
#
# Static dielectric constant tensor:
#      x y z
#    x 1.861580 0.044440 0.014190 
#    y 0.044440 1.941650 0.050520 
#    z 0.014190 0.050520 1.875440 
# 
# From -- ./inp_files/190060.got.cif
#   From: 2010.05.17/outbox.cif.g08.bks.cpg/sg2_96_cif.got.tgz:190060.got - 2010.06.03 11:33:40.
