data_PCOD9104346
_publ_section_title
;
Structure prediction by ZEFSAII (Michael W. Deem and Ramdas Pophale) SiO2 
 PCOD9104346
Probable space group: P -1
;
_chemical_formula_sum "Si O2"
_cell_formula_units_Z 14
_cell_length_a 11.548780
_cell_length_b 15.737754
_cell_length_c 17.121749
_cell_angle_alpha 155.483324
_cell_angle_beta 150.821849
_cell_angle_gamma 44.238366
_cell_volume 580.945032
_symmetry_space_group_name_H-M "P -1"
_symmetry_group_IT_number 2
_symmetry_cell_setting 'triclinic'
loop_
_space_group_symop_operation_xyz
x,y,z
-x,-y,-z
loop_
_atom_site_type_symbol
_atom_site_label
_atom_site_fract_x
_atom_site_fract_y
_atom_site_fract_z
Si Si1 0.198023 0.362296 0.188547
Si Si2 0.994096 0.688284 0.252114
Si Si3 0.522708 0.545171 0.175319
Si Si4 0.735784 0.316341 0.287553
Si Si5 0.151774 0.574320 0.845302
Si Si6 0.136903 0.115019 0.800556
Si Si7 0.045837 0.190939 0.248899
O O1 0.500000 0.500000 0.500000
O O2 0.124383 0.527111 0.225449
O O3 0.023320 0.310062 0.120183
O O4 0.112472 0.142760 0.901442
O O5 0.032006 0.778879 0.261954
O O6 0.067977 0.883291 0.522574
O O7 0.686035 0.571917 0.980428
O O8 0.666577 0.392449 0.096690
O O9 0.730632 0.766404 0.519624
O O10 0.351921 0.582410 0.037166
O O11 0.846624 0.569686 0.531867
O O12 0.922880 0.340854 0.492208
O O13 0.795090 0.169087 0.133032
O O14 0.444131 0.236975 0.072937
O O15 0.000000 0.000000 0.000000
#
# Coordination Sequence:
#
# PCOD9104346 Si02
#       7
#     2   2   2   2   2   2   2
#     4  11  22  40  61  91 127 164 208 254 301 371
#     4  10  23  41  63  91 123 167 208 255 308 363
#     4   9  18  40  64  86 123 159 200 260 305 355
#     4  10  20  39  60  87 125 156 201 258 301 361
#     4   9  19  38  62  84 121 161 197 253 310 349
#     4  11  22  41  63  92 124 169 206 249 312 367
#     4  10  21  38  62  91 117 160 205 251 311 361
#
# _framework density 24.098666000000001
#
# number of rings (size 3 to 8) (size 9 to 14) (size 15 to 20)
#    0.000    2.000    2.857    0.429    0.000    1.714 
#   10.286    5.714    0.000    0.000    0.000    0.000 
#    0.000    0.000    0.000    0.000    0.000    0.000 
#
# Total GULP energy -78055.030021 kJ/mol
# GULP energy per Si atom -5575.359287 kJ/mol
# Density = 2.404382 g / cm^3
# Si number density = 24.098666 Si / 1000 Ang^3
#
#
#
# Elastic Constant Matrix: (Units=GPa)
#
#
# Indices 1 2 3 4 5 6 
#
# 1 88.9706 24.1781 38.3736 -5.8042 -38.8981 -22.9998
# 2 24.1781 75.0317 46.8967 -25.1222 -8.2619 -1.0383
# 3 38.3736 46.8967 106.9110 -10.9520 -43.7355 -1.2527
# 4 -5.8042 -25.1222 -10.9520 41.0095 -4.1202 -2.5496
# 5 -38.8981 -8.2619 -43.7355 -4.1202 50.2623 -2.8670
# 6 -22.9998 -1.0383 -1.2527 -2.5496 -2.8670 29.4643
#
#
#
# Elastic Compliance Matrix: (Units=1/GPa)
#
#
# Indices 1 2 3 4 5 6 
#
# 1 0.032042 -0.007923 0.005250 0.005880 0.030165 0.028400
# 2 -0.007923 0.025393 -0.012460 0.009478 -0.012376 -0.006204
# 3 0.005250 -0.012460 0.022078 0.001618 0.021749 0.006854
# 4 0.005880 0.009478 0.001618 0.033087 0.010736 0.008900
# 5 0.030165 -0.012376 0.021749 0.010736 0.062783 0.031073
# 6 0.028400 -0.006204 0.006854 0.008900 0.031073 0.059974
#
#
# Mechanical properties :
#
#
# Convention : Reuss Voigt Hill
#
# Bulk Modulus (GPa) = 20.30591 54.42335 37.36463
# Shear Modulus (GPa) = 17.72802 34.91156 26.31979
#
# Velocity S-wave (km/s) = 2.71522 3.81030 3.30838
# Velocity P-wave (km/s) = 4.27485 6.48000 5.48930
#
# Compressibility (1/GPa) = 0.04924674
#
# Stress axis : x y z
#
# Youngs Moduli (GPa) = 31.20920 39.38074 45.29384
#
# Poissons Ratio (x) = 0.31202 -0.23778
# Poissons Ratio (y) = 0.24728 0.56435
# Poissons Ratio (z) = -0.16384 0.49067
#
# Static dielectric constant tensor:
#      x y z
#    x 2.029760 0.058300 -0.037580 
#    y 0.058300 2.032170 0.003920 
#    z -0.037580 0.003920 1.898910 
# 
# From -- ./inp_files/69513.got.cif
#   From: 2010.05.17/outbox.cif.g08.bks.cpg/sg2_35_cif.got.tgz:69513.got - 2010.06.03 11:33:40.
