data_PCOD9104937
_publ_section_title
;
Structure prediction by ZEFSAII (Michael W. Deem and Ramdas Pophale) SiO2 
 PCOD9104937
Probable space group: P -1
;
_chemical_formula_sum "Si O2"
_cell_formula_units_Z 16
_cell_length_a 12.547954
_cell_length_b 18.287285
_cell_length_c 8.134635
_cell_angle_alpha 48.099091
_cell_angle_beta 131.416158
_cell_angle_gamma 150.235364
_cell_volume 672.613994
_symmetry_space_group_name_H-M "P -1"
_symmetry_group_IT_number 2
_symmetry_cell_setting 'triclinic'
loop_
_space_group_symop_operation_xyz
x,y,z
-x,-y,-z
loop_
_atom_site_type_symbol
_atom_site_label
_atom_site_fract_x
_atom_site_fract_y
_atom_site_fract_z
Si Si1 0.449129 0.195423 0.271828
Si Si2 0.581116 0.595328 0.103002
Si Si3 0.975433 0.139555 0.674048
Si Si4 0.813981 0.240056 0.485799
Si Si5 0.175225 0.838042 0.022261
Si Si6 0.828784 0.481639 0.764713
Si Si7 0.483097 0.828203 0.242892
Si Si8 0.774309 0.647086 0.675796
O O1 0.614100 0.210950 0.318473
O O2 0.474077 0.184600 0.507696
O O3 0.502977 0.336905 0.082233
O O4 0.195786 0.037527 0.207334
O O5 0.842087 0.743260 0.176725
O O6 0.470785 0.476943 0.317708
O O7 0.500000 0.500000 0.000000
O O8 0.119390 0.214263 0.542108
O O9 0.817577 0.153513 0.487321
O O10 0.805835 0.184609 0.736978
O O11 0.042951 0.417231 0.421752
O O12 0.294820 0.813030 0.082429
O O13 0.930407 0.721145 0.882633
O O14 0.306908 0.007014 0.865545
O O15 0.608838 0.308747 0.753253
O O16 0.796757 0.557728 0.733298
O O17 0.000000 0.500000 0.000000
#
# Coordination Sequence:
#
# PCOD9104937 Si02
#       8
#     2   2   2   2   2   2   2   2
#     4  11  24  44  71 102 135 180 229 277 340 403
#     4  12  28  47  70  97 138 182 231 280 336 400
#     4  11  24  48  68 101 137 179 225 280 341 404
#     4  10  24  39  76 104 137 174 226 281 340 402
#     4  10  20  39  62  98 137 177 216 271 341 396
#     4  11  22  38  62 103 141 171 219 276 338 398
#     4  10  22  37  63  97 140 173 216 278 338 400
#     4  11  23  42  69  94 132 181 224 274 337 401
#
# _framework density 23.787787999999999
#
# number of rings (size 3 to 8) (size 9 to 14) (size 15 to 20)
#    0.000    1.250    2.500    2.625    5.250    3.000 
#    0.000    1.875    0.000    0.000    0.000    0.000 
#    0.000    0.000    0.000    0.000    0.000    0.000 
#
# Total GULP energy -89588.672032 kJ/mol
# GULP energy per Si atom -5599.292002 kJ/mol
# Density = 2.373365 g / cm^3
# Si number density = 23.787788 Si / 1000 Ang^3
#
#
#
# Elastic Constant Matrix: (Units=GPa)
#
#
# Indices 1 2 3 4 5 6 
#
# 1 61.4838 29.9518 9.5728 -9.6463 -11.8580 14.5288
# 2 29.9518 137.8104 17.3322 -7.2645 -6.1070 3.6115
# 3 9.5728 17.3322 73.4309 -6.0320 -5.1634 6.2875
# 4 -9.6463 -7.2645 -6.0320 43.5113 5.1052 -0.5458
# 5 -11.8580 -6.1070 -5.1634 5.1052 29.8915 1.2183
# 6 14.5288 3.6115 6.2875 -0.5458 1.2183 18.8264
#
#
#
# Elastic Compliance Matrix: (Units=1/GPa)
#
#
# Indices 1 2 3 4 5 6 
#
# 1 0.025295 -0.004433 0.000353 0.003576 0.009365 -0.019290
# 2 -0.004433 0.008353 -0.001610 0.000274 -0.000474 0.002395
# 3 0.000353 -0.001610 0.014662 0.001511 0.002288 -0.004965
# 4 0.003576 0.000274 0.001511 0.024271 -0.002309 -0.002464
# 5 0.009365 -0.000474 0.002288 -0.002309 0.038288 -0.010445
# 6 -0.019290 0.002395 -0.004965 -0.002464 -0.010445 0.069807
#
#
# Mechanical properties :
#
#
# Convention : Reuss Voigt Hill
#
# Bulk Modulus (GPa) = 27.07794 42.93763 35.00778
# Shear Modulus (GPa) = 24.46607 32.83705 28.65156
#
# Velocity S-wave (km/s) = 3.21052 3.71943 3.47431
# Velocity P-wave (km/s) = 5.01509 6.04442 5.55365
#
# Compressibility (1/GPa) = 0.03693044
#
# Stress axis : x y z
#
# Youngs Moduli (GPa) = 39.53426 119.71896 68.20209
#
# Poissons Ratio (x) = 0.53070 -0.02406
# Poissons Ratio (y) = 0.17525 0.10978
# Poissons Ratio (z) = -0.01395 0.19270
#
# Static dielectric constant tensor:
#      x y z
#    x 1.898170 0.018620 0.005750 
#    y 0.018620 1.877010 -0.000520 
#    z 0.005750 -0.000520 1.922760 
# 
# From -- ./inp_files/279133.got.cif
#   From: 2010.05.17/outbox.cif.g08.bks.cpg/sg2_140_cif.got.tgz:279133.got - 2010.06.03 11:33:40.
