data_PCOD9104353
_publ_section_title
;
Structure prediction by ZEFSAII (Michael W. Deem and Ramdas Pophale) SiO2 
 PCOD9104353
Probable space group: P -1
;
_chemical_formula_sum "Si O2"
_cell_formula_units_Z 16
_cell_length_a 16.429086
_cell_length_b 14.385008
_cell_length_c 27.378066
_cell_angle_alpha 19.007100
_cell_angle_beta 23.821073
_cell_angle_gamma 34.957567
_cell_volume 798.896690
_symmetry_space_group_name_H-M "P -1"
_symmetry_group_IT_number 2
_symmetry_cell_setting 'triclinic'
loop_
_space_group_symop_operation_xyz
x,y,z
-x,-y,-z
loop_
_atom_site_type_symbol
_atom_site_label
_atom_site_fract_x
_atom_site_fract_y
_atom_site_fract_z
Si Si1 0.486014 0.363277 0.630084
Si Si2 0.619877 0.340523 0.785682
Si Si3 0.311276 0.107601 0.231526
Si Si4 0.075669 0.239221 0.760069
Si Si5 0.208181 0.227672 0.119718
Si Si6 0.052309 0.432029 0.855137
Si Si7 0.927021 0.559730 0.756030
Si Si8 0.989484 0.482107 0.442584
O O1 0.500000 0.500000 0.500000
O O2 0.691706 0.553244 0.453594
O O3 0.283120 0.401000 0.749501
O O4 0.508411 0.030622 0.783851
O O5 0.785353 0.524623 0.561630
O O6 0.790164 0.370742 0.721308
O O7 0.411980 0.412779 0.882431
O O8 0.500000 0.000000 0.000000
O O9 0.314641 0.190641 0.131703
O O10 0.288991 0.380228 0.141220
O O11 0.081580 0.835559 0.501648
O O12 0.996432 0.372146 0.690486
O O13 0.924910 0.256876 0.879898
O O14 0.092539 0.916585 0.899211
O O15 0.041930 0.399373 0.137283
O O16 0.078639 0.885608 0.341681
O O17 0.046259 0.583222 0.730778
#
# Coordination Sequence:
#
# PCOD9104353 Si02
#       8
#     2   2   2   2   2   2   2   2
#     4  11  21  35  55  80 122 166 197 236 289 334
#     4   9  21  39  66  92 114 142 194 253 303 350
#     4   9  17  32  55  82 112 161 201 236 276 340
#     4  11  22  36  59  87 120 158 200 242 287 352
#     4  10  20  39  60  88 119 153 197 245 290 353
#     4  11  23  35  56  86 127 160 195 241 291 336
#     4   9  17  34  53  77 122 158 197 240 277 330
#     4  10  20  39  66  90 113 151 196 244 300 353
#
# _framework density 20.027622000000001
#
# number of rings (size 3 to 8) (size 9 to 14) (size 15 to 20)
#    0.000    2.000    5.000    0.375    1.750    1.000 
#    0.000    1.250    0.000    7.500    0.000    0.000 
#    0.000    0.000    0.000    0.000    0.000    0.000 
#
# Total GULP energy -89132.507542 kJ/mol
# GULP energy per Si atom -5570.781721 kJ/mol
# Density = 1.998204 g / cm^3
# Si number density = 20.027622 Si / 1000 Ang^3
#
#
#
# Elastic Constant Matrix: (Units=GPa)
#
#
# Indices 1 2 3 4 5 6 
#
# 1 55.0942 22.7284 -1.6188 17.2201 -5.4911 2.9063
# 2 22.7284 152.1273 -1.8182 39.3745 24.8820 -5.1558
# 3 -1.6188 -1.8182 -14.5921 51.4695 38.2485 -3.0164
# 4 17.2201 39.3745 51.4695 8.8989 -36.1297 5.1241
# 5 -5.4911 24.8820 38.2485 -36.1297 -24.5956 10.9626
# 6 2.9063 -5.1558 -3.0164 5.1241 10.9626 27.8704
#
#
#
# Elastic Compliance Matrix: (Units=1/GPa)
#
#
# Indices 1 2 3 4 5 6 
#
# 1 0.026005 -0.004312 0.010731 -0.010991 0.019159 -0.007864
# 2 -0.004312 0.007588 -0.007849 0.001254 -0.004309 0.002468
# 3 0.010731 -0.007849 0.035510 -0.004027 0.043987 -0.015289
# 4 -0.010991 0.001254 -0.004027 0.021847 -0.030633 0.008975
# 5 0.019159 -0.004309 0.043987 -0.030633 0.057428 -0.014991
# 6 -0.007864 0.002468 -0.015289 0.008975 -0.014991 0.039749
#
#
# Mechanical properties :
#
#
# Convention : Reuss Voigt Hill
#
# Bulk Modulus (GPa) = 15.09629 25.69022 20.39326
# Shear Modulus (GPa) = 23.46667 13.99062 18.72865
#
# Velocity S-wave (km/s) = 3.42675 2.64591 3.06132
# Velocity P-wave (km/s) = 4.81777 4.71059 4.76448
#
# Compressibility (1/GPa) = 0.06624143
#
# Stress axis : x y z
#
# Youngs Moduli (GPa) = 38.45457 131.79031 28.16088
#
# Poissons Ratio (x) = 0.56834 -0.30219
# Poissons Ratio (y) = 0.16583 0.22104
# Poissons Ratio (z) = -0.41265 1.03444
#
# Static dielectric constant tensor:
#      x y z
#    x 1.707220 0.013420 0.004040 
#    y 0.013420 1.801680 -0.029240 
#    z 0.004040 -0.029240 1.792420 
# 
# From -- ./inp_files/623873.got.cif
#   From: 2010.05.17/outbox.cif.g08.bks.cpg/sg2_312_cif.got.tgz:623873.got - 2010.06.03 11:33:40.
