data_PCOD9104174
_publ_section_title
;
Structure prediction by ZEFSAII (Michael W. Deem and Ramdas Pophale) SiO2 
 PCOD9104174
Probable space group: P -1
;
_chemical_formula_sum "Si O2"
_cell_formula_units_Z 16
_cell_length_a 12.201717
_cell_length_b 15.038895
_cell_length_c 12.143317
_cell_angle_alpha 153.797698
_cell_angle_beta 121.212688
_cell_angle_gamma 47.944663
_cell_volume 706.853881
_symmetry_space_group_name_H-M "P -1"
_symmetry_group_IT_number 2
_symmetry_cell_setting 'triclinic'
loop_
_space_group_symop_operation_xyz
x,y,z
-x,-y,-z
loop_
_atom_site_type_symbol
_atom_site_label
_atom_site_fract_x
_atom_site_fract_y
_atom_site_fract_z
Si Si1 0.322416 0.947762 0.872214
Si Si2 0.613032 0.487128 0.261811
Si Si3 0.528790 0.972605 0.169522
Si Si4 0.904419 0.205064 0.477011
Si Si5 0.683469 0.535517 0.908810
Si Si6 0.922413 0.219003 0.256728
Si Si7 0.974847 0.661669 0.740615
Si Si8 0.194898 0.677821 0.030274
O O1 0.239657 0.814105 0.650416
O O2 0.370640 0.007747 0.850186
O O3 0.454884 0.852838 0.926281
O O4 0.191301 0.184072 0.126242
O O5 0.455588 0.506424 0.225984
O O6 0.746380 0.341406 0.259541
O O7 0.580704 0.754861 0.542777
O O8 0.682279 0.354018 0.032623
O O9 0.615802 0.803815 0.129591
O O10 0.835845 0.373619 0.734514
O O11 0.931066 0.287925 0.466277
O O12 0.062232 0.950044 0.297930
O O13 0.727815 0.475497 0.991948
O O14 0.977721 0.398720 0.433737
O O15 0.018262 0.073578 0.014427
O O16 0.104578 0.585024 0.812249
#
# Coordination Sequence:
#
# PCOD9104174 Si02
#       8
#     2   2   2   2   2   2   2   2
#     4  10  20  39  58  92 133 158 207 275 318 367
#     4  11  23  44  67  94 131 167 215 277 317 380
#     4  11  25  38  63  98 133 166 216 266 323 386
#     4  11  22  41  67  94 129 171 215 271 324 379
#     4  12  26  41  67  92 133 182 212 251 333 394
#     4  11  20  38  66  99 121 159 221 264 327 371
#     4  10  21  38  65  91 126 159 210 275 320 364
#     4  10  23  45  65  92 130 171 218 267 315 390
#
# _framework density 22.635511000000001
#
# number of rings (size 3 to 8) (size 9 to 14) (size 15 to 20)
#    0.000    1.250    5.000    3.000    5.250    1.500 
#    0.000    3.750    0.000    0.000    0.000    0.000 
#    0.000    0.000    0.000    0.000    0.000    0.000 
#
# Total GULP energy -89207.282014 kJ/mol
# GULP energy per Si atom -5575.455126 kJ/mol
# Density = 2.258399 g / cm^3
# Si number density = 22.635511 Si / 1000 Ang^3
#
#
#
# Elastic Constant Matrix: (Units=GPa)
#
#
# Indices 1 2 3 4 5 6 
#
# 1 95.6086 47.8917 27.7391 8.7728 -18.8475 8.1028
# 2 47.8917 167.0416 17.8342 3.5129 -3.5281 20.8629
# 3 27.7391 17.8342 55.1415 12.7696 -15.5108 0.6891
# 4 8.7728 3.5129 12.7696 18.5560 -2.4816 -4.4721
# 5 -18.8475 -3.5281 -15.5108 -2.4816 39.7355 0.8195
# 6 8.1028 20.8629 0.6891 -4.4721 0.8195 27.6731
#
#
#
# Elastic Compliance Matrix: (Units=1/GPa)
#
#
# Indices 1 2 3 4 5 6 
#
# 1 0.014832 -0.003327 -0.004166 -0.003440 0.004949 -0.002434
# 2 -0.003327 0.007627 -0.000948 -0.000538 -0.001205 -0.004804
# 3 -0.004166 -0.000948 0.026097 -0.015179 0.007207 -0.001382
# 4 -0.003440 -0.000538 -0.015179 0.068720 -0.003581 0.013002
# 5 0.004949 -0.001205 0.007207 -0.003581 0.030042 -0.002188
# 6 -0.002434 -0.004804 -0.001382 0.013002 -0.002188 0.042671
#
#
# Mechanical properties :
#
#
# Convention : Reuss Voigt Hill
#
# Bulk Modulus (GPa) = 31.57046 56.08017 43.82532
# Shear Modulus (GPa) = 22.99605 32.14804 27.57204
#
# Velocity S-wave (km/s) = 3.19082 3.77271 3.49390
# Velocity P-wave (km/s) = 5.24907 6.61867 5.97325
#
# Compressibility (1/GPa) = 0.03167518
#
# Stress axis : x y z
#
# Youngs Moduli (GPa) = 67.42202 131.10689 38.31809
#
# Poissons Ratio (x) = 0.43616 0.15964
# Poissons Ratio (y) = 0.22430 0.03632
# Poissons Ratio (z) = 0.28089 0.12426
#
# Static dielectric constant tensor:
#      x y z
#    x 2.089190 0.102480 0.127240 
#    y 0.102480 1.896780 0.060920 
#    z 0.127240 0.060920 1.997600 
# 
# From -- ./inp_files/433535.got.cif
#   From: 2010.05.17/outbox.cif.g08.bks.cpg/sg2_217_cif.got.tgz:433535.got - 2010.06.03 11:33:40.
