data_PCOD9104398
_publ_section_title
;
Structure prediction by ZEFSAII (Michael W. Deem and Ramdas Pophale) SiO2 
 PCOD9104398
Probable space group: P -1
;
_chemical_formula_sum "Si O2"
_cell_formula_units_Z 16
_cell_length_a 5.205463
_cell_length_b 12.139595
_cell_length_c 11.947384
_cell_angle_alpha 87.127884
_cell_angle_beta 68.956156
_cell_angle_gamma 69.584835
_cell_volume 657.929156
_symmetry_space_group_name_H-M "P -1"
_symmetry_group_IT_number 2
_symmetry_cell_setting 'triclinic'
loop_
_space_group_symop_operation_xyz
x,y,z
-x,-y,-z
loop_
_atom_site_type_symbol
_atom_site_label
_atom_site_fract_x
_atom_site_fract_y
_atom_site_fract_z
Si Si1 0.231415 0.622385 0.541612
Si Si2 0.798463 0.696221 0.998339
Si Si3 0.313397 0.252649 0.231133
Si Si4 0.228441 0.048368 0.366007
Si Si5 0.881521 0.347911 0.688013
Si Si6 0.562804 0.791563 0.245396
Si Si7 0.383694 0.512776 0.892344
Si Si8 0.407863 0.828688 0.586984
O O1 0.500000 0.500000 0.500000
O O2 0.060760 0.634431 0.450620
O O3 0.375244 0.723654 0.523477
O O4 0.984717 0.649633 0.675586
O O5 0.629650 0.720818 0.905811
O O6 0.136838 0.639683 0.911942
O O7 0.690147 0.799457 0.100633
O O8 0.757686 0.589358 0.082239
O O9 0.254686 0.129320 0.251967
O O10 0.564778 0.225470 0.288277
O O11 0.331812 0.117565 0.445373
O O12 0.886700 0.065230 0.410271
O O13 0.441898 0.916386 0.320357
O O14 0.704777 0.256942 0.723611
O O15 0.653351 0.470545 0.766976
O O16 0.167693 0.296543 0.721256
O O17 0.500000 0.500000 0.000000
#
# Coordination Sequence:
#
# PCOD9104398 Si02
#       8
#     2   2   2   2   2   2   2   2
#     4  11  24  44  68  96 131 169 211 267 315 383
#     4  10  21  38  64  94 128 169 214 263 320 386
#     4   9  22  41  63  94 128 167 213 261 322 378
#     4   9  20  42  66  87 134 164 214 268 317 374
#     4  11  25  41  66  98 130 167 217 262 317 387
#     4  11  23  43  65  98 126 169 218 267 316 379
#     4  10  20  39  60  91 133 169 204 261 325 381
#     4   9  21  43  60  94 125 168 210 258 319 379
#
# _framework density 24.318728
#
# number of rings (size 3 to 8) (size 9 to 14) (size 15 to 20)
#    0.750    1.250    1.250    1.500    1.750    4.000 
#    0.000    9.375    0.000    0.000    0.000    0.000 
#    0.000    0.000    0.000    0.000    0.000    0.000 
#
# Total GULP energy -89338.326966 kJ/mol
# GULP energy per Si atom -5583.645435 kJ/mol
# Density = 2.426338 g / cm^3
# Si number density = 24.318728 Si / 1000 Ang^3
#
#
#
# Elastic Constant Matrix: (Units=GPa)
#
#
# Indices 1 2 3 4 5 6 
#
# 1 142.3256 30.8303 34.1490 0.4268 15.9893 -16.5651
# 2 30.8303 79.2564 30.1977 19.5461 -8.8761 -9.9257
# 3 34.1490 30.1977 145.2723 10.4302 22.6907 -9.7522
# 4 0.4268 19.5461 10.4302 41.4850 -1.7803 -1.4421
# 5 15.9893 -8.8761 22.6907 -1.7803 36.9177 -9.9442
# 6 -16.5651 -9.9257 -9.7522 -1.4421 -9.9442 44.5381
#
#
#
# Elastic Compliance Matrix: (Units=1/GPa)
#
#
# Indices 1 2 3 4 5 6 
#
# 1 0.008582 -0.003743 -0.000686 0.001738 -0.003726 0.001432
# 2 -0.003743 0.018765 -0.003650 -0.007366 0.009037 0.003770
# 3 -0.000686 -0.003650 0.008785 -0.000765 -0.006164 -0.000546
# 4 0.001738 -0.007366 -0.000765 0.027698 -0.000840 -0.000454
# 5 -0.003726 0.009037 -0.006164 -0.000840 0.036623 0.007428
# 6 0.001432 0.003770 -0.000546 -0.000454 0.007428 0.025350
#
#
# Mechanical properties :
#
#
# Convention : Reuss Voigt Hill
#
# Bulk Modulus (GPa) = 50.06945 61.91204 55.99074
# Shear Modulus (GPa) = 33.64327 42.69999 38.17163
#
# Velocity S-wave (km/s) = 3.72348 4.19483 3.96617
# Velocity P-wave (km/s) = 6.25454 6.99828 6.63684
#
# Compressibility (1/GPa) = 0.01997226
#
# Stress axis : x y z
#
# Youngs Moduli (GPa) = 116.52875 53.29074 113.83469
#
# Poissons Ratio (x) = 0.19949 0.07807
# Poissons Ratio (y) = 0.43621 0.41553
# Poissons Ratio (z) = 0.07992 0.19453
#
# Static dielectric constant tensor:
#      x y z
#    x 1.977250 0.021320 -0.068260 
#    y 0.021320 1.976860 -0.018010 
#    z -0.068260 -0.018010 2.022790 
# 
# From -- ./inp_files/367765.got.cif
#   From: 2010.05.17/outbox.cif.g08.bks.cpg/sg2_184_cif.got.tgz:367765.got - 2010.06.03 11:33:40.
