data_PCOD9104792
_publ_section_title
;
Structure prediction by ZEFSAII (Michael W. Deem and Ramdas Pophale) SiO2 
 PCOD9104792
Probable space group: P -1
;
_chemical_formula_sum "Si O2"
_cell_formula_units_Z 16
_cell_length_a 12.010148
_cell_length_b 19.940378
_cell_length_c 6.791756
_cell_angle_alpha 123.700837
_cell_angle_beta 44.665362
_cell_angle_gamma 142.353036
_cell_volume 698.251113
_symmetry_space_group_name_H-M "P -1"
_symmetry_group_IT_number 2
_symmetry_cell_setting 'triclinic'
loop_
_space_group_symop_operation_xyz
x,y,z
-x,-y,-z
loop_
_atom_site_type_symbol
_atom_site_label
_atom_site_fract_x
_atom_site_fract_y
_atom_site_fract_z
Si Si1 0.489033 0.012614 0.804643
Si Si2 0.647196 0.760616 0.740503
Si Si3 0.999458 0.845752 0.137343
Si Si4 0.790964 0.395584 0.198897
Si Si5 0.740998 0.510435 0.735057
Si Si6 0.920721 0.306419 0.130585
Si Si7 0.747127 0.677400 0.829205
Si Si8 0.434914 0.838487 0.338455
O O1 0.531200 0.941798 0.528311
O O2 0.633131 0.130654 0.713545
O O3 0.243486 0.959365 0.986700
O O4 0.500000 0.000000 0.000000
O O5 0.836605 0.839354 0.469257
O O6 0.429025 0.663600 0.736918
O O7 0.716775 0.712054 0.718372
O O8 0.583145 0.816135 0.043919
O O9 0.892011 0.782497 0.962658
O O10 0.036803 0.772710 0.078332
O O11 0.804958 0.446274 0.471005
O O12 0.810846 0.309566 0.089380
O O13 0.000000 0.500000 0.000000
O O14 0.810376 0.604563 0.644850
O O15 0.853901 0.574868 0.900069
O O16 0.487066 0.412236 0.921700
O O17 0.764144 0.261959 0.444968
#
# Coordination Sequence:
#
# PCOD9104792 Si02
#       8
#     2   2   2   2   2   2   2   2
#     4  10  24  47  75  99 130 166 223 273 342 413
#     4  12  25  39  69  97 137 175 218 274 335 390
#     4  10  24  43  66 100 128 174 217 279 337 394
#     4  12  24  36  62 102 132 182 237 270 319 388
#     4  10  20  39  62  89 134 180 221 274 317 384
#     4  10  22  42  66  92 142 177 229 277 325 390
#     4  10  22  41  61  91 139 174 216 270 331 387
#     4  10  24  43  68 101 129 175 212 273 340 393
#
# _framework density 22.914390999999998
#
# number of rings (size 3 to 8) (size 9 to 14) (size 15 to 20)
#    0.000    1.500    1.250    2.625    5.250    5.000 
#    0.000    1.250    0.000    0.000    0.000    0.000 
#    0.000    0.000    0.000    0.000    0.000    0.000 
#
# Total GULP energy -89336.964277 kJ/mol
# GULP energy per Si atom -5583.560267 kJ/mol
# Density = 2.286224 g / cm^3
# Si number density = 22.914391 Si / 1000 Ang^3
#
#
#
# Elastic Constant Matrix: (Units=GPa)
#
#
# Indices 1 2 3 4 5 6 
#
# 1 103.1347 22.8509 9.7941 -6.9730 22.1157 -5.5960
# 2 22.8509 62.3620 26.3142 -7.4319 9.2134 8.4853
# 3 9.7941 26.3142 105.4969 -2.3870 -12.9562 -0.0271
# 4 -6.9730 -7.4319 -2.3870 36.8383 -1.5975 -4.8991
# 5 22.1157 9.2134 -12.9562 -1.5975 35.2019 -5.3633
# 6 -5.5960 8.4853 -0.0271 -4.8991 -5.3633 30.0475
#
#
#
# Elastic Compliance Matrix: (Units=1/GPa)
#
#
# Indices 1 2 3 4 5 6 
#
# 1 0.012188 -0.003054 -0.001179 0.001603 -0.006889 0.002163
# 2 -0.003054 0.022079 -0.006058 0.002143 -0.007172 -0.007740
# 3 -0.001179 -0.006058 0.011980 0.000011 0.007160 0.002782
# 4 0.001603 0.002143 0.000011 0.028486 0.000400 0.004409
# 5 -0.006889 -0.007172 0.007160 0.000400 0.038435 0.007674
# 6 0.002163 -0.007740 0.002782 0.004409 0.007674 0.037960
#
#
# Mechanical properties :
#
#
# Convention : Reuss Voigt Hill
#
# Bulk Modulus (GPa) = 38.96389 43.21246 41.08817
# Shear Modulus (GPa) = 27.73711 34.55318 31.14514
#
# Velocity S-wave (km/s) = 3.48295 3.88741 3.69073
# Velocity P-wave (km/s) = 5.76330 6.24888 6.01099
#
# Compressibility (1/GPa) = 0.02566479
#
# Stress axis : x y z
#
# Youngs Moduli (GPa) = 82.04993 45.29273 83.47457
#
# Poissons Ratio (x) = 0.13831 0.09842
# Poissons Ratio (y) = 0.25056 0.50568
# Poissons Ratio (z) = 0.09674 0.27438
#
# Static dielectric constant tensor:
#      x y z
#    x 1.898530 -0.012690 -0.022530 
#    y -0.012690 1.875210 0.004380 
#    z -0.022530 0.004380 1.893610 
# 
# From -- ./inp_files/83389.got.cif
#   From: 2010.05.17/outbox.cif.g08.bks.cpg/sg2_42_cif.got.tgz:83389.got - 2010.06.03 11:33:40.
