data_PCOD9104071
_publ_section_title
;
Structure prediction by ZEFSAII (Michael W. Deem and Ramdas Pophale) SiO2 
 PCOD9104071
Probable space group: P -1
;
_chemical_formula_sum "Si O2"
_cell_formula_units_Z 16
_cell_length_a 21.155014
_cell_length_b 9.206115
_cell_length_c 5.366012
_cell_angle_alpha 133.685369
_cell_angle_beta 114.540274
_cell_angle_gamma 62.253226
_cell_volume 661.612602
_symmetry_space_group_name_H-M "P -1"
_symmetry_group_IT_number 2
_symmetry_cell_setting 'triclinic'
loop_
_space_group_symop_operation_xyz
x,y,z
-x,-y,-z
loop_
_atom_site_type_symbol
_atom_site_label
_atom_site_fract_x
_atom_site_fract_y
_atom_site_fract_z
Si Si1 0.812836 0.129831 0.367255
Si Si2 0.054213 0.891093 0.175602
Si Si3 0.162374 0.553566 0.635981
Si Si4 0.306299 0.077933 0.994327
Si Si5 0.408734 0.689425 0.458884
Si Si6 0.292232 0.464982 0.070596
Si Si7 0.034386 0.383491 0.161048
Si Si8 0.553622 0.143531 0.786062
O O1 0.836515 0.258144 0.331120
O O2 0.756779 0.318669 0.641585
O O3 0.763420 0.974120 0.065525
O O4 0.884607 0.012050 0.497984
O O5 0.111807 0.679348 0.922045
O O6 0.996153 0.817064 0.153665
O O7 0.000000 0.000000 0.000000
O O8 0.117021 0.392090 0.297167
O O9 0.243439 0.441995 0.725937
O O10 0.342622 0.900928 0.636506
O O11 0.295134 0.291546 0.079403
O O12 0.368664 0.023449 0.239551
O O13 0.369843 0.503042 0.182665
O O14 0.444964 0.720134 0.295083
O O15 0.455431 0.710870 0.807266
O O16 0.000000 0.500000 0.500000
O O17 0.000000 0.500000 0.000000
O O18 0.500000 0.000000 0.500000
#
# Coordination Sequence:
#
# PCOD9104071 Si02
#       8
#     2   2   2   2   2   2   2   2
#     4  10  20  40  57  84 120 158 202 258 311 360
#     4  10  22  37  54  80 116 150 205 253 315 366
#     4  10  21  37  58  77 119 156 201 255 316 363
#     4   9  22  37  63  91 122 159 213 243 301 368
#     4   9  21  40  64  89 132 162 201 251 300 354
#     4  10  21  39  60  90 120 167 202 255 301 364
#     4  10  20  39  57  79 109 150 193 244 305 365
#     4  10  20  41  68  94 130 167 199 250 304 354
#
# _framework density 24.183335
#
# number of rings (size 3 to 8) (size 9 to 14) (size 15 to 20)
#    0.750    1.500    1.250    1.125    1.750    1.500 
#    2.250    1.250    0.000    0.000    0.000    0.000 
#    0.000    0.000    0.000    0.000    0.000    0.000 
#
# Total GULP energy -89166.562637 kJ/mol
# GULP energy per Si atom -5572.910165 kJ/mol
# Density = 2.412829 g / cm^3
# Si number density = 24.183335 Si / 1000 Ang^3
#
#
#
# Elastic Constant Matrix: (Units=GPa)
#
#
# Indices 1 2 3 4 5 6 
#
# 1 127.6546 52.0621 74.7142 -3.6896 52.8069 27.9999
# 2 52.0621 124.7738 50.0795 -19.0705 34.0692 26.7410
# 3 74.7142 50.0795 136.8702 -9.3046 55.3938 18.8525
# 4 -3.6896 -19.0705 -9.3046 38.1412 0.2968 -1.2212
# 5 52.8069 34.0692 55.3938 0.2968 67.3127 12.3566
# 6 27.9999 26.7410 18.8525 -1.2212 12.3566 52.4101
#
#
#
# Elastic Compliance Matrix: (Units=1/GPa)
#
#
# Indices 1 2 3 4 5 6 
#
# 1 0.014460 -0.001948 -0.004192 -0.000671 -0.006212 -0.003774
# 2 -0.001948 0.011656 -0.001247 0.005238 -0.002688 -0.003702
# 3 -0.004192 -0.001247 0.012932 0.002173 -0.006706 -0.000144
# 4 -0.000671 0.005238 0.002173 0.029283 -0.003762 -0.001527
# 5 -0.006212 -0.002688 -0.006706 -0.003762 0.026483 0.000771
# 6 -0.003774 -0.003702 -0.000144 -0.001527 0.000771 0.022820
#
#
# Mechanical properties :
#
#
# Convention : Reuss Voigt Hill
#
# Bulk Modulus (GPa) = 41.19829 82.55669 61.87749
# Shear Modulus (GPa) = 35.58689 45.73564 40.66126
#
# Velocity S-wave (km/s) = 3.84023 4.35352 4.10491
# Velocity P-wave (km/s) = 6.06102 7.71251 6.93609
#
# Compressibility (1/GPa) = 0.02427285
#
# Stress axis : x y z
#
# Youngs Moduli (GPa) = 69.15598 85.79318 77.32502
#
# Poissons Ratio (x) = 0.16715 0.32415
# Poissons Ratio (y) = 0.13474 0.09646
# Poissons Ratio (z) = 0.28990 0.10702
#
# Static dielectric constant tensor:
#      x y z
#    x 1.971400 -0.026740 -0.095710 
#    y -0.026740 1.913170 -0.036880 
#    z -0.095710 -0.036880 2.236380 
# 
# From -- ./inp_files/117522.got.cif
#   From: 2010.05.17/outbox.cif.g08.bks.cpg/sg2_59_cif.got.tgz:117522.got - 2010.06.03 11:33:40.
