data_PCOD9104368
_publ_section_title
;
Structure prediction by ZEFSAII (Michael W. Deem and Ramdas Pophale) SiO2 
 PCOD9104368
Probable space group: P -1
;
_chemical_formula_sum "Si O2"
_cell_formula_units_Z 16
_cell_length_a 5.319914
_cell_length_b 15.668680
_cell_length_c 11.796855
_cell_angle_alpha 60.992745
_cell_angle_beta 107.007965
_cell_angle_gamma 123.505209
_cell_volume 716.672513
_symmetry_space_group_name_H-M "P -1"
_symmetry_group_IT_number 2
_symmetry_cell_setting 'triclinic'
loop_
_space_group_symop_operation_xyz
x,y,z
-x,-y,-z
loop_
_atom_site_type_symbol
_atom_site_label
_atom_site_fract_x
_atom_site_fract_y
_atom_site_fract_z
Si Si1 0.234336 0.180976 0.864564
Si Si2 0.468268 0.939993 0.396470
Si Si3 0.190964 0.394428 0.664330
Si Si4 0.192384 0.048211 0.131894
Si Si5 0.017048 0.132061 0.249455
Si Si6 0.560364 0.248922 0.630894
Si Si7 0.269161 0.372303 0.420135
Si Si8 0.293394 0.783454 0.683681
O O1 0.207268 0.292355 0.794075
O O2 0.382710 0.187337 0.758796
O O3 0.386651 0.154118 0.007924
O O4 0.926735 0.062873 0.889379
O O5 0.343901 0.829804 0.371656
O O6 0.362527 0.886240 0.540075
O O7 0.329667 0.013048 0.278185
O O8 0.825035 0.015772 0.369402
O O9 0.236138 0.388714 0.538817
O O10 0.451616 0.513760 0.662241
O O11 0.842521 0.363657 0.640739
O O12 0.975246 0.086477 0.143928
O O13 0.378454 0.204461 0.265496
O O14 0.872642 0.204652 0.234057
O O15 0.365819 0.276450 0.499601
O O16 0.957555 0.327214 0.342086
#
# Coordination Sequence:
#
# PCOD9104368 Si02
#       8
#     2   2   2   2   2   2   2   2
#     4  10  22  38  61  89 122 162 207 254 311 369
#     4  12  22  38  60  92 132 165 202 246 310 380
#     4  10  20  39  60  89 121 159 202 258 315 369
#     4  11  23  39  58  91 126 167 206 252 306 370
#     4  12  26  40  62  91 130 168 211 248 310 373
#     4  11  19  36  62  91 125 159 200 256 313 378
#     4  10  22  37  60  89 123 158 205 256 314 366
#     4  12  25  40  61  92 129 166 208 255 308 372
#
# _framework density 22.325400999999999
#
# number of rings (size 3 to 8) (size 9 to 14) (size 15 to 20)
#    0.000    1.000    5.000    2.625    1.750    1.500 
#    0.000    0.000    0.000    1.500    0.000    0.000 
#    0.000    0.000    0.000    0.000    0.000    0.000 
#
# Total GULP energy -89186.578446 kJ/mol
# GULP energy per Si atom -5574.161153 kJ/mol
# Density = 2.227459 g / cm^3
# Si number density = 22.325401 Si / 1000 Ang^3
#
#
#
# Elastic Constant Matrix: (Units=GPa)
#
#
# Indices 1 2 3 4 5 6 
#
# 1 84.4480 21.9824 21.5555 3.0327 -1.8148 9.4329
# 2 21.9824 91.5744 14.6008 -0.7954 -2.5224 28.1795
# 3 21.5555 14.6008 89.0062 -6.4546 1.8946 -8.7575
# 4 3.0327 -0.7954 -6.4546 25.4417 2.1429 -1.7865
# 5 -1.8148 -2.5224 1.8946 2.1429 16.4359 7.3734
# 6 9.4329 28.1795 -8.7575 -1.7865 7.3734 37.7609
#
#
#
# Elastic Compliance Matrix: (Units=1/GPa)
#
#
# Indices 1 2 3 4 5 6 
#
# 1 0.013874 -0.001260 -0.003920 -0.003352 0.004208 -0.004415
# 2 -0.001260 0.016934 -0.004382 -0.002376 0.010202 -0.015443
# 3 -0.003920 -0.004382 0.014365 0.005272 -0.007630 0.009320
# 4 -0.003352 -0.002376 0.005272 0.042397 -0.010401 0.007870
# 5 0.004208 0.010202 -0.007630 -0.010401 0.076732 -0.025910
# 6 -0.004415 -0.015443 0.009320 0.007870 -0.025910 0.046703
#
#
# Mechanical properties :
#
#
# Convention : Reuss Voigt Hill
#
# Bulk Modulus (GPa) = 38.38932 42.36735 40.37834
# Shear Modulus (GPa) = 20.93697 29.72037 25.32867
#
# Velocity S-wave (km/s) = 3.06569 3.65257 3.37192
# Velocity P-wave (km/s) = 5.45564 6.06686 5.76935
#
# Compressibility (1/GPa) = 0.02604891
#
# Stress axis : x y z
#
# Youngs Moduli (GPa) = 72.07566 59.05388 69.61290
#
# Poissons Ratio (x) = 0.07441 0.27292
# Poissons Ratio (y) = 0.09081 0.30502
# Poissons Ratio (z) = 0.28257 0.25875
#
# Static dielectric constant tensor:
#      x y z
#    x 1.930700 0.048040 0.045100 
#    y 0.048040 1.951590 0.087970 
#    z 0.045100 0.087970 1.860770 
# 
# From -- ./inp_files/368974.got.cif
#   From: 2010.05.17/outbox.cif.g08.bks.cpg/sg2_185_cif.got.tgz:368974.got - 2010.06.03 11:33:40.
