data_PCOD9104123
_publ_section_title
;
Structure prediction by ZEFSAII (Michael W. Deem and Ramdas Pophale) SiO2 
 PCOD9104123
Probable space group: P -1
;
_chemical_formula_sum "Si O2"
_cell_formula_units_Z 16
_cell_length_a 11.955685
_cell_length_b 18.701370
_cell_length_c 4.908743
_cell_angle_alpha 95.015183
_cell_angle_beta 95.124152
_cell_angle_gamma 44.651067
_cell_volume 767.803524
_symmetry_space_group_name_H-M "P -1"
_symmetry_group_IT_number 2
_symmetry_cell_setting 'triclinic'
loop_
_space_group_symop_operation_xyz
x,y,z
-x,-y,-z
loop_
_atom_site_type_symbol
_atom_site_label
_atom_site_fract_x
_atom_site_fract_y
_atom_site_fract_z
Si Si1 0.459516 0.126292 0.420745
Si Si2 0.618354 0.505907 0.635061
Si Si3 0.331567 0.423945 0.861726
Si Si4 0.887405 0.763146 0.576567
Si Si5 0.185384 0.060435 0.654763
Si Si6 0.062503 0.631547 0.099029
Si Si7 0.497342 0.203391 0.957666
Si Si8 0.145940 0.982831 0.114192
O O1 0.295525 0.160564 0.347497
O O2 0.624155 0.012345 0.346334
O O3 0.460745 0.196580 0.254336
O O4 0.467939 0.147797 0.741296
O O5 0.500000 0.500000 0.500000
O O6 0.654481 0.547872 0.422724
O O7 0.787508 0.396817 0.733609
O O8 0.561454 0.575004 0.911795
O O9 0.153087 0.519381 0.970508
O O10 0.391466 0.316737 0.870224
O O11 0.933402 0.683708 0.327520
O O12 0.904400 0.830403 0.445235
O O13 0.993160 0.702687 0.845385
O O14 0.146148 0.053771 0.947739
O O15 0.148159 0.009713 0.432841
O O16 0.685858 0.132537 0.945711
O O17 0.000000 0.000000 0.000000
#
# Coordination Sequence:
#
# PCOD9104123 Si02
#       8
#     2   2   2   2   2   2   2   2
#     4  10  22  38  63  85 115 152 201 239 290 349
#     4  10  20  39  60  79 116 155 197 242 285 335
#     4  10  20  39  58  82 119 154 188 241 285 344
#     4  12  21  40  60  89 117 156 188 248 301 332
#     4  10  22  39  61  85 119 153 194 237 288 357
#     4  10  22  37  57  84 126 142 188 254 280 339
#     4  10  21  40  61  85 116 157 197 238 284 353
#     4  10  21  41  59  89 120 150 190 246 285 340
#
# _framework density 20.838663
#
# number of rings (size 3 to 8) (size 9 to 14) (size 15 to 20)
#    0.750    1.000    1.250    3.375    0.000    0.000 
#    6.750    8.750    0.000    0.000    0.000    0.000 
#    0.000    0.000    0.000    0.000    0.000    0.000 
#
# Total GULP energy -89258.173126 kJ/mol
# GULP energy per Si atom -5578.635820 kJ/mol
# Density = 2.079123 g / cm^3
# Si number density = 20.838663 Si / 1000 Ang^3
#
#
#
# Elastic Constant Matrix: (Units=GPa)
#
#
# Indices 1 2 3 4 5 6 
#
# 1 31.8505 24.4501 -4.4761 -8.3558 -0.6590 -13.6478
# 2 24.4501 90.8221 27.9701 -26.2287 -8.0050 2.2413
# 3 -4.4761 27.9701 98.0090 -24.8614 -2.6642 -4.7094
# 4 -8.3558 -26.2287 -24.8614 27.5131 -2.4928 2.3828
# 5 -0.6590 -8.0050 -2.6642 -2.4928 15.7070 -1.9633
# 6 -13.6478 2.2413 -4.7094 2.3828 -1.9633 16.8381
#
#
#
# Elastic Compliance Matrix: (Units=1/GPa)
#
#
# Indices 1 2 3 4 5 6 
#
# 1 0.101834 -0.032440 0.021457 0.011875 0.004729 0.091730
# 2 -0.032440 0.027533 -0.007211 0.013580 0.009505 -0.032789
# 3 0.021457 -0.007211 0.018155 0.014630 0.005374 0.021986
# 4 0.011875 0.013580 0.014630 0.067626 0.021235 0.004815
# 5 0.004729 0.009505 0.005374 0.021235 0.074205 0.009719
# 6 0.091730 -0.032789 0.021986 0.004815 0.009719 0.144704
#
#
# Mechanical properties :
#
#
# Convention : Reuss Voigt Hill
#
# Bulk Modulus (GPa) = 8.99825 35.17444 22.08634
# Shear Modulus (GPa) = 9.85241 23.52748 16.68994
#
# Velocity S-wave (km/s) = 2.17674 3.36375 2.83311
# Velocity P-wave (km/s) = 3.26267 5.65707 4.61777
#
# Compressibility (1/GPa) = 0.11113278
#
# Stress axis : x y z
#
# Youngs Moduli (GPa) = 9.81992 36.31939 55.08234
#
# Poissons Ratio (x) = 1.17821 -1.18191
# Poissons Ratio (y) = 0.31856 0.39722
# Poissons Ratio (z) = -0.21071 0.26192
#
# Static dielectric constant tensor:
#      x y z
#    x 1.740930 -0.010850 0.005800 
#    y -0.010850 1.779390 0.026980 
#    z 0.005800 0.026980 1.738490 
# 
# From -- ./inp_files/80577.got.cif
#   From: 2010.05.17/outbox.cif.g08.bks.cpg/sg2_41_cif.got.tgz:80577.got - 2010.06.03 11:33:40.
