data_PCOD9104194
_publ_section_title
;
Structure prediction by ZEFSAII (Michael W. Deem and Ramdas Pophale) SiO2 
 PCOD9104194
Probable space group: P -1
;
_chemical_formula_sum "Si O2"
_cell_formula_units_Z 12
_cell_length_a 6.887769
_cell_length_b 17.647132
_cell_length_c 7.090250
_cell_angle_alpha 126.682991
_cell_angle_beta 67.063791
_cell_angle_gamma 135.267532
_cell_volume 485.500344
_symmetry_space_group_name_H-M "P -1"
_symmetry_group_IT_number 2
_symmetry_cell_setting 'triclinic'
loop_
_space_group_symop_operation_xyz
x,y,z
-x,-y,-z
loop_
_atom_site_type_symbol
_atom_site_label
_atom_site_fract_x
_atom_site_fract_y
_atom_site_fract_z
Si Si1 0.133550 0.811195 0.538939
Si Si2 0.777642 0.329462 0.214716
Si Si3 0.803675 0.670421 0.109282
Si Si4 0.696748 0.937826 0.093689
Si Si5 0.454950 0.409068 0.537001
Si Si6 0.453888 0.742198 0.200779
O O1 0.269319 0.748186 0.425967
O O2 0.065044 0.789966 0.307334
O O3 0.827451 0.729179 0.621718
O O4 0.315305 0.952824 0.733528
O O5 0.540472 0.181781 0.116402
O O6 0.735888 0.347122 0.035051
O O7 0.067594 0.359044 0.142757
O O8 0.690810 0.398566 0.457523
O O9 0.644259 0.575919 0.204883
O O10 0.623569 0.704783 0.158698
O O11 0.650751 0.877090 0.226465
O O12 0.000000 0.000000 0.000000
O O13 0.500000 0.500000 0.500000
#
# Coordination Sequence:
#
# PCOD9104194 Si02
#       6
#     2   2   2   2   2   2
#     4   9  18  35  54  77 114 140 177 216 270 316
#     4   9  20  37  56  78 114 138 179 219 276 318
#     4   9  20  38  54  84 110 140 184 220 264 326
#     4  10  16  33  55  79 111 145 172 218 270 322
#     4  10  20  39  60  76 108 146 179 227 273 311
#     4   9  19  35  58  79 111 146 176 219 273 318
#
# _framework density 24.716768999999999
#
# number of rings (size 3 to 8) (size 9 to 14) (size 15 to 20)
#    2.000    0.667    1.667    0.500    0.000    1.333 
#    6.000    2.500    0.000    0.000    0.000    0.000 
#    0.000    0.000    0.000    0.000    0.000    0.000 
#
# Total GULP energy -66983.401153 kJ/mol
# GULP energy per Si atom -5581.950096 kJ/mol
# Density = 2.466051 g / cm^3
# Si number density = 24.716769 Si / 1000 Ang^3
#
#
#
# Elastic Constant Matrix: (Units=GPa)
#
#
# Indices 1 2 3 4 5 6 
#
# 1 125.3025 25.0295 31.7533 0.1597 -41.0371 -10.3393
# 2 25.0295 85.2647 13.3492 5.9453 -13.5674 4.1582
# 3 31.7533 13.3492 109.0169 20.7209 -24.2506 1.7001
# 4 0.1597 5.9453 20.7209 35.1405 1.8088 -11.6905
# 5 -41.0371 -13.5674 -24.2506 1.8088 55.1209 -5.6119
# 6 -10.3393 4.1582 1.7001 -11.6905 -5.6119 38.6926
#
#
#
# Elastic Compliance Matrix: (Units=1/GPa)
#
#
# Indices 1 2 3 4 5 6 
#
# 1 0.012065 -0.002440 -0.002129 0.003089 0.007920 0.005662
# 2 -0.002440 0.012995 0.000048 -0.003226 0.001219 -0.002848
# 3 -0.002129 0.000048 0.012292 -0.008482 0.003795 -0.003127
# 4 0.003089 -0.003226 -0.008482 0.038368 -0.002180 0.012821
# 5 0.007920 0.001219 0.003795 -0.002180 0.026590 0.005017
# 6 0.005662 -0.002848 -0.003127 0.012821 0.005017 0.032402
#
#
# Mechanical properties :
#
#
# Convention : Reuss Voigt Hill
#
# Bulk Modulus (GPa) = 35.32210 51.09423 43.20816
# Shear Modulus (GPa) = 32.63931 42.42096 37.53014
#
# Velocity S-wave (km/s) = 3.63786 4.14730 3.90090
# Velocity P-wave (km/s) = 5.65395 6.60683 6.14887
#
# Compressibility (1/GPa) = 0.02831088
#
# Stress axis : x y z
#
# Youngs Moduli (GPa) = 82.88776 76.95470 81.35220
#
# Poissons Ratio (x) = 0.18773 0.17320
# Poissons Ratio (y) = 0.20221 -0.00392
# Poissons Ratio (z) = 0.17647 -0.00371
#
# Static dielectric constant tensor:
#      x y z
#    x 1.994650 0.075720 0.040330 
#    y 0.075720 1.952930 -0.005500 
#    z 0.040330 -0.005500 2.068200 
# 
# From -- ./inp_files/135826.got.cif
#   From: 2010.05.17/outbox.cif.g08.bks.cpg/sg2_68_cif.got.tgz:135826.got - 2010.06.03 11:33:40.
