data_PCOD9104589
_publ_section_title
;
Structure prediction by ZEFSAII (Michael W. Deem and Ramdas Pophale) SiO2 
 PCOD9104589
Probable space group: P -1
;
_chemical_formula_sum "Si O2"
_cell_formula_units_Z 14
_cell_length_a 14.535381
_cell_length_b 10.024355
_cell_length_c 5.372137
_cell_angle_alpha 50.378055
_cell_angle_beta 82.042872
_cell_angle_gamma 101.287635
_cell_volume 554.204472
_symmetry_space_group_name_H-M "P -1"
_symmetry_group_IT_number 2
_symmetry_cell_setting 'triclinic'
loop_
_space_group_symop_operation_xyz
x,y,z
-x,-y,-z
loop_
_atom_site_type_symbol
_atom_site_label
_atom_site_fract_x
_atom_site_fract_y
_atom_site_fract_z
Si Si1 0.524255 0.866976 0.454114
Si Si2 0.777975 0.447471 0.711773
Si Si3 0.069273 0.149512 0.984963
Si Si4 0.044770 0.615032 0.091932
Si Si5 0.346185 0.347637 0.364097
Si Si6 0.259174 0.134232 0.160370
Si Si7 0.668913 0.162708 0.706894
O O1 0.554770 0.691047 0.706490
O O2 0.429262 0.803024 0.383786
O O3 0.500000 0.000000 0.500000
O O4 0.625478 0.014240 0.121710
O O5 0.854238 0.660917 0.399102
O O6 0.838452 0.349764 0.965818
O O7 0.676578 0.461475 0.844921
O O8 0.751304 0.344647 0.578507
O O9 0.994965 0.217495 0.090358
O O10 0.145070 0.077332 0.185856
O O11 0.000000 0.000000 0.000000
O O12 0.000000 0.500000 0.500000
O O13 0.000000 0.500000 0.000000
O O14 0.273635 0.228940 0.311492
O O15 0.322316 0.275773 0.747053
O O16 0.294987 0.960964 0.346711
#
# Coordination Sequence:
#
# PCOD9104589 Si02
#       7
#     2   2   2   2   2   2   2
#     4  10  20  40  62  91 117 165 205 248 312 371
#     4  10  22  41  59  95 123 163 205 256 310 358
#     4  10  21  40  64  90 125 164 206 251 303 367
#     4  10  21  41  63  90 126 161 207 257 304 362
#     4  10  21  39  63  88 127 158 205 252 306 372
#     4  10  20  39  61  90 120 166 205 248 306 366
#     4  10  21  39  64  87 128 158 206 257 303 369
#
# _framework density 25.261436
#
# number of rings (size 3 to 8) (size 9 to 14) (size 15 to 20)
#    0.000    2.000    1.429    1.714    0.000    0.571 
#   10.286   22.143    0.000    0.000    0.000    0.000 
#    0.000    0.000    0.000    0.000    0.000    0.000 
#
# Total GULP energy -78202.302483 kJ/mol
# GULP energy per Si atom -5585.878749 kJ/mol
# Density = 2.520394 g / cm^3
# Si number density = 25.261436 Si / 1000 Ang^3
#
#
#
# Elastic Constant Matrix: (Units=GPa)
#
#
# Indices 1 2 3 4 5 6 
#
# 1 158.6824 29.3411 -27.6950 1.7302 44.4832 -28.3698
# 2 29.3411 152.1512 -9.1829 17.5063 -1.1552 -2.4621
# 3 -27.6950 -9.1829 58.5731 10.5465 -46.0983 7.0887
# 4 1.7302 17.5063 10.5465 30.0907 9.8350 4.0586
# 5 44.4832 -1.1552 -46.0983 9.8350 8.8844 9.5124
# 6 -28.3698 -2.4621 7.0887 4.0586 9.5124 63.1214
#
#
#
# Elastic Compliance Matrix: (Units=1/GPa)
#
#
# Indices 1 2 3 4 5 6 
#
# 1 0.006824 -0.000357 0.006883 -0.004185 0.004057 0.001938
# 2 -0.000357 0.006818 -0.001501 -0.002418 -0.003458 0.000951
# 3 0.006883 -0.001501 0.005115 0.003728 -0.017431 0.004847
# 4 -0.004185 -0.002418 0.003728 0.029984 0.013612 -0.006373
# 5 0.004057 -0.003458 -0.017431 0.013612 -0.019895 0.005769
# 6 0.001938 0.000951 0.004847 -0.006373 0.005769 0.015746
#
#
# Mechanical properties :
#
#
# Convention : Reuss Voigt Hill
#
# Bulk Modulus (GPa) = 34.71493 39.37036 37.04264
# Shear Modulus (GPa) = 113.26088 45.54887 79.40487
#
# Velocity S-wave (km/s) = 6.70319 4.25090 5.61262
# Velocity P-wave (km/s) = 8.58385 6.30179 7.52978
#
# Compressibility (1/GPa) = 0.02880605
#
# Stress axis : x y z
#
# Youngs Moduli (GPa) = 146.54607 146.67222 195.48462
#
# Poissons Ratio (x) = 0.05235 -1.34546
# Poissons Ratio (y) = 0.05230 0.29350
# Poissons Ratio (z) = -1.00863 0.22021
#
# Static dielectric constant tensor:
#      x y z
#    x 2.072640 -0.042610 -0.022940 
#    y -0.042610 1.924720 -0.042760 
#    z -0.022940 -0.042760 2.056700 
# 
# From -- ./inp_files/34462.got.cif
#   From: 2010.05.17/outbox.cif.g08.bks.cpg/sg2_18_cif.got.tgz:34462.got - 2010.06.03 11:33:40.
