data_PCOD9104303
_publ_section_title
;
Structure prediction by ZEFSAII (Michael W. Deem and Ramdas Pophale) SiO2 
 PCOD9104303
Probable space group: P -1
;
_chemical_formula_sum "Si O2"
_cell_formula_units_Z 16
_cell_length_a 8.685163
_cell_length_b 23.596434
_cell_length_c 12.292362
_cell_angle_alpha 142.314208
_cell_angle_beta 146.679593
_cell_angle_gamma 51.391484
_cell_volume 840.752320
_symmetry_space_group_name_H-M "P -1"
_symmetry_group_IT_number 2
_symmetry_cell_setting 'triclinic'
loop_
_space_group_symop_operation_xyz
x,y,z
-x,-y,-z
loop_
_atom_site_type_symbol
_atom_site_label
_atom_site_fract_x
_atom_site_fract_y
_atom_site_fract_z
Si Si1 0.345370 0.006957 0.033991
Si Si2 0.512222 0.162560 0.542201
Si Si3 0.255038 0.620171 0.504438
Si Si4 0.687612 0.372448 0.929483
Si Si5 0.845735 0.168653 0.196053
Si Si6 0.696747 0.522864 0.988357
Si Si7 0.254489 0.914988 0.224446
Si Si8 0.737751 0.529671 0.537358
O O1 0.508960 0.080649 0.326688
O O2 0.045866 0.045062 0.891957
O O3 0.500000 0.000000 0.000000
O O4 0.283860 0.908938 0.912557
O O5 0.691529 0.143683 0.725937
O O6 0.184879 0.166002 0.388933
O O7 0.632088 0.262502 0.717811
O O8 0.230794 0.728695 0.666285
O O9 0.552562 0.594869 0.597757
O O10 0.208964 0.561654 0.500454
O O11 0.998256 0.573423 0.206863
O O12 0.729761 0.426015 0.921421
O O13 0.965896 0.410227 0.219655
O O14 0.422460 0.409253 0.889336
O O15 0.736200 0.140343 0.967336
O O16 0.459025 0.503745 0.729288
O O17 0.500000 0.000000 0.500000
#
# Coordination Sequence:
#
# PCOD9104303 Si02
#       8
#     2   2   2   2   2   2   2   2
#     4  11  25  43  63  94 129 157 198 263 313 362
#     4  11  22  42  65  93 123 164 211 248 304 372
#     4  10  22  38  60  90 120 161 202 244 303 363
#     4  10  22  36  59  90 117 155 206 247 292 357
#     4  11  22  40  66  89 126 161 212 249 303 377
#     4  10  20  39  60  83 124 161 195 247 301 356
#     4  11  21  42  67  89 118 166 206 251 301 362
#     4  10  22  39  57  90 126 155 200 253 299 353
#
# _framework density 19.030574999999999
#
# number of rings (size 3 to 8) (size 9 to 14) (size 15 to 20)
#    0.000    1.500    3.750    1.500    1.750    4.500 
#    2.250    0.000    0.000    0.000    0.000    0.000 
#    0.000    0.000    0.000    0.000    0.000    0.000 
#
# Total GULP energy -89347.019512 kJ/mol
# GULP energy per Si atom -5584.188720 kJ/mol
# Density = 1.898726 g / cm^3
# Si number density = 19.030575 Si / 1000 Ang^3
#
#
#
# Elastic Constant Matrix: (Units=GPa)
#
#
# Indices 1 2 3 4 5 6 
#
# 1 77.0003 54.7923 33.8183 13.3807 -6.3392 2.0831
# 2 54.7923 135.9214 75.7992 25.9860 -12.5003 5.0854
# 3 33.8183 75.7992 114.6757 3.8844 -6.8044 11.9320
# 4 13.3807 25.9860 3.8844 44.2579 2.4947 0.6454
# 5 -6.3392 -12.5003 -6.8044 2.4947 27.9053 -3.9442
# 6 2.0831 5.0854 11.9320 0.6454 -3.9442 20.6283
#
#
#
# Elastic Compliance Matrix: (Units=1/GPa)
#
#
# Indices 1 2 3 4 5 6 
#
# 1 0.018410 -0.006310 -0.001190 -0.001842 0.001329 0.000696
# 2 -0.006310 0.016601 -0.008867 -0.007379 0.004902 0.002842
# 3 -0.001190 -0.008867 0.015410 0.004423 -0.001885 -0.007106
# 4 -0.001842 -0.007379 0.004423 0.027439 -0.005445 -0.002453
# 5 0.001329 0.004902 -0.001885 -0.005445 0.039414 0.007454
# 6 0.000696 0.002842 -0.007106 -0.002453 0.007454 0.053319
#
#
# Mechanical properties :
#
#
# Convention : Reuss Voigt Hill
#
# Bulk Modulus (GPa) = 56.53634 72.93522 64.73578
# Shear Modulus (GPa) = 23.89813 29.43746 26.66780
#
# Velocity S-wave (km/s) = 3.54754 3.93727 3.74747
# Velocity P-wave (km/s) = 6.82295 7.68622 7.26741
#
# Compressibility (1/GPa) = 0.01768774
#
# Stress axis : x y z
#
# Youngs Moduli (GPa) = 54.31842 60.23766 64.89322
#
# Poissons Ratio (x) = 0.38007 0.07721
# Poissons Ratio (y) = 0.34272 0.57542
# Poissons Ratio (z) = 0.06463 0.53414
#
# Static dielectric constant tensor:
#      x y z
#    x 1.671230 0.009960 -0.006530 
#    y 0.009960 1.650250 -0.020180 
#    z -0.006530 -0.020180 1.663660 
# 
# From -- ./inp_files/39465.got.cif
#   From: 2010.05.17/outbox.cif.g08.bks.cpg/sg2_20_cif.got.tgz:39465.got - 2010.06.03 11:33:40.
