data_PCOD9104420
_publ_section_title
;
Structure prediction by ZEFSAII (Michael W. Deem and Ramdas Pophale) SiO2 
 PCOD9104420
Probable space group: P -1
;
_chemical_formula_sum "Si O2"
_cell_formula_units_Z 14
_cell_length_a 6.982940
_cell_length_b 9.258007
_cell_length_c 11.253280
_cell_angle_alpha 52.474674
_cell_angle_beta 91.639211
_cell_angle_gamma 77.843130
_cell_volume 552.365134
_symmetry_space_group_name_H-M "P -1"
_symmetry_group_IT_number 2
_symmetry_cell_setting 'triclinic'
loop_
_space_group_symop_operation_xyz
x,y,z
-x,-y,-z
loop_
_atom_site_type_symbol
_atom_site_label
_atom_site_fract_x
_atom_site_fract_y
_atom_site_fract_z
Si Si1 0.647527 0.807051 0.857714
Si Si2 0.125912 0.531613 0.599655
Si Si3 0.220161 0.459485 0.232474
Si Si4 0.291165 0.161049 0.898716
Si Si5 0.013495 0.063448 0.602766
Si Si6 0.438432 0.137672 0.543967
Si Si7 0.796631 0.156451 0.080888
O O1 0.740773 0.662082 0.827120
O O2 0.427274 0.784105 0.896254
O O3 0.593555 0.024884 0.701254
O O4 0.764515 0.776659 0.998522
O O5 0.298823 0.340041 0.728656
O O6 0.000000 0.500000 0.500000
O O7 0.156657 0.737757 0.480915
O O8 0.982620 0.546827 0.704084
O O9 0.392869 0.349420 0.384457
O O10 0.209032 0.672968 0.093112
O O11 0.162490 0.043711 0.888050
O O12 0.500000 0.000000 0.000000
O O13 0.222259 0.118602 0.589534
O O14 0.046587 0.892560 0.782611
O O15 0.000000 0.000000 0.500000
O O16 0.500000 0.000000 0.500000
#
# Coordination Sequence:
#
# PCOD9104420 Si02
#       7
#     2   2   2   2   2   2   2
#     4   9  19  38  65  87 123 164 205 255 309 377
#     4  11  23  44  63  83 128 174 202 253 321 374
#     4  10  21  36  64  91 118 161 210 258 314 357
#     4  10  22  40  64  87 124 170 208 246 317 373
#     4  10  21  38  63  89 121 163 211 255 308 374
#     4   8  17  38  57  85 122 158 195 253 313 363
#     4  10  20  39  60  93 128 157 205 260 311 367
#
# _framework density 25.345552000000001
#
# number of rings (size 3 to 8) (size 9 to 14) (size 15 to 20)
#    0.000    2.286    1.429    0.429    4.000    1.143 
#   10.286    0.714    0.000    0.000    0.000    0.000 
#    0.000    0.000    0.000    0.000    0.000    0.000 
#
# Total GULP energy -78257.044577 kJ/mol
# GULP energy per Si atom -5589.788898 kJ/mol
# Density = 2.528786 g / cm^3
# Si number density = 25.345552 Si / 1000 Ang^3
#
#
#
# Elastic Constant Matrix: (Units=GPa)
#
#
# Indices 1 2 3 4 5 6 
#
# 1 69.4249 2.9066 10.9551 -5.4424 -3.6937 -12.3156
# 2 2.9066 77.5694 27.3732 0.9822 10.6524 -3.9324
# 3 10.9551 27.3732 198.4633 -24.5571 24.3377 14.4566
# 4 -5.4424 0.9822 -24.5571 62.2016 0.8881 -2.7801
# 5 -3.6937 10.6524 24.3377 0.8881 46.3570 -2.7477
# 6 -12.3156 -3.9324 14.4566 -2.7801 -2.7477 27.8745
#
#
#
# Elastic Compliance Matrix: (Units=1/GPa)
#
#
# Indices 1 2 3 4 5 6 
#
# 1 0.016417 0.000044 -0.001728 0.001096 0.002690 0.008530
# 2 0.000044 0.014019 -0.001998 -0.000855 -0.001989 0.002752
# 3 -0.001728 -0.001998 0.006429 0.002266 -0.003363 -0.004485
# 4 0.001096 -0.000855 0.002266 0.017133 -0.001188 0.000780
# 5 0.002690 -0.001989 -0.003363 -0.001188 0.024324 0.004931
# 6 0.008530 0.002752 -0.004485 0.000780 0.004931 0.042922
#
#
# Mechanical properties :
#
#
# Convention : Reuss Voigt Hill
#
# Bulk Modulus (GPa) = 33.89781 47.54748 40.72265
# Shear Modulus (GPa) = 36.11624 47.56815 41.84219
#
# Velocity S-wave (km/s) = 3.77895 4.33689 4.06750
# Velocity P-wave (km/s) = 5.69596 6.62409 6.17748
#
# Compressibility (1/GPa) = 0.02950043
#
# Stress axis : x y z
#
# Youngs Moduli (GPa) = 60.91199 71.33318 155.53937
#
# Poissons Ratio (x) = -0.00312 0.26874
# Poissons Ratio (y) = -0.00266 0.31081
# Poissons Ratio (z) = 0.10524 0.14254
#
# Static dielectric constant tensor:
#      x y z
#    x 2.102840 -0.009200 0.013330 
#    y -0.009200 2.008720 -0.025100 
#    z 0.013330 -0.025100 2.039060 
# 
# From -- ./inp_files/416362.got.cif
#   From: 2010.05.17/outbox.cif.g08.bks.cpg/sg2_209_cif.got.tgz:416362.got - 2010.06.03 11:33:40.
