data_PCOD9104477
_publ_section_title
;
Structure prediction by ZEFSAII (Michael W. Deem and Ramdas Pophale) SiO2 
 PCOD9104477
Probable space group: P -1
;
_chemical_formula_sum "Si O2"
_cell_formula_units_Z 16
_cell_length_a 20.303547
_cell_length_b 9.116835
_cell_length_c 12.703199
_cell_angle_alpha 124.990501
_cell_angle_beta 149.188570
_cell_angle_gamma 40.788777
_cell_volume 765.803521
_symmetry_space_group_name_H-M "P -1"
_symmetry_group_IT_number 2
_symmetry_cell_setting 'triclinic'
loop_
_space_group_symop_operation_xyz
x,y,z
-x,-y,-z
loop_
_atom_site_type_symbol
_atom_site_label
_atom_site_fract_x
_atom_site_fract_y
_atom_site_fract_z
Si Si1 0.283721 0.219973 0.750627
Si Si2 0.321891 0.704631 0.798104
Si Si3 0.233331 0.177081 0.909847
Si Si4 0.172856 0.190701 0.213988
Si Si5 0.464828 0.723002 0.806093
Si Si6 0.540487 0.361862 0.607466
Si Si7 0.219480 0.416762 0.177810
Si Si8 0.141215 0.492217 0.472461
O O1 0.249461 0.215452 0.824841
O O2 0.142963 0.403091 0.553858
O O3 0.366191 0.967800 0.713294
O O4 0.415637 0.265789 0.949700
O O5 0.334642 0.732286 0.702869
O O6 0.207561 0.634793 0.630013
O O7 0.287760 0.925737 0.894392
O O8 0.500000 0.500000 0.000000
O O9 0.044126 0.335735 0.748718
O O10 0.298820 0.267992 0.117064
O O11 0.200811 0.271424 0.175904
O O12 0.222575 0.286717 0.415239
O O13 0.299967 0.911122 0.284365
O O14 0.969120 0.336690 0.997316
O O15 0.566422 0.496908 0.783411
O O16 0.500000 0.500000 0.500000
O O17 0.365673 0.418312 0.419427
#
# Coordination Sequence:
#
# PCOD9104477 Si02
#       8
#     2   2   2   2   2   2   2   2
#     4  10  20  39  61  84 122 152 197 243 296 363
#     4  11  22  35  58  88 115 150 193 244 295 342
#     4  10  23  38  60  87 119 158 194 244 303 353
#     4  10  24  41  65  90 120 168 205 251 303 356
#     4  10  22  38  57  91 116 154 199 240 297 357
#     4  12  24  39  64  93 123 162 205 249 310 361
#     4  10  23  44  62  89 126 160 211 251 295 367
#     4  11  21  39  60  88 119 154 198 245 300 355
#
# _framework density 20.893087000000001
#
# number of rings (size 3 to 8) (size 9 to 14) (size 15 to 20)
#    0.000    1.500    1.250    3.375    3.500    0.500 
#    0.000    3.750    0.000    0.000    0.000    0.000 
#    0.000    0.000    0.000    0.000    0.000    0.000 
#
# Total GULP energy -89142.804908 kJ/mol
# GULP energy per Si atom -5571.425307 kJ/mol
# Density = 2.084553 g / cm^3
# Si number density = 20.893087 Si / 1000 Ang^3
#
#
#
# Elastic Constant Matrix: (Units=GPa)
#
#
# Indices 1 2 3 4 5 6 
#
# 1 59.8450 46.2611 5.7331 4.7335 -7.7566 2.0191
# 2 46.2611 158.6839 32.1649 -0.5413 -1.9274 1.7063
# 3 5.7331 32.1649 46.9743 -0.1018 3.3117 6.5066
# 4 4.7335 -0.5413 -0.1018 29.5058 -0.2782 -3.9040
# 5 -7.7566 -1.9274 3.3117 -0.2782 27.7150 -1.0611
# 6 2.0191 1.7063 6.5066 -3.9040 -1.0611 25.6042
#
#
#
# Elastic Compliance Matrix: (Units=1/GPa)
#
#
# Indices 1 2 3 4 5 6 
#
# 1 0.023095 -0.007041 0.001905 -0.004069 0.005620 -0.002224
# 2 -0.007041 0.009520 -0.005841 0.001492 -0.000534 0.001611
# 3 0.001905 -0.005841 0.026219 -0.001246 -0.003277 -0.006750
# 4 -0.004069 0.001492 -0.001246 0.035347 -0.000305 0.005915
# 5 0.005620 -0.000534 -0.003277 -0.000305 0.038081 0.001957
# 6 -0.002224 0.001611 -0.006750 0.005915 0.001957 0.041822
#
#
# Mechanical properties :
#
#
# Convention : Reuss Voigt Hill
#
# Bulk Modulus (GPa) = 27.11495 48.20237 37.65866
# Shear Modulus (GPa) = 24.00019 28.65461 26.32740
#
# Velocity S-wave (km/s) = 3.39295 3.70738 3.55364
# Velocity P-wave (km/s) = 5.32500 6.43795 5.90774
#
# Compressibility (1/GPa) = 0.03688002
#
# Stress axis : x y z
#
# Youngs Moduli (GPa) = 43.29873 105.04418 38.14059
#
# Poissons Ratio (x) = 0.73961 -0.07267
# Poissons Ratio (y) = 0.30486 0.22280
# Poissons Ratio (z) = -0.08250 0.61361
#
# Static dielectric constant tensor:
#      x y z
#    x 1.995200 -0.032710 -0.278680 
#    y -0.032710 1.861870 0.056030 
#    z -0.278680 0.056030 2.162500 
# 
# From -- ./inp_files/190686.got.cif
#   From: 2010.05.17/outbox.cif.g08.bks.cpg/sg2_96_cif.got.tgz:190686.got - 2010.06.03 11:33:40.
