data_PCOD9104370
_publ_section_title
;
Structure prediction by ZEFSAII (Michael W. Deem and Ramdas Pophale) SiO2 
 PCOD9104370
Probable space group: P -1
;
_chemical_formula_sum "Si O2"
_cell_formula_units_Z 16
_cell_length_a 9.380813
_cell_length_b 6.900539
_cell_length_c 15.677516
_cell_angle_alpha 88.190011
_cell_angle_beta 48.592133
_cell_angle_gamma 70.007864
_cell_volume 687.500485
_symmetry_space_group_name_H-M "P -1"
_symmetry_group_IT_number 2
_symmetry_cell_setting 'triclinic'
loop_
_space_group_symop_operation_xyz
x,y,z
-x,-y,-z
loop_
_atom_site_type_symbol
_atom_site_label
_atom_site_fract_x
_atom_site_fract_y
_atom_site_fract_z
Si Si1 0.361706 0.669182 0.661449
Si Si2 0.734000 0.758270 0.533300
Si Si3 0.413317 0.692207 0.185564
Si Si4 0.670345 0.876694 0.005758
Si Si5 0.830897 0.560957 0.686998
Si Si6 0.780511 0.023878 0.126839
Si Si7 0.570379 0.776972 0.302371
Si Si8 0.058176 0.125884 0.244802
O O1 0.591233 0.651772 0.550670
O O2 0.309837 0.777638 0.775253
O O3 0.356338 0.440428 0.671458
O O4 0.184589 0.823697 0.665096
O O5 0.772673 0.677823 0.617284
O O6 0.963495 0.664225 0.403511
O O7 0.592697 0.011899 0.587727
O O8 0.354748 0.494744 0.205755
O O9 0.447606 0.742478 0.269055
O O10 0.218912 0.894191 0.217897
O O11 0.622826 0.677642 0.055489
O O12 0.885275 0.834831 0.874977
O O13 0.500000 0.000000 0.000000
O O14 0.645811 0.018575 0.097387
O O15 0.895721 0.706649 0.719704
O O16 0.760715 0.832881 0.193098
O O17 0.000000 0.000000 0.000000
#
# Coordination Sequence:
#
# PCOD9104370 Si02
#       8
#     2   2   2   2   2   2   2   2
#     4  11  23  40  64  92 129 162 199 257 319 360
#     4  10  23  42  64  92 122 159 213 267 303 364
#     4  10  21  40  64  91 124 163 207 255 300 372
#     4   9  20  38  62  90 129 163 198 251 304 357
#     4  11  23  40  67  92 116 167 217 252 312 365
#     4  10  20  39  60  89 126 165 202 251 298 372
#     4  10  21  39  63  91 122 163 210 250 306 375
#     4  11  23  41  60  95 129 160 204 257 309 368
#
# _framework density 23.272708000000002
#
# number of rings (size 3 to 8) (size 9 to 14) (size 15 to 20)
#    0.000    1.750    3.750    0.000    1.750    5.000 
#    0.000    1.250    0.000    0.000    0.000    0.000 
#    0.000    0.000    0.000    0.000    0.000    0.000 
#
# Total GULP energy -89411.743742 kJ/mol
# GULP energy per Si atom -5588.233984 kJ/mol
# Density = 2.321974 g / cm^3
# Si number density = 23.272708 Si / 1000 Ang^3
#
#
#
# Elastic Constant Matrix: (Units=GPa)
#
#
# Indices 1 2 3 4 5 6 
#
# 1 78.9622 25.8224 19.3002 -3.4827 -2.5647 8.8325
# 2 25.8224 65.4508 14.3376 -5.7959 1.1204 9.6358
# 3 19.3002 14.3376 53.4644 -13.0120 -2.4702 6.4124
# 4 -3.4827 -5.7959 -13.0120 20.1754 2.3662 -5.9639
# 5 -2.5647 1.1204 -2.4702 2.3662 30.2386 1.7258
# 6 8.8325 9.6358 6.4124 -5.9639 1.7258 28.5923
#
#
#
# Elastic Compliance Matrix: (Units=1/GPa)
#
#
# Indices 1 2 3 4 5 6 
#
# 1 0.015666 -0.005038 -0.004553 -0.002676 0.001511 -0.002769
# 2 -0.005038 0.018505 -0.002263 0.002049 -0.001249 -0.003670
# 3 -0.004553 -0.002263 0.024477 0.014159 0.000612 -0.000404
# 4 -0.002676 0.002049 0.014159 0.062396 -0.004614 0.010254
# 5 0.001511 -0.001249 0.000612 -0.004614 0.033838 -0.003188
# 6 -0.002769 -0.003670 -0.000404 0.010254 -0.003188 0.039489
#
#
# Mechanical properties :
#
#
# Convention : Reuss Voigt Hill
#
# Bulk Modulus (GPa) = 28.62078 35.19974 31.91026
# Shear Modulus (GPa) = 21.76509 25.02906 23.39708
#
# Velocity S-wave (km/s) = 3.06145 3.28299 3.17416
# Velocity P-wave (km/s) = 4.98210 5.43401 5.21296
#
# Compressibility (1/GPa) = 0.03493965
#
# Stress axis : x y z
#
# Youngs Moduli (GPa) = 63.83384 54.03908 40.85419
#
# Poissons Ratio (x) = 0.27226 0.18602
# Poissons Ratio (y) = 0.32161 0.09244
# Poissons Ratio (z) = 0.29065 0.12227
#
# Static dielectric constant tensor:
#      x y z
#    x 1.852240 -0.005210 -0.018340 
#    y -0.005210 1.854890 -0.022730 
#    z -0.018340 -0.022730 1.955460 
# 
# From -- ./inp_files/315408.got.cif
#   From: 2010.05.17/outbox.cif.g08.bks.cpg/sg2_158_cif.got.tgz:315408.got - 2010.06.03 11:33:40.
