data_PCOD9104890
_publ_section_title
;
Structure prediction by ZEFSAII (Michael W. Deem and Ramdas Pophale) SiO2 
 PCOD9104890
Probable space group: P -1
;
_chemical_formula_sum "Si O2"
_cell_formula_units_Z 16
_cell_length_a 10.111774
_cell_length_b 14.650199
_cell_length_c 9.878350
_cell_angle_alpha 151.168342
_cell_angle_beta 122.392667
_cell_angle_gamma 63.543603
_cell_volume 594.867455
_symmetry_space_group_name_H-M "P -1"
_symmetry_group_IT_number 2
_symmetry_cell_setting 'triclinic'
loop_
_space_group_symop_operation_xyz
x,y,z
-x,-y,-z
loop_
_atom_site_type_symbol
_atom_site_label
_atom_site_fract_x
_atom_site_fract_y
_atom_site_fract_z
Si Si1 0.566751 0.208499 0.719781
Si Si2 0.914925 0.798971 0.412161
Si Si3 0.381605 0.142829 0.855743
Si Si4 0.136549 0.831982 0.983135
Si Si5 0.730834 0.098894 0.268899
Si Si6 0.675456 0.383655 0.398519
Si Si7 0.715320 0.552493 0.136027
Si Si8 0.785588 0.706676 0.675294
O O1 0.529994 0.996719 0.376250
O O2 0.718964 0.213345 0.902275
O O3 0.413642 0.309814 0.812993
O O4 0.636334 0.343866 0.812482
O O5 0.873214 0.596426 0.195717
O O6 0.088785 0.850187 0.524707
O O7 0.788868 0.824163 0.256672
O O8 0.886069 0.947082 0.712863
O O9 0.360605 0.011848 0.805787
O O10 0.498542 0.324775 0.177278
O O11 0.192763 0.751605 0.767931
O O12 0.974654 0.726175 0.803300
O O13 0.673678 0.296152 0.435278
O O14 0.731992 0.921274 0.932534
O O15 0.727266 0.583174 0.614141
O O16 0.734459 0.610803 0.380364
#
# Coordination Sequence:
#
# PCOD9104890 Si02
#       8
#     2   2   2   2   2   2   2   2
#     4  10  22  37  63  89 129 153 194 261 308 356
#     4  10  22  39  67  88 121 165 201 253 316 354
#     4  11  24  44  60  87 125 169 209 246 296 367
#     4  10  20  39  62  94 125 151 199 260 314 368
#     4  11  25  44  62  88 127 167 211 250 291 367
#     4  12  23  39  66  91 122 168 200 254 313 361
#     4  11  21  38  61 101 123 148 203 259 315 370
#     4  11  24  40  64  96 126 156 202 259 308 366
#
# _framework density 26.896747999999999
#
# number of rings (size 3 to 8) (size 9 to 14) (size 15 to 20)
#    0.000    1.250    1.250    4.875    3.500    4.500 
#    2.250    0.625    0.000    0.000    0.000    0.000 
#    0.000    0.000    0.000    0.000    0.000    0.000 
#
# Total GULP energy -89577.394488 kJ/mol
# GULP energy per Si atom -5598.587155 kJ/mol
# Density = 2.683553 g / cm^3
# Si number density = 26.896748 Si / 1000 Ang^3
#
#
#
# Elastic Constant Matrix: (Units=GPa)
#
#
# Indices 1 2 3 4 5 6 
#
# 1 91.6449 22.7916 22.7070 -1.5867 36.2737 8.0817
# 2 22.7916 115.9915 41.2236 18.3198 16.8256 -0.9932
# 3 22.7070 41.2236 120.5120 16.8286 34.5464 -7.2767
# 4 -1.5867 18.3198 16.8286 46.7101 3.4736 12.4013
# 5 36.2737 16.8256 34.5464 3.4736 52.8519 0.5325
# 6 8.0817 -0.9932 -7.2767 12.4013 0.5325 41.3590
#
#
#
# Elastic Compliance Matrix: (Units=1/GPa)
#
#
# Indices 1 2 3 4 5 6 
#
# 1 0.016005 -0.002183 0.000046 0.003226 -0.010491 -0.004004
# 2 -0.002183 0.010559 -0.002643 -0.003614 0.000089 0.001298
# 3 0.000046 -0.002643 0.011801 -0.003553 -0.006703 0.003155
# 4 0.003226 -0.003614 -0.003553 0.026729 -0.000404 -0.009352
# 5 -0.010491 0.000089 -0.006703 -0.000404 0.030495 0.000601
# 6 -0.004004 0.001298 0.003155 -0.009352 0.000601 0.028344
#
#
# Mechanical properties :
#
#
# Convention : Reuss Voigt Hill
#
# Bulk Modulus (GPa) = 34.71609 55.73253 45.22431
# Shear Modulus (GPa) = 34.94238 44.27930 39.61084
#
# Velocity S-wave (km/s) = 3.60826 4.06183 3.84174
# Velocity P-wave (km/s) = 5.50405 6.53940 6.04394
#
# Compressibility (1/GPa) = 0.02880508
#
# Stress axis : x y z
#
# Youngs Moduli (GPa) = 62.48159 94.70911 84.73648
#
# Poissons Ratio (x) = 0.20678 -0.00393
# Poissons Ratio (y) = 0.13642 0.22395
# Poissons Ratio (z) = -0.00290 0.25030
#
# Static dielectric constant tensor:
#      x y z
#    x 2.141760 0.068250 -0.092730 
#    y 0.068250 2.122130 -0.013930 
#    z -0.092730 -0.013930 2.112470 
# 
# From -- ./inp_files/205663.got.cif
#   From: 2010.05.17/outbox.cif.g08.bks.cpg/sg2_103_cif.got.tgz:205663.got - 2010.06.03 11:33:40.
