data_PCOD9104768
_publ_section_title
;
Structure prediction by ZEFSAII (Michael W. Deem and Ramdas Pophale) SiO2 
 PCOD9104768
Probable space group: P -1
;
_chemical_formula_sum "Si O2"
_cell_formula_units_Z 14
_cell_length_a 8.245003
_cell_length_b 13.156818
_cell_length_c 10.214940
_cell_angle_alpha 41.331967
_cell_angle_beta 134.178502
_cell_angle_gamma 125.547994
_cell_volume 520.871478
_symmetry_space_group_name_H-M "P -1"
_symmetry_group_IT_number 2
_symmetry_cell_setting 'triclinic'
loop_
_space_group_symop_operation_xyz
x,y,z
-x,-y,-z
loop_
_atom_site_type_symbol
_atom_site_label
_atom_site_fract_x
_atom_site_fract_y
_atom_site_fract_z
Si Si1 0.594519 0.746656 0.826020
Si Si2 0.689555 0.217110 0.740808
Si Si3 0.928489 0.672938 0.312166
Si Si4 0.190119 0.932963 0.794445
Si Si5 0.230611 0.324710 0.262064
Si Si6 0.229265 0.469323 0.383748
Si Si7 0.233628 0.924615 0.538025
O O1 0.648123 0.628590 0.854877
O O2 0.336103 0.774580 0.686136
O O3 0.689654 0.920033 0.655182
O O4 0.727320 0.706639 0.068796
O O5 0.444671 0.253539 0.520114
O O6 0.822202 0.368614 0.741994
O O7 0.855279 0.202224 0.725195
O O8 0.689175 0.095763 0.974147
O O9 0.843770 0.662605 0.423279
O O10 0.000000 0.500000 0.500000
O O11 0.324646 0.943366 0.722321
O O12 0.991505 0.790256 0.790838
O O13 0.035554 0.070923 0.598622
O O14 0.158112 0.434473 0.229448
O O15 0.500000 0.500000 0.500000
#
# Coordination Sequence:
#
# PCOD9104768 Si02
#       7
#     2   2   2   2   2   2   2
#     4  10  20  40  64  90 125 163 206 253 303 365
#     4  10  20  39  62  88 129 159 199 257 309 360
#     4  10  20  39  63  87 124 167 196 249 319 356
#     4  10  20  40  63  90 123 163 204 256 306 358
#     4  10  21  38  62  94 123 157 216 244 299 381
#     4   9  21  37  59  91 124 156 202 249 308 363
#     4   9  20  37  66  87 123 167 202 253 313 348
#
# _framework density 26.878029999999999
#
# number of rings (size 3 to 8) (size 9 to 14) (size 15 to 20)
#    0.000    2.286    2.857    0.000    4.000    1.714 
#    0.000   13.571    0.000    0.000    0.000    0.000 
#    0.000    0.000    0.000    0.000    0.000    0.000 
#
# Total GULP energy -78164.908209 kJ/mol
# GULP energy per Si atom -5583.207729 kJ/mol
# Density = 2.681685 g / cm^3
# Si number density = 26.878030 Si / 1000 Ang^3
#
#
#
# Elastic Constant Matrix: (Units=GPa)
#
#
# Indices 1 2 3 4 5 6 
#
# 1 137.9163 33.1506 59.9713 6.0294 -38.9101 -2.5413
# 2 33.1506 81.8536 13.8653 24.7089 -14.9635 -10.0901
# 3 59.9713 13.8653 220.4967 27.3010 -20.6100 6.3788
# 4 6.0294 24.7089 27.3010 29.1987 0.1124 -4.1410
# 5 -38.9101 -14.9635 -20.6100 0.1124 22.4484 10.0946
# 6 -2.5413 -10.0901 6.3788 -4.1410 10.0946 38.8863
#
#
#
# Elastic Compliance Matrix: (Units=1/GPa)
#
#
# Indices 1 2 3 4 5 6 
#
# 1 0.016399 -0.001083 -0.001071 -0.002587 0.029913 -0.007074
# 2 -0.001083 0.021100 0.003043 -0.020733 0.015705 -0.001380
# 3 -0.001071 0.003043 0.006569 -0.008998 0.007744 -0.003326
# 4 -0.002587 -0.020733 -0.008998 0.062395 -0.031738 0.010811
# 5 0.029913 0.015705 0.007744 -0.031738 0.128514 -0.031981
# 6 -0.007074 -0.001380 -0.003326 0.010811 -0.031981 0.034895
#
#
# Mechanical properties :
#
#
# Convention : Reuss Voigt Hill
#
# Bulk Modulus (GPa) = 21.81262 72.69344 47.25303
# Shear Modulus (GPa) = 17.64438 40.32530 28.98484
#
# Velocity S-wave (km/s) = 2.56493 3.87758 3.28744
# Velocity P-wave (km/s) = 4.11155 6.86672 5.65936
#
# Compressibility (1/GPa) = 0.04584501
#
# Stress axis : x y z
#
# Youngs Moduli (GPa) = 60.97919 47.39443 152.22312
#
# Poissons Ratio (x) = 0.05132 0.16306
# Poissons Ratio (y) = 0.06603 -0.46316
# Poissons Ratio (z) = 0.06532 -0.14420
#
# Static dielectric constant tensor:
#      x y z
#    x 2.273900 -0.053740 -0.095930 
#    y -0.053740 2.290270 -0.019600 
#    z -0.095930 -0.019600 2.107160 
# 
# From -- ./inp_files/199919.got.cif
#   From: 2010.05.17/outbox.cif.g08.bks.cpg/sg2_100_cif.got.tgz:199919.got - 2010.06.03 11:33:40.
