data_PCOD9104062
_publ_section_title
;
Structure prediction by ZEFSAII (Michael W. Deem and Ramdas Pophale) SiO2 
 PCOD9104062
Probable space group: P -1
;
_chemical_formula_sum "Si O2"
_cell_formula_units_Z 16
_cell_length_a 11.697653
_cell_length_b 8.231751
_cell_length_c 25.258796
_cell_angle_alpha 44.824367
_cell_angle_beta 147.611719
_cell_angle_gamma 149.046485
_cell_volume 669.119785
_symmetry_space_group_name_H-M "P -1"
_symmetry_group_IT_number 2
_symmetry_cell_setting 'triclinic'
loop_
_space_group_symop_operation_xyz
x,y,z
-x,-y,-z
loop_
_atom_site_type_symbol
_atom_site_label
_atom_site_fract_x
_atom_site_fract_y
_atom_site_fract_z
Si Si1 0.291996 0.186856 0.811493
Si Si2 0.663216 0.034724 0.488924
Si Si3 0.396796 0.714575 0.786555
Si Si4 0.376774 0.391706 0.350725
Si Si5 0.737242 0.983816 0.408239
Si Si6 0.666219 0.499330 0.343591
Si Si7 0.486013 0.858208 0.914472
Si Si8 0.961627 0.879169 0.071943
O O1 0.308691 0.376092 0.824393
O O2 0.425627 0.447392 0.757383
O O3 0.448657 0.057656 0.890184
O O4 0.951622 0.881605 0.735354
O O5 0.507389 0.159884 0.385351
O O6 0.994964 0.315156 0.575326
O O7 0.528087 0.755452 0.541365
O O8 0.713926 0.986697 0.461090
O O9 0.424377 0.822454 0.833855
O O10 0.208674 0.747346 0.668191
O O11 0.713917 0.958469 0.825858
O O12 0.423487 0.644298 0.347868
O O13 0.602221 0.620093 0.339066
O O14 0.000000 0.000000 0.500000
O O15 0.252123 0.495430 0.924952
O O16 0.803561 0.972505 0.018671
O O17 0.000000 0.000000 0.000000
#
# Coordination Sequence:
#
# PCOD9104062 Si02
#       8
#     2   2   2   2   2   2   2   2
#     4  11  24  41  64  97 132 169 213 266 319 386
#     4  10  21  37  57  82 118 169 223 268 315 369
#     4  11  24  43  66  98 133 169 218 265 319 386
#     4  11  23  37  58  85 123 173 222 268 319 368
#     4  12  23  40  61  90 130 174 220 271 317 372
#     4  10  20  39  56  82 125 166 216 270 314 365
#     4  10  22  44  73  98 129 166 209 263 329 388
#     4   9  21  46  73  99 130 165 205 266 327 389
#
# _framework density 23.912009000000001
#
# number of rings (size 3 to 8) (size 9 to 14) (size 15 to 20)
#    0.000    1.500    2.500    2.250    1.750    3.500 
#    4.500    5.625    0.000    0.000    0.000    0.000 
#    0.000    0.000    0.000    0.000    0.000    0.000 
#
# Total GULP energy -89135.876618 kJ/mol
# GULP energy per Si atom -5570.992289 kJ/mol
# Density = 2.385758 g / cm^3
# Si number density = 23.912009 Si / 1000 Ang^3
#
#
#
# Elastic Constant Matrix: (Units=GPa)
#
#
# Indices 1 2 3 4 5 6 
#
# 1 71.1782 12.2932 20.3431 -4.9098 2.7332 3.3869
# 2 12.2932 70.2849 17.1326 -8.1560 8.2709 -2.6845
# 3 20.3431 17.1326 84.2085 -14.0762 27.0203 4.3457
# 4 -4.9098 -8.1560 -14.0762 32.4829 -0.4005 -1.5430
# 5 2.7332 8.2709 27.0203 -0.4005 38.4144 -9.3187
# 6 3.3869 -2.6845 4.3457 -1.5430 -9.3187 35.0833
#
#
#
# Elastic Compliance Matrix: (Units=1/GPa)
#
#
# Indices 1 2 3 4 5 6 
#
# 1 0.015472 -0.001991 -0.003885 0.000148 0.001904 -0.000653
# 2 -0.001991 0.015580 -0.001744 0.002896 -0.001642 0.001292
# 3 -0.003885 -0.001744 0.019109 0.006818 -0.014067 -0.005562
# 4 0.000148 0.002896 0.006818 0.034401 -0.005193 -0.000504
# 5 0.001904 -0.001642 -0.014067 -0.005193 0.038889 0.011534
# 6 -0.000653 0.001292 -0.005562 -0.000504 0.011534 0.032396
#
#
# Mechanical properties :
#
#
# Convention : Reuss Voigt Hill
#
# Bulk Modulus (GPa) = 28.63684 36.13438 32.38561
# Shear Modulus (GPa) = 27.36312 32.92299 30.14306
#
# Velocity S-wave (km/s) = 3.38646 3.71460 3.55432
# Velocity P-wave (km/s) = 5.22424 5.79154 5.51519
#
# Compressibility (1/GPa) = 0.03492005
#
# Stress axis : x y z
#
# Youngs Moduli (GPa) = 64.63455 64.18526 52.33041
#
# Poissons Ratio (x) = 0.12778 0.20331
# Poissons Ratio (y) = 0.12868 0.09129
# Poissons Ratio (z) = 0.25111 0.11197
#
# Static dielectric constant tensor:
#      x y z
#    x 2.138580 -0.116940 0.117000 
#    y -0.116940 1.989340 0.004540 
#    z 0.117000 0.004540 2.016930 
# 
# From -- ./inp_files/587342.got.cif
#   From: 2010.05.17/outbox.cif.g08.bks.cpg/sg2_294_cif.got.tgz:587342.got - 2010.06.03 11:33:40.
