data_PCOD9104908
_publ_section_title
;
Structure prediction by ZEFSAII (Michael W. Deem and Ramdas Pophale) SiO2 
 PCOD9104908
Probable space group: P -1
;
_chemical_formula_sum "Si O2"
_cell_formula_units_Z 15
_cell_length_a 8.282833
_cell_length_b 8.386726
_cell_length_c 15.719274
_cell_angle_alpha 146.441965
_cell_angle_beta 87.714718
_cell_angle_gamma 78.570599
_cell_volume 547.655766
_symmetry_space_group_name_H-M "P -1"
_symmetry_group_IT_number 2
_symmetry_cell_setting 'triclinic'
loop_
_space_group_symop_operation_xyz
x,y,z
-x,-y,-z
loop_
_atom_site_type_symbol
_atom_site_label
_atom_site_fract_x
_atom_site_fract_y
_atom_site_fract_z
Si Si1 0.154437 0.366472 0.004195
Si Si2 0.500000 0.000000 0.500000
Si Si3 0.500103 0.958687 0.238977
Si Si4 0.972652 0.954616 0.692240
Si Si5 0.225214 0.441892 0.563325
Si Si6 0.450475 0.643952 0.934416
Si Si7 0.179806 0.807830 0.464758
Si Si8 0.763128 0.783218 0.894348
O O1 0.098499 0.306901 0.071893
O O2 0.319529 0.088578 0.832949
O O3 0.181617 0.692875 0.151961
O O4 0.000000 0.500000 0.000000
O O5 0.666092 0.690724 0.411446
O O6 0.356086 0.844984 0.450041
O O7 0.418199 0.822817 0.105227
O O8 0.381711 0.307588 0.428950
O O9 0.533490 0.712249 0.209221
O O10 0.072435 0.796303 0.707247
O O11 0.130197 0.933819 0.616649
O O12 0.885377 0.754725 0.554649
O O13 0.289060 0.862282 0.975923
O O14 0.608399 0.714969 0.918236
O O15 0.204379 0.447831 0.288431
O O16 0.000000 0.000000 0.500000
#
# Coordination Sequence:
#
# PCOD9104908 Si02
#       8
#     2   1   2   2   2   2   2   2
#     4  11  24  42  61  92 140 183 219 282 343 416
#     4  12  26  44  66 104 136 182 234 290 346 414
#     4  10  20  39  65  92 128 173 226 270 335 413
#     4  11  24  46  70 103 140 183 232 288 361 407
#     4  11  24  44  73 102 136 182 236 294 344 421
#     4   9  18  35  65  92 117 162 220 277 318 405
#     4  12  23  42  71  98 138 181 227 295 347 410
#     4  10  20  39  62  95 126 169 227 270 339 401
#
# _framework density 27.389465999999999
#
# number of rings (size 3 to 8) (size 9 to 14) (size 15 to 20)
#    0.000    1.333    2.667    4.000    1.867    1.600 
#    9.600    0.667    0.000    0.000    0.000    0.000 
#    0.000    0.000    0.000    0.000    0.000    0.000 
#
# Total GULP energy -83519.234644 kJ/mol
# GULP energy per Si atom -5567.948976 kJ/mol
# Density = 2.732713 g / cm^3
# Si number density = 27.389466 Si / 1000 Ang^3
#
#
#
# Elastic Constant Matrix: (Units=GPa)
#
#
# Indices 1 2 3 4 5 6 
#
# 1 104.0486 32.9687 3.9009 3.5180 6.7019 -8.1163
# 2 32.9687 118.7822 -1.4597 29.8839 -2.4624 -45.5651
# 3 3.9009 -1.4597 68.0135 0.6168 -9.1487 -0.7355
# 4 3.5180 29.8839 0.6168 44.9136 0.1779 -16.2958
# 5 6.7019 -2.4624 -9.1487 0.1779 28.2299 0.2266
# 6 -8.1163 -45.5651 -0.7355 -16.2958 0.2266 36.5272
#
#
#
# Elastic Compliance Matrix: (Units=1/GPa)
#
#
# Indices 1 2 3 4 5 6 
#
# 1 0.011038 -0.004420 -0.001222 0.001187 -0.003389 -0.002535
# 2 -0.004420 0.018667 0.001315 -0.004783 0.002972 0.020178
# 3 -0.001222 0.001315 0.015553 -0.000497 0.005437 0.001427
# 4 0.001187 -0.004783 -0.000497 0.027794 -0.001089 0.006694
# 5 -0.003389 0.002972 0.005437 -0.001089 0.038237 0.002341
# 6 -0.002535 0.020178 0.001427 0.006694 0.002341 0.054984
#
#
# Mechanical properties :
#
#
# Convention : Reuss Voigt Hill
#
# Bulk Modulus (GPa) = 27.31911 40.18489 33.75200
# Shear Modulus (GPa) = 26.71984 38.96311 32.84147
#
# Velocity S-wave (km/s) = 3.12677 3.77577 3.46649
# Velocity P-wave (km/s) = 4.79912 5.80621 5.32652
#
# Compressibility (1/GPa) = 0.03660441
#
# Stress axis : x y z
#
# Youngs Moduli (GPa) = 90.59957 53.57098 64.29816
#
# Poissons Ratio (x) = 0.23677 0.07857
# Poissons Ratio (y) = 0.40043 -0.08458
# Poissons Ratio (z) = 0.11071 -0.07047
#
# Static dielectric constant tensor:
#      x y z
#    x 3.488370 -0.184740 1.921520 
#    y -0.184740 2.316130 -0.282880 
#    z 1.921520 -0.282880 5.245580 
# 
# From -- ./inp_files/555722.got.cif
#   From: 2010.05.17/outbox.cif.g08.bks.cpg/sg2_278_cif.got.tgz:555722.got - 2010.06.03 11:33:40.
