data_PCOD9104442
_publ_section_title
;
Structure prediction by ZEFSAII (Michael W. Deem and Ramdas Pophale) SiO2 
 PCOD9104442
Probable space group: P -1
;
_chemical_formula_sum "Si O2"
_cell_formula_units_Z 16
_cell_length_a 17.869634
_cell_length_b 8.525540
_cell_length_c 11.332466
_cell_angle_alpha 117.160331
_cell_angle_beta 59.085842
_cell_angle_gamma 147.723222
_cell_volume 790.060763
_symmetry_space_group_name_H-M "P -1"
_symmetry_group_IT_number 2
_symmetry_cell_setting 'triclinic'
loop_
_space_group_symop_operation_xyz
x,y,z
-x,-y,-z
loop_
_atom_site_type_symbol
_atom_site_label
_atom_site_fract_x
_atom_site_fract_y
_atom_site_fract_z
Si Si1 0.643874 0.120005 0.945555
Si Si2 0.883294 0.961165 0.557340
Si Si3 0.869115 0.172422 0.443366
Si Si4 0.051771 0.816492 0.171755
Si Si5 0.143122 0.228591 0.045403
Si Si6 0.621065 0.745925 0.671648
Si Si7 0.702229 0.835468 0.235347
Si Si8 0.234723 0.803773 0.891839
O O1 0.630586 0.908628 0.821654
O O2 0.780968 0.457724 0.904399
O O3 0.664688 0.124333 0.069314
O O4 0.500000 0.000000 0.000000
O O5 0.904663 0.043656 0.431504
O O6 0.927905 0.163274 0.697625
O O7 0.707241 0.702920 0.620580
O O8 0.000000 0.000000 0.500000
O O9 0.000000 0.500000 0.500000
O O10 0.719745 0.981628 0.566493
O O11 0.829801 0.093175 0.312076
O O12 0.882946 0.521227 0.176178
O O13 0.140560 0.799339 0.035979
O O14 0.109959 0.085135 0.149728
O O15 0.251380 0.267343 0.904781
O O16 0.000000 0.000000 0.000000
O O17 0.453574 0.444546 0.674531
O O18 0.687257 0.965957 0.196659
#
# Coordination Sequence:
#
# PCOD9104442 Si02
#       8
#     2   2   2   2   2   2   2   2
#     4  12  23  42  62  98 131 166 210 263 332 382
#     4  10  23  39  65  91 124 168 215 266 310 381
#     4  10  23  41  68  91 125 173 222 263 316 384
#     4  10  20  39  60  97 123 163 214 268 318 372
#     4  11  24  35  66  95 129 167 212 267 317 386
#     4  10  24  42  65  89 137 166 212 268 324 385
#     4  11  23  42  63  96 128 177 211 261 335 380
#     4  10  21  37  66  88 131 161 211 266 321 380
#
# _framework density 20.251607
#
# number of rings (size 3 to 8) (size 9 to 14) (size 15 to 20)
#    0.750    0.750    3.750    1.125    3.500    1.500 
#    0.000    0.000    0.000    2.250    0.000    0.000 
#    0.000    0.000    0.000    0.000    0.000    0.000 
#
# Total GULP energy -89073.332713 kJ/mol
# GULP energy per Si atom -5567.083295 kJ/mol
# Density = 2.020551 g / cm^3
# Si number density = 20.251607 Si / 1000 Ang^3
#
#
#
# Elastic Constant Matrix: (Units=GPa)
#
#
# Indices 1 2 3 4 5 6 
#
# 1 108.1997 21.3730 -0.0494 -2.7267 3.8779 13.2093
# 2 21.3730 97.0522 12.0723 2.6946 -3.7112 7.4271
# 3 -0.0494 12.0723 42.5177 0.2418 1.2071 6.4194
# 4 -2.7267 2.6946 0.2418 21.7292 12.2012 3.5860
# 5 3.8779 -3.7112 1.2071 12.2012 33.2145 -5.7572
# 6 13.2093 7.4271 6.4194 3.5860 -5.7572 25.5388
#
#
#
# Elastic Compliance Matrix: (Units=1/GPa)
#
#
# Indices 1 2 3 4 5 6 
#
# 1 0.010942 -0.002433 0.001922 0.005658 -0.004972 -0.007350
# 2 -0.002433 0.011461 -0.003299 -0.003275 0.002863 -0.000140
# 3 0.001922 -0.003299 0.025788 0.004225 -0.004490 -0.008123
# 4 0.005658 -0.003275 0.004225 0.066397 -0.028840 -0.018861
# 5 -0.004972 0.002863 -0.004490 -0.028840 0.044711 0.016996
# 6 -0.007350 -0.000140 -0.008123 -0.018861 0.016996 0.051520
#
#
# Mechanical properties :
#
#
# Convention : Reuss Voigt Hill
#
# Bulk Modulus (GPa) = 24.64759 34.95126 29.79943
# Shear Modulus (GPa) = 21.55526 30.38810 25.97168
#
# Velocity S-wave (km/s) = 3.26601 3.87787 3.58502
# Velocity P-wave (km/s) = 5.14000 6.11117 5.64650
#
# Compressibility (1/GPa) = 0.04057192
#
# Stress axis : x y z
#
# Youngs Moduli (GPa) = 91.39218 87.25196 38.77730
#
# Poissons Ratio (x) = 0.21233 -0.07454
# Poissons Ratio (y) = 0.22240 0.12791
# Poissons Ratio (z) = -0.17569 0.28780
#
# Static dielectric constant tensor:
#      x y z
#    x 1.740180 -0.017730 -0.010890 
#    y -0.017730 1.723260 0.000810 
#    z -0.010890 0.000810 1.735600 
# 
# From -- ./inp_files/461534.got.cif
#   From: 2010.05.17/outbox.cif.g08.bks.cpg/sg2_231_cif.got.tgz:461534.got - 2010.06.03 11:33:40.
