data_PCOD9104573
_publ_section_title
;
Structure prediction by ZEFSAII (Michael W. Deem and Ramdas Pophale) SiO2 
 PCOD9104573
Probable space group: P -1
;
_chemical_formula_sum "Si O2"
_cell_formula_units_Z 16
_cell_length_a 18.631131
_cell_length_b 8.134679
_cell_length_c 9.047775
_cell_angle_alpha 105.507159
_cell_angle_beta 38.013863
_cell_angle_gamma 81.938962
_cell_volume 656.281105
_symmetry_space_group_name_H-M "P -1"
_symmetry_group_IT_number 2
_symmetry_cell_setting 'triclinic'
loop_
_space_group_symop_operation_xyz
x,y,z
-x,-y,-z
loop_
_atom_site_type_symbol
_atom_site_label
_atom_site_fract_x
_atom_site_fract_y
_atom_site_fract_z
Si Si1 0.287014 0.610552 0.753061
Si Si2 0.743263 0.825275 0.803244
Si Si3 0.831271 0.734539 0.112923
Si Si4 0.082702 0.785241 0.719846
Si Si5 0.736318 0.571233 0.987256
Si Si6 0.041779 0.057986 0.598211
Si Si7 0.599810 0.116018 0.393247
Si Si8 0.283955 0.358808 0.464169
O O1 0.289245 0.583011 0.920412
O O2 0.365990 0.714412 0.609482
O O3 0.357909 0.393344 0.491501
O O4 0.115868 0.770320 0.033584
O O5 0.866297 0.849832 0.553090
O O6 0.657260 0.820108 0.800922
O O7 0.796697 0.605816 0.749037
O O8 0.664998 0.998953 0.101929
O O9 0.834249 0.578505 0.954033
O O10 0.824756 0.668063 0.272446
O O11 0.684366 0.955504 0.353331
O O12 0.959423 0.752605 0.884781
O O13 0.211507 0.579014 0.546454
O O14 0.123964 0.849991 0.519024
O O15 0.000000 0.000000 0.000000
O O16 0.568925 0.772633 0.298364
O O17 0.000000 0.000000 0.500000
#
# Coordination Sequence:
#
# PCOD9104573 Si02
#       8
#     2   2   2   2   2   2   2   2
#     4  11  23  43  65  97 129 170 211 256 329 378
#     4  11  24  39  63  98 129 163 210 269 313 374
#     4  10  20  39  61  89 124 170 210 249 312 380
#     4  12  22  39  60  90 137 175 198 247 328 395
#     4  10  24  42  68  91 124 172 221 266 306 374
#     4  12  23  39  63  96 133 166 209 259 319 385
#     4  11  21  48  68  89 124 175 221 259 316 370
#     4  11  25  38  62 100 132 165 209 258 324 386
#
# _framework density 24.379795000000001
#
# number of rings (size 3 to 8) (size 9 to 14) (size 15 to 20)
#    0.000    1.000    3.750    3.750    5.250    0.500 
#    0.000    6.250    0.000    0.000    0.000    0.000 
#    0.000    0.000    0.000    0.000    0.000    0.000 
#
# Total GULP energy -89235.323482 kJ/mol
# GULP energy per Si atom -5577.207718 kJ/mol
# Density = 2.432431 g / cm^3
# Si number density = 24.379795 Si / 1000 Ang^3
#
#
#
# Elastic Constant Matrix: (Units=GPa)
#
#
# Indices 1 2 3 4 5 6 
#
# 1 60.7029 24.9376 30.7637 -9.8120 20.9775 16.3863
# 2 24.9376 130.3777 21.2114 -38.7641 -3.0045 -5.6553
# 3 30.7637 21.2114 43.2051 -15.1777 6.7729 9.1316
# 4 -9.8120 -38.7641 -15.1777 39.5671 -2.2808 4.3198
# 5 20.9775 -3.0045 6.7729 -2.2808 51.2312 -4.1531
# 6 16.3863 -5.6553 9.1316 4.3198 -4.1531 52.7440
#
#
#
# Elastic Compliance Matrix: (Units=1/GPa)
#
#
# Indices 1 2 3 4 5 6 
#
# 1 0.034744 -0.005271 -0.019686 -0.003894 -0.012807 -0.008641
# 2 -0.005271 0.011883 0.000612 0.010525 0.003422 0.002213
# 3 -0.019686 0.000612 0.040841 0.011738 0.003090 -0.001607
# 4 -0.003894 0.010525 0.011738 0.039550 0.002197 -0.002760
# 5 -0.012807 0.003422 0.003090 0.002197 0.025108 0.005608
# 6 -0.008641 0.002213 -0.001607 -0.002760 0.005608 0.022827
#
#
# Mechanical properties :
#
#
# Convention : Reuss Voigt Hill
#
# Bulk Modulus (GPa) = 25.78662 43.12344 34.45503
# Shear Modulus (GPa) = 21.13566 39.20000 30.16783
#
# Velocity S-wave (km/s) = 2.94757 4.01420 3.52150
# Velocity P-wave (km/s) = 4.71001 6.26192 5.54057
#
# Compressibility (1/GPa) = 0.03877981
#
# Stress axis : x y z
#
# Youngs Moduli (GPa) = 28.78168 84.15612 24.48546
#
# Poissons Ratio (x) = 0.44355 0.48201
# Poissons Ratio (y) = 0.15169 -0.01499
# Poissons Ratio (z) = 0.56659 -0.05153
#
# Static dielectric constant tensor:
#      x y z
#    x 1.952440 -0.016340 0.122930 
#    y -0.016340 2.066010 0.142240 
#    z 0.122930 0.142240 2.214280 
# 
# From -- ./inp_files/342803.got.cif
#   From: 2010.05.17/outbox.cif.g08.bks.cpg/sg2_172_cif.got.tgz:342803.got - 2010.06.03 11:33:40.
