data_PCOD9105764
_publ_section_title
;
Structure prediction by ZEFSAII (Michael W. Deem and Ramdas Pophale) SiO2 
 PCOD9105764
Probable space group: P -1
;
_chemical_formula_sum "Si O2"
_cell_formula_units_Z 12
_cell_length_a 12.963516
_cell_length_b 13.684357
_cell_length_c 7.609358
_cell_angle_alpha 90.895414
_cell_angle_beta 82.273078
_cell_angle_gamma 20.897025
_cell_volume 437.369653
_symmetry_space_group_name_H-M "P -1"
_symmetry_group_IT_number 2
_symmetry_cell_setting 'triclinic'
loop_
_space_group_symop_operation_xyz
x,y,z
-x,-y,-z
loop_
_atom_site_type_symbol
_atom_site_label
_atom_site_fract_x
_atom_site_fract_y
_atom_site_fract_z
Si Si1 0.329022 0.310653 0.839693
Si Si2 0.206376 0.281041 0.279696
Si Si3 0.647644 0.163767 0.496867
Si Si4 0.146778 0.760376 0.959010
Si Si5 0.816305 0.875516 0.147997
Si Si6 0.667239 0.404886 0.682307
O O1 0.427326 0.316576 0.700868
O O2 0.052437 0.497544 0.806924
O O3 0.630314 0.971389 0.762891
O O4 0.139775 0.526576 0.050989
O O5 0.000000 0.500000 0.500000
O O6 0.510699 0.081180 0.180923
O O7 0.494555 0.366965 0.387156
O O8 0.756796 0.970084 0.357405
O O9 0.976785 0.918414 0.480137
O O10 0.429343 0.523008 0.745903
O O11 0.285365 0.617802 0.119508
O O12 0.883715 0.909234 0.005327
O O13 0.000000 0.000000 0.000000
#
# Coordination Sequence:
#
# PCOD9105764 Si02
#       6
#     2   2   2   2   2   2
#     4  12  27  47  68 107 138 179 237 282 343 417
#     4  12  26  48  73 100 140 184 227 288 350 410
#     4  11  23  41  71  95 140 180 226 277 351 397
#     4  10  20  40  68 105 133 182 232 274 346 408
#     4  11  25  44  73 101 140 183 229 290 341 405
#     4  10  20  39  65  99 135 179 228 278 325 419
#
# _framework density 27.436747
#
# number of rings (size 3 to 8) (size 9 to 14) (size 15 to 20)
#    0.000    1.000    5.000    2.500    0.000    4.000 
#    0.000    1.667    0.000    0.000    0.000    0.000 
#    0.000    0.000    0.000    0.000    0.000    0.000 
#
# Total GULP energy -67243.451322 kJ/mol
# GULP energy per Si atom -5603.620943 kJ/mol
# Density = 2.737430 g / cm^3
# Si number density = 27.436747 Si / 1000 Ang^3
#
#
#
# Elastic Constant Matrix: (Units=GPa)
#
#
# Indices 1 2 3 4 5 6 
#
# 1 149.4222 31.6558 45.2746 2.8472 -46.9894 15.4086
# 2 31.6558 171.7071 63.7881 12.8732 -11.6230 26.5521
# 3 45.2746 63.7881 142.3301 30.3767 -28.5881 14.7840
# 4 2.8472 12.8732 30.3767 45.8442 -3.1746 -4.7917
# 5 -46.9894 -11.6230 -28.5881 -3.1746 76.4755 7.5540
# 6 15.4086 26.5521 14.7840 -4.7917 7.5540 41.5489
#
#
#
# Elastic Compliance Matrix: (Units=1/GPa)
#
#
# Indices 1 2 3 4 5 6 
#
# 1 0.009295 -0.000264 -0.001438 0.000443 0.005519 -0.003719
# 2 -0.000264 0.007548 -0.002668 -0.000721 0.000345 -0.003922
# 3 -0.001438 -0.002668 0.010940 -0.006520 0.002818 -0.002919
# 4 0.000443 -0.000721 -0.006520 0.026817 -0.001757 0.006029
# 5 0.005519 0.000345 0.002818 -0.001757 0.018169 -0.006776
# 6 -0.003719 -0.003922 -0.002919 0.006029 -0.006776 0.030919
#
#
# Mechanical properties :
#
#
# Convention : Reuss Voigt Hill
#
# Bulk Modulus (GPa) = 52.51507 82.76626 67.64066
# Shear Modulus (GPa) = 42.09626 54.28977 48.19302
#
# Velocity S-wave (km/s) = 3.92127 4.45311 4.19562
# Velocity P-wave (km/s) = 6.29950 7.52808 6.94103
#
# Compressibility (1/GPa) = 0.01904215
#
# Stress axis : x y z
#
# Youngs Moduli (GPa) = 107.58740 132.49244 91.40863
#
# Poissons Ratio (x) = 0.03496 0.13146
# Poissons Ratio (y) = 0.02839 0.24388
# Poissons Ratio (z) = 0.15472 0.35350
#
# Static dielectric constant tensor:
#      x y z
#    x 2.240560 0.021110 0.039600 
#    y 0.021110 2.155950 0.029730 
#    z 0.039600 0.029730 2.163620 
# 
# From -- ./inp_files/313103.got.cif
#   From: 2010.05.17/outbox.cif.g08.bks.cpg/sg2_157_cif.got.tgz:313103.got - 2010.06.03 11:33:40.
