data_PCOD9105914
_publ_section_title
;
Structure prediction by ZEFSAII (Michael W. Deem and Ramdas Pophale) SiO2 
 PCOD9105914
Probable space group: P -1
;
_chemical_formula_sum "Si O2"
_cell_formula_units_Z 16
_cell_length_a 14.967807
_cell_length_b 13.511522
_cell_length_c 11.580595
_cell_angle_alpha 43.497324
_cell_angle_beta 30.547110
_cell_angle_gamma 55.497046
_cell_volume 807.880357
_symmetry_space_group_name_H-M "P -1"
_symmetry_group_IT_number 2
_symmetry_cell_setting 'triclinic'
loop_
_space_group_symop_operation_xyz
x,y,z
-x,-y,-z
loop_
_atom_site_type_symbol
_atom_site_label
_atom_site_fract_x
_atom_site_fract_y
_atom_site_fract_z
Si Si1 0.141314 0.459542 0.549525
Si Si2 0.347890 0.097401 0.289447
Si Si3 0.893278 0.094178 0.456455
Si Si4 0.799845 0.375410 0.882226
Si Si5 0.992292 0.165045 0.697403
Si Si6 0.851748 0.848070 0.090502
Si Si7 0.753390 0.254843 0.678785
Si Si8 0.532206 0.105634 0.486947
O O1 0.232888 0.520809 0.275125
O O2 0.164123 0.298509 0.694941
O O3 0.214063 0.575148 0.469098
O O4 0.929409 0.459264 0.763520
O O5 0.200853 0.193236 0.412639
O O6 0.267257 0.014635 0.334023
O O7 0.356182 0.973119 0.481074
O O8 0.546065 0.186156 0.982192
O O9 0.819622 0.212724 0.516132
O O10 0.000000 0.000000 0.500000
O O11 0.027610 0.160263 0.149560
O O12 0.925015 0.267682 0.778789
O O13 0.630472 0.265874 0.206960
O O14 0.874172 0.186469 0.697172
O O15 0.943352 0.995069 0.928493
O O16 0.653677 0.877461 0.261725
O O17 0.500000 0.000000 0.500000
#
# Coordination Sequence:
#
# PCOD9105914 Si02
#       8
#     2   2   2   2   2   2   2   2
#     4  10  24  41  58  90 133 170 208 257 323 389
#     4  11  22  37  69 101 119 164 214 271 314 365
#     4  11  21  41  71  95 122 163 214 278 313 364
#     4  10  21  41  61  88 127 179 205 258 326 371
#     4  10  20  39  66  94 124 161 223 261 304 376
#     4  11  22  39  59  97 125 160 213 265 306 374
#     4  11  21  44  63  94 129 166 213 258 323 377
#     4  12  22  38  65  97 131 162 218 265 305 379
#
# _framework density 19.804912999999999
#
# number of rings (size 3 to 8) (size 9 to 14) (size 15 to 20)
#    0.000    1.250    5.000    2.625    1.750    2.000 
#    6.750    0.000    0.000    2.250    0.000    0.000 
#    0.000    0.000    0.000    0.000    0.000    0.000 
#
# Total GULP energy -89369.281568 kJ/mol
# GULP energy per Si atom -5585.580098 kJ/mol
# Density = 1.975984 g / cm^3
# Si number density = 19.804913 Si / 1000 Ang^3
#
#
#
# Elastic Constant Matrix: (Units=GPa)
#
#
# Indices 1 2 3 4 5 6 
#
# 1 96.4156 26.3608 26.9007 -2.6690 -10.5014 -1.6228
# 2 26.3608 73.8421 32.9864 -2.0916 1.4866 -5.4812
# 3 26.9007 32.9864 123.4241 5.1751 -16.7873 -0.4134
# 4 -2.6690 -2.0916 5.1751 42.7586 -8.6479 -2.0308
# 5 -10.5014 1.4866 -16.7873 -8.6479 23.3874 -1.0320
# 6 -1.6228 -5.4812 -0.4134 -2.0308 -1.0320 34.2570
#
#
#
# Elastic Compliance Matrix: (Units=1/GPa)
#
#
# Indices 1 2 3 4 5 6 
#
# 1 0.012439 -0.004092 -0.000892 0.001891 0.005914 0.000214
# 2 -0.004092 0.017340 -0.004566 0.000022 -0.006106 0.002343
# 3 -0.000892 -0.004566 0.010525 -0.000077 0.007397 -0.000428
# 4 0.001891 0.000022 -0.000077 0.025707 0.010383 0.001929
# 5 0.005914 -0.006106 0.007397 0.010383 0.055024 0.001666
# 6 0.000214 0.002343 -0.000428 0.001929 0.001666 0.029735
#
#
# Mechanical properties :
#
#
# Convention : Reuss Voigt Hill
#
# Bulk Modulus (GPa) = 47.15882 51.79751 49.47816
# Shear Modulus (GPa) = 28.25831 33.90951 31.08391
#
# Velocity S-wave (km/s) = 3.78144 4.14233 3.96600
# Velocity P-wave (km/s) = 6.55203 7.00637 6.78301
#
# Compressibility (1/GPa) = 0.02120494
#
# Stress axis : x y z
#
# Youngs Moduli (GPa) = 80.38948 57.66888 95.01429
#
# Poissons Ratio (x) = 0.23598 0.08473
# Poissons Ratio (y) = 0.32895 0.43384
# Poissons Ratio (z) = 0.07169 0.26332
#
# Static dielectric constant tensor:
#      x y z
#    x 1.723350 0.010310 -0.021580 
#    y 0.010310 1.718820 -0.013250 
#    z -0.021580 -0.013250 1.719440 
# 
# From -- ./inp_files/454473.got.cif
#   From: 2010.05.17/outbox.cif.g08.bks.cpg/sg2_228_cif.got.tgz:454473.got - 2010.06.03 11:33:40.
