data_PCOD9105666
_publ_section_title
;
Structure prediction by ZEFSAII (Michael W. Deem and Ramdas Pophale) SiO2 
 PCOD9105666
Probable space group: P -1
;
_chemical_formula_sum "Si O2"
_cell_formula_units_Z 12
_cell_length_a 6.156350
_cell_length_b 10.273534
_cell_length_c 15.779620
_cell_angle_alpha 53.442186
_cell_angle_beta 68.369361
_cell_angle_gamma 38.343354
_cell_volume 487.511898
_symmetry_space_group_name_H-M "P -1"
_symmetry_group_IT_number 2
_symmetry_cell_setting 'triclinic'
loop_
_space_group_symop_operation_xyz
x,y,z
-x,-y,-z
loop_
_atom_site_type_symbol
_atom_site_label
_atom_site_fract_x
_atom_site_fract_y
_atom_site_fract_z
Si Si1 0.488441 0.567468 0.845892
Si Si2 0.496365 0.544942 0.384081
Si Si3 0.741323 0.849785 0.403584
Si Si4 0.589137 0.708613 0.949928
Si Si5 0.628868 0.025229 0.761496
Si Si6 0.521843 0.713448 0.619609
O O1 0.569199 0.639063 0.886556
O O2 0.670732 0.537307 0.746774
O O3 0.057153 0.803994 0.801167
O O4 0.587676 0.330990 0.947417
O O5 0.500000 0.500000 0.500000
O O6 0.704913 0.300550 0.395575
O O7 0.090900 0.711601 0.354072
O O8 0.541242 0.710107 0.296875
O O9 0.760145 0.689001 0.527772
O O10 0.446109 0.969997 0.328716
O O11 0.682258 0.034692 0.400866
O O12 0.474572 0.955057 0.864004
O O13 0.000000 0.500000 0.000000
#
# Coordination Sequence:
#
# PCOD9105666 Si02
#       6
#     2   2   2   2   2   2
#     4  10  20  39  65  94 121 166 215 253 308 372
#     4  12  25  40  60  94 133 167 203 257 314 369
#     4  11  24  42  59  93 130 167 208 255 311 369
#     4   9  19  37  65  92 123 163 210 261 314 359
#     4  11  20  40  64  89 129 167 201 259 315 363
#     4  11  23  40  64  93 126 167 212 252 305 382
#
# _framework density 24.614784
#
# number of rings (size 3 to 8) (size 9 to 14) (size 15 to 20)
#    0.000    1.333    5.000    0.500    0.000    4.000 
#    0.000    0.833    0.000   14.000    0.000    0.000 
#    0.000    0.000    0.000    0.000    0.000    0.000 
#
# Total GULP energy -67053.636291 kJ/mol
# GULP energy per Si atom -5587.803024 kJ/mol
# Density = 2.455876 g / cm^3
# Si number density = 24.614784 Si / 1000 Ang^3
#
#
#
# Elastic Constant Matrix: (Units=GPa)
#
#
# Indices 1 2 3 4 5 6 
#
# 1 125.8905 50.0423 76.0662 -13.6124 -2.1466 32.8542
# 2 50.0423 87.5811 42.9954 -12.4780 -12.1337 44.3764
# 3 76.0662 42.9954 194.3610 -9.3849 -38.9239 32.7423
# 4 -13.6124 -12.4780 -9.3849 35.7980 20.5778 -15.9343
# 5 -2.1466 -12.1337 -38.9239 20.5778 81.4717 -14.8204
# 6 32.8542 44.3764 32.7423 -15.9343 -14.8204 55.6813
#
#
#
# Elastic Compliance Matrix: (Units=1/GPa)
#
#
# Indices 1 2 3 4 5 6 
#
# 1 0.013169 -0.004614 -0.004453 0.003719 -0.003659 -0.001384
# 2 -0.004614 0.021425 -0.000484 -0.001042 0.000513 -0.014229
# 3 -0.004453 -0.000484 0.007894 -0.002696 0.004021 -0.001330
# 4 0.003719 -0.001042 -0.002696 0.037353 -0.009243 0.008451
# 5 -0.003659 0.000513 0.004021 -0.009243 0.016727 0.001193
# 6 -0.001384 -0.014229 -0.001330 0.008451 0.001193 0.033634
#
#
# Mechanical properties :
#
#
# Convention : Reuss Voigt Hill
#
# Bulk Modulus (GPa) = 42.76335 82.89339 62.82837
# Shear Modulus (GPa) = 31.82675 50.50542 41.16609
#
# Velocity S-wave (km/s) = 3.59972 4.53463 4.09395
# Velocity P-wave (km/s) = 5.88966 7.82090 6.92296
#
# Compressibility (1/GPa) = 0.02338451
#
# Stress axis : x y z
#
# Youngs Moduli (GPa) = 75.93368 46.67536 126.67574
#
# Poissons Ratio (x) = 0.21538 0.56413
# Poissons Ratio (y) = 0.35039 0.06132
# Poissons Ratio (z) = 0.33816 0.02259
#
# Static dielectric constant tensor:
#      x y z
#    x 1.980810 0.003880 -0.006670 
#    y 0.003880 1.988360 -0.040170 
#    z -0.006670 -0.040170 1.950170 
# 
# From -- ./inp_files/35619.got.cif
#   From: 2010.05.17/outbox.cif.g08.bks.cpg/sg2_18_cif.got.tgz:35619.got - 2010.06.03 11:33:40.
