data_PCOD9105782
_publ_section_title
;
Structure prediction by ZEFSAII (Michael W. Deem and Ramdas Pophale) SiO2 
 PCOD9105782
Probable space group: P -1
;
_chemical_formula_sum "Si O2"
_cell_formula_units_Z 14
_cell_length_a 8.194965
_cell_length_b 16.892136
_cell_length_c 9.103020
_cell_angle_alpha 107.444993
_cell_angle_beta 69.832415
_cell_angle_gamma 148.522625
_cell_volume 617.609132
_symmetry_space_group_name_H-M "P -1"
_symmetry_group_IT_number 2
_symmetry_cell_setting 'triclinic'
loop_
_space_group_symop_operation_xyz
x,y,z
-x,-y,-z
loop_
_atom_site_type_symbol
_atom_site_label
_atom_site_fract_x
_atom_site_fract_y
_atom_site_fract_z
Si Si1 0.537067 0.843572 0.708487
Si Si2 0.429839 0.522880 0.847059
Si Si3 0.271166 0.925463 0.391293
Si Si4 0.681612 0.193219 0.922915
Si Si5 0.158943 0.470426 0.323394
Si Si6 0.410529 0.327485 0.421768
Si Si7 0.299091 0.625576 0.090074
O O1 0.647219 0.792411 0.668072
O O2 0.201526 0.701406 0.649530
O O3 0.738233 0.985434 0.623624
O O4 0.466010 0.856011 0.896955
O O5 0.650777 0.532305 0.801120
O O6 0.464231 0.569846 0.696728
O O7 0.066667 0.353728 0.902156
O O8 0.526976 0.642332 0.978083
O O9 0.383704 0.912690 0.214244
O O10 0.915358 0.764301 0.466300
O O11 0.500000 0.000000 0.500000
O O12 0.572673 0.231461 0.887875
O O13 0.331629 0.564652 0.470004
O O14 0.181043 0.553843 0.246522
O O15 0.000000 0.500000 0.000000
#
# Coordination Sequence:
#
# PCOD9105782 Si02
#       7
#     2   2   2   2   2   2   2
#     4  12  25  46  71  99 142 185 227 276 350 415
#     4  11  21  41  70 104 139 171 233 289 339 400
#     4  12  29  48  69  98 142 187 230 284 344 414
#     4  11  23  47  68  98 141 183 229 282 340 414
#     4  12  23  39  76 108 135 180 228 289 346 398
#     4  12  26  46  70 107 140 178 231 292 344 405
#     4  10  20  39  66 103 139 169 227 286 336 401
#
# _framework density 22.668060000000001
#
# number of rings (size 3 to 8) (size 9 to 14) (size 15 to 20)
#    0.000    0.571    5.714    3.857    4.000    0.000 
#    0.000    0.714    0.000    0.000    0.000    0.000 
#    0.000    0.000    0.000    0.000    0.000    0.000 
#
# Total GULP energy -78335.193081 kJ/mol
# GULP energy per Si atom -5595.370934 kJ/mol
# Density = 2.261647 g / cm^3
# Si number density = 22.668060 Si / 1000 Ang^3
#
#
#
# Elastic Constant Matrix: (Units=GPa)
#
#
# Indices 1 2 3 4 5 6 
#
# 1 95.2509 10.2995 29.5477 4.3922 7.0665 -20.5095
# 2 10.2995 28.8743 30.0584 4.6913 16.8751 -8.6632
# 3 29.5477 30.0584 108.5912 2.2856 6.0572 4.7312
# 4 4.3922 4.6913 2.2856 36.1170 -10.9554 0.0246
# 5 7.0665 16.8751 6.0572 -10.9554 55.0643 1.3446
# 6 -20.5095 -8.6632 4.7312 0.0246 1.3446 31.1540
#
#
#
# Elastic Compliance Matrix: (Units=1/GPa)
#
#
# Indices 1 2 3 4 5 6 
#
# 1 0.015336 0.010384 -0.007266 -0.004459 -0.005588 0.014332
# 2 0.010384 0.094790 -0.028491 -0.021660 -0.032508 0.038942
# 3 -0.007266 -0.028491 0.019128 0.006169 0.009178 -0.016012
# 4 -0.004459 -0.021660 0.006169 0.034821 0.013716 -0.010515
# 5 -0.005588 -0.032508 0.009178 0.013716 0.030937 -0.015458
# 6 0.014332 0.038942 -0.016012 -0.010515 -0.015458 0.055469
#
#
# Mechanical properties :
#
#
# Convention : Reuss Voigt Hill
#
# Bulk Modulus (GPa) = 12.73761 41.39194 27.06478
# Shear Modulus (GPa) = 15.27199 35.32113 25.29656
#
# Velocity S-wave (km/s) = 2.59843 3.95167 3.34422
# Velocity P-wave (km/s) = 3.82542 6.25465 5.18433
#
# Compressibility (1/GPa) = 0.07850766
#
# Stress axis : x y z
#
# Youngs Moduli (GPa) = 65.20670 10.54963 52.27877
#
# Poissons Ratio (x) = -0.10955 0.37986
# Poissons Ratio (y) = -0.67711 1.48948
# Poissons Ratio (z) = 0.47380 0.30057
#
# Static dielectric constant tensor:
#      x y z
#    x 1.862290 -0.025450 -0.048170 
#    y -0.025450 1.824470 0.024570 
#    z -0.048170 0.024570 1.865580 
# 
# From -- ./inp_files/218007.got.cif
#   From: 2010.05.17/outbox.cif.g08.bks.cpg/sg2_110_cif.got.tgz:218007.got - 2010.06.03 11:33:40.
