data_PCOD9105953
_publ_section_title
;
Structure prediction by ZEFSAII (Michael W. Deem and Ramdas Pophale) SiO2 
 PCOD9105953
Probable space group: P -1
;
_chemical_formula_sum "Si O2"
_cell_formula_units_Z 16
_cell_length_a 11.323813
_cell_length_b 8.551047
_cell_length_c 17.773057
_cell_angle_alpha 45.560212
_cell_angle_beta 145.122890
_cell_angle_gamma 135.694795
_cell_volume 659.243424
_symmetry_space_group_name_H-M "P -1"
_symmetry_group_IT_number 2
_symmetry_cell_setting 'triclinic'
loop_
_space_group_symop_operation_xyz
x,y,z
-x,-y,-z
loop_
_atom_site_type_symbol
_atom_site_label
_atom_site_fract_x
_atom_site_fract_y
_atom_site_fract_z
Si Si1 0.664667 0.728991 0.424887
Si Si2 0.719277 0.916261 0.796121
Si Si3 0.072379 0.666208 0.051600
Si Si4 0.356732 0.785398 0.781947
Si Si5 0.342999 0.620403 0.591825
Si Si6 0.194544 0.576544 0.301238
Si Si7 0.096913 0.337921 0.702820
Si Si8 0.601180 0.936946 0.998132
O O1 0.602145 0.536742 0.390578
O O2 0.455635 0.687741 0.383176
O O3 0.835664 0.651816 0.589689
O O4 0.727130 0.994025 0.341892
O O5 0.570556 0.848580 0.816863
O O6 0.551999 0.812826 0.674350
O O7 0.900529 0.795221 0.933523
O O8 0.843006 0.194724 0.762678
O O9 0.304008 0.850233 0.082814
O O10 0.086097 0.527393 0.179909
O O11 0.000000 0.500000 0.000000
O O12 0.186828 0.552493 0.735786
O O13 0.423408 0.752292 0.913703
O O14 0.222216 0.443144 0.654958
O O15 0.159960 0.721522 0.430155
O O16 0.195045 0.142673 0.845806
O O17 0.500000 0.000000 0.000000
#
# Coordination Sequence:
#
# PCOD9105953 Si02
#       8
#     2   2   2   2   2   2   2   2
#     4  10  20  39  66  95 136 176 222 278 344 400
#     4  10  22  41  74  95 139 180 222 288 348 397
#     4  12  26  45  70 105 142 180 231 288 349 412
#     4  10  22  44  72  98 138 182 232 290 341 407
#     4  10  22  43  66  95 144 171 229 284 340 406
#     4  10  22  41  64 100 134 179 225 273 350 414
#     4  10  24  43  67 102 131 188 231 275 349 414
#     4  12  26  46  71 103 140 183 235 286 343 416
#
# _framework density 24.270244000000002
#
# number of rings (size 3 to 8) (size 9 to 14) (size 15 to 20)
#    0.000    1.500    2.500    2.250    5.250    1.000 
#   13.500    0.000    0.000    0.000    0.000    0.000 
#    0.000    0.000    0.000    0.000    0.000    0.000 
#
# Total GULP energy -89562.399336 kJ/mol
# GULP energy per Si atom -5597.649959 kJ/mol
# Density = 2.421500 g / cm^3
# Si number density = 24.270244 Si / 1000 Ang^3
#
#
#
# Elastic Constant Matrix: (Units=GPa)
#
#
# Indices 1 2 3 4 5 6 
#
# 1 108.3468 34.1189 41.1981 -2.1866 2.0566 -19.1182
# 2 34.1189 62.7619 20.8898 -2.1809 -4.5095 -13.2376
# 3 41.1981 20.8898 136.5979 -13.0237 -11.6216 -18.6753
# 4 -2.1866 -2.1809 -13.0237 26.0921 -21.3451 6.1602
# 5 2.0566 -4.5095 -11.6216 -21.3451 40.8994 7.8726
# 6 -19.1182 -13.2376 -18.6753 6.1602 7.8726 47.0180
#
#
#
# Elastic Compliance Matrix: (Units=1/GPa)
#
#
# Indices 1 2 3 4 5 6 
#
# 1 0.013443 -0.005851 -0.004092 -0.009289 -0.008254 0.004793
# 2 -0.005851 0.020059 -0.000317 0.003904 0.004078 0.001948
# 3 -0.004092 -0.000317 0.010702 0.014049 0.010764 -0.001146
# 4 -0.009289 0.003904 0.014049 0.099204 0.060558 -0.020235
# 5 -0.008254 0.004078 0.010764 0.060558 0.063143 -0.016439
# 6 0.004793 0.001948 -0.001146 -0.020235 -0.016439 0.028714
#
#
# Mechanical properties :
#
#
# Convention : Reuss Voigt Hill
#
# Bulk Modulus (GPa) = 42.22443 55.56889 48.89666
# Shear Modulus (GPa) = 18.96226 36.90190 27.93208
#
# Velocity S-wave (km/s) = 2.79820 3.90354 3.39614
# Velocity P-wave (km/s) = 5.27971 6.57742 5.96396
#
# Compressibility (1/GPa) = 0.02368297
#
# Stress axis : x y z
#
# Youngs Moduli (GPa) = 74.38785 49.85260 93.43833
#
# Poissons Ratio (x) = 0.29168 0.38239
# Poissons Ratio (y) = 0.43523 0.02966
# Poissons Ratio (z) = 0.30443 0.01583
#
# Static dielectric constant tensor:
#      x y z
#    x 1.974560 0.059900 0.021170 
#    y 0.059900 2.011010 0.070000 
#    z 0.021170 0.070000 1.983870 
# 
# From -- ./inp_files/566589.got.cif
#   From: 2010.05.17/outbox.cif.g08.bks.cpg/sg2_284_cif.got.tgz:566589.got - 2010.06.03 11:33:40.
