data_PCOD9105775
_publ_section_title
;
Structure prediction by ZEFSAII (Michael W. Deem and Ramdas Pophale) SiO2 
 PCOD9105775
Probable space group: P -1
;
_chemical_formula_sum "Si O2"
_cell_formula_units_Z 16
_cell_length_a 9.090087
_cell_length_b 21.343747
_cell_length_c 23.961177
_cell_angle_alpha 162.415259
_cell_angle_beta 150.605097
_cell_angle_gamma 30.899634
_cell_volume 677.384850
_symmetry_space_group_name_H-M "P -1"
_symmetry_group_IT_number 2
_symmetry_cell_setting 'triclinic'
loop_
_space_group_symop_operation_xyz
x,y,z
-x,-y,-z
loop_
_atom_site_type_symbol
_atom_site_label
_atom_site_fract_x
_atom_site_fract_y
_atom_site_fract_z
Si Si1 0.355061 0.504527 0.894586
Si Si2 0.889780 0.123264 0.950041
Si Si3 0.498463 0.609608 0.355756
Si Si4 0.299453 0.368137 0.175203
Si Si5 0.876426 0.337362 0.413979
Si Si6 0.413489 0.963675 0.723580
Si Si7 0.168799 0.696084 0.207687
Si Si8 0.555804 0.126521 0.214180
O O1 0.580818 0.348621 0.796829
O O2 0.004248 0.492459 0.781456
O O3 0.500000 0.500000 0.000000
O O4 0.306301 0.720739 0.026330
O O5 0.676299 0.097419 0.909832
O O6 0.976688 0.894510 0.756828
O O7 0.210991 0.183953 0.125284
O O8 0.340738 0.426127 0.173450
O O9 0.342866 0.720083 0.343187
O O10 0.854441 0.532970 0.393569
O O11 0.457113 0.776203 0.533909
O O12 0.592157 0.408010 0.339702
O O13 0.309067 0.115311 0.966573
O O14 0.751567 0.290042 0.392914
O O15 0.086704 0.107222 0.726085
O O16 0.445697 0.882369 0.727814
O O17 0.000000 0.500000 0.000000
#
# Coordination Sequence:
#
# PCOD9105775 Si02
#       8
#     2   2   2   2   2   2   2   2
#     4  12  23  39  67 103 129 169 227 277 318 384
#     4  10  20  39  66 101 133 171 221 273 325 389
#     4  11  26  45  65  98 138 174 216 278 345 394
#     4  11  22  43  67 102 133 178 224 272 328 397
#     4  10  21  42  68  98 136 173 216 282 336 387
#     4  11  24  42  66  97 136 177 219 277 334 390
#     4  12  25  45  68  97 130 179 227 273 325 405
#     4  11  20  41  73 102 128 175 228 271 323 397
#
# _framework density 23.620251
#
# number of rings (size 3 to 8) (size 9 to 14) (size 15 to 20)
#    0.000    1.000    3.750    4.125    0.000    1.000 
#    2.250    2.500    0.000    0.000    0.000    0.000 
#    0.000    0.000    0.000    0.000    0.000    0.000 
#
# Total GULP energy -89573.851829 kJ/mol
# GULP energy per Si atom -5598.365739 kJ/mol
# Density = 2.356649 g / cm^3
# Si number density = 23.620251 Si / 1000 Ang^3
#
#
#
# Elastic Constant Matrix: (Units=GPa)
#
#
# Indices 1 2 3 4 5 6 
#
# 1 202.5449 63.0135 31.7016 -2.7583 0.4598 6.8843
# 2 63.0135 112.4039 17.3553 0.9836 -8.1085 5.9674
# 3 31.7016 17.3553 48.2405 2.1891 -4.6665 -7.3776
# 4 -2.7583 0.9836 2.1891 27.7585 6.2991 -3.0884
# 5 0.4598 -8.1085 -4.6665 6.2991 23.3797 -15.2847
# 6 6.8843 5.9674 -7.3776 -3.0884 -15.2847 52.3440
#
#
#
# Elastic Compliance Matrix: (Units=1/GPa)
#
#
# Indices 1 2 3 4 5 6 
#
# 1 0.006702 -0.003328 -0.003990 0.001757 -0.003935 -0.002110
# 2 -0.003328 0.011287 -0.001386 -0.001560 0.004178 0.000084
# 3 -0.003990 -0.001386 0.026168 -0.004019 0.010637 0.007240
# 4 0.001757 -0.001560 -0.004019 0.039374 -0.013438 -0.002220
# 5 -0.003935 0.004178 0.010637 -0.013438 0.062453 0.018984
# 6 -0.002110 0.000084 0.007240 -0.002220 0.018984 0.025805
#
#
# Mechanical properties :
#
#
# Convention : Reuss Voigt Hill
#
# Bulk Modulus (GPa) = 37.38335 65.25890 51.32112
# Shear Modulus (GPa) = 25.23815 37.43770 31.33793
#
# Velocity S-wave (km/s) = 3.27233 3.98550 3.64640
# Velocity P-wave (km/s) = 5.48987 6.99052 6.28514
#
# Compressibility (1/GPa) = 0.02674988
#
# Stress axis : x y z
#
# Youngs Moduli (GPa) = 149.21838 88.59898 38.21403
#
# Poissons Ratio (x) = 0.29487 0.15246
# Poissons Ratio (y) = 0.49662 0.05295
# Poissons Ratio (z) = 0.59533 0.12277
#
# Static dielectric constant tensor:
#      x y z
#    x 1.909520 -0.018450 0.026510 
#    y -0.018450 1.851020 0.000750 
#    z 0.026510 0.000750 1.952830 
# 
# From -- ./inp_files/204445.got.cif
#   From: 2010.05.17/outbox.cif.g08.bks.cpg/sg2_103_cif.got.tgz:204445.got - 2010.06.03 11:33:40.
