data_PCOD9105975
_publ_section_title
;
Structure prediction by ZEFSAII (Michael W. Deem and Ramdas Pophale) SiO2 
 PCOD9105975
Probable space group: P -1
;
_chemical_formula_sum "Si O2"
_cell_formula_units_Z 16
_cell_length_a 11.347263
_cell_length_b 17.291654
_cell_length_c 9.013695
_cell_angle_alpha 49.700752
_cell_angle_beta 99.156009
_cell_angle_gamma 138.174107
_cell_volume 695.071805
_symmetry_space_group_name_H-M "P -1"
_symmetry_group_IT_number 2
_symmetry_cell_setting 'triclinic'
loop_
_space_group_symop_operation_xyz
x,y,z
-x,-y,-z
loop_
_atom_site_type_symbol
_atom_site_label
_atom_site_fract_x
_atom_site_fract_y
_atom_site_fract_z
Si Si1 0.403678 0.145743 0.576208
Si Si2 0.610965 0.709786 0.119845
Si Si3 0.560002 0.438853 0.404666
Si Si4 0.821649 0.317592 0.580021
Si Si5 0.062976 0.799639 0.143506
Si Si6 0.877287 0.088938 0.657683
Si Si7 0.146013 0.468192 0.200889
Si Si8 0.484818 0.869424 0.681742
O O1 0.463177 0.306401 0.411766
O O2 0.611154 0.232782 0.588262
O O3 0.383987 0.092782 0.471113
O O4 0.175908 0.954572 0.856126
O O5 0.593753 0.582999 0.215903
O O6 0.597312 0.695195 0.315009
O O7 0.375956 0.593042 0.168324
O O8 0.822988 0.930212 0.827705
O O9 0.814463 0.583440 0.311809
O O10 0.769947 0.174673 0.830453
O O11 0.000000 0.500000 0.500000
O O12 0.965509 0.384318 0.383233
O O13 0.034306 0.833090 0.254517
O O14 0.028357 0.277770 0.356164
O O15 0.622449 0.950580 0.760398
O O16 0.243696 0.635423 0.922498
O O17 0.500000 0.000000 0.500000
#
# Coordination Sequence:
#
# PCOD9105975 Si02
#       8
#     2   2   2   2   2   2   2   2
#     4  12  25  41  60  95 133 164 211 261 314 378
#     4  10  20  39  66  97 126 159 211 269 320 373
#     4  11  22  38  65  99 127 160 211 270 320 368
#     4  11  21  36  63  90 124 163 201 261 319 370
#     4  11  22  38  63  96 126 163 207 264 321 374
#     4  10  21  40  63  90 123 166 211 252 316 374
#     4  10  22  42  63  90 127 168 212 254 317 376
#     4  11  26  41  63  91 129 176 211 256 308 383
#
# _framework density 23.019203000000001
#
# number of rings (size 3 to 8) (size 9 to 14) (size 15 to 20)
#    0.000    1.250    5.000    1.875    3.500    4.500 
#    0.000    2.500    0.000    4.500    0.000    0.000 
#    0.000    0.000    0.000    0.000    0.000    0.000 
#
# Total GULP energy -89245.356875 kJ/mol
# GULP energy per Si atom -5577.834805 kJ/mol
# Density = 2.296681 g / cm^3
# Si number density = 23.019203 Si / 1000 Ang^3
#
#
#
# Elastic Constant Matrix: (Units=GPa)
#
#
# Indices 1 2 3 4 5 6 
#
# 1 75.8179 9.5763 33.2392 -9.7831 24.7546 -20.3515
# 2 9.5763 68.3911 23.5602 -15.4223 5.4993 -20.6238
# 3 33.2392 23.5602 131.7020 -34.1368 33.6807 -19.1193
# 4 -9.7831 -15.4223 -34.1368 22.3724 -12.0582 7.9134
# 5 24.7546 5.4993 33.6807 -12.0582 36.9785 -14.4619
# 6 -20.3515 -20.6238 -19.1193 7.9134 -14.4619 36.6413
#
#
#
# Elastic Compliance Matrix: (Units=1/GPa)
#
#
# Indices 1 2 3 4 5 6 
#
# 1 0.018292 0.000339 -0.002010 -0.001667 -0.008549 0.006287
# 2 0.000339 0.020427 -0.000155 0.013040 0.005400 0.010920
# 3 -0.002010 -0.000155 0.014143 0.017434 -0.005777 0.000131
# 4 -0.001667 0.013040 0.017434 0.085300 0.011794 0.001744
# 5 -0.008549 0.005400 -0.005777 0.011794 0.045205 0.010571
# 6 0.006287 0.010920 0.000131 0.001744 0.010571 0.040794
#
#
# Mechanical properties :
#
#
# Convention : Reuss Voigt Hill
#
# Bulk Modulus (GPa) = 20.32147 45.40693 32.86420
# Shear Modulus (GPa) = 20.47355 33.16747 26.82051
#
# Velocity S-wave (km/s) = 2.98554 3.79999 3.41711
# Velocity P-wave (km/s) = 4.55322 6.24673 5.46596
#
# Compressibility (1/GPa) = 0.04920905
#
# Stress axis : x y z
#
# Youngs Moduli (GPa) = 54.66898 48.95444 70.70483
#
# Poissons Ratio (x) = -0.01658 0.14212
# Poissons Ratio (y) = -0.01852 0.01099
# Poissons Ratio (z) = 0.10989 0.00761
#
# Static dielectric constant tensor:
#      x y z
#    x 1.907120 0.006170 0.056530 
#    y 0.006170 1.838880 -0.005210 
#    z 0.056530 -0.005210 1.928770 
# 
# From -- ./inp_files/279064.got.cif
#   From: 2010.05.17/outbox.cif.g08.bks.cpg/sg2_140_cif.got.tgz:279064.got - 2010.06.03 11:33:40.
