data_PCOD9105497
_publ_section_title
;
Structure prediction by ZEFSAII (Michael W. Deem and Ramdas Pophale) SiO2 
 PCOD9105497
Probable space group: P -1
;
_chemical_formula_sum "Si O2"
_cell_formula_units_Z 13
_cell_length_a 15.226992
_cell_length_b 7.363340
_cell_length_c 15.844559
_cell_angle_alpha 70.146094
_cell_angle_beta 17.381623
_cell_angle_gamma 71.080007
_cell_volume 499.162606
_symmetry_space_group_name_H-M "P -1"
_symmetry_group_IT_number 2
_symmetry_cell_setting 'triclinic'
loop_
_space_group_symop_operation_xyz
x,y,z
-x,-y,-z
loop_
_atom_site_type_symbol
_atom_site_label
_atom_site_fract_x
_atom_site_fract_y
_atom_site_fract_z
Si Si1 0.800501 0.405731 0.502332
Si Si2 0.000000 0.000000 0.500000
Si Si3 0.548959 0.012495 0.247468
Si Si4 0.367310 0.664875 0.756640
Si Si5 0.949063 0.988165 0.736852
Si Si6 0.187864 0.196062 0.812532
Si Si7 0.376686 0.382620 0.052648
O O1 0.572786 0.503015 0.633057
O O2 0.934800 0.226176 0.356972
O O3 0.098911 0.502180 0.248860
O O4 0.618284 0.349464 0.762631
O O5 0.759649 0.824259 0.765280
O O6 0.943260 0.082929 0.636184
O O7 0.204019 0.057784 0.555215
O O8 0.654764 0.834951 0.236900
O O9 0.691056 0.197771 0.131414
O O10 0.651022 0.987405 0.062143
O O11 0.563635 0.774665 0.489829
O O12 0.051121 0.634571 0.008770
O O13 0.000000 0.000000 0.000000
O O14 0.500000 0.500000 0.000000
#
# Coordination Sequence:
#
# PCOD9105497 Si02
#       7
#     2   1   2   2   2   2   2
#     4  11  25  46  67 105 144 188 230 309 367 420
#     4  10  26  48  72 100 148 196 232 308 370 412
#     4  11  22  40  68  99 129 186 242 286 342 448
#     4  11  22  41  68  99 139 180 231 301 360 414
#     4  11  24  43  66  95 140 183 237 285 363 429
#     4  10  20  39  64  98 138 177 232 295 357 420
#     4  11  25  47  73 105 146 189 254 301 365 445
#
# _framework density 26.043616
#
# number of rings (size 3 to 8) (size 9 to 14) (size 15 to 20)
#    0.000    1.231    0.000    7.846    2.154    5.538 
#    0.000    4.615    0.000    0.000    0.000    0.000 
#    0.000    0.000    0.000    0.000    0.000    0.000 
#
# Total GULP energy -72516.342922 kJ/mol
# GULP energy per Si atom -5578.180225 kJ/mol
# Density = 2.598434 g / cm^3
# Si number density = 26.043616 Si / 1000 Ang^3
#
#
#
# Elastic Constant Matrix: (Units=GPa)
#
#
# Indices 1 2 3 4 5 6 
#
# 1 123.6127 26.2278 36.3718 -10.5173 2.7508 -3.7477
# 2 26.2278 50.0422 20.5670 10.8607 3.5609 -8.3911
# 3 36.3718 20.5670 148.3306 5.5728 15.1426 -8.6845
# 4 -10.5173 10.8607 5.5728 35.8694 -6.9025 -2.2428
# 5 2.7508 3.5609 15.1426 -6.9025 61.5766 0.7226
# 6 -3.7477 -8.3911 -8.6845 -2.2428 0.7226 47.9842
#
#
#
# Elastic Compliance Matrix: (Units=1/GPa)
#
#
# Indices 1 2 3 4 5 6 
#
# 1 0.010354 -0.005864 -0.002045 0.005295 0.000977 -0.000354
# 2 -0.005864 0.026488 -0.001459 -0.009687 -0.002038 0.003488
# 3 -0.002045 -0.001459 0.007761 -0.001677 -0.001932 0.000940
# 4 0.005295 -0.009687 -0.001677 0.033484 0.004490 -0.000086
# 5 0.000977 -0.002038 -0.001932 0.004490 0.017301 -0.000680
# 6 -0.000354 0.003488 0.000940 -0.000086 -0.000680 0.021599
#
#
# Mechanical properties :
#
#
# Convention : Reuss Voigt Hill
#
# Bulk Modulus (GPa) = 38.65929 54.25764 46.45846
# Shear Modulus (GPa) = 34.63937 45.00730 39.82333
#
# Velocity S-wave (km/s) = 3.65094 4.16161 3.91462
# Velocity P-wave (km/s) = 5.71391 6.63104 6.18948
#
# Compressibility (1/GPa) = 0.02586700
#
# Stress axis : x y z
#
# Youngs Moduli (GPa) = 96.58260 37.75231 128.85439
#
# Poissons Ratio (x) = 0.22139 0.26353
# Poissons Ratio (y) = 0.56638 0.18795
# Poissons Ratio (z) = 0.19753 0.05507
#
# Static dielectric constant tensor:
#      x y z
#    x 2.151920 -0.054820 -0.118590 
#    y -0.054820 2.228850 0.015320 
#    z -0.118590 0.015320 1.990230 
# 
# From -- ./inp_files/527390.got.cif
#   From: 2010.05.17/outbox.cif.g08.bks.cpg/sg2_264_cif.got.tgz:527390.got - 2010.06.03 11:33:40.
