data_PCOD9105334
_publ_section_title
;
Structure prediction by ZEFSAII (Michael W. Deem and Ramdas Pophale) SiO2 
 PCOD9105334
Probable space group: P -1
;
_chemical_formula_sum "Si O2"
_cell_formula_units_Z 16
_cell_length_a 15.365155
_cell_length_b 14.354276
_cell_length_c 6.865818
_cell_angle_alpha 135.717032
_cell_angle_beta 117.095491
_cell_angle_gamma 41.592907
_cell_volume 691.344965
_symmetry_space_group_name_H-M "P -1"
_symmetry_group_IT_number 2
_symmetry_cell_setting 'triclinic'
loop_
_space_group_symop_operation_xyz
x,y,z
-x,-y,-z
loop_
_atom_site_type_symbol
_atom_site_label
_atom_site_fract_x
_atom_site_fract_y
_atom_site_fract_z
Si Si1 0.497282 0.696708 0.117761
Si Si2 0.497098 0.153560 0.990669
Si Si3 0.829472 0.291572 0.309161
Si Si4 0.786546 0.943177 0.538944
Si Si5 0.715378 0.806595 0.911568
Si Si6 0.042640 0.959723 0.261754
Si Si7 0.479241 0.417321 0.593642
Si Si8 0.967989 0.432830 0.686896
O O1 0.519451 0.660950 0.316346
O O2 0.341119 0.878807 0.218107
O O3 0.557644 0.762905 0.155306
O O4 0.538548 0.510271 0.809397
O O5 0.378633 0.210658 0.092730
O O6 0.541638 0.258883 0.267680
O O7 0.623079 0.942928 0.845242
O O8 0.674724 0.421229 0.370077
O O9 0.883922 0.379468 0.580218
O O10 0.907618 0.101932 0.213722
O O11 0.875029 0.237231 0.047455
O O12 0.866997 0.994502 0.615201
O O13 0.887383 0.763591 0.507862
O O14 0.740771 0.897021 0.237304
O O15 0.859912 0.611950 0.714129
O O16 0.000000 0.000000 0.500000
O O17 0.000000 0.500000 0.000000
#
# Coordination Sequence:
#
# PCOD9105334 Si02
#       8
#     2   2   2   2   2   2   2   2
#     4  11  24  40  63  95 128 167 210 269 324 373
#     4  11  23  40  66  90 124 175 214 257 323 379
#     4  10  20  39  64  90 126 166 210 268 321 376
#     4  10  20  41  60  89 130 160 208 270 318 374
#     4  10  21  41  63  89 126 169 217 265 309 384
#     4  10  22  39  65  94 125 169 213 267 329 384
#     4  11  22  42  62  93 133 160 215 268 314 386
#     4   9  19  38  67  84 122 166 204 266 320 364
#
# _framework density 23.143294000000001
#
# number of rings (size 3 to 8) (size 9 to 14) (size 15 to 20)
#    0.000    1.750    3.750    0.375    0.000    2.500 
#    0.000    0.625    5.500    0.000    0.000    0.000 
#    0.000    0.000    0.000    0.000    0.000    0.000 
#
# Total GULP energy -89251.436342 kJ/mol
# GULP energy per Si atom -5578.214771 kJ/mol
# Density = 2.309062 g / cm^3
# Si number density = 23.143294 Si / 1000 Ang^3
#
#
#
# Elastic Constant Matrix: (Units=GPa)
#
#
# Indices 1 2 3 4 5 6 
#
# 1 52.1909 17.1686 26.7942 -9.1427 0.7512 11.8408
# 2 17.1686 93.8578 19.5249 7.1832 -6.8316 7.6483
# 3 26.7942 19.5249 71.8292 8.1764 4.0282 5.4988
# 4 -9.1427 7.1832 8.1764 34.1688 0.8736 -9.3803
# 5 0.7512 -6.8316 4.0282 0.8736 31.2074 -6.2406
# 6 11.8408 7.6483 5.4988 -9.3803 -6.2406 33.4668
#
#
#
# Elastic Compliance Matrix: (Units=1/GPa)
#
#
# Indices 1 2 3 4 5 6 
#
# 1 0.028406 -0.003462 -0.010245 0.009386 -0.001424 -0.005210
# 2 -0.003462 0.012256 -0.001632 -0.003686 0.002713 -0.001835
# 3 -0.010245 -0.001632 0.019324 -0.007439 -0.002752 -0.001776
# 4 0.009386 -0.003686 -0.007439 0.036842 0.000737 0.009208
# 5 -0.001424 0.002713 -0.002752 0.000737 0.034398 0.006957
# 6 -0.005210 -0.001835 -0.001776 0.009208 0.006957 0.036313
#
#
# Mechanical properties :
#
#
# Convention : Reuss Voigt Hill
#
# Bulk Modulus (GPa) = 34.12033 38.31703 36.21868
# Shear Modulus (GPa) = 24.04003 30.06127 27.05065
#
# Velocity S-wave (km/s) = 3.22646 3.60796 3.42253
# Velocity P-wave (km/s) = 5.35305 5.82657 5.59482
#
# Compressibility (1/GPa) = 0.02930804
#
# Stress axis : x y z
#
# Youngs Moduli (GPa) = 35.20419 81.59026 51.74846
#
# Poissons Ratio (x) = 0.28249 0.53015
# Poissons Ratio (y) = 0.12189 0.08447
# Poissons Ratio (z) = 0.36065 0.13317
#
# Static dielectric constant tensor:
#      x y z
#    x 1.868900 0.031660 -0.004610 
#    y 0.031660 1.906250 -0.006120 
#    z -0.004610 -0.006120 1.946540 
# 
# From -- ./inp_files/111067.got.cif
#   From: 2010.05.17/outbox.cif.g08.bks.cpg/sg2_56_cif.got.tgz:111067.got - 2010.06.03 11:33:40.
