data_PCOD9105763
_publ_section_title
;
Structure prediction by ZEFSAII (Michael W. Deem and Ramdas Pophale) SiO2 
 PCOD9105763
Probable space group: P -1
;
_chemical_formula_sum "Si O2"
_cell_formula_units_Z 14
_cell_length_a 11.136269
_cell_length_b 5.442105
_cell_length_c 11.711942
_cell_angle_alpha 75.179389
_cell_angle_beta 63.052692
_cell_angle_gamma 62.514895
_cell_volume 560.338572
_symmetry_space_group_name_H-M "P -1"
_symmetry_group_IT_number 2
_symmetry_cell_setting 'triclinic'
loop_
_space_group_symop_operation_xyz
x,y,z
-x,-y,-z
loop_
_atom_site_type_symbol
_atom_site_label
_atom_site_fract_x
_atom_site_fract_y
_atom_site_fract_z
Si Si1 0.329073 0.140290 0.604153
Si Si2 0.941850 0.852197 0.711696
Si Si3 0.522168 0.839064 0.892142
Si Si4 0.212350 0.917506 0.489935
Si Si5 0.510572 0.700710 0.307719
Si Si6 0.287886 0.776285 0.862987
Si Si7 0.167336 0.628092 0.130949
O O1 0.354131 0.338689 0.664067
O O2 0.500000 0.000000 0.500000
O O3 0.233136 0.153711 0.531802
O O4 0.270683 0.958675 0.736217
O O5 0.913920 0.581464 0.791376
O O6 0.106918 0.797752 0.611373
O O7 0.853387 0.970785 0.618445
O O8 0.894029 0.097227 0.797350
O O9 0.357693 0.884527 0.922430
O O10 0.661654 0.551778 0.884318
O O11 0.557542 0.990779 0.750917
O O12 0.500000 0.000000 0.000000
O O13 0.373810 0.674902 0.430349
O O14 0.574555 0.502576 0.198187
O O15 0.164673 0.707505 0.988161
#
# Coordination Sequence:
#
# PCOD9105763 Si02
#       7
#     2   2   2   2   2   2   2
#     4   9  22  43  63  97 132 175 219 278 335 396
#     4  11  26  45  69  98 132 186 221 277 326 396
#     4  11  20  35  62 101 137 168 208 279 344 392
#     4  10  22  45  65  94 134 175 234 269 329 398
#     4  10  20  39  65  99 130 166 221 276 344 383
#     4  11  23  37  67 101 131 173 216 282 344 399
#     4  12  24  43  67 100 139 171 225 271 339 401
#
# _framework density 24.984894000000001
#
# number of rings (size 3 to 8) (size 9 to 14) (size 15 to 20)
#    0.000    1.429    2.857    2.143    2.000    4.571 
#   12.857    1.429    0.000    0.000    0.000    0.000 
#    0.000    0.000    0.000    0.000    0.000    0.000 
#
# Total GULP energy -78161.538782 kJ/mol
# GULP energy per Si atom -5582.967056 kJ/mol
# Density = 2.492803 g / cm^3
# Si number density = 24.984894 Si / 1000 Ang^3
#
#
#
# Elastic Constant Matrix: (Units=GPa)
#
#
# Indices 1 2 3 4 5 6 
#
# 1 90.8883 21.9851 34.6277 3.0043 -7.5863 16.2592
# 2 21.9851 63.3267 64.3148 0.0297 8.5059 0.4432
# 3 34.6277 64.3148 183.7271 -18.5754 -15.4027 10.9113
# 4 3.0043 0.0297 -18.5754 42.0400 7.2145 9.9105
# 5 -7.5863 8.5059 -15.4027 7.2145 37.5991 1.9702
# 6 16.2592 0.4432 10.9113 9.9105 1.9702 23.9050
#
#
#
# Elastic Compliance Matrix: (Units=1/GPa)
#
#
# Indices 1 2 3 4 5 6 
#
# 1 0.014635 -0.006301 0.000612 0.000942 0.005021 -0.010921
# 2 -0.006301 0.032632 -0.012742 -0.005986 -0.013410 0.013083
# 3 0.000612 -0.012742 0.011462 0.005803 0.007028 -0.008397
# 4 0.000942 -0.005986 0.005803 0.030142 -0.001045 -0.015589
# 5 0.005021 -0.013410 0.007028 -0.001045 0.034182 -0.008758
# 6 -0.010921 0.013083 -0.008397 -0.015589 -0.008758 0.060035
#
#
# Mechanical properties :
#
#
# Convention : Reuss Voigt Hill
#
# Bulk Modulus (GPa) = 45.72869 64.42193 55.07531
# Shear Modulus (GPa) = 22.00330 35.17646 28.58988
#
# Velocity S-wave (km/s) = 2.97082 3.75628 3.38640
# Velocity P-wave (km/s) = 5.48725 6.68231 6.11405
#
# Compressibility (1/GPa) = 0.02186811
#
# Stress axis : x y z
#
# Youngs Moduli (GPa) = 68.32909 30.64512 87.24114
#
# Poissons Ratio (x) = 0.19309 -0.05339
# Poissons Ratio (y) = 0.43053 1.11161
# Poissons Ratio (z) = -0.04182 0.39047
#
# Static dielectric constant tensor:
#      x y z
#    x 2.055970 -0.000410 -0.073670 
#    y -0.000410 2.078620 -0.062750 
#    z -0.073670 -0.062750 2.054630 
# 
# From -- ./inp_files/409104.got.cif
#   From: 2010.05.17/outbox.cif.g08.bks.cpg/sg2_205_cif.got.tgz:409104.got - 2010.06.03 11:33:40.
