data_PCOD9105425
_publ_section_title
;
Structure prediction by ZEFSAII (Michael W. Deem and Ramdas Pophale) SiO2 
 PCOD9105425
Probable space group: P -1
;
_chemical_formula_sum "Si O2"
_cell_formula_units_Z 13
_cell_length_a 10.021338
_cell_length_b 14.553313
_cell_length_c 6.282079
_cell_angle_alpha 70.058421
_cell_angle_beta 54.915107
_cell_angle_gamma 45.231590
_cell_volume 529.064580
_symmetry_space_group_name_H-M "P -1"
_symmetry_group_IT_number 2
_symmetry_cell_setting 'triclinic'
loop_
_space_group_symop_operation_xyz
x,y,z
-x,-y,-z
loop_
_atom_site_type_symbol
_atom_site_label
_atom_site_fract_x
_atom_site_fract_y
_atom_site_fract_z
Si Si1 0.877134 0.739886 0.679620
Si Si2 0.065121 0.813074 0.730211
Si Si3 0.505180 0.602624 0.304031
Si Si4 0.000000 0.000000 0.000000
Si Si5 0.160337 0.594268 0.145131
Si Si6 0.506726 0.114076 0.401517
Si Si7 0.208486 0.351660 0.783454
O O1 0.658118 0.799904 0.709819
O O2 0.878640 0.842059 0.725642
O O3 0.084336 0.658011 0.396382
O O4 0.899650 0.649242 0.907044
O O5 0.270606 0.743263 0.438881
O O6 0.023120 0.924674 0.817693
O O7 0.118352 0.705129 0.941094
O O8 0.500000 0.500000 0.500000
O O9 0.666413 0.602268 0.300443
O O10 0.607113 0.543536 0.022752
O O11 0.255339 0.936220 0.795803
O O12 0.985026 0.579645 0.261563
O O13 0.388006 0.205764 0.643383
O O14 0.500000 0.000000 0.500000
#
# Coordination Sequence:
#
# PCOD9105425 Si02
#       7
#     2   2   2   1   2   2   2
#     4  10  22  42  64  95 133 163 218 273 325 393
#     4  10  22  41  63  96 129 169 219 269 327 385
#     4  10  20  39  64  94 132 172 213 267 323 389
#     4  12  22  42  70  90 128 174 224 264 330 398
#     4   9  20  39  66  89 128 175 210 263 331 386
#     4  11  24  44  67  95 131 177 221 270 332 393
#     4  10  20  40  62  95 129 168 217 265 327 387
#
# _framework density 24.571667999999999
#
# number of rings (size 3 to 8) (size 9 to 14) (size 15 to 20)
#    0.000    1.846    1.538    3.231    0.000    3.692 
#    5.538    6.923    0.000    0.000    0.000    0.000 
#    0.000    0.000    0.000    0.000    0.000    0.000 
#
# Total GULP energy -72429.158971 kJ/mol
# GULP energy per Si atom -5571.473767 kJ/mol
# Density = 2.451574 g / cm^3
# Si number density = 24.571668 Si / 1000 Ang^3
#
#
#
# Elastic Constant Matrix: (Units=GPa)
#
#
# Indices 1 2 3 4 5 6 
#
# 1 157.3904 28.0803 68.8020 21.6054 -4.0357 44.8985
# 2 28.0803 40.8441 40.7833 24.6583 4.7561 20.2779
# 3 68.8020 40.7833 155.5562 45.8216 -7.7905 6.7830
# 4 21.6054 24.6583 45.8216 47.4840 -3.0949 11.5020
# 5 -4.0357 4.7561 -7.7905 -3.0949 46.6298 14.7632
# 6 44.8985 20.2779 6.7830 11.5020 14.7632 40.4979
#
#
#
# Elastic Compliance Matrix: (Units=1/GPa)
#
#
# Indices 1 2 3 4 5 6 
#
# 1 0.014067 0.004752 -0.007295 0.003391 0.006046 -0.019920
# 2 0.004752 0.052996 -0.011134 -0.012422 0.000772 -0.026692
# 3 -0.007295 -0.011134 0.014286 -0.008331 -0.002237 0.014452
# 4 0.003391 -0.012422 -0.008331 0.036380 0.005238 -0.008386
# 5 0.006046 0.000772 -0.002237 0.005238 0.027652 -0.018283
# 6 -0.019920 -0.026692 0.014452 -0.008386 -0.018283 0.066768
#
#
# Mechanical properties :
#
#
# Convention : Reuss Voigt Hill
#
# Bulk Modulus (GPa) = 18.52068 69.90243 44.21156
# Shear Modulus (GPa) = 19.41738 41.33066 30.37402
#
# Velocity S-wave (km/s) = 2.81416 4.10572 3.51969
# Velocity P-wave (km/s) = 4.25595 7.14046 5.87789
#
# Compressibility (1/GPa) = 0.05399370
#
# Stress axis : x y z
#
# Youngs Moduli (GPa) = 71.08948 18.86945 69.99845
#
# Poissons Ratio (x) = -0.08966 0.51063
# Poissons Ratio (y) = -0.33779 0.77937
# Poissons Ratio (z) = 0.51859 0.21010
#
# Static dielectric constant tensor:
#      x y z
#    x 1.987170 -0.050110 0.018870 
#    y -0.050110 2.044710 -0.012960 
#    z 0.018870 -0.012960 1.950200 
# 
# From -- ./inp_files/25019.got.cif
#   From: 2010.05.17/outbox.cif.g08.bks.cpg/sg2_13_cif.got.tgz:25019.got - 2010.06.03 11:33:40.
