data_PCOD9105734
_publ_section_title
;
Structure prediction by ZEFSAII (Michael W. Deem and Ramdas Pophale) SiO2 
 PCOD9105734
Probable space group: P -1
;
_chemical_formula_sum "Si O2"
_cell_formula_units_Z 14
_cell_length_a 9.517446
_cell_length_b 12.909771
_cell_length_c 8.950809
_cell_angle_alpha 121.298472
_cell_angle_beta 43.608313
_cell_angle_gamma 99.101975
_cell_volume 602.194887
_symmetry_space_group_name_H-M "P -1"
_symmetry_group_IT_number 2
_symmetry_cell_setting 'triclinic'
loop_
_space_group_symop_operation_xyz
x,y,z
-x,-y,-z
loop_
_atom_site_type_symbol
_atom_site_label
_atom_site_fract_x
_atom_site_fract_y
_atom_site_fract_z
Si Si1 0.369973 0.280325 0.090431
Si Si2 0.708015 0.623995 0.112001
Si Si3 0.411677 0.583355 0.780361
Si Si4 0.175999 0.947989 0.516377
Si Si5 0.263829 0.855235 0.717191
Si Si6 0.997733 0.231609 0.915151
Si Si7 0.719615 0.949092 0.893001
O O1 0.289670 0.352359 0.049402
O O2 0.610905 0.166063 0.794696
O O3 0.398313 0.381243 0.262145
O O4 0.234929 0.197225 0.195671
O O5 0.687697 0.491161 0.082182
O O6 0.487382 0.734882 0.426294
O O7 0.904540 0.657017 0.057584
O O8 0.500000 0.500000 0.500000
O O9 0.216314 0.715130 0.981840
O O10 0.184022 0.918849 0.666576
O O11 0.940676 0.949711 0.646021
O O12 0.171050 0.094911 0.620573
O O13 0.091084 0.801653 0.884818
O O14 0.307939 0.955032 0.872690
O O15 0.500000 0.000000 0.000000
#
# Coordination Sequence:
#
# PCOD9105734 Si02
#       7
#     2   2   2   2   2   2   2
#     4  11  24  44  66  96 129 164 214 266 310 381
#     4  11  23  42  69  92 123 175 219 253 310 377
#     4  12  26  46  63  88 133 174 213 264 314 368
#     4  10  22  40  66  99 127 161 205 262 326 375
#     4  10  20  39  65  96 133 160 202 263 319 385
#     4  11  21  40  68  94 129 164 211 260 319 377
#     4  11  22  36  63 100 133 162 200 259 327 375
#
# _framework density 23.248287000000001
#
# number of rings (size 3 to 8) (size 9 to 14) (size 15 to 20)
#    0.000    1.143    1.429    6.857    0.000    5.714 
#    2.571    0.714    0.000    0.000    0.000    0.000 
#    0.000    0.000    0.000    0.000    0.000    0.000 
#
# Total GULP energy -78395.811827 kJ/mol
# GULP energy per Si atom -5599.700845 kJ/mol
# Density = 2.319537 g / cm^3
# Si number density = 23.248287 Si / 1000 Ang^3
#
#
#
# Elastic Constant Matrix: (Units=GPa)
#
#
# Indices 1 2 3 4 5 6 
#
# 1 62.5957 -1.3766 17.3482 -4.4957 7.9731 -0.4170
# 2 -1.3766 124.7998 4.2314 -8.3516 14.6615 0.9555
# 3 17.3482 4.2314 31.4803 -11.3258 17.4560 1.4353
# 4 -4.4957 -8.3516 -11.3258 21.9010 4.8042 -5.7017
# 5 7.9731 14.6615 17.4560 4.8042 34.6920 0.0300
# 6 -0.4170 0.9555 1.4353 -5.7017 0.0300 38.9450
#
#
#
# Elastic Compliance Matrix: (Units=1/GPa)
#
#
# Indices 1 2 3 4 5 6 
#
# 1 0.019067 0.000103 -0.013313 -0.003489 0.002756 0.000179
# 2 0.000103 0.009421 0.006806 0.009275 -0.008715 0.000884
# 3 -0.013313 0.006806 0.087498 0.057777 -0.051849 0.004964
# 4 -0.003489 0.009275 0.057777 0.091044 -0.044807 0.010969
# 5 0.002756 -0.008715 -0.051849 -0.044807 0.064172 -0.004455
# 6 0.000179 0.000884 0.004964 0.010969 -0.004455 0.027084
#
#
# Mechanical properties :
#
#
# Convention : Reuss Voigt Hill
#
# Bulk Modulus (GPa) = 9.69198 28.80910 19.25054
# Shear Modulus (GPa) = 14.47230 32.35245 23.41238
#
# Velocity S-wave (km/s) = 2.49772 3.73447 3.17686
# Velocity P-wave (km/s) = 3.53498 5.56901 4.66422
#
# Compressibility (1/GPa) = 0.10317808
#
# Stress axis : x y z
#
# Youngs Moduli (GPa) = 52.44661 106.14619 11.42879
#
# Poissons Ratio (x) = -0.01093 0.15215
# Poissons Ratio (y) = -0.00540 -0.07779
# Poissons Ratio (z) = 0.69823 -0.72244
#
# Static dielectric constant tensor:
#      x y z
#    x 1.856830 -0.009610 -0.000840 
#    y -0.009610 1.861000 -0.022030 
#    z -0.000840 -0.022030 1.894030 
# 
# From -- ./inp_files/177139.got.cif
#   From: 2010.05.17/outbox.cif.g08.bks.cpg/sg2_89_cif.got.tgz:177139.got - 2010.06.03 11:33:40.
