data_PCOD9105271
_publ_section_title
;
Structure prediction by ZEFSAII (Michael W. Deem and Ramdas Pophale) SiO2 
 PCOD9105271
Probable space group: P -1
;
_chemical_formula_sum "Si O2"
_cell_formula_units_Z 16
_cell_length_a 23.190103
_cell_length_b 7.646819
_cell_length_c 7.152872
_cell_angle_alpha 76.243625
_cell_angle_beta 45.134331
_cell_angle_gamma 56.336142
_cell_volume 722.559824
_symmetry_space_group_name_H-M "P -1"
_symmetry_group_IT_number 2
_symmetry_cell_setting 'triclinic'
loop_
_space_group_symop_operation_xyz
x,y,z
-x,-y,-z
loop_
_atom_site_type_symbol
_atom_site_label
_atom_site_fract_x
_atom_site_fract_y
_atom_site_fract_z
Si Si1 0.043019 0.373113 0.741295
Si Si2 0.148981 0.906896 0.204476
Si Si3 0.767625 0.104284 0.607629
Si Si4 0.595069 0.044844 0.138744
Si Si5 0.063177 0.660805 0.334520
Si Si6 0.689443 0.227573 0.372415
Si Si7 0.507735 0.296862 0.929208
Si Si8 0.579404 0.661488 0.268580
O O1 0.082791 0.478798 0.483634
O O2 0.955554 0.388752 0.817571
O O3 0.134423 0.124808 0.621921
O O4 0.000000 0.500000 0.000000
O O5 0.197825 0.819761 0.316764
O O6 0.137109 0.733547 0.169202
O O7 0.217705 0.949763 0.913947
O O8 0.043586 0.127048 0.417347
O O9 0.725323 0.255548 0.484321
O O10 0.684417 0.067875 0.881868
O O11 0.528978 0.191826 0.425727
O O12 0.626102 0.800308 0.153774
O O13 0.518980 0.142701 0.110590
O O14 0.612683 0.170269 0.617218
O O15 0.635619 0.440533 0.312981
O O16 0.430479 0.370819 0.920646
O O17 0.500000 0.500000 0.000000
#
# Coordination Sequence:
#
# PCOD9105271 Si02
#       8
#     2   2   2   2   2   2   2   2
#     4  10  20  39  64  87 124 156 196 241 300 354
#     4  10  21  39  62  87 124 151 203 248 290 357
#     4  10  23  39  61  91 120 157 197 250 297 349
#     4  10  23  41  59  88 121 154 205 244 300 352
#     4   9  21  39  62  90 116 163 193 241 303 352
#     4  11  23  35  62  90 117 158 202 241 297 352
#     4  11  22  39  61  86 119 158 200 244 298 353
#     4  11  23  39  63  86 119 163 197 250 296 352
#
# _framework density 22.143495999999999
#
# number of rings (size 3 to 8) (size 9 to 14) (size 15 to 20)
#    0.000    1.750    1.250    2.250    5.250    1.000 
#    0.000    5.000    2.750    0.000    0.000    0.000 
#    0.000    0.000    0.000    0.000    0.000    0.000 
#
# Total GULP energy -89397.297205 kJ/mol
# GULP energy per Si atom -5587.331075 kJ/mol
# Density = 2.209310 g / cm^3
# Si number density = 22.143496 Si / 1000 Ang^3
#
#
#
# Elastic Constant Matrix: (Units=GPa)
#
#
# Indices 1 2 3 4 5 6 
#
# 1 95.0453 27.0460 38.4029 4.9089 25.9927 -1.4344
# 2 27.0460 46.4510 -2.3367 -11.0379 12.6747 -2.0360
# 3 38.4029 -2.3367 77.6118 13.9792 19.8990 4.1724
# 4 4.9089 -11.0379 13.9792 25.2573 -4.4402 7.2236
# 5 25.9927 12.6747 19.8990 -4.4402 34.9223 -1.4302
# 6 -1.4344 -2.0360 4.1724 7.2236 -1.4302 25.6728
#
#
#
# Elastic Compliance Matrix: (Units=1/GPa)
#
#
# Indices 1 2 3 4 5 6 
#
# 1 0.018513 -0.010696 -0.006711 -0.006535 -0.006792 0.002737
# 2 -0.010696 0.032496 0.005436 0.013158 -0.005376 -0.002906
# 3 -0.006711 0.005436 0.020631 -0.009119 -0.009945 -0.001285
# 4 -0.006535 0.013158 -0.009119 0.057606 0.012061 -0.013377
# 5 -0.006792 -0.005376 -0.009945 0.012061 0.042834 -0.000197
# 6 0.002737 -0.002906 -0.001285 -0.013377 -0.000197 0.042836
#
#
# Mechanical properties :
#
#
# Convention : Reuss Voigt Hill
#
# Bulk Modulus (GPa) = 20.96641 38.37026 29.66833
# Shear Modulus (GPa) = 19.62657 27.57021 23.59839
#
# Velocity S-wave (km/s) = 2.98037 3.53238 3.26805
# Velocity P-wave (km/s) = 4.61871 5.83117 5.25999
#
# Compressibility (1/GPa) = 0.04769535
#
# Stress axis : x y z
#
# Youngs Moduli (GPa) = 54.01648 30.77343 48.47186
#
# Poissons Ratio (x) = 0.32916 0.32530
# Poissons Ratio (y) = 0.57778 -0.26348
# Poissons Ratio (z) = 0.36251 -0.16727
#
# Static dielectric constant tensor:
#      x y z
#    x 1.856880 0.002420 -0.004830 
#    y 0.002420 1.824040 0.025260 
#    z -0.004830 0.025260 1.821010 
# 
# From -- ./inp_files/54883.got.cif
#   From: 2010.05.17/outbox.cif.g08.bks.cpg/sg2_28_cif.got.tgz:54883.got - 2010.06.03 11:33:40.
