data_PCOD9105573
_publ_section_title
;
Structure prediction by ZEFSAII (Michael W. Deem and Ramdas Pophale) SiO2 
 PCOD9105573
Probable space group: P -1
;
_chemical_formula_sum "Si O2"
_cell_formula_units_Z 14
_cell_length_a 18.437685
_cell_length_b 14.780081
_cell_length_c 9.101232
_cell_angle_alpha 49.076205
_cell_angle_beta 48.687341
_cell_angle_gamma 20.893714
_cell_volume 657.554786
_symmetry_space_group_name_H-M "P -1"
_symmetry_group_IT_number 2
_symmetry_cell_setting 'triclinic'
loop_
_space_group_symop_operation_xyz
x,y,z
-x,-y,-z
loop_
_atom_site_type_symbol
_atom_site_label
_atom_site_fract_x
_atom_site_fract_y
_atom_site_fract_z
Si Si1 0.961098 0.273774 0.633658
Si Si2 0.264167 0.322237 0.710326
Si Si3 0.321112 0.038056 0.319952
Si Si4 0.132531 0.820949 0.369662
Si Si5 0.012875 0.584192 0.046917
Si Si6 0.571751 0.555805 0.381392
Si Si7 0.047544 0.779860 0.971312
O O1 0.788014 0.553391 0.503395
O O2 0.976331 0.157769 0.609286
O O3 0.167375 0.126623 0.529079
O O4 0.917059 0.259981 0.860891
O O5 0.202058 0.251271 0.853213
O O6 0.488459 0.108609 0.696091
O O7 0.098471 0.545588 0.820827
O O8 0.182310 0.296457 0.164614
O O9 0.410914 0.842173 0.292934
O O10 0.340895 0.544844 0.460204
O O11 0.000000 0.000000 0.500000
O O12 0.139183 0.931238 0.142413
O O13 0.008762 0.689009 0.062932
O O14 0.500000 0.500000 0.500000
O O15 0.751201 0.393342 0.200000
#
# Coordination Sequence:
#
# PCOD9105573 Si02
#       7
#     2   2   2   2   2   2   2
#     4  11  23  41  65  94 134 168 200 265 330 372
#     4  10  20  39  65  89 126 168 215 257 304 372
#     4  11  21  40  68  93 125 165 223 257 301 381
#     4  10  20  41  67  87 125 168 210 258 315 373
#     4  10  22  39  67  92 124 171 217 263 308 370
#     4  11  23  41  68  96 121 163 225 265 308 379
#     4  11  23  42  61  95 133 166 206 264 329 375
#
# _framework density 21.291001999999999
#
# number of rings (size 3 to 8) (size 9 to 14) (size 15 to 20)
#    0.000    1.429    2.857    3.429    0.000    4.571 
#    2.571    2.857    0.000    0.000    0.000    0.000 
#    0.000    0.000    0.000    0.000    0.000    0.000 
#
# Total GULP energy -78158.802000 kJ/mol
# GULP energy per Si atom -5582.771571 kJ/mol
# Density = 2.124254 g / cm^3
# Si number density = 21.291002 Si / 1000 Ang^3
#
#
#
# Elastic Constant Matrix: (Units=GPa)
#
#
# Indices 1 2 3 4 5 6 
#
# 1 153.9762 34.7144 53.1434 1.8586 -21.1888 -19.8140
# 2 34.7144 53.8711 36.7661 -10.0659 -17.7357 -15.3917
# 3 53.1434 36.7661 132.3919 -15.5592 12.1820 -2.9102
# 4 1.8586 -10.0659 -15.5592 26.6008 0.3694 -10.5320
# 5 -21.1888 -17.7357 12.1820 0.3694 36.9090 -1.2643
# 6 -19.8140 -15.3917 -2.9102 -10.5320 -1.2643 29.6096
#
#
#
# Elastic Compliance Matrix: (Units=1/GPa)
#
#
# Indices 1 2 3 4 5 6 
#
# 1 0.010032 0.002323 -0.005316 0.000029 0.008896 0.007788
# 2 0.002323 0.055085 -0.015309 0.026988 0.033947 0.039734
# 3 -0.005316 -0.015309 0.015060 -0.000737 -0.015747 -0.010970
# 4 0.000029 0.026988 -0.000737 0.061626 0.013862 0.036488
# 5 0.008896 0.033947 -0.015747 0.013862 0.054576 0.029313
# 6 0.007788 0.039734 -0.010970 0.036488 0.029313 0.072791
#
#
# Mechanical properties :
#
#
# Convention : Reuss Voigt Hill
#
# Bulk Modulus (GPa) = 22.94954 65.49857 44.22405
# Shear Modulus (GPa) = 15.61048 32.99821 24.30435
#
# Velocity S-wave (km/s) = 2.71070 3.94111 3.38232
# Velocity P-wave (km/s) = 4.53867 7.17914 6.00581
#
# Compressibility (1/GPa) = 0.04357386
#
# Stress axis : x y z
#
# Youngs Moduli (GPa) = 99.68518 18.15370 66.40233
#
# Poissons Ratio (x) = -0.04218 0.35299
# Poissons Ratio (y) = -0.23160 1.01653
# Poissons Ratio (z) = 0.52992 0.27791
#
# Static dielectric constant tensor:
#      x y z
#    x 1.783520 -0.007230 -0.009450 
#    y -0.007230 1.833720 -0.037480 
#    z -0.009450 -0.037480 1.788130 
# 
# From -- ./inp_files/208527.got.cif
#   From: 2010.05.17/outbox.cif.g08.bks.cpg/sg2_105_cif.got.tgz:208527.got - 2010.06.03 11:33:40.
