data_PCOD9105584
_publ_section_title
;
Structure prediction by ZEFSAII (Michael W. Deem and Ramdas Pophale) SiO2 
 PCOD9105584
Probable space group: P -1
;
_chemical_formula_sum "Si O2"
_cell_formula_units_Z 12
_cell_length_a 19.133247
_cell_length_b 9.025317
_cell_length_c 12.696287
_cell_angle_alpha 72.460423
_cell_angle_beta 159.595565
_cell_angle_gamma 119.114497
_cell_volume 575.307063
_symmetry_space_group_name_H-M "P -1"
_symmetry_group_IT_number 2
_symmetry_cell_setting 'triclinic'
loop_
_space_group_symop_operation_xyz
x,y,z
-x,-y,-z
loop_
_atom_site_type_symbol
_atom_site_label
_atom_site_fract_x
_atom_site_fract_y
_atom_site_fract_z
Si Si1 0.837358 0.553770 0.698600
Si Si2 0.135108 0.899280 0.731272
Si Si3 0.267566 0.986761 0.131765
Si Si4 0.291943 0.534615 0.693694
Si Si5 0.625362 0.610965 0.764024
Si Si6 0.112558 0.691736 0.547450
O O1 0.738491 0.432596 0.476730
O O2 0.601823 0.501200 0.446677
O O3 0.000000 0.500000 0.000000
O O4 0.015579 0.780296 0.862321
O O5 0.211807 0.868752 0.731686
O O6 0.950749 0.675747 0.562177
O O7 0.298398 0.004474 0.044522
O O8 0.000000 0.000000 0.500000
O O9 0.500000 0.000000 0.500000
O O10 0.285489 0.168472 0.161849
O O11 0.319161 0.701235 0.766183
O O12 0.500000 0.500000 0.000000
O O13 0.500000 0.500000 0.500000
O O14 0.875295 0.638035 0.152130
O O15 0.000000 0.500000 0.500000
#
# Coordination Sequence:
#
# PCOD9105584 Si02
#       6
#     2   2   2   2   2   2
#     4  11  22  41  67  95 132 177 221 270 333 391
#     4  10  20  39  65  90 130 170 213 270 331 388
#     4  11  24  41  67 100 132 179 222 266 336 397
#     4  10  22  39  65  94 125 168 223 272 332 395
#     4  12  25  42  69  96 136 177 221 279 332 391
#     4  10  21  39  66  94 128 174 221 268 333 393
#
# _framework density 20.858426000000001
#
# number of rings (size 3 to 8) (size 9 to 14) (size 15 to 20)
#    0.000    1.333    3.333    3.000    4.667    0.667 
#    0.000    0.833    7.333    0.000    0.000    0.000 
#    0.000    0.000    0.000    0.000    0.000    0.000 
#
# Total GULP energy -66931.960372 kJ/mol
# GULP energy per Si atom -5577.663364 kJ/mol
# Density = 2.081095 g / cm^3
# Si number density = 20.858426 Si / 1000 Ang^3
#
#
#
# Elastic Constant Matrix: (Units=GPa)
#
#
# Indices 1 2 3 4 5 6 
#
# 1 192.7158 61.3766 54.5880 -9.8096 -23.1090 -30.3247
# 2 61.3766 126.1161 37.7843 -6.7835 -9.1617 -13.8301
# 3 54.5880 37.7843 76.8472 -32.7472 -17.1920 -1.9915
# 4 -9.8096 -6.7835 -32.7472 51.9862 13.6894 6.5783
# 5 -23.1090 -9.1617 -17.1920 13.6894 46.6857 1.7470
# 6 -30.3247 -13.8301 -1.9915 6.5783 1.7470 45.0255
#
#
#
# Elastic Compliance Matrix: (Units=1/GPa)
#
#
# Indices 1 2 3 4 5 6 
#
# 1 0.008383 -0.001716 -0.006018 -0.003763 0.002502 0.005306
# 2 -0.001716 0.010298 -0.004742 -0.002236 0.000002 0.002124
# 3 -0.006018 -0.004742 0.026286 0.015235 0.001552 -0.006633
# 4 -0.003763 -0.002236 0.015235 0.030067 -0.005256 -0.006736
# 5 0.002502 0.000002 0.001552 -0.005256 0.024712 0.001563
# 6 0.005306 0.002124 -0.006633 -0.006736 0.001563 0.027066
#
#
# Mechanical properties :
#
#
# Convention : Reuss Voigt Hill
#
# Bulk Modulus (GPa) = 49.95909 78.13075 64.04492
# Shear Modulus (GPa) = 31.55860 44.86817 38.21339
#
# Velocity S-wave (km/s) = 3.89394 4.64301 4.28487
# Velocity P-wave (km/s) = 6.64985 8.14139 7.43313
#
# Compressibility (1/GPa) = 0.02001638
#
# Stress axis : x y z
#
# Youngs Moduli (GPa) = 119.28450 97.10901 38.04272
#
# Poissons Ratio (x) = 0.16662 0.22893
# Poissons Ratio (y) = 0.20467 0.18040
# Poissons Ratio (z) = 0.71782 0.46048
#
# Static dielectric constant tensor:
#      x y z
#    x 1.835930 -0.024560 0.007320 
#    y -0.024560 1.752790 0.025820 
#    z 0.007320 0.025820 1.788780 
# 
# From -- ./inp_files/148299.got.cif
#   From: 2010.05.17/outbox.cif.g08.bks.cpg/sg2_75_cif.got.tgz:148299.got - 2010.06.03 11:33:40.
