data_PCOD9105956
_publ_section_title
;
Structure prediction by ZEFSAII (Michael W. Deem and Ramdas Pophale) SiO2 
 PCOD9105956
Probable space group: P -1
;
_chemical_formula_sum "Si O2"
_cell_formula_units_Z 16
_cell_length_a 27.601550
_cell_length_b 14.012886
_cell_length_c 7.741389
_cell_angle_alpha 129.558357
_cell_angle_beta 41.653091
_cell_angle_gamma 157.313744
_cell_volume 751.235559
_symmetry_space_group_name_H-M "P -1"
_symmetry_group_IT_number 2
_symmetry_cell_setting 'triclinic'
loop_
_space_group_symop_operation_xyz
x,y,z
-x,-y,-z
loop_
_atom_site_type_symbol
_atom_site_label
_atom_site_fract_x
_atom_site_fract_y
_atom_site_fract_z
Si Si1 0.294209 0.373894 0.308246
Si Si2 0.327147 0.256570 0.615468
Si Si3 0.299206 0.121508 0.878086
Si Si4 0.584595 0.949237 0.673579
Si Si5 0.285469 0.462834 0.066900
Si Si6 0.417086 0.797947 0.631706
Si Si7 0.158235 0.968869 0.407343
Si Si8 0.176578 0.528727 0.204918
O O1 0.236673 0.355726 0.266636
O O2 0.389881 0.618553 0.430062
O O3 0.174070 0.132910 0.477682
O O4 0.373093 0.361766 0.021503
O O5 0.500000 0.500000 0.500000
O O6 0.232592 0.059245 0.797893
O O7 0.283905 0.134480 0.408188
O O8 0.277830 0.326097 0.818391
O O9 0.395076 0.146097 0.599545
O O10 0.189797 0.933962 0.112226
O O11 0.736576 0.225931 0.663405
O O12 0.513807 0.937541 0.709880
O O13 0.463675 0.751663 0.918799
O O14 0.206382 0.458399 0.177046
O O15 0.500000 0.000000 0.500000
O O16 0.258498 0.616042 0.908359
O O17 0.998041 0.710441 0.616123
#
# Coordination Sequence:
#
# PCOD9105956 Si02
#       8
#     2   2   2   2   2   2   2   2
#     4   9  21  38  62  97 126 160 217 269 318 387
#     4  11  21  40  67  96 128 163 218 278 319 376
#     4   9  23  40  64  96 122 170 215 266 323 376
#     4  11  21  40  64  88 128 171 217 270 321 377
#     4  10  20  39  66  96 123 167 215 273 326 375
#     4  11  22  40  64  99 123 168 219 270 325 381
#     4  10  24  43  60 102 128 174 215 260 336 382
#     4  11  24  41  63  89 137 175 210 265 327 397
#
# _framework density 21.298245999999999
#
# number of rings (size 3 to 8) (size 9 to 14) (size 15 to 20)
#    0.750    1.000    1.250    4.500    0.000    6.000 
#    6.750    0.625    0.000    0.000    0.000    0.000 
#    0.000    0.000    0.000    0.000    0.000    0.000 
#
# Total GULP energy -89137.938382 kJ/mol
# GULP energy per Si atom -5571.121149 kJ/mol
# Density = 2.124977 g / cm^3
# Si number density = 21.298246 Si / 1000 Ang^3
#
#
#
# Elastic Constant Matrix: (Units=GPa)
#
#
# Indices 1 2 3 4 5 6 
#
# 1 49.3579 1.7719 25.8139 -14.7023 27.9477 4.2130
# 2 1.7719 46.8301 33.6034 -8.7534 5.6324 -0.5804
# 3 25.8139 33.6034 90.3538 -2.2041 12.8392 -0.2818
# 4 -14.7023 -8.7534 -2.2041 36.7433 -6.3347 -4.9729
# 5 27.9477 5.6324 12.8392 -6.3347 32.0535 -1.8106
# 6 4.2130 -0.5804 -0.2818 -4.9729 -1.8106 15.9901
#
#
#
# Elastic Compliance Matrix: (Units=1/GPa)
#
#
# Indices 1 2 3 4 5 6 
#
# 1 0.063678 0.019787 -0.018192 0.018469 -0.048975 -0.016182
# 2 0.019787 0.036972 -0.017037 0.012970 -0.014462 -0.001775
# 3 -0.018192 -0.017037 0.021140 -0.008115 0.008956 0.003038
# 4 0.018469 0.012970 -0.008115 0.036726 -0.007533 0.006031
# 5 -0.048975 -0.014462 0.008956 -0.007533 0.072404 0.018393
# 6 -0.016182 -0.001775 0.003038 0.006031 0.018393 0.070750
#
#
# Mechanical properties :
#
#
# Convention : Reuss Voigt Hill
#
# Bulk Modulus (GPa) = 11.00056 34.32447 22.66251
# Shear Modulus (GPa) = 13.77950 25.31423 19.54686
#
# Velocity S-wave (km/s) = 2.54634 3.45129 3.03276
# Velocity P-wave (km/s) = 3.71770 5.65977 4.78823
#
# Compressibility (1/GPa) = 0.09090449
#
# Stress axis : x y z
#
# Youngs Moduli (GPa) = 15.70404 27.04740 47.30285
#
# Poissons Ratio (x) = -0.53518 0.86054
# Poissons Ratio (y) = -0.31073 0.80592
# Poissons Ratio (z) = 0.28569 0.46082
#
# Static dielectric constant tensor:
#      x y z
#    x 1.797780 -0.034620 0.017300 
#    y -0.034620 1.795730 0.012780 
#    z 0.017300 0.012780 1.806570 
# 
# From -- ./inp_files/358804.got.cif
#   From: 2010.05.17/outbox.cif.g08.bks.cpg/sg2_180_cif.got.tgz:358804.got - 2010.06.03 11:33:40.
