data_PCOD9105397
_publ_section_title
;
Structure prediction by ZEFSAII (Michael W. Deem and Ramdas Pophale) SiO2 
 PCOD9105397
Probable space group: P -1
;
_chemical_formula_sum "Si O2"
_cell_formula_units_Z 16
_cell_length_a 9.809237
_cell_length_b 11.732650
_cell_length_c 10.815718
_cell_angle_alpha 131.821664
_cell_angle_beta 57.464664
_cell_angle_gamma 124.787443
_cell_volume 736.218498
_symmetry_space_group_name_H-M "P -1"
_symmetry_group_IT_number 2
_symmetry_cell_setting 'triclinic'
loop_
_space_group_symop_operation_xyz
x,y,z
-x,-y,-z
loop_
_atom_site_type_symbol
_atom_site_label
_atom_site_fract_x
_atom_site_fract_y
_atom_site_fract_z
Si Si1 0.200710 0.517267 0.415738
Si Si2 0.799640 0.967399 0.597488
Si Si3 0.410542 0.838388 0.079833
Si Si4 0.704969 0.153001 0.277787
Si Si5 0.712928 0.920800 0.325436
Si Si6 0.962295 0.079989 0.950207
Si Si7 0.687235 0.772009 0.734018
Si Si8 0.405588 0.628503 0.161108
O O1 0.310079 0.677715 0.554388
O O2 0.259047 0.373678 0.340585
O O3 0.252507 0.544532 0.267069
O O4 0.000000 0.500000 0.500000
O O5 0.723500 0.964674 0.495310
O O6 0.712404 0.800736 0.595755
O O7 0.755210 0.104685 0.799734
O O8 0.000000 0.000000 0.500000
O O9 0.369535 0.696591 0.097993
O O10 0.554337 0.004738 0.181672
O O11 0.505261 0.783084 0.879723
O O12 0.741773 0.074693 0.332327
O O13 0.861550 0.193004 0.132568
O O14 0.534751 0.786608 0.280690
O O15 0.864355 0.851803 0.162467
O O16 0.832747 0.930427 0.832200
O O17 0.000000 0.000000 0.000000
O O18 0.500000 0.500000 0.000000
#
# Coordination Sequence:
#
# PCOD9105397 Si02
#       8
#     2   2   2   2   2   2   2   2
#     4  12  24  36  61  99 134 154 202 269 327 370
#     4  12  24  39  65  93 129 170 216 257 302 385
#     4  10  22  44  67  90 125 166 221 259 305 384
#     4   9  20  37  65  94 119 162 212 265 322 357
#     4  10  20  39  64  93 127 162 216 260 309 378
#     4   9  17  34  63  89 120 157 207 264 307 360
#     4  11  23  41  60  96 127 172 207 251 323 376
#     4  11  23  40  68  97 122 164 209 270 329 357
#
# _framework density 21.732679999999998
#
# number of rings (size 3 to 8) (size 9 to 14) (size 15 to 20)
#    0.000    1.500    2.500    4.125    3.500    2.000 
#    0.000    2.500    2.750    1.500    0.000    0.000 
#    0.000    0.000    0.000    0.000    0.000    0.000 
#
# Total GULP energy -89332.496601 kJ/mol
# GULP energy per Si atom -5583.281038 kJ/mol
# Density = 2.168322 g / cm^3
# Si number density = 21.732680 Si / 1000 Ang^3
#
#
#
# Elastic Constant Matrix: (Units=GPa)
#
#
# Indices 1 2 3 4 5 6 
#
# 1 48.9202 34.5531 33.1037 -0.6240 -20.3785 -13.5871
# 2 34.5531 109.2464 60.5537 -22.6455 -18.3731 -28.7793
# 3 33.1037 60.5537 125.2054 -30.6011 -30.5246 -8.7104
# 4 -0.6240 -22.6455 -30.6011 42.3029 10.6544 -9.2557
# 5 -20.3785 -18.3731 -30.5246 10.6544 43.7867 -3.4383
# 6 -13.5871 -28.7793 -8.7104 -9.2557 -3.4383 27.9232
#
#
#
# Elastic Compliance Matrix: (Units=1/GPa)
#
#
# Indices 1 2 3 4 5 6 
#
# 1 0.035544 -0.005262 -0.004512 -0.006827 0.013626 0.009879
# 2 -0.005262 0.022934 -0.003746 0.014182 0.003074 0.024987
# 3 -0.004512 -0.003746 0.013878 0.007125 0.004361 0.001171
# 4 -0.006827 0.014182 0.007125 0.042412 -0.000418 0.027524
# 5 0.013626 0.003074 0.004361 -0.000418 0.034813 0.015306
# 6 0.009879 0.024987 0.001171 0.027524 0.015306 0.077747
#
#
# Mechanical properties :
#
#
# Convention : Reuss Voigt Hill
#
# Bulk Modulus (GPa) = 22.06794 59.97699 41.02247
# Shear Modulus (GPa) = 18.55473 33.14665 25.85069
#
# Velocity S-wave (km/s) = 2.92511 3.90962 3.45263
# Velocity P-wave (km/s) = 4.64593 6.93092 5.90010
#
# Compressibility (1/GPa) = 0.04531461
#
# Stress axis : x y z
#
# Youngs Moduli (GPa) = 28.13382 43.60384 72.05844
#
# Poissons Ratio (x) = 0.22945 0.32513
# Poissons Ratio (y) = 0.14804 0.26996
# Poissons Ratio (z) = 0.12694 0.16336
#
# Static dielectric constant tensor:
#      x y z
#    x 1.901910 -0.031260 -0.002630 
#    y -0.031260 1.807330 -0.051350 
#    z -0.002630 -0.051350 1.868500 
# 
# From -- ./inp_files/424209.got.cif
#   From: 2010.05.17/outbox.cif.g08.bks.cpg/sg2_213_cif.got.tgz:424209.got - 2010.06.03 11:33:40.
