data_PCOD9105633
_publ_section_title
;
Structure prediction by ZEFSAII (Michael W. Deem and Ramdas Pophale) SiO2 
 PCOD9105633
Probable space group: P -1
;
_chemical_formula_sum "Si O2"
_cell_formula_units_Z 12
_cell_length_a 14.205160
_cell_length_b 11.703642
_cell_length_c 7.046839
_cell_angle_alpha 88.127124
_cell_angle_beta 101.118687
_cell_angle_gamma 30.131685
_cell_volume 527.634504
_symmetry_space_group_name_H-M "P -1"
_symmetry_group_IT_number 2
_symmetry_cell_setting 'triclinic'
loop_
_space_group_symop_operation_xyz
x,y,z
-x,-y,-z
loop_
_atom_site_type_symbol
_atom_site_label
_atom_site_fract_x
_atom_site_fract_y
_atom_site_fract_z
Si Si1 0.198953 0.553031 0.819783
Si Si2 0.234193 0.870453 0.417686
Si Si3 0.026887 0.338315 0.975706
Si Si4 0.642786 0.016880 0.553771
Si Si5 0.802815 0.606870 0.516205
Si Si6 0.475643 0.453565 0.803037
O O1 0.175195 0.469429 0.677392
O O2 0.403367 0.405586 0.848899
O O3 0.008475 0.842646 0.697295
O O4 0.156211 0.545306 0.009431
O O5 0.300327 0.696528 0.586111
O O6 0.324080 0.754749 0.246716
O O7 0.344453 0.870772 0.536598
O O8 0.995118 0.364546 0.737458
O O9 0.233187 0.095643 0.191932
O O10 0.000000 0.500000 0.000000
O O11 0.758130 0.789972 0.503250
O O12 0.408823 0.224614 0.490340
O O13 0.500000 0.500000 0.000000
#
# Coordination Sequence:
#
# PCOD9105633 Si02
#       6
#     2   2   2   2   2   2
#     4  11  23  41  67  93 125 172 211 253 330 382
#     4  10  23  42  62  90 131 155 218 268 304 382
#     4   9  21  37  59  95 128 162 211 253 305 387
#     4   9  19  39  62  92 130 165 203 260 311 381
#     4  10  20  39  65  92 134 165 203 262 320 373
#     4  11  25  42  64  92 122 167 218 264 318 372
#
# _framework density 22.743015
#
# number of rings (size 3 to 8) (size 9 to 14) (size 15 to 20)
#    0.000    2.000    1.667    0.500    2.333    9.333 
#    0.000    9.167    0.000    0.000    0.000    0.000 
#    0.000    0.000    0.000    0.000    0.000    0.000 
#
# Total GULP energy -66973.850504 kJ/mol
# GULP energy per Si atom -5581.154209 kJ/mol
# Density = 2.269125 g / cm^3
# Si number density = 22.743015 Si / 1000 Ang^3
#
#
#
# Elastic Constant Matrix: (Units=GPa)
#
#
# Indices 1 2 3 4 5 6 
#
# 1 116.4125 -0.0793 16.2290 13.5721 -11.8278 -11.3217
# 2 -0.0793 91.9906 25.4097 20.1486 -2.7379 0.1177
# 3 16.2290 25.4097 81.5607 19.9961 1.8667 -3.4599
# 4 13.5721 20.1486 19.9961 30.3867 5.9803 2.0132
# 5 -11.8278 -2.7379 1.8667 5.9803 27.4863 1.1270
# 6 -11.3217 0.1177 -3.4599 2.0132 1.1270 30.8528
#
#
#
# Elastic Compliance Matrix: (Units=1/GPa)
#
#
# Indices 1 2 3 4 5 6 
#
# 1 0.010532 0.001954 -0.001009 -0.006802 0.006112 0.003965
# 2 0.001954 0.013706 -0.002453 -0.009259 0.004353 0.000835
# 3 -0.001009 -0.002453 0.015294 -0.008106 -0.000031 0.001884
# 4 -0.006802 -0.009259 -0.008106 0.050594 -0.014054 -0.006158
# 5 0.006112 0.004353 -0.000031 -0.014054 0.042440 0.001590
# 6 0.003965 0.000835 0.001884 -0.006158 0.001590 0.034419
#
#
# Mechanical properties :
#
#
# Convention : Reuss Voigt Hill
#
# Bulk Modulus (GPa) = 27.38468 41.45362 34.41915
# Shear Modulus (GPa) = 27.44647 34.30544 30.87596
#
# Velocity S-wave (km/s) = 3.47768 3.88802 3.68856
# Velocity P-wave (km/s) = 5.30969 6.19856 5.77126
#
# Compressibility (1/GPa) = 0.03651677
#
# Stress axis : x y z
#
# Youngs Moduli (GPa) = 94.95153 72.95824 65.38637
#
# Poissons Ratio (x) = -0.14258 0.06595
# Poissons Ratio (y) = -0.18556 0.16041
# Poissons Ratio (z) = 0.09577 0.17898
#
# Static dielectric constant tensor:
#      x y z
#    x 1.881720 0.008940 0.009050 
#    y 0.008940 1.875290 -0.008960 
#    z 0.009050 -0.008960 1.833880 
# 
# From -- ./inp_files/28782.got.cif
#   From: 2010.05.17/outbox.cif.g08.bks.cpg/sg2_15_cif.got.tgz:28782.got - 2010.06.03 11:33:40.
