data_PCOD9105129
_publ_section_title
;
Structure prediction by ZEFSAII (Michael W. Deem and Ramdas Pophale) SiO2 
 PCOD9105129
Probable space group: P -1
;
_chemical_formula_sum "Si O2"
_cell_formula_units_Z 14
_cell_length_a 8.752191
_cell_length_b 8.522311
_cell_length_c 12.036749
_cell_angle_alpha 90.611811
_cell_angle_beta 39.688928
_cell_angle_gamma 93.902667
_cell_volume 570.801370
_symmetry_space_group_name_H-M "P -1"
_symmetry_group_IT_number 2
_symmetry_cell_setting 'triclinic'
loop_
_space_group_symop_operation_xyz
x,y,z
-x,-y,-z
loop_
_atom_site_type_symbol
_atom_site_label
_atom_site_fract_x
_atom_site_fract_y
_atom_site_fract_z
Si Si1 0.357331 0.228831 0.304706
Si Si2 0.063156 0.873967 0.719104
Si Si3 0.260141 0.949180 0.833726
Si Si4 0.703321 0.538852 0.481700
Si Si5 0.734611 0.062686 0.797415
Si Si6 0.355745 0.760183 0.347597
Si Si7 0.228259 0.421980 0.170817
O O1 0.636194 0.189527 0.153457
O O2 0.302103 0.290348 0.457811
O O3 0.244957 0.063381 0.315436
O O4 0.261807 0.352348 0.274442
O O5 0.949188 0.036018 0.759993
O O6 0.846340 0.736640 0.862362
O O7 0.253590 0.891520 0.710197
O O8 0.182974 0.819369 0.539756
O O9 0.419298 0.111821 0.766592
O O10 0.000000 0.000000 0.000000
O O11 0.500000 0.500000 0.500000
O O12 0.616589 0.414015 0.626996
O O13 0.982157 0.510047 0.296960
O O14 0.728097 0.222902 0.733097
O O15 0.500000 0.000000 0.000000
O O16 0.500000 0.500000 0.000000
#
# Coordination Sequence:
#
# PCOD9105129 Si02
#       7
#     2   2   2   2   2   2   2
#     4  10  22  41  65  95 133 178 229 284 346 418
#     4  10  20  39  63  92 128 175 231 283 340 416
#     4  11  23  41  64  97 135 179 234 295 349 406
#     4  11  24  45  70 101 140 185 235 284 342 419
#     4  10  21  40  64  94 128 170 225 287 346 408
#     4  10  22  40  64  93 129 176 224 283 348 416
#     4  10  23  42  66 100 139 183 230 286 348 413
#
# _framework density 24.526921999999999
#
# number of rings (size 3 to 8) (size 9 to 14) (size 15 to 20)
#    0.000    1.714    0.000    4.714    0.000    6.857 
#    0.000    9.286    0.000    0.000    0.000    0.000 
#    0.000    0.000    0.000    0.000    0.000    0.000 
#
# Total GULP energy -78072.078478 kJ/mol
# GULP energy per Si atom -5576.577034 kJ/mol
# Density = 2.447110 g / cm^3
# Si number density = 24.526922 Si / 1000 Ang^3
#
#
#
# Elastic Constant Matrix: (Units=GPa)
#
#
# Indices 1 2 3 4 5 6 
#
# 1 167.3533 40.6372 35.5637 11.7264 -15.1363 -9.4024
# 2 40.6372 66.1987 39.8213 5.7141 -5.3285 2.2040
# 3 35.5637 39.8213 89.0872 8.6966 -24.1818 4.8898
# 4 11.7264 5.7141 8.6966 36.7769 -0.1433 -6.6211
# 5 -15.1363 -5.3285 -24.1818 -0.1433 49.4684 2.8087
# 6 -9.4024 2.2040 4.8898 -6.6211 2.8087 44.6533
#
#
#
# Elastic Compliance Matrix: (Units=1/GPa)
#
#
# Indices 1 2 3 4 5 6 
#
# 1 0.007390 -0.003883 -0.000807 -0.001276 0.001356 0.001562
# 2 -0.003883 0.023035 -0.009597 -0.000215 -0.003358 -0.000724
# 3 -0.000807 -0.009597 0.018416 -0.003055 0.007864 -0.002660
# 4 -0.001276 -0.000215 -0.003055 0.029161 -0.002079 0.004531
# 5 0.001356 -0.003358 0.007864 -0.002079 0.024233 -0.002243
# 6 0.001562 -0.000724 -0.002660 0.004531 -0.002243 0.023864
#
#
# Mechanical properties :
#
#
# Convention : Reuss Voigt Hill
#
# Bulk Modulus (GPa) = 49.34562 61.63151 55.48856
# Shear Modulus (GPa) = 30.97328 39.95419 35.46374
#
# Velocity S-wave (km/s) = 3.55748 4.04046 3.80664
# Velocity P-wave (km/s) = 6.08579 6.85199 6.48022
#
# Compressibility (1/GPa) = 0.02026522
#
# Stress axis : x y z
#
# Youngs Moduli (GPa) = 135.32420 43.41154 54.30134
#
# Poissons Ratio (x) = 0.16859 0.04384
# Poissons Ratio (y) = 0.52552 0.52113
# Poissons Ratio (z) = 0.10925 0.41662
#
# Static dielectric constant tensor:
#      x y z
#    x 2.601060 0.378530 -0.231530 
#    y 0.378530 2.330950 -0.147300 
#    z -0.231530 -0.147300 2.137120 
# 
# From -- ./inp_files/382183.got.cif
#   From: 2010.05.17/outbox.cif.g08.bks.cpg/sg2_192_cif.got.tgz:382183.got - 2010.06.03 11:33:40.
