data_PCOD9105327
_publ_section_title
;
Structure prediction by ZEFSAII (Michael W. Deem and Ramdas Pophale) SiO2 
 PCOD9105327
Probable space group: P -1
;
_chemical_formula_sum "Si O2"
_cell_formula_units_Z 16
_cell_length_a 11.677822
_cell_length_b 9.551923
_cell_length_c 6.764240
_cell_angle_alpha 83.670743
_cell_angle_beta 121.803183
_cell_angle_gamma 90.302889
_cell_volume 636.084916
_symmetry_space_group_name_H-M "P -1"
_symmetry_group_IT_number 2
_symmetry_cell_setting 'triclinic'
loop_
_space_group_symop_operation_xyz
x,y,z
-x,-y,-z
loop_
_atom_site_type_symbol
_atom_site_label
_atom_site_fract_x
_atom_site_fract_y
_atom_site_fract_z
Si Si1 0.571427 0.416820 0.759677
Si Si2 0.923916 0.127701 0.288926
Si Si3 0.676244 0.575987 0.212999
Si Si4 0.222260 0.005232 0.174099
Si Si5 0.623953 0.856223 0.031733
Si Si6 0.669681 0.108478 0.311776
Si Si7 0.809004 0.414214 0.710667
Si Si8 0.076128 0.294330 0.129945
O O1 0.500000 0.500000 0.500000
O O2 0.441070 0.355695 0.754854
O O3 0.701681 0.348120 0.773015
O O4 0.625255 0.505165 0.978697
O O5 0.784830 0.166390 0.269782
O O6 0.008840 0.259454 0.286981
O O7 0.000000 0.000000 0.500000
O O8 0.887075 0.059973 0.055671
O O9 0.753692 0.457784 0.436785
O O10 0.731949 0.722645 0.166583
O O11 0.342437 0.040419 0.132454
O O12 0.165515 0.155170 0.181760
O O13 0.271590 0.909221 0.415207
O O14 0.475092 0.809498 0.847324
O O15 0.638055 0.954404 0.220270
O O16 0.840070 0.567673 0.804824
O O17 0.951826 0.327046 0.861853
#
# Coordination Sequence:
#
# PCOD9105327 Si02
#       8
#     2   2   2   2   2   2   2   2
#     4   9  20  41  59  86 123 155 207 255 299 362
#     4  11  24  42  63  92 127 166 208 256 310 367
#     4  10  20  39  64  90 122 164 204 251 311 365
#     4  11  22  42  64  90 127 163 206 257 313 367
#     4  10  22  38  66  94 121 159 203 260 307 368
#     4  10  22  41  61  95 125 156 207 253 316 366
#     4  10  23  42  61  92 126 164 210 251 308 365
#     4  11  23  42  64  91 128 167 206 257 303 373
#
# _framework density 25.153876
#
# number of rings (size 3 to 8) (size 9 to 14) (size 15 to 20)
#    0.000    1.750    1.250    2.250    3.500    1.000 
#    9.000    1.875    0.000    0.000    0.000    0.000 
#    0.000    0.000    0.000    0.000    0.000    0.000 
#
# Total GULP energy -89436.660706 kJ/mol
# GULP energy per Si atom -5589.791294 kJ/mol
# Density = 2.509663 g / cm^3
# Si number density = 25.153876 Si / 1000 Ang^3
#
#
#
# Elastic Constant Matrix: (Units=GPa)
#
#
# Indices 1 2 3 4 5 6 
#
# 1 81.6505 4.8420 25.9188 3.9522 -3.8771 -0.4593
# 2 4.8420 61.6637 27.2879 -7.0557 -4.5462 -9.7353
# 3 25.9188 27.2879 195.8286 -13.6758 -11.5029 -6.4252
# 4 3.9522 -7.0557 -13.6758 33.9030 3.5797 -6.0395
# 5 -3.8771 -4.5462 -11.5029 3.5797 33.6884 -6.6411
# 6 -0.4593 -9.7353 -6.4252 -6.0395 -6.6411 23.9282
#
#
#
# Elastic Compliance Matrix: (Units=1/GPa)
#
#
# Indices 1 2 3 4 5 6 
#
# 1 0.013019 -0.000600 -0.001798 -0.002622 0.000907 -0.000887
# 2 -0.000600 0.019332 -0.001780 0.004716 0.003300 0.009482
# 3 -0.001798 -0.001780 0.005922 0.002388 0.001696 0.001905
# 4 -0.002622 0.004716 0.002388 0.033725 -0.000276 0.010945
# 5 0.000907 0.003300 0.001696 -0.000276 0.032991 0.010902
# 6 -0.000887 0.009482 0.001905 0.010945 0.010902 0.051932
#
#
# Mechanical properties :
#
#
# Convention : Reuss Voigt Hill
#
# Bulk Modulus (GPa) = 33.42733 50.58223 42.00478
# Shear Modulus (GPa) = 28.53086 37.04354 32.78720
#
# Velocity S-wave (km/s) = 3.37152 3.84171 3.61427
# Velocity P-wave (km/s) = 5.33612 6.31119 5.84403
#
# Compressibility (1/GPa) = 0.02991565
#
# Stress axis : x y z
#
# Youngs Moduli (GPa) = 76.81227 51.72853 168.87578
#
# Poissons Ratio (x) = 0.03101 0.30371
# Poissons Ratio (y) = 0.04605 0.30063
# Poissons Ratio (z) = 0.13814 0.09209
#
# Static dielectric constant tensor:
#      x y z
#    x 2.128650 0.070150 0.029960 
#    y 0.070150 1.982390 0.001150 
#    z 0.029960 0.001150 1.980110 
# 
# From -- ./inp_files/70133.got.cif
#   From: 2010.05.17/outbox.cif.g08.bks.cpg/sg2_36_cif.got.tgz:70133.got - 2010.06.03 11:33:40.
