data_PCOD9105083
_publ_section_title
;
Structure prediction by ZEFSAII (Michael W. Deem and Ramdas Pophale) SiO2 
 PCOD9105083
Probable space group: P -1
;
_chemical_formula_sum "Si O2"
_cell_formula_units_Z 14
_cell_length_a 22.544904
_cell_length_b 5.492847
_cell_length_c 13.960313
_cell_angle_alpha 98.543208
_cell_angle_beta 158.138329
_cell_angle_gamma 91.008992
_cell_volume 577.069415
_symmetry_space_group_name_H-M "P -1"
_symmetry_group_IT_number 2
_symmetry_cell_setting 'triclinic'
loop_
_space_group_symop_operation_xyz
x,y,z
-x,-y,-z
loop_
_atom_site_type_symbol
_atom_site_label
_atom_site_fract_x
_atom_site_fract_y
_atom_site_fract_z
Si Si1 0.835423 0.781949 0.183846
Si Si2 0.077934 0.265126 0.194380
Si Si3 0.038386 0.810687 0.322269
Si Si4 0.328059 0.335875 0.869894
Si Si5 0.344208 0.629394 0.731002
Si Si6 0.541882 0.800297 0.623286
Si Si7 0.198325 0.547363 0.198850
O O1 0.701619 0.621228 0.060281
O O2 0.921889 0.644981 0.230101
O O3 0.730636 0.901243 0.963647
O O4 0.000000 0.000000 0.500000
O O5 0.235157 0.324866 0.505953
O O6 0.166589 0.497705 0.260321
O O7 0.913696 0.294404 0.996324
O O8 0.000000 0.000000 0.000000
O O9 0.196510 0.742600 0.517247
O O10 0.142720 0.110982 0.539045
O O11 0.896134 0.734266 0.019017
O O12 0.380989 0.594649 0.894900
O O13 0.482012 0.241184 0.065879
O O14 0.500000 0.500000 0.500000
O O15 0.397526 0.722627 0.485333
O O16 0.500000 0.000000 0.500000
#
# Coordination Sequence:
#
# PCOD9105083 Si02
#       7
#     2   2   2   2   2   2   2
#     4  10  23  45  68 103 140 187 240 300 361 437
#     4  10  21  37  63  95 134 179 234 299 358 425
#     4  10  20  39  63  90 130 178 230 295 356 424
#     4  10  21  39  61  93 135 173 239 282 368 417
#     4  10  21  37  61  93 129 183 226 295 349 439
#     4  12  27  49  74 107 147 197 245 303 368 441
#     4  10  22  39  64  97 131 181 239 290 365 429
#
# _framework density 24.260511999999999
#
# number of rings (size 3 to 8) (size 9 to 14) (size 15 to 20)
#    0.000    1.714    1.429    2.143    2.000    5.143 
#    5.143    2.857    0.000    0.000    0.000    0.000 
#    0.000    0.000    0.000    0.000    0.000    0.000 
#
# Total GULP energy -77984.567985 kJ/mol
# GULP energy per Si atom -5570.326285 kJ/mol
# Density = 2.420529 g / cm^3
# Si number density = 24.260512 Si / 1000 Ang^3
#
#
#
# Elastic Constant Matrix: (Units=GPa)
#
#
# Indices 1 2 3 4 5 6 
#
# 1 175.4648 14.2677 31.4704 -11.3065 16.5403 10.1379
# 2 14.2677 64.7934 25.1976 -3.9108 -4.6017 7.2715
# 3 31.4704 25.1976 141.9867 -16.3162 3.1249 1.8466
# 4 -11.3065 -3.9108 -16.3162 17.3036 -1.1177 -8.3315
# 5 16.5403 -4.6017 3.1249 -1.1177 49.9349 -4.0429
# 6 10.1379 7.2715 1.8466 -8.3315 -4.0429 20.2268
#
#
#
# Elastic Compliance Matrix: (Units=1/GPa)
#
#
# Indices 1 2 3 4 5 6 
#
# 1 0.006420 -0.000792 -0.001007 0.001655 -0.002312 -0.002622
# 2 -0.000792 0.017508 -0.003170 -0.002504 0.001505 -0.006338
# 3 -0.001007 -0.003170 0.008822 0.009180 0.000070 0.004634
# 4 0.001655 -0.002504 0.009180 0.083730 0.003305 0.034382
# 5 -0.002312 0.001505 0.000070 0.003305 0.021508 0.006271
# 6 -0.002622 -0.006338 0.004634 0.034382 0.006271 0.068025
#
#
# Mechanical properties :
#
#
# Convention : Reuss Voigt Hill
#
# Bulk Modulus (GPa) = 43.83814 58.23515 51.03665
# Shear Modulus (GPa) = 22.36582 38.24700 30.30641
#
# Velocity S-wave (km/s) = 3.03958 3.97484 3.53825
# Velocity P-wave (km/s) = 5.51613 6.71729 6.14612
#
# Compressibility (1/GPa) = 0.02281119
#
# Stress axis : x y z
#
# Youngs Moduli (GPa) = 155.75726 57.11704 113.35593
#
# Poissons Ratio (x) = 0.04524 0.11419
# Poissons Ratio (y) = 0.12338 0.35933
# Poissons Ratio (z) = 0.15690 0.18106
#
# Static dielectric constant tensor:
#      x y z
#    x 2.011570 -0.010340 -0.000450 
#    y -0.010340 2.130660 0.023680 
#    z -0.000450 0.023680 2.011810 
# 
# From -- ./inp_files/124032.got.cif
#   From: 2010.05.17/outbox.cif.g08.bks.cpg/sg2_63_cif.got.tgz:124032.got - 2010.06.03 11:33:40.
