data_PCOD9105307
_publ_section_title
;
Structure prediction by ZEFSAII (Michael W. Deem and Ramdas Pophale) SiO2 
 PCOD9105307
Probable space group: P -1
;
_chemical_formula_sum "Si O2"
_cell_formula_units_Z 16
_cell_length_a 12.322082
_cell_length_b 19.894805
_cell_length_c 15.291785
_cell_angle_alpha 153.135982
_cell_angle_beta 153.852743
_cell_angle_gamma 27.764367
_cell_volume 676.680349
_symmetry_space_group_name_H-M "P -1"
_symmetry_group_IT_number 2
_symmetry_cell_setting 'triclinic'
loop_
_space_group_symop_operation_xyz
x,y,z
-x,-y,-z
loop_
_atom_site_type_symbol
_atom_site_label
_atom_site_fract_x
_atom_site_fract_y
_atom_site_fract_z
Si Si1 0.682720 0.555936 0.008970
Si Si2 0.243095 0.770226 0.670604
Si Si3 0.902187 0.091821 0.692768
Si Si4 0.985640 0.656881 0.224602
Si Si5 0.094330 0.088346 0.246228
Si Si6 0.647341 0.273665 0.557650
Si Si7 0.269024 0.257625 0.111198
Si Si8 0.526306 0.220579 0.721126
O O1 0.717810 0.694818 0.134335
O O2 0.559424 0.633497 0.102048
O O3 0.986661 0.417069 0.083950
O O4 0.549256 0.451381 0.739990
O O5 0.530875 0.770341 0.858631
O O6 0.215326 0.624338 0.427852
O O7 0.149258 0.795217 0.731177
O O8 0.008159 0.920594 0.621287
O O9 0.725481 0.134463 0.526456
O O10 0.712587 0.224166 0.779776
O O11 0.170614 0.114892 0.889290
O O12 0.078910 0.749491 0.324575
O O13 0.000000 0.500000 0.000000
O O14 0.270218 0.188786 0.464223
O O15 0.290496 0.938629 0.274433
O O16 0.000000 0.000000 0.000000
O O17 0.434374 0.270780 0.330282
#
# Coordination Sequence:
#
# PCOD9105307 Si02
#       8
#     2   2   2   2   2   2   2   2
#     4  10  20  40  60  89 124 164 199 258 310 357
#     4  10  20  39  64  89 125 162 200 265 310 359
#     4  10  22  40  60  86 127 166 206 250 302 366
#     4   9  18  36  59  88 124 151 201 249 309 366
#     4  10  22  42  61  93 120 162 216 251 307 363
#     4   9  21  37  58  92 119 162 209 244 306 373
#     4  10  22  38  59  91 126 160 203 251 311 368
#     4  10  22  41  63  84 128 165 204 258 302 364
#
# _framework density 23.644841
#
# number of rings (size 3 to 8) (size 9 to 14) (size 15 to 20)
#    0.000    2.250    1.250    0.375    0.000    9.000 
#    9.000    2.500    0.000    0.000    0.000    0.000 
#    0.000    0.000    0.000    0.000    0.000    0.000 
#
# Total GULP energy -89304.718085 kJ/mol
# GULP energy per Si atom -5581.544880 kJ/mol
# Density = 2.359102 g / cm^3
# Si number density = 23.644841 Si / 1000 Ang^3
#
#
#
# Elastic Constant Matrix: (Units=GPa)
#
#
# Indices 1 2 3 4 5 6 
#
# 1 104.4039 16.2673 26.7341 -5.3299 -23.0236 -26.0425
# 2 16.2673 64.7388 5.8329 -6.4852 -10.1263 -3.4640
# 3 26.7341 5.8329 115.9790 -15.8368 -20.9672 -12.4302
# 4 -5.3299 -6.4852 -15.8368 30.6170 -2.6861 -3.8530
# 5 -23.0236 -10.1263 -20.9672 -2.6861 32.3242 9.6839
# 6 -26.0425 -3.4640 -12.4302 -3.8530 9.6839 42.2514
#
#
#
# Elastic Compliance Matrix: (Units=1/GPa)
#
#
# Indices 1 2 3 4 5 6 
#
# 1 0.013295 -0.001547 -0.000615 0.003101 0.006868 0.006595
# 2 -0.001547 0.016996 0.001038 0.004322 0.005276 -0.000070
# 3 -0.000615 0.001038 0.011121 0.006733 0.007070 0.001971
# 4 0.003101 0.004322 0.006733 0.039142 0.009493 0.005640
# 5 0.006868 0.005276 0.007070 0.009493 0.043567 -0.002374
# 6 0.006595 -0.000070 0.001971 0.005640 -0.002374 0.029366
#
#
# Mechanical properties :
#
#
# Convention : Reuss Voigt Hill
#
# Bulk Modulus (GPa) = 25.53373 42.53225 34.03299
# Shear Modulus (GPa) = 29.62270 36.79102 33.20686
#
# Velocity S-wave (km/s) = 3.54336 3.94888 3.75160
# Velocity P-wave (km/s) = 5.25003 6.23045 5.76113
#
# Compressibility (1/GPa) = 0.03916388
#
# Stress axis : x y z
#
# Youngs Moduli (GPa) = 75.21803 58.83585 89.92342
#
# Poissons Ratio (x) = 0.09105 0.05529
# Poissons Ratio (y) = 0.11640 -0.09337
# Poissons Ratio (z) = 0.04625 -0.06109
#
# Static dielectric constant tensor:
#      x y z
#    x 1.940630 0.032460 0.027470 
#    y 0.032460 1.983220 0.078550 
#    z 0.027470 0.078550 1.977430 
# 
# From -- ./inp_files/524110.got.cif
#   From: 2010.05.17/outbox.cif.g08.bks.cpg/sg2_263_cif.got.tgz:524110.got - 2010.06.03 11:33:40.
