data_PCOD9105860
_publ_section_title
;
Structure prediction by ZEFSAII (Michael W. Deem and Ramdas Pophale) SiO2 
 PCOD9105860
Probable space group: P -1
;
_chemical_formula_sum "Si O2"
_cell_formula_units_Z 11
_cell_length_a 15.727128
_cell_length_b 12.883923
_cell_length_c 9.377012
_cell_angle_alpha 149.559479
_cell_angle_beta 138.914502
_cell_angle_gamma 27.520581
_cell_volume 444.325462
_symmetry_space_group_name_H-M "P -1"
_symmetry_group_IT_number 2
_symmetry_cell_setting 'triclinic'
loop_
_space_group_symop_operation_xyz
x,y,z
-x,-y,-z
loop_
_atom_site_type_symbol
_atom_site_label
_atom_site_fract_x
_atom_site_fract_y
_atom_site_fract_z
Si Si1 0.500000 0.500000 0.000000
Si Si2 0.784603 0.759112 0.990154
Si Si3 0.263526 0.094491 0.588373
Si Si4 0.873909 0.307963 0.373705
Si Si5 0.292257 0.307708 0.625965
Si Si6 0.768754 0.016490 0.994247
O O1 0.391996 0.803123 0.314150
O O2 0.584999 0.309375 0.035656
O O3 0.682242 0.918583 0.196566
O O4 0.756290 0.969331 0.087160
O O5 0.755857 0.579557 0.655494
O O6 0.000000 0.500000 0.000000
O O7 0.252315 0.323415 0.759563
O O8 0.067689 0.198234 0.465128
O O9 0.754777 0.437634 0.227309
O O10 0.904726 0.048483 0.166526
O O11 0.500000 0.000000 0.500000
O O12 0.179932 0.252608 0.338953
#
# Coordination Sequence:
#
# PCOD9105860 Si02
#       6
#     1   2   2   2   2   2
#     4  10  22  38  56  88 124 158 204 244 296 360
#     4   9  21  40  62  91 123 157 202 254 310 367
#     4  10  21  39  61  89 124 163 204 251 307 365
#     4  10  20  39  66  91 120 159 206 257 305 362
#     4  10  21  39  61  88 126 164 205 253 303 365
#     4  10  21  40  63  92 122 157 205 254 309 364
#
# _framework density 24.756627000000002
#
# number of rings (size 3 to 8) (size 9 to 14) (size 15 to 20)
#    0.000    2.182    0.000    2.727    0.000    8.000 
#    0.000   26.364    0.000    0.000    0.000    0.000 
#    0.000    0.000    0.000    0.000    0.000    0.000 
#
# Total GULP energy -61293.050954 kJ/mol
# GULP energy per Si atom -5572.095541 kJ/mol
# Density = 2.470028 g / cm^3
# Si number density = 24.756627 Si / 1000 Ang^3
#
#
#
# Elastic Constant Matrix: (Units=GPa)
#
#
# Indices 1 2 3 4 5 6 
#
# 1 163.0901 52.3804 66.2892 -1.5112 -21.6225 55.2931
# 2 52.3804 119.2783 39.7488 -4.2360 -13.3789 33.2879
# 3 66.2892 39.7488 107.2042 7.4684 -18.0012 21.3362
# 4 -1.5112 -4.2360 7.4684 37.7495 10.2899 -2.5293
# 5 -21.6225 -13.3789 -18.0012 10.2899 51.3048 -2.7343
# 6 55.2931 33.2879 21.3362 -2.5293 -2.7343 68.4260
#
#
#
# Elastic Compliance Matrix: (Units=1/GPa)
#
#
# Indices 1 2 3 4 5 6 
#
# 1 0.010992 -0.001116 -0.004653 0.000149 0.002317 -0.006790
# 2 -0.001116 0.010858 -0.002543 0.001156 0.001050 -0.003502
# 3 -0.004653 -0.002543 0.013806 -0.003992 0.003056 0.000666
# 4 0.000149 0.001156 -0.003992 0.029376 -0.006855 0.001374
# 5 0.002317 0.001050 0.003056 -0.006855 0.023047 -0.002669
# 6 -0.006790 -0.003502 0.000666 0.001374 -0.002669 0.021542
#
#
# Mechanical properties :
#
#
# Convention : Reuss Voigt Hill
#
# Bulk Modulus (GPa) = 52.54101 78.48993 65.51547
# Shear Modulus (GPa) = 37.71066 46.90637 42.30851
#
# Velocity S-wave (km/s) = 3.90712 4.35754 4.13846
# Velocity P-wave (km/s) = 6.45161 7.55585 7.02546
#
# Compressibility (1/GPa) = 0.01903275
#
# Stress axis : x y z
#
# Youngs Moduli (GPa) = 90.97488 92.10159 72.43022
#
# Poissons Ratio (x) = 0.10282 0.33700
# Poissons Ratio (y) = 0.10156 0.18416
# Poissons Ratio (z) = 0.42328 0.23417
#
# Static dielectric constant tensor:
#      x y z
#    x 2.288770 -0.050390 0.295930 
#    y -0.050390 1.942710 -0.107460 
#    z 0.295930 -0.107460 2.191280 
# 
# From -- ./inp_files/163312.got.cif
#   From: 2010.05.17/outbox.cif.g08.bks.cpg/sg2_82_cif.got.tgz:163312.got - 2010.06.03 11:33:40.
