data_PCOD9105575
_publ_section_title
;
Structure prediction by ZEFSAII (Michael W. Deem and Ramdas Pophale) SiO2 
 PCOD9105575
Probable space group: P -1
;
_chemical_formula_sum "Si O2"
_cell_formula_units_Z 16
_cell_length_a 8.160520
_cell_length_b 8.289986
_cell_length_c 16.900484
_cell_angle_alpha 103.838697
_cell_angle_beta 118.988831
_cell_angle_gamma 118.410111
_cell_volume 696.625588
_symmetry_space_group_name_H-M "P -1"
_symmetry_group_IT_number 2
_symmetry_cell_setting 'triclinic'
loop_
_space_group_symop_operation_xyz
x,y,z
-x,-y,-z
loop_
_atom_site_type_symbol
_atom_site_label
_atom_site_fract_x
_atom_site_fract_y
_atom_site_fract_z
Si Si1 0.377874 0.289502 0.504367
Si Si2 0.193939 0.766809 0.053411
Si Si3 0.940681 0.782884 0.273981
Si Si4 0.642937 0.112832 0.312776
Si Si5 0.888108 0.731427 0.849060
Si Si6 0.672862 0.501680 0.339195
Si Si7 0.329970 0.743555 0.315788
Si Si8 0.275987 0.049771 0.834269
O O1 0.500000 0.500000 0.500000
O O2 0.278327 0.330252 0.562464
O O3 0.590918 0.289655 0.586370
O O4 0.162137 0.050970 0.381585
O O5 0.349940 0.929725 0.184867
O O6 0.429997 0.830207 0.064821
O O7 0.000000 0.500000 0.000000
O O8 0.047974 0.820962 0.978029
O O9 0.094061 0.725733 0.264577
O O10 0.807580 0.635240 0.305035
O O11 0.745276 0.769442 0.172241
O O12 0.589600 0.988260 0.368117
O O13 0.791089 0.095356 0.279189
O O14 0.743873 0.361629 0.368607
O O15 0.636711 0.689682 0.774395
O O16 0.763529 0.469749 0.782819
O O17 0.082461 0.884941 0.839968
#
# Coordination Sequence:
#
# PCOD9105575 Si02
#       8
#     2   2   2   2   2   2   2   2
#     4  11  24  43  66  91 122 163 204 256 311 371
#     4  10  20  39  65  89 127 164 210 247 314 361
#     4  12  23  42  63  93 125 166 208 251 308 371
#     4  10  22  40  63  90 128 161 205 253 311 359
#     4  11  20  40  63  90 128 168 203 261 303 363
#     4  11  24  40  62  93 126 164 207 255 309 362
#     4  11  22  40  66  90 125 160 206 253 312 363
#     4  10  22  38  63  91 126 164 207 254 310 358
#
# _framework density 22.967863000000001
#
# number of rings (size 3 to 8) (size 9 to 14) (size 15 to 20)
#    0.750    0.500    1.250    7.125    0.000    0.500 
#    0.000    2.500    0.000    0.000    0.000    0.000 
#    0.000    0.000    0.000    0.000    0.000    0.000 
#
# Total GULP energy -89460.751690 kJ/mol
# GULP energy per Si atom -5591.296981 kJ/mol
# Density = 2.291559 g / cm^3
# Si number density = 22.967863 Si / 1000 Ang^3
#
#
#
# Elastic Constant Matrix: (Units=GPa)
#
#
# Indices 1 2 3 4 5 6 
#
# 1 69.3452 27.1878 -12.5855 -4.8291 6.7811 -9.6547
# 2 27.1878 141.8675 -12.5751 -11.4080 7.5952 3.0356
# 3 -12.5855 -12.5751 50.7497 -9.6724 14.3789 -8.2139
# 4 -4.8291 -11.4080 -9.6724 36.6011 -0.6569 0.8983
# 5 6.7811 7.5952 14.3789 -0.6569 20.6491 0.0815
# 6 -9.6547 3.0356 -8.2139 0.8983 0.0815 47.8769
#
#
#
# Elastic Compliance Matrix: (Units=1/GPa)
#
#
# Indices 1 2 3 4 5 6 
#
# 1 0.019091 -0.001999 0.009256 0.003993 -0.011874 0.005510
# 2 -0.001999 0.008241 0.003392 0.003128 -0.004635 -0.000395
# 3 0.009256 0.003392 0.033837 0.010547 -0.027542 0.007306
# 4 0.003993 0.003128 0.010547 0.031407 -0.008814 0.001842
# 5 -0.011874 -0.004635 -0.027542 -0.008814 0.072958 -0.006785
# 6 0.005510 -0.000395 0.007306 0.001842 -0.006785 0.023253
#
#
# Mechanical properties :
#
#
# Convention : Reuss Voigt Hill
#
# Bulk Modulus (GPa) = 12.12633 29.55741 20.84187
# Shear Modulus (GPa) = 25.64400 38.35445 31.99923
#
# Velocity S-wave (km/s) = 3.34506 4.09090 3.73663
# Velocity P-wave (km/s) = 4.49559 5.93388 5.26409
#
# Compressibility (1/GPa) = 0.08246520
#
# Stress axis : x y z
#
# Youngs Moduli (GPa) = 52.38163 121.34897 29.55388
#
# Poissons Ratio (x) = 0.24260 -0.27355
# Poissons Ratio (y) = 0.10472 -0.10024
# Poissons Ratio (z) = -0.48485 -0.41158
#
# Static dielectric constant tensor:
#      x y z
#    x 1.862650 -0.022020 0.044840 
#    y -0.022020 1.829080 -0.037910 
#    z 0.044840 -0.037910 1.930370 
# 
# From -- ./inp_files/556248.got.cif
#   From: 2010.05.17/outbox.cif.g08.bks.cpg/sg2_279_cif.got.tgz:556248.got - 2010.06.03 11:33:40.
