data_PCOD9105188
_publ_section_title
;
Structure prediction by ZEFSAII (Michael W. Deem and Ramdas Pophale) SiO2 
 PCOD9105188
Probable space group: P -1
;
_chemical_formula_sum "Si O2"
_cell_formula_units_Z 14
_cell_length_a 11.684162
_cell_length_b 7.895928
_cell_length_c 18.962060
_cell_angle_alpha 44.000810
_cell_angle_beta 148.512027
_cell_angle_gamma 138.153823
_cell_volume 591.572646
_symmetry_space_group_name_H-M "P -1"
_symmetry_group_IT_number 2
_symmetry_cell_setting 'triclinic'
loop_
_space_group_symop_operation_xyz
x,y,z
-x,-y,-z
loop_
_atom_site_type_symbol
_atom_site_label
_atom_site_fract_x
_atom_site_fract_y
_atom_site_fract_z
Si Si1 0.345269 0.420460 0.725598
Si Si2 0.738773 0.366190 0.872056
Si Si3 0.730112 0.893885 0.085523
Si Si4 0.443870 0.191903 0.557158
Si Si5 0.047177 0.603221 0.277232
Si Si6 0.912914 0.703446 0.741593
Si Si7 0.935206 0.242550 0.462104
O O1 0.580378 0.514570 0.776618
O O2 0.407899 0.312944 0.864933
O O3 0.226770 0.628000 0.619616
O O4 0.146072 0.228095 0.626158
O O5 0.766058 0.429762 0.785313
O O6 0.000000 0.500000 0.000000
O O7 0.631891 0.064469 0.931525
O O8 0.868463 0.751311 0.154244
O O9 0.898309 0.113687 0.160665
O O10 0.500000 0.500000 0.500000
O O11 0.694396 0.184602 0.669537
O O12 0.257803 0.136746 0.411840
O O13 0.272361 0.036745 0.576949
O O14 0.983863 0.393019 0.243295
O O15 0.041174 0.434210 0.395114
#
# Coordination Sequence:
#
# PCOD9105188 Si02
#       7
#     2   2   2   2   2   2   2
#     4  10  20  39  63  95 125 162 214 260 317 380
#     4  10  22  37  63  89 122 171 210 260 313 366
#     4  10  21  40  63  86 121 172 205 259 315 361
#     4  10  21  37  61  94 127 167 203 257 324 374
#     4  10  23  39  62  95 129 161 211 260 315 384
#     4  10  21  39  56  93 124 159 214 254 313 374
#     4  10  21  38  65  96 127 165 205 263 324 376
#
# _framework density 23.665732999999999
#
# number of rings (size 3 to 8) (size 9 to 14) (size 15 to 20)
#    0.000    2.000    1.429    1.286    4.000    3.429 
#    5.143    0.000    0.000    7.714    0.000    0.000 
#    0.000    0.000    0.000    0.000    0.000    0.000 
#
# Total GULP energy -78012.063563 kJ/mol
# GULP energy per Si atom -5572.290254 kJ/mol
# Density = 2.361187 g / cm^3
# Si number density = 23.665733 Si / 1000 Ang^3
#
#
#
# Elastic Constant Matrix: (Units=GPa)
#
#
# Indices 1 2 3 4 5 6 
#
# 1 121.6962 0.8856 33.2304 -5.2797 16.2587 -7.7539
# 2 0.8856 48.2693 -18.4949 -5.3687 7.7666 3.2614
# 3 33.2304 -18.4949 153.7573 15.7361 -2.1865 -30.8525
# 4 -5.2797 -5.3687 15.7361 41.9092 12.7604 -5.2120
# 5 16.2587 7.7666 -2.1865 12.7604 34.5183 -7.9930
# 6 -7.7539 3.2614 -30.8525 -5.2120 -7.9930 45.1192
#
#
#
# Elastic Compliance Matrix: (Units=1/GPa)
#
#
# Indices 1 2 3 4 5 6 
#
# 1 0.010033 0.000365 -0.002859 0.004340 -0.006816 -0.000963
# 2 0.000365 0.023149 0.001957 0.004306 -0.007087 -0.001030
# 3 -0.002859 0.001957 0.009005 -0.004087 0.004335 0.005821
# 4 0.004340 0.004306 -0.004087 0.030888 -0.015027 -0.001454
# 5 -0.006816 -0.007087 0.004335 -0.015027 0.041436 0.007910
# 6 -0.000963 -0.001030 0.005821 -0.001454 0.007910 0.027286
#
#
# Mechanical properties :
#
#
# Convention : Reuss Voigt Hill
#
# Bulk Modulus (GPa) = 24.32240 39.44057 31.88148
# Shear Modulus (GPa) = 31.93365 44.84946 38.39155
#
# Velocity S-wave (km/s) = 3.67735 4.35802 4.03208
# Velocity P-wave (km/s) = 5.32263 6.48267 5.93108
#
# Compressibility (1/GPa) = 0.04111437
#
# Stress axis : x y z
#
# Youngs Moduli (GPa) = 99.67461 43.19792 111.05097
#
# Poissons Ratio (x) = -0.01577 0.31746
# Poissons Ratio (y) = -0.03638 -0.21738
# Poissons Ratio (z) = 0.28494 -0.08456
#
# Static dielectric constant tensor:
#      x y z
#    x 1.900460 0.045510 -0.026490 
#    y 0.045510 2.058960 0.002410 
#    z -0.026490 0.002410 1.981140 
# 
# From -- ./inp_files/276179.got.cif
#   From: 2010.05.17/outbox.cif.g08.bks.cpg/sg2_139_cif.got.tgz:276179.got - 2010.06.03 11:33:40.
