data_PCOD9105167
_publ_section_title
;
Structure prediction by ZEFSAII (Michael W. Deem and Ramdas Pophale) SiO2 
 PCOD9105167
Probable space group: P -1
;
_chemical_formula_sum "Si O2"
_cell_formula_units_Z 16
_cell_length_a 15.818330
_cell_length_b 7.114775
_cell_length_c 16.830571
_cell_angle_alpha 144.088664
_cell_angle_beta 141.744567
_cell_angle_gamma 51.191248
_cell_volume 687.669617
_symmetry_space_group_name_H-M "P -1"
_symmetry_group_IT_number 2
_symmetry_cell_setting 'triclinic'
loop_
_space_group_symop_operation_xyz
x,y,z
-x,-y,-z
loop_
_atom_site_type_symbol
_atom_site_label
_atom_site_fract_x
_atom_site_fract_y
_atom_site_fract_z
Si Si1 0.778937 0.062392 0.314869
Si Si2 0.824784 0.344193 0.040105
Si Si3 0.295125 0.983943 0.400967
Si Si4 0.968788 0.596936 0.662031
Si Si5 0.478030 0.087464 0.105857
Si Si6 0.863647 0.543427 0.960497
Si Si7 0.209709 0.761914 0.797747
Si Si8 0.576119 0.172031 0.717499
O O1 0.629996 0.087399 0.252982
O O2 0.783668 0.242224 0.293737
O O3 0.893777 0.261181 0.515621
O O4 0.800298 0.696950 0.179940
O O5 0.949149 0.234194 0.147110
O O6 0.863700 0.360398 0.982097
O O7 0.677900 0.163496 0.864453
O O8 0.418980 0.071152 0.580716
O O9 0.157509 0.179311 0.377682
O O10 0.362535 0.039642 0.381649
O O11 0.249559 0.613009 0.235172
O O12 0.090774 0.530041 0.665529
O O13 0.425737 0.453138 0.185548
O O14 0.500000 0.000000 0.000000
O O15 0.367348 0.818408 0.961679
O O16 0.847172 0.902306 0.099015
O O17 0.000000 0.500000 0.000000
#
# Coordination Sequence:
#
# PCOD9105167 Si02
#       8
#     2   2   2   2   2   2   2   2
#     4  10  20  37  59  80 109 155 195 223 271 344
#     4  10  22  37  57  82 116 147 179 237 289 328
#     4  10  20  31  58  85 107 145 191 230 267 337
#     4  12  22  34  57  91 116 140 183 243 290 320
#     4  10  16  33  61  76  99 151 197 220 263 331
#     4  10  18  36  56  79 112 147 185 224 278 334
#     4  10  20  34  56  85 113 145 189 233 274 334
#     4  10  18  35  55  83 108 144 198 222 264 346
#
# _framework density 23.266988000000001
#
# number of rings (size 3 to 8) (size 9 to 14) (size 15 to 20)
#    0.000    1.750    7.500    0.750    0.000    2.000 
#    0.000    0.625    2.750    0.750    0.000    0.000 
#    0.000    0.000    0.000    0.000    0.000    0.000 
#
# Total GULP energy -89106.883030 kJ/mol
# GULP energy per Si atom -5569.180189 kJ/mol
# Density = 2.321403 g / cm^3
# Si number density = 23.266988 Si / 1000 Ang^3
#
#
#
# Elastic Constant Matrix: (Units=GPa)
#
#
# Indices 1 2 3 4 5 6 
#
# 1 63.6702 19.9454 17.8437 -21.5738 14.7558 -21.8034
# 2 19.9454 43.8359 28.3753 -8.6995 3.5047 -22.3348
# 3 17.8437 28.3753 154.2950 -39.2604 13.9878 -11.5376
# 4 -21.5738 -8.6995 -39.2604 40.3404 -18.6419 1.3130
# 5 14.7558 3.5047 13.9878 -18.6419 35.4014 -7.6367
# 6 -21.8034 -22.3348 -11.5376 1.3130 -7.6367 28.2395
#
#
#
# Elastic Compliance Matrix: (Units=1/GPa)
#
#
# Indices 1 2 3 4 5 6 
#
# 1 0.028375 0.000388 0.002776 0.017851 0.001376 0.022891
# 2 0.000388 0.044818 -0.004126 0.009145 0.009667 0.036250
# 3 0.002776 -0.004126 0.009704 0.010717 0.001664 0.002797
# 4 0.017851 0.009145 0.010717 0.056670 0.023544 0.029126
# 5 0.001376 0.009667 0.001664 0.023544 0.042740 0.019851
# 6 0.022891 0.036250 0.002797 0.029126 0.019851 0.086912
#
#
# Mechanical properties :
#
#
# Convention : Reuss Voigt Hill
#
# Bulk Modulus (GPa) = 12.34957 43.79220 28.07089
# Shear Modulus (GPa) = 16.77103 33.83872 25.30487
#
# Velocity S-wave (km/s) = 2.68770 3.81775 3.30144
# Velocity P-wave (km/s) = 3.86664 6.18839 5.15980
#
# Compressibility (1/GPa) = 0.08097446
#
# Stress axis : x y z
#
# Youngs Moduli (GPa) = 35.24224 22.31254 103.04980
#
# Poissons Ratio (x) = -0.00866 -0.28611
# Poissons Ratio (y) = -0.01368 0.42517
# Poissons Ratio (z) = -0.09785 0.09206
#
# Static dielectric constant tensor:
#      x y z
#    x 1.916150 -0.000560 0.055140 
#    y -0.000560 1.955370 -0.047480 
#    z 0.055140 -0.047480 1.980490 
# 
# From -- ./inp_files/346860.got.cif
#   From: 2010.05.17/outbox.cif.g08.bks.cpg/sg2_174_cif.got.tgz:346860.got - 2010.06.03 11:33:40.
