data_PCOD9105292
_publ_section_title
;
Structure prediction by ZEFSAII (Michael W. Deem and Ramdas Pophale) SiO2 
 PCOD9105292
Probable space group: P -1
;
_chemical_formula_sum "Si O2"
_cell_formula_units_Z 14
_cell_length_a 18.475534
_cell_length_b 7.361539
_cell_length_c 13.513563
_cell_angle_alpha 119.896013
_cell_angle_beta 32.322448
_cell_angle_gamma 139.676529
_cell_volume 576.668206
_symmetry_space_group_name_H-M "P -1"
_symmetry_group_IT_number 2
_symmetry_cell_setting 'triclinic'
loop_
_space_group_symop_operation_xyz
x,y,z
-x,-y,-z
loop_
_atom_site_type_symbol
_atom_site_label
_atom_site_fract_x
_atom_site_fract_y
_atom_site_fract_z
Si Si1 0.394009 0.177452 0.752164
Si Si2 0.452144 0.226362 0.338859
Si Si3 0.538637 0.868056 0.118415
Si Si4 0.842648 0.657853 0.130286
Si Si5 0.027880 0.163407 0.763818
Si Si6 0.821301 0.243608 0.304077
Si Si7 0.826747 0.813741 0.728254
O O1 0.530216 0.542564 0.683459
O O2 0.462956 0.131009 0.758258
O O3 0.339088 0.991672 0.662910
O O4 0.173419 0.002899 0.990715
O O5 0.632898 0.460978 0.270568
O O6 0.519220 0.088317 0.168770
O O7 0.257370 0.952561 0.557103
O O8 0.350977 0.537024 0.196807
O O9 0.726213 0.931259 0.890555
O O10 0.822530 0.671667 0.272713
O O11 0.959648 0.582669 0.941785
O O12 0.000000 0.000000 0.000000
O O13 0.131208 0.458109 0.657465
O O14 0.941987 0.887665 0.717302
O O15 0.000000 0.000000 0.500000
#
# Coordination Sequence:
#
# PCOD9105292 Si02
#       7
#     2   2   2   2   2   2   2
#     4  10  21  40  63  93 131 166 207 255 315 379
#     4  12  23  40  65  96 131 165 208 262 309 380
#     4  10  23  41  65  89 121 169 212 257 320 362
#     4  11  21  37  61  91 130 165 194 252 320 371
#     4  10  20  39  64  88 125 167 208 256 312 371
#     4  11  22  38  61  96 130 161 214 251 307 391
#     4  10  21  42  65  88 120 164 218 265 305 368
#
# _framework density 24.277393
#
# number of rings (size 3 to 8) (size 9 to 14) (size 15 to 20)
#    0.000    1.429    2.857    5.571    0.000    3.429 
#    0.000    6.429    0.000    5.143    0.000    0.000 
#    0.000    0.000    0.000    0.000    0.000    0.000 
#
# Total GULP energy -78145.034883 kJ/mol
# GULP energy per Si atom -5581.788206 kJ/mol
# Density = 2.422214 g / cm^3
# Si number density = 24.277393 Si / 1000 Ang^3
#
#
#
# Elastic Constant Matrix: (Units=GPa)
#
#
# Indices 1 2 3 4 5 6 
#
# 1 22.2016 15.2984 -9.4053 -4.2865 -0.3242 -6.2316
# 2 15.2984 108.5021 14.7792 -10.0192 6.9660 -6.4212
# 3 -9.4053 14.7792 110.6315 -6.8622 -6.3973 -12.0332
# 4 -4.2865 -10.0192 -6.8622 32.3152 -6.0109 5.6243
# 5 -0.3242 6.9660 -6.3973 -6.0109 24.1116 -3.5006
# 6 -6.2316 -6.4212 -12.0332 5.6243 -3.5006 45.2221
#
#
#
# Elastic Compliance Matrix: (Units=1/GPa)
#
#
# Indices 1 2 3 4 5 6 
#
# 1 0.058290 -0.008700 0.007970 0.006765 0.008365 0.008724
# 2 -0.008700 0.011086 -0.002443 0.001186 -0.003776 -0.000715
# 3 0.007970 -0.002443 0.010910 0.002900 0.004965 0.003678
# 4 0.006765 0.001186 0.002900 0.034795 0.008936 -0.001764
# 5 0.008365 -0.003776 0.004965 0.008936 0.046869 0.004454
# 6 0.008724 -0.000715 0.003678 -0.001764 0.004454 0.024757
#
#
# Mechanical properties :
#
#
# Convention : Reuss Voigt Hill
#
# Bulk Modulus (GPa) = 13.52471 31.40888 22.46680
# Shear Modulus (GPa) = 22.96742 35.04062 29.00402
#
# Velocity S-wave (km/s) = 3.07912 3.80326 3.46018
# Velocity P-wave (km/s) = 4.26899 5.67908 5.02375
#
# Compressibility (1/GPa) = 0.07393873
#
# Stress axis : x y z
#
# Youngs Moduli (GPa) = 17.15552 90.20731 91.65942
#
# Poissons Ratio (x) = 0.78484 -0.73053
# Poissons Ratio (y) = 0.14926 0.22393
# Poissons Ratio (z) = -0.13673 0.22039
#
# Static dielectric constant tensor:
#      x y z
#    x -3.596920 -3.462190 -3.618990 
#    y -3.462190 -0.067860 -2.050050 
#    z -3.618990 -2.050050 -0.202320 
# 
# From -- ./inp_files/542585.got.cif
#   From: 2010.05.17/outbox.cif.g08.bks.cpg/sg2_272_cif.got.tgz:542585.got - 2010.06.03 11:33:40.
