data_PCOD9105895
_publ_section_title
;
Structure prediction by ZEFSAII (Michael W. Deem and Ramdas Pophale) SiO2 
 PCOD9105895
Probable space group: P -1
;
_chemical_formula_sum "Si O2"
_cell_formula_units_Z 16
_cell_length_a 30.823939
_cell_length_b 5.457503
_cell_length_c 24.027300
_cell_angle_alpha 49.264287
_cell_angle_beta 166.093776
_cell_angle_gamma 124.108837
_cell_volume 674.903631
_symmetry_space_group_name_H-M "P -1"
_symmetry_group_IT_number 2
_symmetry_cell_setting 'triclinic'
loop_
_space_group_symop_operation_xyz
x,y,z
-x,-y,-z
loop_
_atom_site_type_symbol
_atom_site_label
_atom_site_fract_x
_atom_site_fract_y
_atom_site_fract_z
Si Si1 0.237044 0.510512 0.119830
Si Si2 0.852958 0.417375 0.122327
Si Si3 0.122979 0.816177 0.417919
Si Si4 0.603730 0.697135 0.533572
Si Si5 0.527400 0.481257 0.299234
Si Si6 0.438334 0.397811 0.801169
Si Si7 0.266050 0.824176 0.705034
Si Si8 0.133083 0.666374 0.175549
O O1 0.389421 0.700442 0.276229
O O2 0.299617 0.305814 0.285547
O O3 0.240291 0.373046 0.081974
O O4 0.009073 0.772387 0.803406
O O5 0.969860 0.634910 0.260190
O O6 0.679617 0.383864 0.946461
O O7 0.031299 0.036143 0.391077
O O8 0.245036 0.742897 0.524218
O O9 0.274541 0.644591 0.682613
O O10 0.728432 0.349500 0.703902
O O11 0.586223 0.058903 0.429580
O O12 0.510762 0.637938 0.194295
O O13 0.693698 0.540406 0.534008
O O14 0.358545 0.106537 0.764275
O O15 0.619541 0.378977 0.068422
O O16 0.000000 0.500000 0.000000
O O17 0.000000 0.000000 0.000000
#
# Coordination Sequence:
#
# PCOD9105895 Si02
#       8
#     2   2   2   2   2   2   2   2
#     4  10  22  39  65  92 126 183 230 284 332 417
#     4  10  21  40  68  96 133 172 230 291 339 415
#     4  10  20  39  66  93 126 173 231 276 344 412
#     4  11  24  42  64  95 133 182 238 285 338 414
#     4  12  25  43  66 103 142 178 232 291 358 409
#     4  10  23  41  67  96 134 177 222 290 350 427
#     4   9  21  44  66  95 129 177 231 278 351 425
#     4  12  27  46  67  97 147 190 228 288 357 413
#
# _framework density 23.707089
#
# number of rings (size 3 to 8) (size 9 to 14) (size 15 to 20)
#    0.000    1.500    3.750    0.375    1.750    6.000 
#    0.000    0.625    0.000    0.000    0.000    0.000 
#    0.000    0.000    0.000    0.000    0.000    0.000 
#
# Total GULP energy -89251.122646 kJ/mol
# GULP energy per Si atom -5578.195165 kJ/mol
# Density = 2.365313 g / cm^3
# Si number density = 23.707089 Si / 1000 Ang^3
#
#
#
# Elastic Constant Matrix: (Units=GPa)
#
#
# Indices 1 2 3 4 5 6 
#
# 1 139.5117 24.5089 62.0546 0.9292 5.6557 -21.2715
# 2 24.5089 63.1657 24.7112 17.3779 4.7937 -19.5428
# 3 62.0546 24.7112 125.2085 18.6857 -0.5799 -15.9932
# 4 0.9292 17.3779 18.6857 32.2249 -22.6603 -3.8759
# 5 5.6557 4.7937 -0.5799 -22.6603 43.6747 1.1197
# 6 -21.2715 -19.5428 -15.9932 -3.8759 1.1197 33.7911
#
#
#
# Elastic Compliance Matrix: (Units=1/GPa)
#
#
# Indices 1 2 3 4 5 6 
#
# 1 0.010226 -0.002789 -0.004974 0.005738 0.001814 0.003068
# 2 -0.002789 0.029172 0.001225 -0.026764 -0.017049 0.013191
# 3 -0.004974 0.001225 0.012073 -0.010737 -0.004958 0.002224
# 4 0.005738 -0.026764 -0.010737 0.081940 0.044797 -0.009034
# 5 0.001814 -0.017049 -0.004958 0.044797 0.047902 -0.007513
# 6 0.003068 0.013191 0.002224 -0.009034 -0.007513 0.039419
#
#
# Mechanical properties :
#
#
# Convention : Reuss Voigt Hill
#
# Bulk Modulus (GPa) = 26.04430 61.15947 43.60189
# Shear Modulus (GPa) = 20.27505 36.37889 28.32697
#
# Velocity S-wave (km/s) = 2.92761 3.92154 3.46044
# Velocity P-wave (km/s) = 4.73683 6.80871 5.86499
#
# Compressibility (1/GPa) = 0.03839611
#
# Stress axis : x y z
#
# Youngs Moduli (GPa) = 97.78768 34.27886 82.82627
#
# Poissons Ratio (x) = 0.09561 0.41196
# Poissons Ratio (y) = 0.27274 -0.10145
# Poissons Ratio (z) = 0.48637 -0.04199
#
# Static dielectric constant tensor:
#      x y z
#    x 1.923070 -0.055940 0.007560 
#    y -0.055940 2.023610 -0.052280 
#    z 0.007560 -0.052280 1.961110 
# 
# From -- ./inp_files/76571.got.cif
#   From: 2010.05.17/outbox.cif.g08.bks.cpg/sg2_39_cif.got.tgz:76571.got - 2010.06.03 11:33:40.
