data_PCOD9105038
_publ_section_title
;
Structure prediction by ZEFSAII (Michael W. Deem and Ramdas Pophale) SiO2 
 PCOD9105038
Probable space group: P -1
;
_chemical_formula_sum "Si O2"
_cell_formula_units_Z 16
_cell_length_a 16.300900
_cell_length_b 14.882685
_cell_length_c 6.325144
_cell_angle_alpha 119.717265
_cell_angle_beta 129.912919
_cell_angle_gamma 38.849483
_cell_volume 738.268897
_symmetry_space_group_name_H-M "P -1"
_symmetry_group_IT_number 2
_symmetry_cell_setting 'triclinic'
loop_
_space_group_symop_operation_xyz
x,y,z
-x,-y,-z
loop_
_atom_site_type_symbol
_atom_site_label
_atom_site_fract_x
_atom_site_fract_y
_atom_site_fract_z
Si Si1 0.970793 0.913569 0.217675
Si Si2 0.496958 0.579494 0.891141
Si Si3 0.065527 0.278361 0.828204
Si Si4 0.720776 0.305276 0.719822
Si Si5 0.101383 0.451452 0.405752
Si Si6 0.437197 0.192399 0.611436
Si Si7 0.394026 0.037495 0.056288
Si Si8 0.343811 0.834349 0.224405
O O1 0.105036 0.813396 0.158399
O O2 0.977569 0.803546 0.237551
O O3 0.000000 0.000000 0.500000
O O4 0.812919 0.030790 0.976995
O O5 0.650260 0.454637 0.881873
O O6 0.363807 0.645604 0.586160
O O7 0.500000 0.500000 0.000000
O O8 0.454213 0.714168 0.085731
O O9 0.955774 0.403944 0.626315
O O10 0.074465 0.366450 0.117202
O O11 0.224119 0.148008 0.830707
O O12 0.676368 0.235563 0.707074
O O13 0.278657 0.346401 0.594208
O O14 0.000000 0.500000 0.500000
O O15 0.381561 0.120292 0.336869
O O16 0.544937 0.147164 0.532777
O O17 0.536445 0.108883 0.887087
O O18 0.500000 0.000000 0.000000
#
# Coordination Sequence:
#
# PCOD9105038 Si02
#       8
#     2   2   2   2   2   2   2   2
#     4  12  24  43  64  95 138 180 221 273 335 396
#     4   9  20  39  61  84 121 165 218 267 314 375
#     4  10  23  42  65  93 134 163 217 274 323 395
#     4  10  22  40  62  89 127 176 223 265 320 390
#     4  10  22  44  67  99 124 167 217 272 337 397
#     4  10  22  37  63  93 125 157 214 273 323 389
#     4  10  20  39  63  89 120 165 206 265 334 389
#     4  11  22  41  62  93 131 170 224 275 327 394
#
# _framework density 21.672321
#
# number of rings (size 3 to 8) (size 9 to 14) (size 15 to 20)
#    0.000    1.750    2.500    1.125    0.000    6.000 
#    4.500    0.000    0.000    0.000    0.000    0.000 
#    0.000    0.000    0.000    0.000    0.000    0.000 
#
# Total GULP energy -89081.559916 kJ/mol
# GULP energy per Si atom -5567.597495 kJ/mol
# Density = 2.162299 g / cm^3
# Si number density = 21.672321 Si / 1000 Ang^3
#
#
#
# Elastic Constant Matrix: (Units=GPa)
#
#
# Indices 1 2 3 4 5 6 
#
# 1 134.6665 62.5798 7.8047 -28.1679 -9.7293 -6.7884
# 2 62.5798 134.2047 27.6544 -47.8600 -0.4927 -11.0594
# 3 7.8047 27.6544 31.6368 -16.7872 -6.0896 -3.7254
# 4 -28.1679 -47.8600 -16.7872 32.0416 -1.6285 1.8986
# 5 -9.7293 -0.4927 -6.0896 -1.6285 25.1670 -6.2483
# 6 -6.7884 -11.0594 -3.7254 1.8986 -6.2483 59.1017
#
#
#
# Elastic Compliance Matrix: (Units=1/GPa)
#
#
# Indices 1 2 3 4 5 6 
#
# 1 0.010786 -0.003282 0.005754 0.007833 0.006354 0.001407
# 2 -0.003282 0.017412 -0.002613 0.021649 0.000352 0.002058
# 3 0.005754 -0.002613 0.051710 0.028885 0.017639 0.004368
# 4 0.007833 0.021649 0.028885 0.086106 0.017466 0.005852
# 5 0.006354 0.000352 0.017639 0.017466 0.049222 0.006550
# 6 0.001407 0.002058 0.004368 0.005852 0.006550 0.018247
#
#
# Mechanical properties :
#
#
# Convention : Reuss Voigt Hill
#
# Bulk Modulus (GPa) = 12.55899 55.17620 33.86759
# Shear Modulus (GPa) = 19.20810 36.75999 27.98405
#
# Velocity S-wave (km/s) = 2.98030 4.12293 3.59727
# Velocity P-wave (km/s) = 4.20125 6.94113 5.73715
#
# Compressibility (1/GPa) = 0.07962422
#
# Stress axis : x y z
#
# Youngs Moduli (GPa) = 92.71204 57.43320 19.33876
#
# Poissons Ratio (x) = 0.18852 -0.11127
# Poissons Ratio (y) = 0.30432 0.05053
# Poissons Ratio (z) = -0.53342 0.15005
#
# Static dielectric constant tensor:
#      x y z
#    x 1.564300 -0.145370 -0.219400 
#    y -0.145370 1.806810 -0.092970 
#    z -0.219400 -0.092970 1.606640 
# 
# From -- ./inp_files/52456.got.cif
#   From: 2010.05.17/outbox.cif.g08.bks.cpg/sg2_27_cif.got.tgz:52456.got - 2010.06.03 11:33:40.
