data_PCOD9105571
_publ_section_title
;
Structure prediction by ZEFSAII (Michael W. Deem and Ramdas Pophale) SiO2 
 PCOD9105571
Probable space group: P -1
;
_chemical_formula_sum "Si O2"
_cell_formula_units_Z 16
_cell_length_a 10.272182
_cell_length_b 9.776755
_cell_length_c 14.955229
_cell_angle_alpha 80.858711
_cell_angle_beta 105.771507
_cell_angle_gamma 41.155374
_cell_volume 778.922346
_symmetry_space_group_name_H-M "P -1"
_symmetry_group_IT_number 2
_symmetry_cell_setting 'triclinic'
loop_
_space_group_symop_operation_xyz
x,y,z
-x,-y,-z
loop_
_atom_site_type_symbol
_atom_site_label
_atom_site_fract_x
_atom_site_fract_y
_atom_site_fract_z
Si Si1 0.558144 0.779649 0.778025
Si Si2 0.760437 0.288364 0.519327
Si Si3 0.994289 0.635075 0.419761
Si Si4 0.380554 0.920686 0.916413
Si Si5 0.497336 0.480312 0.276016
Si Si6 0.010192 0.512847 0.239908
Si Si7 0.280915 0.507387 0.831163
Si Si8 0.992987 0.998249 0.227072
O O1 0.575445 0.783576 0.887488
O O2 0.564669 0.611209 0.773354
O O3 0.766261 0.674195 0.768608
O O4 0.288272 0.070788 0.672438
O O5 0.500000 0.500000 0.500000
O O6 0.702032 0.276693 0.412708
O O7 0.841016 0.378605 0.514333
O O8 0.949824 0.060567 0.649785
O O9 0.081697 0.517848 0.348411
O O10 0.000000 0.500000 0.500000
O O11 0.197210 0.958973 0.839957
O O12 0.210683 0.200896 0.869224
O O13 0.514210 0.746250 0.045558
O O14 0.592689 0.512473 0.221211
O O15 0.247935 0.751510 0.248384
O O16 0.906405 0.448727 0.243033
O O17 0.131552 0.746762 0.838483
#
# Coordination Sequence:
#
# PCOD9105571 Si02
#       8
#     2   2   2   2   2   2   2   2
#     4  11  23  42  67  87 128 178 208 251 327 380
#     4  10  20  39  65  89 126 164 205 255 313 370
#     4  11  23  41  63  93 132 166 207 264 313 378
#     4  11  23  45  65  90 132 169 211 265 318 375
#     4  11  23  40  68  95 124 170 211 261 320 376
#     4  11  24  44  63  93 130 169 212 257 322 382
#     4  12  26  39  66 100 125 161 221 270 309 374
#     4  11  22  42  65  95 129 163 216 263 312 380
#
# _framework density 20.5412
#
# number of rings (size 3 to 8) (size 9 to 14) (size 15 to 20)
#    0.000    1.000    5.000    2.250    0.000    9.500 
#    0.000    0.000    0.000    0.000    0.000    0.000 
#    0.000    0.000    0.000    0.000    0.000    0.000 
#
# Total GULP energy -89467.413816 kJ/mol
# GULP energy per Si atom -5591.713364 kJ/mol
# Density = 2.049445 g / cm^3
# Si number density = 20.541200 Si / 1000 Ang^3
#
#
#
# Elastic Constant Matrix: (Units=GPa)
#
#
# Indices 1 2 3 4 5 6 
#
# 1 69.2433 10.2878 3.2669 -0.7340 -8.5726 -6.7496
# 2 10.2878 69.9045 -11.4287 2.2368 -4.1933 -15.1300
# 3 3.2669 -11.4287 46.6721 3.8585 -10.3952 -14.0649
# 4 -0.7340 2.2368 3.8585 17.4701 0.6377 -10.8389
# 5 -8.5726 -4.1933 -10.3952 0.6377 26.5140 1.1970
# 6 -6.7496 -15.1300 -14.0649 -10.8389 1.1970 41.0443
#
#
#
# Elastic Compliance Matrix: (Units=1/GPa)
#
#
# Indices 1 2 3 4 5 6 
#
# 1 0.015502 -0.001508 0.000155 0.002183 0.004670 0.002487
# 2 -0.001508 0.018285 0.008548 0.001512 0.005283 0.009667
# 3 0.000155 0.008548 0.030312 -0.000072 0.012693 0.013174
# 4 0.002183 0.001512 -0.000072 0.069121 -0.001612 0.019192
# 5 0.004670 0.005283 0.012693 -0.001612 0.044836 0.005332
# 6 0.002487 0.009667 0.013174 0.019192 0.005332 0.037764
#
#
# Mechanical properties :
#
#
# Convention : Reuss Voigt Hill
#
# Bulk Modulus (GPa) = 12.74050 21.11908 16.92979
# Shear Modulus (GPa) = 21.96907 29.25193 25.61050
#
# Velocity S-wave (km/s) = 3.27389 3.77777 3.53482
# Velocity P-wave (km/s) = 4.52847 5.41594 4.99196
#
# Compressibility (1/GPa) = 0.07848988
#
# Stress axis : x y z
#
# Youngs Moduli (GPa) = 64.50696 54.68817 32.99051
#
# Poissons Ratio (x) = 0.08245 -0.00511
# Poissons Ratio (y) = 0.09725 -0.28201
# Poissons Ratio (z) = -0.00998 -0.46748
#
# Static dielectric constant tensor:
#      x y z
#    x 1.711600 -0.018100 0.003670 
#    y -0.018100 1.762700 0.017930 
#    z 0.003670 0.017930 1.739240 
# 
# From -- ./inp_files/494919.got.cif
#   From: 2010.05.17/outbox.cif.g08.bks.cpg/sg2_248_cif.got.tgz:494919.got - 2010.06.03 11:33:40.
