data_PCOD9105143
_publ_section_title
;
Structure prediction by ZEFSAII (Michael W. Deem and Ramdas Pophale) SiO2 
 PCOD9105143
Probable space group: P -1
;
_chemical_formula_sum "Si O2"
_cell_formula_units_Z 16
_cell_length_a 12.349001
_cell_length_b 11.972724
_cell_length_c 8.818241
_cell_angle_alpha 87.057079
_cell_angle_beta 144.246232
_cell_angle_gamma 88.355716
_cell_volume 755.251583
_symmetry_space_group_name_H-M "P -1"
_symmetry_group_IT_number 2
_symmetry_cell_setting 'triclinic'
loop_
_space_group_symop_operation_xyz
x,y,z
-x,-y,-z
loop_
_atom_site_type_symbol
_atom_site_label
_atom_site_fract_x
_atom_site_fract_y
_atom_site_fract_z
Si Si1 0.532545 0.474665 0.216103
Si Si2 0.734138 0.698162 0.080772
Si Si3 0.630532 0.711257 0.315360
Si Si4 0.394998 0.877952 0.569989
Si Si5 0.439718 0.943311 0.086171
Si Si6 0.882897 0.283864 0.654841
Si Si7 0.891835 0.826544 0.831055
Si Si8 0.188799 0.971441 0.049842
O O1 0.354490 0.413879 0.068216
O O2 0.566507 0.595552 0.310321
O O3 0.719444 0.387078 0.450189
O O4 0.500000 0.500000 0.000000
O O5 0.581705 0.797608 0.834651
O O6 0.720763 0.698610 0.249760
O O7 0.943698 0.706240 0.261181
O O8 0.460751 0.810381 0.098804
O O9 0.760128 0.764319 0.579501
O O10 0.227189 0.827220 0.471116
O O11 0.339123 0.889529 0.328397
O O12 0.423418 0.003606 0.643533
O O13 0.243068 0.980775 0.937241
O O14 0.500000 0.000000 0.000000
O O15 0.971366 0.271261 0.923624
O O16 0.822438 0.908693 0.887398
O O17 0.004620 0.911425 0.859414
#
# Coordination Sequence:
#
# PCOD9105143 Si02
#       8
#     2   2   2   2   2   2   2   2
#     4   9  22  44  64  88 128 164 213 263 313 375
#     4  10  21  41  67  93 123 168 212 262 316 367
#     4  11  23  39  59  94 129 160 212 262 307 378
#     4  10  20  39  63  93 125 165 211 250 313 381
#     4  12  23  37  61  96 129 162 207 263 313 376
#     4  10  22  40  68  89 122 171 209 260 317 371
#     4  10  22  40  62  92 129 166 213 255 311 384
#     4  10  22  40  62  89 131 177 201 249 323 378
#
# _framework density 21.184992999999999
#
# number of rings (size 3 to 8) (size 9 to 14) (size 15 to 20)
#    0.000    1.750    2.500    1.125    1.750    3.500 
#    2.250    1.875    0.000    0.000    0.000    0.000 
#    0.000    0.000    0.000    0.000    0.000    0.000 
#
# Total GULP energy -89195.252881 kJ/mol
# GULP energy per Si atom -5574.703305 kJ/mol
# Density = 2.113677 g / cm^3
# Si number density = 21.184993 Si / 1000 Ang^3
#
#
#
# Elastic Constant Matrix: (Units=GPa)
#
#
# Indices 1 2 3 4 5 6 
#
# 1 123.4663 38.4855 12.7779 15.6873 25.3592 18.5552
# 2 38.4855 142.7458 27.6613 15.0561 10.2044 11.3375
# 3 12.7779 27.6613 51.0930 -0.5509 6.4002 1.2188
# 4 15.6873 15.0561 -0.5509 42.0871 6.5200 1.0741
# 5 25.3592 10.2044 6.4002 6.5200 25.6777 5.9988
# 6 18.5552 11.3375 1.2188 1.0741 5.9988 21.8383
#
#
#
# Elastic Compliance Matrix: (Units=1/GPa)
#
#
# Indices 1 2 3 4 5 6 
#
# 1 0.011749 -0.001618 -0.000850 -0.002308 -0.008617 -0.006615
# 2 -0.001618 0.008756 -0.004363 -0.002597 0.000555 -0.002952
# 3 -0.000850 -0.004363 0.022666 0.002790 -0.004440 0.002805
# 4 -0.002308 -0.002597 0.002790 0.026247 -0.004792 0.003179
# 5 -0.008617 0.000555 -0.004440 -0.004792 0.051079 -0.006514
# 6 -0.006615 -0.002952 0.002805 0.003179 -0.006514 0.054420
#
#
# Mechanical properties :
#
#
# Convention : Reuss Voigt Hill
#
# Bulk Modulus (GPa) = 33.88778 52.79491 43.34134
# Shear Modulus (GPa) = 25.19968 33.81266 29.50617
#
# Velocity S-wave (km/s) = 3.45266 3.99941 3.73605
# Velocity P-wave (km/s) = 5.65025 6.80456 6.25410
#
# Compressibility (1/GPa) = 0.02950916
#
# Stress axis : x y z
#
# Youngs Moduli (GPa) = 85.11438 114.20957 44.11889
#
# Poissons Ratio (x) = 0.18481 0.03750
# Poissons Ratio (y) = 0.13773 0.19248
# Poissons Ratio (z) = 0.07234 0.49827
#
# Static dielectric constant tensor:
#      x y z
#    x 1.804200 -0.008180 0.028820 
#    y -0.008180 1.823080 -0.026340 
#    z 0.028820 -0.026340 1.836350 
# 
# From -- ./inp_files/258720.got.cif
#   From: 2010.05.17/outbox.cif.g08.bks.cpg/sg2_130_cif.got.tgz:258720.got - 2010.06.03 11:33:40.
