data_PCOD9105800
_publ_section_title
;
Structure prediction by ZEFSAII (Michael W. Deem and Ramdas Pophale) SiO2 
 PCOD9105800
Probable space group: P -1
;
_chemical_formula_sum "Si O2"
_cell_formula_units_Z 16
_cell_length_a 10.024809
_cell_length_b 14.271403
_cell_length_c 10.689488
_cell_angle_alpha 148.924702
_cell_angle_beta 92.897182
_cell_angle_gamma 95.835294
_cell_volume 756.562228
_symmetry_space_group_name_H-M "P -1"
_symmetry_group_IT_number 2
_symmetry_cell_setting 'triclinic'
loop_
_space_group_symop_operation_xyz
x,y,z
-x,-y,-z
loop_
_atom_site_type_symbol
_atom_site_label
_atom_site_fract_x
_atom_site_fract_y
_atom_site_fract_z
Si Si1 0.591721 0.779131 0.517334
Si Si2 0.816484 0.624904 0.262540
Si Si3 0.229131 0.548510 0.381559
Si Si4 0.528288 0.587575 0.739698
Si Si5 0.693634 0.277335 0.684551
Si Si6 0.341210 0.827594 0.925327
Si Si7 0.920104 0.389680 0.179208
Si Si8 0.938561 0.174263 0.676677
O O1 0.731602 0.777855 0.449852
O O2 0.542221 0.575253 0.349911
O O3 0.468661 0.798950 0.442939
O O4 0.618909 0.947125 0.811388
O O5 0.859729 0.559263 0.323237
O O6 0.955056 0.695290 0.267568
O O7 0.719015 0.442264 0.978043
O O8 0.308146 0.384910 0.200300
O O9 0.235492 0.625558 0.329535
O O10 0.314839 0.723226 0.671186
O O11 0.073304 0.471394 0.335198
O O12 0.500000 0.500000 0.500000
O O13 0.458290 0.757317 0.926125
O O14 0.781786 0.137780 0.575070
O O15 0.195573 0.747053 0.898251
O O16 0.940994 0.281575 0.930180
O O17 0.000000 0.000000 0.500000
#
# Coordination Sequence:
#
# PCOD9105800 Si02
#       8
#     2   2   2   2   2   2   2   2
#     4  11  23  40  63  92 128 159 205 258 302 362
#     4  11  20  41  65  85 126 162 204 254 313 360
#     4  10  20  39  66  87 122 163 208 248 303 370
#     4   9  21  39  62  86 123 164 202 244 309 355
#     4  10  21  40  63  91 116 166 204 249 313 365
#     4  11  23  40  63  94 124 165 206 251 305 363
#     4  11  20  40  63  88 124 164 205 253 307 365
#     4  11  22  38  62  93 124 160 207 257 308 365
#
# _framework density 21.148292999999999
#
# number of rings (size 3 to 8) (size 9 to 14) (size 15 to 20)
#    0.000    1.500    3.750    2.250    0.000    5.500 
#    0.000    5.000    0.000    0.000    0.000    0.000 
#    0.000    0.000    0.000    0.000    0.000    0.000 
#
# Total GULP energy -89345.981322 kJ/mol
# GULP energy per Si atom -5584.123833 kJ/mol
# Density = 2.110016 g / cm^3
# Si number density = 21.148293 Si / 1000 Ang^3
#
#
#
# Elastic Constant Matrix: (Units=GPa)
#
#
# Indices 1 2 3 4 5 6 
#
# 1 140.6930 16.7265 30.9875 -1.3365 -8.0825 -22.1657
# 2 16.7265 42.6210 1.1821 -1.5226 -1.4413 -12.4821
# 3 30.9875 1.1821 48.6048 -1.7286 -10.0888 -18.0085
# 4 -1.3365 -1.5226 -1.7286 18.5545 -4.1235 -1.5880
# 5 -8.0825 -1.4413 -10.0888 -4.1235 28.2617 1.8026
# 6 -22.1657 -12.4821 -18.0085 -1.5880 1.8026 40.9953
#
#
#
# Elastic Compliance Matrix: (Units=1/GPa)
#
#
# Indices 1 2 3 4 5 6 
#
# 1 0.008803 -0.002760 -0.004734 0.000258 0.000608 0.001823
# 2 -0.002760 0.027287 0.005102 0.003828 0.002402 0.009100
# 3 -0.004734 0.005102 0.030189 0.006101 0.009804 0.012060
# 4 0.000258 0.003828 0.006101 0.057620 0.010487 0.005756
# 5 0.000608 0.002402 0.009804 0.010487 0.040455 0.003994
# 6 0.001823 0.009100 0.012060 0.005756 0.003994 0.033495
#
#
# Mechanical properties :
#
#
# Convention : Reuss Voigt Hill
#
# Bulk Modulus (GPa) = 16.26142 36.63456 26.44799
# Shear Modulus (GPa) = 22.40837 29.76383 26.08610
#
# Velocity S-wave (km/s) = 3.25866 3.75559 3.51591
# Velocity P-wave (km/s) = 4.67594 6.01383 5.38658
#
# Compressibility (1/GPa) = 0.06149526
#
# Stress axis : x y z
#
# Youngs Moduli (GPa) = 113.59633 36.64716 33.12484
#
# Poissons Ratio (x) = 0.10114 0.15683
# Poissons Ratio (y) = 0.31350 -0.16901
# Poissons Ratio (z) = 0.53781 -0.18698
#
# Static dielectric constant tensor:
#      x y z
#    x 1.824150 -0.006770 0.002700 
#    y -0.006770 1.770050 0.012490 
#    z 0.002700 0.012490 1.759370 
# 
# From -- ./inp_files/174966.got.cif
#   From: 2010.05.17/outbox.cif.g08.bks.cpg/sg2_88_cif.got.tgz:174966.got - 2010.06.03 11:33:40.
