data_PCOD9105491
_publ_section_title
;
Structure prediction by ZEFSAII (Michael W. Deem and Ramdas Pophale) SiO2 
 PCOD9105491
Probable space group: P -1
;
_chemical_formula_sum "Si O2"
_cell_formula_units_Z 14
_cell_length_a 7.964622
_cell_length_b 11.058750
_cell_length_c 11.233463
_cell_angle_alpha 129.597639
_cell_angle_beta 51.853144
_cell_angle_gamma 112.517108
_cell_volume 599.475800
_symmetry_space_group_name_H-M "P -1"
_symmetry_group_IT_number 2
_symmetry_cell_setting 'triclinic'
loop_
_space_group_symop_operation_xyz
x,y,z
-x,-y,-z
loop_
_atom_site_type_symbol
_atom_site_label
_atom_site_fract_x
_atom_site_fract_y
_atom_site_fract_z
Si Si1 0.222207 0.557453 0.991802
Si Si2 0.437425 0.419782 0.354057
Si Si3 0.742796 0.002022 0.129489
Si Si4 0.220947 0.118340 0.206866
Si Si5 0.236790 0.725370 0.551147
Si Si6 0.364762 0.226108 0.751208
Si Si7 0.973768 0.127940 0.694617
O O1 0.374819 0.587137 0.830697
O O2 0.314735 0.405952 0.924873
O O3 0.161327 0.717141 0.186914
O O4 0.000000 0.500000 0.000000
O O5 0.500000 0.500000 0.500000
O O6 0.351306 0.246659 0.300650
O O7 0.264464 0.541524 0.448046
O O8 0.672723 0.890699 0.197618
O O9 0.689893 0.178112 0.303467
O O10 0.662203 0.933161 0.998095
O O11 0.000000 0.000000 0.000000
O O12 0.998487 0.211326 0.334172
O O13 0.155915 0.961656 0.203344
O O14 0.400073 0.776127 0.408385
O O15 0.196744 0.180106 0.690744
O O16 0.000000 0.000000 0.500000
#
# Coordination Sequence:
#
# PCOD9105491 Si02
#       7
#     2   2   2   2   2   2   2
#     4   9  23  43  64  92 131 176 219 263 332 396
#     4  11  26  44  66  99 135 180 220 278 342 393
#     4  10  20  39  64  98 131 168 216 278 325 389
#     4  11  25  43  66 102 134 174 225 279 335 390
#     4  10  22  42  68  98 136 175 224 270 333 404
#     4  10  20  43  68  97 133 180 220 266 339 396
#     4  11  24  41  66 102 137 176 226 273 330 401
#
# _framework density 23.353736000000001
#
# number of rings (size 3 to 8) (size 9 to 14) (size 15 to 20)
#    0.000    1.714    2.857    0.857    8.000    2.857 
#    2.571    1.429    0.000    0.000    0.000    0.000 
#    0.000    0.000    0.000    0.000    0.000    0.000 
#
# Total GULP energy -78323.753298 kJ/mol
# GULP energy per Si atom -5594.553807 kJ/mol
# Density = 2.330058 g / cm^3
# Si number density = 23.353736 Si / 1000 Ang^3
#
#
#
# Elastic Constant Matrix: (Units=GPa)
#
#
# Indices 1 2 3 4 5 6 
#
# 1 59.2917 10.7895 23.0671 7.1309 3.3455 10.2139
# 2 10.7895 54.4512 15.0252 24.5431 -4.2731 9.9639
# 3 23.0671 15.0252 132.6384 33.4229 0.9828 -1.6192
# 4 7.1309 24.5431 33.4229 37.7184 2.3285 3.4872
# 5 3.3455 -4.2731 0.9828 2.3285 37.4641 3.5804
# 6 10.2139 9.9639 -1.6192 3.4872 3.5804 21.5210
#
#
#
# Elastic Compliance Matrix: (Units=1/GPa)
#
#
# Indices 1 2 3 4 5 6 
#
# 1 0.020143 -0.002296 -0.003844 0.001991 -0.001233 -0.008904
# 2 -0.002296 0.029587 0.001898 -0.019912 0.005742 -0.010195
# 3 -0.003844 0.001898 0.010613 -0.010255 0.000603 0.003306
# 4 0.001991 -0.019912 -0.010255 0.048455 -0.005241 0.000523
# 5 -0.001233 0.005742 0.000603 -0.005241 0.028330 -0.005892
# 6 -0.008904 -0.010195 0.003306 0.000523 -0.005892 0.056556
#
#
# Mechanical properties :
#
#
# Convention : Reuss Voigt Hill
#
# Bulk Modulus (GPa) = 19.28274 38.23831 28.76053
# Shear Modulus (GPa) = 22.78368 32.50735 27.64552
#
# Velocity S-wave (km/s) = 3.12683 3.73494 3.44433
# Velocity P-wave (km/s) = 4.61637 5.91682 5.30658
#
# Compressibility (1/GPa) = 0.05185984
#
# Stress axis : x y z
#
# Youngs Moduli (GPa) = 49.64502 33.79818 94.22440
#
# Poissons Ratio (x) = 0.07758 0.36224
# Poissons Ratio (y) = 0.11396 -0.17885
# Poissons Ratio (z) = 0.19085 -0.06415
#
# Static dielectric constant tensor:
#      x y z
#    x 1.943190 -0.019350 0.012990 
#    y -0.019350 1.860810 0.021600 
#    z 0.012990 0.021600 1.879520 
# 
# From -- ./inp_files/239585.got.cif
#   From: 2010.05.17/outbox.cif.g08.bks.cpg/sg2_120_cif.got.tgz:239585.got - 2010.06.03 11:33:40.
