data_PCOD9105816
_publ_section_title
;
Structure prediction by ZEFSAII (Michael W. Deem and Ramdas Pophale) SiO2 
 PCOD9105816
Probable space group: P -1
;
_chemical_formula_sum "Si O2"
_cell_formula_units_Z 14
_cell_length_a 15.212102
_cell_length_b 8.126379
_cell_length_c 16.641845
_cell_angle_alpha 125.514632
_cell_angle_beta 23.609236
_cell_angle_gamma 112.560356
_cell_volume 596.883841
_symmetry_space_group_name_H-M "P -1"
_symmetry_group_IT_number 2
_symmetry_cell_setting 'triclinic'
loop_
_space_group_symop_operation_xyz
x,y,z
-x,-y,-z
loop_
_atom_site_type_symbol
_atom_site_label
_atom_site_fract_x
_atom_site_fract_y
_atom_site_fract_z
Si Si1 0.521083 0.843326 0.860580
Si Si2 0.742174 0.491680 0.695469
Si Si3 0.057996 0.083851 0.890572
Si Si4 0.208655 0.421621 0.693288
Si Si5 0.529286 0.359062 0.561120
Si Si6 0.124226 0.796861 0.090091
Si Si7 0.744557 0.120490 0.695880
O O1 0.676201 0.583911 0.686050
O O2 0.657550 0.925674 0.704808
O O3 0.250964 0.894126 0.072900
O O4 0.500000 0.000000 0.000000
O O5 0.774768 0.248112 0.628363
O O6 0.000000 0.500000 0.500000
O O7 0.492035 0.674019 0.002790
O O8 0.898995 0.095765 0.948636
O O9 0.326351 0.886826 0.591444
O O10 0.002503 0.342378 0.024250
O O11 0.000000 0.000000 0.000000
O O12 0.419250 0.335122 0.560642
O O13 0.303075 0.515459 0.566388
O O14 0.117682 0.234220 0.699864
O O15 0.325577 0.535584 0.838695
O O16 0.000000 0.000000 0.500000
#
# Coordination Sequence:
#
# PCOD9105816 Si02
#       7
#     2   2   2   2   2   2   2
#     4  10  23  45  62  88 134 172 221 276 323 381
#     4  10  20  39  66  90 116 164 222 269 330 386
#     4   9  18  36  63  87 122 156 195 247 313 384
#     4   9  19  35  61  85 124 156 196 254 312 378
#     4   9  18  37  59  90 118 160 197 252 317 377
#     4  11  22  39  57  92 124 161 211 257 307 379
#     4  10  20  39  66  89 117 166 215 272 333 374
#
# _framework density 23.455151999999998
#
# number of rings (size 3 to 8) (size 9 to 14) (size 15 to 20)
#    0.000    2.286    1.429    2.571    0.000    2.286 
#   15.429    0.000    0.000    0.000    0.000    0.000 
#    0.000    0.000    0.000    0.000    0.000    0.000 
#
# Total GULP energy -78029.279696 kJ/mol
# GULP energy per Si atom -5573.519978 kJ/mol
# Density = 2.340177 g / cm^3
# Si number density = 23.455152 Si / 1000 Ang^3
#
#
#
# Elastic Constant Matrix: (Units=GPa)
#
#
# Indices 1 2 3 4 5 6 
#
# 1 116.0000 70.9474 26.2796 -5.2613 -29.3304 7.0322
# 2 70.9474 172.1365 23.7134 -20.8491 -31.0419 -24.0689
# 3 26.2796 23.7134 105.0645 10.4127 -22.3788 0.2439
# 4 -5.2613 -20.8491 10.4127 42.4972 -5.2916 -16.5094
# 5 -29.3304 -31.0419 -22.3788 -5.2916 34.2867 -0.5647
# 6 7.0322 -24.0689 0.2439 -16.5094 -0.5647 42.7168
#
#
#
# Elastic Compliance Matrix: (Units=1/GPa)
#
#
# Indices 1 2 3 4 5 6 
#
# 1 0.014176 -0.006052 -0.000666 -0.003001 0.005637 -0.006825
# 2 -0.006052 0.013274 -0.000949 0.012201 0.008323 0.013307
# 3 -0.000666 -0.000949 0.011397 -0.003321 0.005469 -0.001702
# 4 -0.003001 0.012201 -0.003321 0.040606 0.012962 0.023253
# 5 0.005637 0.008323 0.005469 0.012962 0.047248 0.009365
# 6 -0.006825 0.013307 -0.001702 0.023253 0.009365 0.041152
#
#
# Mechanical properties :
#
#
# Convention : Reuss Voigt Hill
#
# Bulk Modulus (GPa) = 42.53206 70.56466 56.54836
# Shear Modulus (GPa) = 26.17450 42.05084 34.11267
#
# Velocity S-wave (km/s) = 3.34419 4.23876 3.81777
# Velocity P-wave (km/s) = 5.75189 7.35570 6.60267
#
# Compressibility (1/GPa) = 0.02351168
#
# Stress axis : x y z
#
# Youngs Moduli (GPa) = 70.54020 75.33546 87.74440
#
# Poissons Ratio (x) = 0.45595 0.05843
# Poissons Ratio (y) = 0.42693 0.08331
# Poissons Ratio (z) = 0.04697 0.07153
#
# Static dielectric constant tensor:
#      x y z
#    x 2.004120 -0.024630 0.151320 
#    y -0.024630 1.924800 -0.041810 
#    z 0.151320 -0.041810 2.137090 
# 
# From -- ./inp_files/599535.got.cif
#   From: 2010.05.17/outbox.cif.g08.bks.cpg/sg2_300_cif.got.tgz:599535.got - 2010.06.03 11:33:40.
