data_PCOD9105448
_publ_section_title
;
Structure prediction by ZEFSAII (Michael W. Deem and Ramdas Pophale) SiO2 
 PCOD9105448
Probable space group: P -1
;
_chemical_formula_sum "Si O2"
_cell_formula_units_Z 14
_cell_length_a 15.775785
_cell_length_b 8.146450
_cell_length_c 14.363868
_cell_angle_alpha 128.523000
_cell_angle_beta 24.322329
_cell_angle_gamma 117.061292
_cell_volume 557.331861
_symmetry_space_group_name_H-M "P -1"
_symmetry_group_IT_number 2
_symmetry_cell_setting 'triclinic'
loop_
_space_group_symop_operation_xyz
x,y,z
-x,-y,-z
loop_
_atom_site_type_symbol
_atom_site_label
_atom_site_fract_x
_atom_site_fract_y
_atom_site_fract_z
Si Si1 0.774026 0.226013 0.939468
Si Si2 0.917841 0.911948 0.940412
Si Si3 0.283316 0.391032 0.087632
Si Si4 0.449900 0.765600 0.645731
Si Si5 0.360716 0.548351 0.373745
Si Si6 0.830314 0.760279 0.654183
Si Si7 0.914225 0.746446 0.218812
O O1 0.699519 0.153791 0.085767
O O2 0.575714 0.447668 0.187199
O O3 0.993143 0.262406 0.771615
O O4 0.791502 0.022676 0.781853
O O5 0.830202 0.746035 0.910745
O O6 0.139388 0.736185 0.702231
O O7 0.021214 0.079023 0.847009
O O8 0.675701 0.097944 0.270233
O O9 0.272926 0.305792 0.172103
O O10 0.095517 0.638245 0.354322
O O11 0.522465 0.375143 0.804737
O O12 0.500000 0.500000 0.500000
O O13 0.658789 0.818814 0.485881
O O14 0.278251 0.346777 0.353582
O O15 0.000000 0.500000 0.000000
#
# Coordination Sequence:
#
# PCOD9105448 Si02
#       7
#     2   2   2   2   2   2   2
#     4  11  24  41  63 103 129 164 215 263 322 375
#     4  10  21  39  64  95 125 164 217 254 314 382
#     4  10  20  39  64  95 131 171 213 254 309 383
#     4  11  21  41  68  88 119 165 220 269 303 370
#     4  11  24  39  65  97 141 166 197 265 329 377
#     4  10  21  39  63  97 131 171 219 245 306 399
#     4  11  21  40  69  89 117 165 222 265 308 372
#
# _framework density 25.119682999999998
#
# number of rings (size 3 to 8) (size 9 to 14) (size 15 to 20)
#    0.000    1.429    5.714    1.714    0.000    4.000 
#    0.000    1.429    0.000    0.000    0.000    0.000 
#    0.000    0.000    0.000    0.000    0.000    0.000 
#
# Total GULP energy -77980.856693 kJ/mol
# GULP energy per Si atom -5570.061192 kJ/mol
# Density = 2.506251 g / cm^3
# Si number density = 25.119683 Si / 1000 Ang^3
#
#
#
# Elastic Constant Matrix: (Units=GPa)
#
#
# Indices 1 2 3 4 5 6 
#
# 1 80.8042 33.0431 27.6882 0.5092 -33.3226 28.3806
# 2 33.0431 103.1484 30.2909 3.8884 -7.1261 22.5535
# 3 27.6882 30.2909 125.0151 13.0998 -44.3052 5.9415
# 4 0.5092 3.8884 13.0998 62.1098 1.3768 -2.6869
# 5 -33.3226 -7.1261 -44.3052 1.3768 31.9256 -11.4916
# 6 28.3806 22.5535 5.9415 -2.6869 -11.4916 28.5816
#
#
#
# Elastic Compliance Matrix: (Units=1/GPa)
#
#
# Indices 1 2 3 4 5 6 
#
# 1 0.036383 -0.009160 0.012608 -0.003999 0.049246 -0.012096
# 2 -0.009160 0.016301 -0.009950 0.001198 -0.023797 -0.011154
# 3 0.012608 -0.009950 0.025439 -0.005537 0.049937 0.009601
# 4 -0.003999 0.001198 -0.005537 0.017535 -0.011985 0.001006
# 5 0.049246 -0.023797 0.049937 -0.011985 0.154622 0.020539
# 6 -0.012096 -0.011154 0.009601 0.001006 0.020539 0.062157
#
#
# Mechanical properties :
#
#
# Convention : Reuss Voigt Hill
#
# Bulk Modulus (GPa) = 15.35651 54.55690 34.95670
# Shear Modulus (GPa) = 14.40311 39.05311 26.72811
#
# Velocity S-wave (km/s) = 2.39713 3.94722 3.26549
# Velocity P-wave (km/s) = 3.71326 6.52227 5.30699
#
# Compressibility (1/GPa) = 0.06511897
#
# Stress axis : x y z
#
# Youngs Moduli (GPa) = 27.48525 61.34708 39.30977
#
# Poissons Ratio (x) = 0.56193 -0.49561
# Poissons Ratio (y) = 0.25176 0.39113
# Poissons Ratio (z) = -0.34653 0.61040
#
# Static dielectric constant tensor:
#      x y z
#    x 2.376490 0.236680 -0.329230 
#    y 0.236680 2.291190 -0.245630 
#    z -0.329230 -0.245630 2.457930 
# 
# From -- ./inp_files/601210.got.cif
#   From: 2010.05.17/outbox.cif.g08.bks.cpg/sg2_301_cif.got.tgz:601210.got - 2010.06.03 11:33:40.
