data_PCOD9105093
_publ_section_title
;
Structure prediction by ZEFSAII (Michael W. Deem and Ramdas Pophale) SiO2 
 PCOD9105093
Probable space group: P -1
;
_chemical_formula_sum "Si O2"
_cell_formula_units_Z 16
_cell_length_a 9.299414
_cell_length_b 12.685028
_cell_length_c 7.772784
_cell_angle_alpha 110.487605
_cell_angle_beta 75.725707
_cell_angle_gamma 125.121660
_cell_volume 701.304517
_symmetry_space_group_name_H-M "P -1"
_symmetry_group_IT_number 2
_symmetry_cell_setting 'triclinic'
loop_
_space_group_symop_operation_xyz
x,y,z
-x,-y,-z
loop_
_atom_site_type_symbol
_atom_site_label
_atom_site_fract_x
_atom_site_fract_y
_atom_site_fract_z
Si Si1 0.844001 0.438497 0.149391
Si Si2 0.450722 0.596223 0.985584
Si Si3 0.977881 0.144279 0.742638
Si Si4 0.673722 0.134186 0.963726
Si Si5 0.622505 0.215947 0.656320
Si Si6 0.006561 0.336340 0.539187
Si Si7 0.725368 0.870253 0.461012
Si Si8 0.352033 0.355956 0.373465
O O1 0.925475 0.512402 0.344053
O O2 0.716999 0.480857 0.132839
O O3 0.728394 0.278530 0.104067
O O4 0.000000 0.500000 0.000000
O O5 0.601500 0.332343 0.815708
O O6 0.597392 0.678345 0.844316
O O7 0.500000 0.500000 0.000000
O O8 0.853015 0.135004 0.926990
O O9 0.008822 0.261589 0.671802
O O10 0.159960 0.152990 0.726862
O O11 0.855976 0.008961 0.594291
O O12 0.638022 0.144680 0.778865
O O13 0.500000 0.000000 0.000000
O O14 0.798765 0.264286 0.521383
O O15 0.441743 0.131441 0.560242
O O16 0.164710 0.343048 0.392405
O O17 0.667476 0.752876 0.547693
O O18 0.500000 0.500000 0.500000
#
# Coordination Sequence:
#
# PCOD9105093 Si02
#       8
#     2   2   2   2   2   2   2   2
#     4  11  19  39  65  89 125 173 211 250 326 386
#     4  11  23  37  61  95 125 162 205 264 314 373
#     4   9  20  38  66  82 123 168 210 252 327 386
#     4  10  22  36  62  95 130 166 209 263 318 384
#     4  10  22  40  65  89 126 164 214 267 313 377
#     4  10  20  39  63  91 122 168 217 252 318 382
#     4  10  22  40  65  90 118 167 214 265 315 380
#     4  11  22  37  64  90 127 166 208 259 318 378
#
# _framework density 22.814624999999999
#
# number of rings (size 3 to 8) (size 9 to 14) (size 15 to 20)
#    0.000    1.750    5.000    0.750    5.250    2.000 
#    0.000    4.375   11.000    0.000    0.000    0.000 
#    0.000    0.000    0.000    0.000    0.000    0.000 
#
# Total GULP energy -89238.256233 kJ/mol
# GULP energy per Si atom -5577.391015 kJ/mol
# Density = 2.276270 g / cm^3
# Si number density = 22.814625 Si / 1000 Ang^3
#
#
#
# Elastic Constant Matrix: (Units=GPa)
#
#
# Indices 1 2 3 4 5 6 
#
# 1 152.5852 17.7146 16.6262 -6.5467 -24.7471 22.2144
# 2 17.7146 121.2225 10.1342 5.2072 0.5366 8.4720
# 3 16.6262 10.1342 19.1514 -4.1505 -7.6451 0.3615
# 4 -6.5467 5.2072 -4.1505 26.0990 7.8797 -3.6473
# 5 -24.7471 0.5366 -7.6451 7.8797 35.1362 1.0953
# 6 22.2144 8.4720 0.3615 -3.6473 1.0953 28.7517
#
#
#
# Elastic Compliance Matrix: (Units=1/GPa)
#
#
# Indices 1 2 3 4 5 6 
#
# 1 0.009137 -0.000328 -0.005610 -0.001282 0.005734 -0.007273
# 2 -0.000328 0.009065 -0.005412 -0.002880 -0.000818 -0.002684
# 3 -0.005610 -0.005412 0.064921 0.008338 0.008205 0.005858
# 4 -0.001282 -0.002880 0.008338 0.043702 -0.009083 0.007624
# 5 0.005734 -0.000818 0.008205 -0.009083 0.036547 -0.006837
# 6 -0.007273 -0.002684 0.005858 0.007624 -0.006837 0.042345
#
#
# Mechanical properties :
#
#
# Convention : Reuss Voigt Hill
#
# Bulk Modulus (GPa) = 16.54999 42.43435 29.49217
# Shear Modulus (GPa) = 20.11603 34.56301 27.33952
#
# Velocity S-wave (km/s) = 2.97259 3.89646 3.46545
# Velocity P-wave (km/s) = 4.36481 6.23564 5.38214
#
# Compressibility (1/GPa) = 0.06042299
#
# Stress axis : x y z
#
# Youngs Moduli (GPa) = 109.44539 110.32032 15.40326
#
# Poissons Ratio (x) = 0.03620 0.08642
# Poissons Ratio (y) = 0.03592 0.08336
# Poissons Ratio (z) = 0.61401 0.59700
#
# Static dielectric constant tensor:
#      x y z
#    x 1.923710 0.019720 -0.056640 
#    y 0.019720 1.827330 -0.010640 
#    z -0.056640 -0.010640 1.924070 
# 
# From -- ./inp_files/180220.got.cif
#   From: 2010.05.17/outbox.cif.g08.bks.cpg/sg2_91_cif.got.tgz:180220.got - 2010.06.03 11:33:40.
