data_PCOD9105662
_publ_section_title
;
Structure prediction by ZEFSAII (Michael W. Deem and Ramdas Pophale) SiO2 
 PCOD9105662
Probable space group: P -1
;
_chemical_formula_sum "Si O2"
_cell_formula_units_Z 16
_cell_length_a 13.347279
_cell_length_b 7.858897
_cell_length_c 8.749810
_cell_angle_alpha 53.000215
_cell_angle_beta 104.236049
_cell_angle_gamma 81.262128
_cell_volume 655.000100
_symmetry_space_group_name_H-M "P -1"
_symmetry_group_IT_number 2
_symmetry_cell_setting 'triclinic'
loop_
_space_group_symop_operation_xyz
x,y,z
-x,-y,-z
loop_
_atom_site_type_symbol
_atom_site_label
_atom_site_fract_x
_atom_site_fract_y
_atom_site_fract_z
Si Si1 0.844835 0.646403 0.893530
Si Si2 0.747431 0.725280 0.493594
Si Si3 0.481355 0.899960 0.706790
Si Si4 0.392304 0.863957 0.197699
Si Si5 0.675108 0.494073 0.049357
Si Si6 0.003377 0.134530 0.270065
Si Si7 0.811361 0.035619 0.152760
Si Si8 0.615499 0.481914 0.378024
O O1 0.809074 0.598604 0.736307
O O2 0.882973 0.860484 0.764838
O O3 0.739263 0.667011 0.946008
O O4 0.939789 0.411982 0.121829
O O5 0.687109 0.584837 0.456623
O O6 0.648284 0.967091 0.376666
O O7 0.827082 0.803700 0.376273
O O8 0.500000 0.000000 0.500000
O O9 0.544797 0.966357 0.835097
O O10 0.549796 0.628218 0.866361
O O11 0.486409 0.661546 0.244989
O O12 0.380484 0.749584 0.414821
O O13 0.274086 0.952531 0.020656
O O14 0.744927 0.262593 0.108697
O O15 0.667511 0.446913 0.249352
O O16 0.931492 0.050947 0.169131
O O17 0.000000 0.000000 0.500000
#
# Coordination Sequence:
#
# PCOD9105662 Si02
#       8
#     2   2   2   2   2   2   2   2
#     4  10  21  38  64  94 126 156 213 268 312 372
#     4  11  21  39  62  92 126 171 206 249 312 379
#     4  11  23  37  60  90 130 166 202 251 309 371
#     4  10  23  40  58  89 127 172 211 250 303 380
#     4  11  23  37  59  95 128 165 210 258 310 368
#     4  10  20  39  65  94 117 163 215 264 318 374
#     4  11  23  38  66  91 122 164 217 259 314 371
#     4  10  22  38  60  87 129 169 208 249 309 377
#
# _framework density 24.427479999999999
#
# number of rings (size 3 to 8) (size 9 to 14) (size 15 to 20)
#    0.000    1.500    2.500    3.000    5.250    3.000 
#    0.000    0.000    0.000   15.000    0.000    0.000 
#    0.000    0.000    0.000    0.000    0.000    0.000 
#
# Total GULP energy -89446.630084 kJ/mol
# GULP energy per Si atom -5590.414380 kJ/mol
# Density = 2.437188 g / cm^3
# Si number density = 24.427480 Si / 1000 Ang^3
#
#
#
# Elastic Constant Matrix: (Units=GPa)
#
#
# Indices 1 2 3 4 5 6 
#
# 1 94.7383 24.1290 49.1551 0.7688 -25.8294 40.9977
# 2 24.1290 62.6312 21.1550 14.6614 0.1199 21.6545
# 3 49.1551 21.1550 130.1405 7.4181 -22.0172 10.9546
# 4 0.7688 14.6614 7.4181 35.2297 7.2339 3.5119
# 5 -25.8294 0.1199 -22.0172 7.2339 46.0077 -3.5793
# 6 40.9977 21.6545 10.9546 3.5119 -3.5793 39.0006
#
#
#
# Elastic Compliance Matrix: (Units=1/GPa)
#
#
# Indices 1 2 3 4 5 6 
#
# 1 0.029026 0.000545 -0.006975 0.001225 0.010586 -0.027995
# 2 0.000545 0.022418 -0.002559 -0.007492 -0.000708 -0.011693
# 3 -0.006975 -0.002559 0.010674 -0.002051 0.001998 0.006122
# 4 0.001225 -0.007492 -0.002051 0.033034 -0.005470 -0.000029
# 5 0.010586 -0.000708 0.001998 -0.005470 0.028862 -0.008155
# 6 -0.027995 -0.011693 0.006122 -0.000029 -0.008155 0.059096
#
#
# Mechanical properties :
#
#
# Convention : Reuss Voigt Hill
#
# Bulk Modulus (GPa) = 22.65376 52.93203 37.79289
# Shear Modulus (GPa) = 23.16943 36.91899 30.04421
#
# Velocity S-wave (km/s) = 3.08311 3.89185 3.51085
# Velocity P-wave (km/s) = 4.68702 6.47391 5.65153
#
# Compressibility (1/GPa) = 0.04414279
#
# Stress axis : x y z
#
# Youngs Moduli (GPa) = 34.45146 44.60615 93.68687
#
# Poissons Ratio (x) = -0.02433 0.65342
# Poissons Ratio (y) = -0.01879 0.23973
# Poissons Ratio (z) = 0.24028 0.11414
#
# Static dielectric constant tensor:
#      x y z
#    x 2.133490 0.070820 0.028590 
#    y 0.070820 1.998910 -0.021950 
#    z 0.028590 -0.021950 1.945960 
# 
# From -- ./inp_files/294198.got.cif
#   From: 2010.05.17/outbox.cif.g08.bks.cpg/sg2_148_cif.got.tgz:294198.got - 2010.06.03 11:33:40.
