data_PCOD9105853
_publ_section_title
;
Structure prediction by ZEFSAII (Michael W. Deem and Ramdas Pophale) SiO2 
 PCOD9105853
Probable space group: P -1
;
_chemical_formula_sum "Si O2"
_cell_formula_units_Z 16
_cell_length_a 5.559367
_cell_length_b 24.900429
_cell_length_c 5.068473
_cell_angle_alpha 58.309222
_cell_angle_beta 85.208692
_cell_angle_gamma 92.190460
_cell_volume 592.133906
_symmetry_space_group_name_H-M "P -1"
_symmetry_group_IT_number 2
_symmetry_cell_setting 'triclinic'
loop_
_space_group_symop_operation_xyz
x,y,z
-x,-y,-z
loop_
_atom_site_type_symbol
_atom_site_label
_atom_site_fract_x
_atom_site_fract_y
_atom_site_fract_z
Si Si1 0.079365 0.629720 0.582250
Si Si2 0.925848 0.070024 0.855495
Si Si3 0.667541 0.248556 0.625026
Si Si4 0.249757 0.289123 0.957109
Si Si5 0.293957 0.875242 0.792090
Si Si6 0.681423 0.831808 0.520082
Si Si7 0.537724 0.403259 0.774681
Si Si8 0.734273 0.512401 0.766911
O O1 0.919846 0.561378 0.781556
O O2 0.168033 0.686383 0.630775
O O3 0.321247 0.611545 0.463804
O O4 0.932508 0.670769 0.284779
O O5 0.162304 0.116303 0.796413
O O6 0.842644 0.096983 0.513951
O O7 0.727807 0.078983 0.074780
O O8 0.000000 0.000000 0.000000
O O9 0.540866 0.207830 0.505476
O O10 0.452046 0.268494 0.784987
O O11 0.798305 0.195957 0.913789
O O12 0.154776 0.223634 0.268886
O O13 0.386712 0.337791 0.033679
O O14 0.563242 0.867019 0.681344
O O15 0.742869 0.441012 0.838521
O O16 0.336418 0.449273 0.586520
O O17 0.500000 0.500000 0.000000
#
# Coordination Sequence:
#
# PCOD9105853 Si02
#       8
#     2   2   2   2   2   2   2   2
#     4  10  20  39  66  90 133 169 224 287 351 416
#     4  12  28  47  76 112 147 193 243 291 357 429
#     4  10  22  42  66 102 133 182 235 287 357 418
#     4   9  21  39  65  95 129 176 228 292 353 420
#     4  11  25  49  72 109 148 192 241 293 361 425
#     4  11  25  45  75 100 148 185 238 300 353 430
#     4   9  20  39  58  89 126 167 230 276 348 415
#     4  10  21  38  58  87 127 174 221 282 343 420
#
# _framework density 27.020916
#
# number of rings (size 3 to 8) (size 9 to 14) (size 15 to 20)
#    0.000    1.750    1.250    1.500    5.250    4.500 
#    0.000    8.750    0.000    0.000    0.000    0.000 
#    0.000    0.000    0.000    0.000    0.000    0.000 
#
# Total GULP energy -89505.692034 kJ/mol
# GULP energy per Si atom -5594.105752 kJ/mol
# Density = 2.695941 g / cm^3
# Si number density = 27.020916 Si / 1000 Ang^3
#
#
#
# Elastic Constant Matrix: (Units=GPa)
#
#
# Indices 1 2 3 4 5 6 
#
# 1 52.0815 20.0442 13.2641 -7.3212 13.9411 10.5196
# 2 20.0442 132.5089 39.0846 -8.7058 12.8560 -18.1885
# 3 13.2641 39.0846 85.2036 -10.2847 13.8689 -4.9067
# 4 -7.3212 -8.7058 -10.2847 52.4608 -0.1996 5.8141
# 5 13.9411 12.8560 13.8689 -0.1996 42.8659 4.4485
# 6 10.5196 -18.1885 -4.9067 5.8141 4.4485 45.9385
#
#
#
# Elastic Compliance Matrix: (Units=1/GPa)
#
#
# Indices 1 2 3 4 5 6 
#
# 1 0.024250 -0.003480 -0.001250 0.003308 -0.005704 -0.006931
# 2 -0.003480 0.009830 -0.003533 -0.000042 -0.001133 0.004427
# 3 -0.001250 -0.003533 0.014343 0.001986 -0.003215 0.000479
# 4 0.003308 -0.000042 0.001986 0.020233 -0.001300 -0.002997
# 5 -0.005704 -0.001133 -0.003215 -0.001300 0.026756 -0.001912
# 6 -0.006931 0.004427 0.000479 -0.002997 -0.001912 0.025724
#
#
# Mechanical properties :
#
#
# Convention : Reuss Voigt Hill
#
# Bulk Modulus (GPa) = 31.35218 46.06444 38.70831
# Shear Modulus (GPa) = 33.71682 41.41312 37.56497
#
# Velocity S-wave (km/s) = 3.53626 3.91913 3.73261
# Velocity P-wave (km/s) = 5.31993 6.12896 5.73872
#
# Compressibility (1/GPa) = 0.03189571
#
# Stress axis : x y z
#
# Youngs Moduli (GPa) = 41.23682 101.72954 69.72283
#
# Poissons Ratio (x) = 0.35403 0.08716
# Poissons Ratio (y) = 0.14351 0.24635
# Poissons Ratio (z) = 0.05155 0.35943
#
# Static dielectric constant tensor:
#      x y z
#    x 2.187660 0.066950 0.050030 
#    y 0.066950 2.131130 0.039800 
#    z 0.050030 0.039800 2.159060 
# 
# From -- ./inp_files/12744.got.cif
#   From: 2010.05.17/outbox.cif.g08.bks.cpg/sg2_7_cif.got.tgz:12744.got - 2010.06.03 11:33:40.
