data_PCOD9105769
_publ_section_title
;
Structure prediction by ZEFSAII (Michael W. Deem and Ramdas Pophale) SiO2 
 PCOD9105769
Probable space group: P -1
;
_chemical_formula_sum "Si O2"
_cell_formula_units_Z 16
_cell_length_a 11.991331
_cell_length_b 17.375310
_cell_length_c 8.041313
_cell_angle_alpha 60.927205
_cell_angle_beta 97.372606
_cell_angle_gamma 46.048644
_cell_volume 709.164948
_symmetry_space_group_name_H-M "P -1"
_symmetry_group_IT_number 2
_symmetry_cell_setting 'triclinic'
loop_
_space_group_symop_operation_xyz
x,y,z
-x,-y,-z
loop_
_atom_site_type_symbol
_atom_site_label
_atom_site_fract_x
_atom_site_fract_y
_atom_site_fract_z
Si Si1 0.762340 0.450277 0.924100
Si Si2 0.369892 0.265180 0.298983
Si Si3 0.273926 0.714433 0.942480
Si Si4 0.217883 0.942789 0.588112
Si Si5 0.634871 0.974191 0.933509
Si Si6 0.362648 0.700682 0.338198
Si Si7 0.075842 0.069905 0.806417
Si Si8 0.765929 0.804387 0.810031
O O1 0.702861 0.584476 0.850536
O O2 0.610212 0.551596 0.620894
O O3 0.698209 0.396412 0.032421
O O4 0.037252 0.267808 0.149902
O O5 0.588313 0.125062 0.365395
O O6 0.189775 0.324824 0.109360
O O7 0.462010 0.155001 0.601128
O O8 0.315471 0.776275 0.787755
O O9 0.390922 0.641302 0.221387
O O10 0.000427 0.906981 0.732745
O O11 0.117060 0.033629 0.654800
O O12 0.767140 0.822642 0.985558
O O13 0.500000 0.000000 0.000000
O O14 0.813095 0.915508 0.123487
O O15 0.230613 0.884321 0.102716
O O16 0.185223 0.766503 0.351577
O O17 0.500000 0.000000 0.500000
#
# Coordination Sequence:
#
# PCOD9105769 Si02
#       8
#     2   2   2   2   2   2   2   2
#     4  12  23  39  70  97 133 168 218 270 333 381
#     4  11  23  42  65  93 132 170 218 276 327 372
#     4  10  22  38  64  97 135 173 218 253 320 385
#     4  10  22  40  66  95 137 177 218 254 312 399
#     4  11  22  41  72  96 123 173 230 266 318 395
#     4  10  21  38  67  95 138 172 215 268 320 388
#     4  10  20  39  66 100 132 179 219 259 322 384
#     4  10  23  43  69  92 125 173 218 268 330 392
#
# _framework density 22.561747
#
# number of rings (size 3 to 8) (size 9 to 14) (size 15 to 20)
#    0.000    1.500    1.250    4.500    5.250    1.500 
#    0.000    0.625   11.000    0.000    0.000    0.000 
#    0.000    0.000    0.000    0.000    0.000    0.000 
#
# Total GULP energy -89328.377949 kJ/mol
# GULP energy per Si atom -5583.023622 kJ/mol
# Density = 2.251040 g / cm^3
# Si number density = 22.561747 Si / 1000 Ang^3
#
#
#
# Elastic Constant Matrix: (Units=GPa)
#
#
# Indices 1 2 3 4 5 6 
#
# 1 184.2569 66.3512 34.3776 3.6333 10.1948 16.8425
# 2 66.3512 90.5745 21.1704 -6.7480 -0.8005 26.7031
# 3 34.3776 21.1704 76.1798 -7.0430 6.5758 4.9497
# 4 3.6333 -6.7480 -7.0430 21.7537 5.6948 3.6453
# 5 10.1948 -0.8005 6.5758 5.6948 41.7937 -0.8680
# 6 16.8425 26.7031 4.9497 3.6453 -0.8680 54.6262
#
#
#
# Elastic Compliance Matrix: (Units=1/GPa)
#
#
# Indices 1 2 3 4 5 6 
#
# 1 0.008038 -0.005890 -0.002288 -0.003740 -0.001186 0.000839
# 2 -0.005890 0.018457 -0.001379 0.007305 0.000855 -0.007555
# 3 -0.002288 -0.001379 0.015326 0.005686 -0.002663 -0.000431
# 4 -0.003740 0.007305 0.005686 0.053724 -0.007300 -0.006634
# 5 -0.001186 0.000855 -0.002663 -0.007300 0.025669 0.001084
# 6 0.000839 -0.007555 -0.000431 -0.006634 0.001084 0.022240
#
#
# Mechanical properties :
#
#
# Convention : Reuss Voigt Hill
#
# Bulk Modulus (GPa) = 44.03950 66.08995 55.06472
# Shear Modulus (GPa) = 29.38823 38.90885 34.14854
#
# Velocity S-wave (km/s) = 3.61303 4.15727 3.89467
# Velocity P-wave (km/s) = 6.08007 7.23881 6.68460
#
# Compressibility (1/GPa) = 0.02270689
#
# Stress axis : x y z
#
# Youngs Moduli (GPa) = 124.41247 54.18075 65.24757
#
# Poissons Ratio (x) = 0.31911 0.14931
# Poissons Ratio (y) = 0.73276 0.08996
# Poissons Ratio (z) = 0.28470 0.07470
#
# Static dielectric constant tensor:
#      x y z
#    x 1.834340 0.047880 -0.036320 
#    y 0.047880 1.902610 -0.049230 
#    z -0.036320 -0.049230 1.884940 
# 
# From -- ./inp_files/277601.got.cif
#   From: 2010.05.17/outbox.cif.g08.bks.cpg/sg2_139_cif.got.tgz:277601.got - 2010.06.03 11:33:40.
