data_PCOD9105926
_publ_section_title
;
Structure prediction by ZEFSAII (Michael W. Deem and Ramdas Pophale) SiO2 
 PCOD9105926
Probable space group: P -1
;
_chemical_formula_sum "Si O2"
_cell_formula_units_Z 16
_cell_length_a 9.583193
_cell_length_b 9.309859
_cell_length_c 13.775399
_cell_angle_alpha 100.236747
_cell_angle_beta 42.544558
_cell_angle_gamma 116.281220
_cell_volume 722.416895
_symmetry_space_group_name_H-M "P -1"
_symmetry_group_IT_number 2
_symmetry_cell_setting 'triclinic'
loop_
_space_group_symop_operation_xyz
x,y,z
-x,-y,-z
loop_
_atom_site_type_symbol
_atom_site_label
_atom_site_fract_x
_atom_site_fract_y
_atom_site_fract_z
Si Si1 0.516656 0.442021 0.593742
Si Si2 0.536079 0.692872 0.894210
Si Si3 0.869101 0.713882 0.564335
Si Si4 0.189879 0.394191 0.929228
Si Si5 0.185601 0.133672 0.038082
Si Si6 0.304106 0.054708 0.632675
Si Si7 0.313783 0.847166 0.889019
Si Si8 0.733122 0.974053 0.565578
O O1 0.500000 0.500000 0.500000
O O2 0.770702 0.559798 0.523895
O O3 0.344080 0.465729 0.761620
O O4 0.436144 0.248076 0.614022
O O5 0.732170 0.666344 0.730577
O O6 0.296814 0.525237 0.977601
O O7 0.474076 0.824018 0.886409
O O8 0.637665 0.752271 0.955167
O O9 0.799137 0.849801 0.574591
O O10 0.143382 0.831461 0.448495
O O11 0.217810 0.239165 0.937638
O O12 0.919912 0.320976 0.032256
O O13 0.760159 0.017389 0.024308
O O14 0.915118 0.057961 0.201393
O O15 0.190698 0.040116 0.583042
O O16 0.500000 0.000000 0.500000
O O17 0.463416 0.903668 0.720753
#
# Coordination Sequence:
#
# PCOD9105926 Si02
#       8
#     2   2   2   2   2   2   2   2
#     4  11  23  43  68  96 129 172 227 277 329 386
#     4  10  22  42  67  98 132 176 226 270 329 395
#     4   9  19  39  66  93 127 170 217 277 315 380
#     4  11  24  43  67  97 140 174 217 278 339 391
#     4  12  24  45  66  98 139 179 218 271 339 403
#     4  12  25  42  68  96 133 176 226 268 333 404
#     4  11  23  40  69 101 134 174 224 276 325 394
#     4  10  20  39  66  94 130 170 219 264 328 382
#
# _framework density 22.147876
#
# number of rings (size 3 to 8) (size 9 to 14) (size 15 to 20)
#    0.000    1.250    3.750    2.250    1.750    0.000 
#    4.500    1.875    0.000    0.000    0.000    0.000 
#    0.000    0.000    0.000    0.000    0.000    0.000 
#
# Total GULP energy -89307.319244 kJ/mol
# GULP energy per Si atom -5581.707453 kJ/mol
# Density = 2.209747 g / cm^3
# Si number density = 22.147876 Si / 1000 Ang^3
#
#
#
# Elastic Constant Matrix: (Units=GPa)
#
#
# Indices 1 2 3 4 5 6 
#
# 1 67.7771 14.1659 17.0801 1.3135 9.7121 7.3583
# 2 14.1659 130.5557 17.2300 -15.8194 -1.5352 26.3535
# 3 17.0801 17.2300 77.7336 -11.9508 10.2368 2.2329
# 4 1.3135 -15.8194 -11.9508 32.8376 3.2583 -8.7227
# 5 9.7121 -1.5352 10.2368 3.2583 27.8021 8.1136
# 6 7.3583 26.3535 2.2329 -8.7227 8.1136 32.2647
#
#
#
# Elastic Compliance Matrix: (Units=1/GPa)
#
#
# Indices 1 2 3 4 5 6 
#
# 1 0.016676 -0.001283 -0.003243 -0.002718 -0.003702 -0.002335
# 2 -0.001283 0.009966 -0.001975 0.001538 0.003966 -0.008293
# 3 -0.003243 -0.001975 0.015875 0.006963 -0.007072 0.004915
# 4 -0.002718 0.001538 0.006963 0.037798 -0.009297 0.011439
# 5 -0.003702 0.003966 -0.007072 -0.009297 0.045827 -0.015943
# 6 -0.002335 -0.008293 0.004915 0.011439 -0.015943 0.045061
#
#
# Mechanical properties :
#
#
# Convention : Reuss Voigt Hill
#
# Bulk Modulus (GPa) = 33.87982 41.44650 37.66316
# Shear Modulus (GPa) = 25.76735 33.75356 29.76045
#
# Velocity S-wave (km/s) = 3.41460 3.90809 3.66965
# Velocity P-wave (km/s) = 5.55664 6.25447 5.91585
#
# Compressibility (1/GPa) = 0.02951610
#
# Stress axis : x y z
#
# Youngs Moduli (GPa) = 59.96509 100.33856 62.99046
#
# Poissons Ratio (x) = 0.12875 0.20428
# Poissons Ratio (y) = 0.07694 0.12439
# Poissons Ratio (z) = 0.19447 0.19814
#
# Static dielectric constant tensor:
#      x y z
#    x 2.712470 0.056850 0.107730 
#    y 0.056850 1.849310 -0.038470 
#    z 0.107730 -0.038470 1.838160 
# 
# From -- ./inp_files/500455.got.cif
#   From: 2010.05.17/outbox.cif.g08.bks.cpg/sg2_251_cif.got.tgz:500455.got - 2010.06.03 11:33:40.
