data_PCOD9105766
_publ_section_title
;
Structure prediction by ZEFSAII (Michael W. Deem and Ramdas Pophale) SiO2 
 PCOD9105766
Probable space group: P -1
;
_chemical_formula_sum "Si O2"
_cell_formula_units_Z 16
_cell_length_a 17.661065
_cell_length_b 12.993157
_cell_length_c 8.736247
_cell_angle_alpha 129.209443
_cell_angle_beta 56.853677
_cell_angle_gamma 151.025631
_cell_volume 752.365600
_symmetry_space_group_name_H-M "P -1"
_symmetry_group_IT_number 2
_symmetry_cell_setting 'triclinic'
loop_
_space_group_symop_operation_xyz
x,y,z
-x,-y,-z
loop_
_atom_site_type_symbol
_atom_site_label
_atom_site_fract_x
_atom_site_fract_y
_atom_site_fract_z
Si Si1 0.574595 0.788655 0.318276
Si Si2 0.388099 0.837624 0.646983
Si Si3 0.889620 0.297009 0.560681
Si Si4 0.996912 0.892054 0.266397
Si Si5 0.835858 0.753114 0.012826
Si Si6 0.292262 0.688927 0.279722
Si Si7 0.926254 0.542230 0.195305
Si Si8 0.671495 0.720032 0.909296
O O1 0.469692 0.791868 0.480752
O O2 0.461758 0.531850 0.256325
O O3 0.749784 0.030343 0.413119
O O4 0.609596 0.787898 0.101812
O O5 0.310448 0.777091 0.511327
O O6 0.256487 0.682503 0.773541
O O7 0.529664 0.106504 0.779028
O O8 0.797927 0.318954 0.738636
O O9 0.000000 0.500000 0.500000
O O10 0.988579 0.344654 0.626829
O O11 0.865320 0.783817 0.189999
O O12 0.957490 0.703287 0.203755
O O13 0.167705 0.085071 0.179152
O O14 0.000000 0.000000 0.500000
O O15 0.795718 0.553381 0.829269
O O16 0.715458 0.698818 0.001644
O O17 0.000000 0.000000 0.000000
O O18 0.000000 0.500000 0.000000
#
# Coordination Sequence:
#
# PCOD9105766 Si02
#       8
#     2   2   2   2   2   2   2   2
#     4  10  22  41  69 103 124 170 228 285 321 373
#     4  10  21  40  69  94 135 169 216 278 332 385
#     4  11  24  38  70  97 131 169 230 272 320 393
#     4  11  26  42  65  98 142 178 214 270 343 398
#     4  10  22  38  68  98 127 171 229 275 316 390
#     4  10  20  39  66 100 123 167 226 277 323 370
#     4  12  27  44  66  99 140 178 216 272 338 402
#     4  10  22  41  71  94 134 169 229 273 322 396
#
# _framework density 21.266257
#
# number of rings (size 3 to 8) (size 9 to 14) (size 15 to 20)
#    0.000    1.500    2.500    1.500    8.750    0.000 
#    0.000    7.500    0.000    0.000    0.000    0.000 
#    0.000    0.000    0.000    0.000    0.000    0.000 
#
# Total GULP energy -89185.439500 kJ/mol
# GULP energy per Si atom -5574.089969 kJ/mol
# Density = 2.121785 g / cm^3
# Si number density = 21.266257 Si / 1000 Ang^3
#
#
#
# Elastic Constant Matrix: (Units=GPa)
#
#
# Indices 1 2 3 4 5 6 
#
# 1 78.2070 38.7034 18.8605 3.6150 5.9669 -8.7170
# 2 38.7034 177.6101 49.9682 7.2571 -1.4886 8.9335
# 3 18.8605 49.9682 82.1685 5.4291 -10.5720 -0.7819
# 4 3.6150 7.2571 5.4291 42.6901 4.4060 -1.1429
# 5 5.9669 -1.4886 -10.5720 4.4060 37.2453 -0.6216
# 6 -8.7170 8.9335 -0.7819 -1.1429 -0.6216 37.7260
#
#
#
# Elastic Compliance Matrix: (Units=1/GPa)
#
#
# Indices 1 2 3 4 5 6 
#
# 1 0.015494 -0.003027 -0.002069 -0.000101 -0.003108 0.004200
# 2 -0.003027 0.007543 -0.003918 -0.000566 -0.000302 -0.002589
# 3 -0.002069 -0.003918 0.015769 -0.001644 0.004859 0.000807
# 4 -0.000101 -0.000566 -0.001644 0.024100 -0.003312 0.000752
# 5 -0.003108 -0.000302 0.004859 -0.003312 0.029103 -0.000167
# 6 0.004200 -0.002589 0.000807 0.000752 -0.000167 0.028127
#
#
# Mechanical properties :
#
#
# Convention : Reuss Voigt Hill
#
# Bulk Modulus (GPa) = 48.12953 61.44997 54.78975
# Shear Modulus (GPa) = 34.46110 38.89584 36.67847
#
# Velocity S-wave (km/s) = 4.02986 4.28131 4.15749
# Velocity P-wave (km/s) = 6.65838 7.30738 6.99042
#
# Compressibility (1/GPa) = 0.02077727
#
# Stress axis : x y z
#
# Youngs Moduli (GPa) = 64.54280 132.56930 63.41474
#
# Poissons Ratio (x) = 0.40135 0.13118
# Poissons Ratio (y) = 0.19540 0.24848
# Poissons Ratio (z) = 0.13351 0.51946
#
# Static dielectric constant tensor:
#      x y z
#    x 1.832450 0.024440 0.010430 
#    y 0.024440 1.790170 0.017040 
#    z 0.010430 0.017040 1.801410 
# 
# From -- ./inp_files/333746.got.cif
#   From: 2010.05.17/outbox.cif.g08.bks.cpg/sg2_167_cif.got.tgz:333746.got - 2010.06.03 11:33:40.
