data_PCOD9105257
_publ_section_title
;
Structure prediction by ZEFSAII (Michael W. Deem and Ramdas Pophale) SiO2 
 PCOD9105257
Probable space group: P -1
;
_chemical_formula_sum "Si O2"
_cell_formula_units_Z 16
_cell_length_a 10.127855
_cell_length_b 12.737864
_cell_length_c 16.767716
_cell_angle_alpha 22.469619
_cell_angle_beta 55.937724
_cell_angle_gamma 65.840086
_cell_volume 643.596898
_symmetry_space_group_name_H-M "P -1"
_symmetry_group_IT_number 2
_symmetry_cell_setting 'triclinic'
loop_
_space_group_symop_operation_xyz
x,y,z
-x,-y,-z
loop_
_atom_site_type_symbol
_atom_site_label
_atom_site_fract_x
_atom_site_fract_y
_atom_site_fract_z
Si Si1 0.825900 0.033876 0.384663
Si Si2 0.360791 0.566783 0.652384
Si Si3 0.208439 0.930815 0.962206
Si Si4 0.696290 0.636780 0.857655
Si Si5 0.526511 0.169768 0.788717
Si Si6 0.791798 0.669737 0.975340
Si Si7 0.131528 0.482185 0.656459
Si Si8 0.686319 0.007524 0.288643
O O1 0.711194 0.883313 0.453287
O O2 0.018211 0.110255 0.238195
O O3 0.789546 0.856328 0.603080
O O4 0.798756 0.341336 0.195914
O O5 0.465299 0.445149 0.638702
O O6 0.193059 0.581635 0.655593
O O7 0.488532 0.869822 0.429878
O O8 0.310363 0.346492 0.898213
O O9 0.065361 0.607467 0.238300
O O10 0.222027 0.038559 0.790034
O O11 0.392777 0.968735 0.910230
O O12 0.151649 0.161933 0.869352
O O13 0.717761 0.739642 0.869221
O O14 0.500000 0.500000 0.000000
O O15 0.755579 0.355103 0.031646
O O16 0.720695 0.299458 0.601515
O O17 0.500000 0.000000 0.000000
#
# Coordination Sequence:
#
# PCOD9105257 Si02
#       8
#     2   2   2   2   2   2   2   2
#     4  10  22  41  60  89 123 156 203 254 303 362
#     4  11  20  40  62  85 117 159 207 244 302 369
#     4  10  20  39  64  87 116 162 203 243 305 362
#     4  11  23  39  59  90 123 157 202 252 304 362
#     4  11  23  40  59  90 128 155 200 256 303 362
#     4  10  22  40  63  86 121 163 198 252 309 358
#     4  10  20  40  64  85 119 158 201 252 300 360
#     4  11  21  38  64  88 120 162 205 248 302 365
#
# _framework density 24.860279999999999
#
# number of rings (size 3 to 8) (size 9 to 14) (size 15 to 20)
#    0.000    1.500    2.500    3.375    0.000    4.500 
#    4.500    0.000    0.000    0.000    0.000    0.000 
#    0.000    0.000    0.000    0.000    0.000    0.000 
#
# Total GULP energy -89472.463207 kJ/mol
# GULP energy per Si atom -5592.028950 kJ/mol
# Density = 2.480370 g / cm^3
# Si number density = 24.860280 Si / 1000 Ang^3
#
#
#
# Elastic Constant Matrix: (Units=GPa)
#
#
# Indices 1 2 3 4 5 6 
#
# 1 82.6141 34.0523 58.4567 3.9249 -17.2936 37.9632
# 2 34.0523 98.5085 44.0090 22.3299 -4.8778 28.3446
# 3 58.4567 44.0090 170.4306 22.0157 -11.9641 29.5151
# 4 3.9249 22.3299 22.0157 44.9921 3.5393 4.9504
# 5 -17.2936 -4.8778 -11.9641 3.5393 48.9058 0.2148
# 6 37.9632 28.3446 29.5151 4.9504 0.2148 43.7708
#
#
#
# Elastic Compliance Matrix: (Units=1/GPa)
#
#
# Indices 1 2 3 4 5 6 
#
# 1 0.026693 -0.001630 -0.005232 0.002497 0.007899 -0.018889
# 2 -0.001630 0.014505 -0.001240 -0.005816 0.001016 -0.006491
# 3 -0.005232 -0.001240 0.008395 -0.003062 0.000302 0.000025
# 4 0.002497 -0.005816 -0.003062 0.026505 -0.002367 0.000679
# 5 0.007899 0.001016 0.000302 -0.002367 0.023620 -0.007560
# 6 -0.018889 -0.006491 0.000025 0.000679 -0.007560 0.043376
#
#
# Mechanical properties :
#
#
# Convention : Reuss Voigt Hill
#
# Bulk Modulus (GPa) = 29.94886 69.39881 49.67383
# Shear Modulus (GPa) = 29.33825 41.86941 35.60383
#
# Velocity S-wave (km/s) = 3.43902 4.10834 3.78849
# Velocity P-wave (km/s) = 5.27657 7.10498 6.25791
#
# Compressibility (1/GPa) = 0.03339025
#
# Stress axis : x y z
#
# Youngs Moduli (GPa) = 37.46302 68.94196 119.12543
#
# Poissons Ratio (x) = 0.11236 0.62321
# Poissons Ratio (y) = 0.06105 0.14770
# Poissons Ratio (z) = 0.19599 0.08548
#
# Static dielectric constant tensor:
#      x y z
#    x 2.053560 -0.029070 0.015090 
#    y -0.029070 2.032560 -0.038220 
#    z 0.015090 -0.038220 1.967350 
# 
# From -- ./inp_files/306009.got.cif
#   From: 2010.05.17/outbox.cif.g08.bks.cpg/sg2_154_cif.got.tgz:306009.got - 2010.06.03 11:33:40.
