data_PCOD9105447
_publ_section_title
;
Structure prediction by ZEFSAII (Michael W. Deem and Ramdas Pophale) SiO2 
 PCOD9105447
Probable space group: P -1
;
_chemical_formula_sum "Si O2"
_cell_formula_units_Z 16
_cell_length_a 14.646974
_cell_length_b 5.432447
_cell_length_c 9.137556
_cell_angle_alpha 69.012697
_cell_angle_beta 113.472172
_cell_angle_gamma 102.660887
_cell_volume 620.170157
_symmetry_space_group_name_H-M "P -1"
_symmetry_group_IT_number 2
_symmetry_cell_setting 'triclinic'
loop_
_space_group_symop_operation_xyz
x,y,z
-x,-y,-z
loop_
_atom_site_type_symbol
_atom_site_label
_atom_site_fract_x
_atom_site_fract_y
_atom_site_fract_z
Si Si1 0.498739 0.601644 0.144288
Si Si2 0.739721 0.970436 0.818275
Si Si3 0.353949 0.638341 0.532234
Si Si4 0.941030 0.210547 0.005548
Si Si5 0.662055 0.031881 0.058472
Si Si6 0.989038 0.255703 0.343748
Si Si7 0.200024 0.742731 0.646153
Si Si8 0.194883 0.276565 0.354766
O O1 0.536159 0.400167 0.330466
O O2 0.394351 0.717293 0.085538
O O3 0.500000 0.500000 0.000000
O O4 0.582383 0.851682 0.142364
O O5 0.664459 0.103581 0.631177
O O6 0.692111 0.884591 0.961467
O O7 0.794474 0.756595 0.805552
O O8 0.829054 0.189982 0.876085
O O9 0.285222 0.608764 0.641851
O O10 0.300687 0.405331 0.450082
O O11 0.941843 0.132619 0.191066
O O12 0.000000 0.500000 0.000000
O O13 0.000000 0.000000 0.000000
O O14 0.749307 0.130979 0.202600
O O15 0.904765 0.411353 0.337931
O O16 0.098545 0.394031 0.344339
O O17 0.000000 0.000000 0.500000
O O18 0.179746 0.976812 0.470806
#
# Coordination Sequence:
#
# PCOD9105447 Si02
#       8
#     2   2   2   2   2   2   2   2
#     4  11  24  44  71  95 128 168 224 293 354 414
#     4  11  25  41  67  99 139 180 225 279 351 417
#     4  11  23  42  66  94 132 179 221 283 347 419
#     4  12  25  47  68 102 150 194 238 291 353 420
#     4  11  23  43  68 100 127 167 228 286 351 413
#     4  10  21  41  65  99 138 180 235 279 340 411
#     4  10  20  39  64  95 130 169 228 273 336 407
#     4  10  21  41  62  94 138 180 214 272 340 405
#
# _framework density 25.799372999999999
#
# number of rings (size 3 to 8) (size 9 to 14) (size 15 to 20)
#    0.000    1.250    5.000    0.750    0.000    2.000 
#    6.750    1.250    0.000    0.000    0.000    0.000 
#    0.000    0.000    0.000    0.000    0.000    0.000 
#
# Total GULP energy -89428.607943 kJ/mol
# GULP energy per Si atom -5589.287996 kJ/mol
# Density = 2.574065 g / cm^3
# Si number density = 25.799373 Si / 1000 Ang^3
#
#
#
# Elastic Constant Matrix: (Units=GPa)
#
#
# Indices 1 2 3 4 5 6 
#
# 1 74.4287 12.2756 18.1234 4.5752 -17.1242 -4.8866
# 2 12.2756 64.3735 -0.6479 16.4126 -7.6623 -3.6541
# 3 18.1234 -0.6479 123.9924 13.8177 -6.5371 -2.8198
# 4 4.5752 16.4126 13.8177 34.6132 -9.2285 -4.1599
# 5 -17.1242 -7.6623 -6.5371 -9.2285 39.0574 9.5647
# 6 -4.8866 -3.6541 -2.8198 -4.1599 9.5647 32.1075
#
#
#
# Elastic Compliance Matrix: (Units=1/GPa)
#
#
# Indices 1 2 3 4 5 6 
#
# 1 0.015791 -0.002719 -0.002181 0.001806 0.006395 0.000231
# 2 -0.002719 0.018391 0.001508 -0.008775 0.000463 0.000537
# 3 -0.002181 0.001508 0.008830 -0.003976 -0.000158 0.000147
# 4 0.001806 -0.008775 -0.003976 0.036357 0.006585 0.001676
# 5 0.006395 0.000463 -0.000158 0.006585 0.031898 -0.007637
# 6 0.000231 0.000537 0.000147 0.001676 -0.007637 0.033747
#
#
# Mechanical properties :
#
#
# Convention : Reuss Voigt Hill
#
# Bulk Modulus (GPa) = 27.60368 35.81076 31.70722
# Shear Modulus (GPa) = 30.51144 36.69186 33.60165
#
# Velocity S-wave (km/s) = 3.44269 3.77530 3.61282
# Velocity P-wave (km/s) = 5.15028 5.73711 5.45160
#
# Compressibility (1/GPa) = 0.03622705
#
# Stress axis : x y z
#
# Youngs Moduli (GPa) = 63.32835 54.37457 113.25286
#
# Poissons Ratio (x) = 0.14786 0.24701
# Poissons Ratio (y) = 0.17220 -0.17079
# Poissons Ratio (z) = 0.13812 -0.08200
#
# Static dielectric constant tensor:
#      x y z
#    x 2.207910 -0.057040 0.081560 
#    y -0.057040 1.970340 0.001060 
#    z 0.081560 0.001060 2.032090 
# 
# From -- ./inp_files/55379.got.cif
#   From: 2010.05.17/outbox.cif.g08.bks.cpg/sg2_28_cif.got.tgz:55379.got - 2010.06.03 11:33:40.
