data_PCOD9105380
_publ_section_title
;
Structure prediction by ZEFSAII (Michael W. Deem and Ramdas Pophale) SiO2 
 PCOD9105380
Probable space group: P -1
;
_chemical_formula_sum "Si O2"
_cell_formula_units_Z 16
_cell_length_a 11.040271
_cell_length_b 9.057833
_cell_length_c 12.189809
_cell_angle_alpha 142.424480
_cell_angle_beta 116.613591
_cell_angle_gamma 54.029930
_cell_volume 601.230352
_symmetry_space_group_name_H-M "P -1"
_symmetry_group_IT_number 2
_symmetry_cell_setting 'triclinic'
loop_
_space_group_symop_operation_xyz
x,y,z
-x,-y,-z
loop_
_atom_site_type_symbol
_atom_site_label
_atom_site_fract_x
_atom_site_fract_y
_atom_site_fract_z
Si Si1 0.598055 0.383467 0.212956
Si Si2 0.246059 0.714289 0.548239
Si Si3 0.730717 0.799812 0.271790
Si Si4 0.545486 0.222394 0.786366
Si Si5 0.696627 0.583300 0.817502
Si Si6 0.013946 0.452483 0.607826
Si Si7 0.834768 0.227371 0.855269
Si Si8 0.868752 0.908579 0.993033
O O1 0.668832 0.361727 0.347261
O O2 0.522969 0.673928 0.300500
O O3 0.909964 0.307025 0.514776
O O4 0.735810 0.194074 0.081552
O O5 0.461541 0.295395 0.112268
O O6 0.333663 0.501072 0.364102
O O7 0.228674 0.998380 0.663959
O O8 0.551514 0.916508 0.283310
O O9 0.821960 0.720588 0.376567
O O10 0.783529 0.518575 0.063594
O O11 0.722894 0.099948 0.772432
O O12 0.500000 0.500000 0.000000
O O13 0.803219 0.314679 0.767464
O O14 0.784496 0.764366 0.943496
O O15 0.000000 0.500000 0.500000
O O16 0.946710 0.727164 0.813588
O O17 0.004402 0.070100 0.867692
#
# Coordination Sequence:
#
# PCOD9105380 Si02
#       8
#     2   2   2   2   2   2   2   2
#     4  11  22  40  64  94 129 170 213 264 317 382
#     4  11  23  38  64  96 128 169 214 263 324 382
#     4  10  20  39  64  92 127 170 215 267 320 381
#     4   9  20  40  63  88 126 167 213 269 316 371
#     4  10  21  38  61  96 132 166 211 267 322 380
#     4  10  22  42  63  95 136 169 208 265 324 386
#     4   9  19  38  62  91 127 168 214 267 317 379
#     4  10  21  37  66  96 125 167 215 264 322 381
#
# _framework density 26.612096999999999
#
# number of rings (size 3 to 8) (size 9 to 14) (size 15 to 20)
#    0.000    2.000    0.000    3.000    0.000    5.000 
#    0.000   16.250    0.000    0.000    0.000   10.500 
#    0.000    0.000    0.000    0.000    0.000    0.000 
#
# Total GULP energy -89743.890819 kJ/mol
# GULP energy per Si atom -5608.993176 kJ/mol
# Density = 2.655153 g / cm^3
# Si number density = 26.612097 Si / 1000 Ang^3
#
#
#
# Elastic Constant Matrix: (Units=GPa)
#
#
# Indices 1 2 3 4 5 6 
#
# 1 145.5423 40.7313 23.1025 2.1054 25.4848 -10.0881
# 2 40.7313 99.7518 39.3281 -25.1812 11.1822 -3.6806
# 3 23.1025 39.3281 115.4592 -24.1920 -10.8785 -11.2142
# 4 2.1054 -25.1812 -24.1920 46.4109 -3.6355 -0.0801
# 5 25.4848 11.1822 -10.8785 -3.6355 32.7448 -1.3460
# 6 -10.0881 -3.6806 -11.2142 -0.0801 -1.3460 45.6236
#
#
#
# Elastic Compliance Matrix: (Units=1/GPa)
#
#
# Indices 1 2 3 4 5 6 
#
# 1 0.009545 -0.003102 -0.002271 -0.003886 -0.007512 0.001074
# 2 -0.003102 0.014452 -0.003371 0.005990 -0.002994 -0.000426
# 3 -0.002271 -0.003371 0.012348 0.005319 0.007714 0.002498
# 4 -0.003886 0.005990 0.005319 0.028212 0.005926 0.001156
# 5 -0.007512 -0.002994 0.007714 0.005926 0.040678 0.001204
# 6 0.001074 -0.000426 0.002498 0.001156 0.001204 0.022773
#
#
# Mechanical properties :
#
#
# Convention : Reuss Voigt Hill
#
# Bulk Modulus (GPa) = 53.02696 63.00858 58.01777
# Shear Modulus (GPa) = 32.94233 42.12864 37.53548
#
# Velocity S-wave (km/s) = 3.52216 3.98309 3.75969
# Velocity P-wave (km/s) = 6.04234 6.69936 6.37931
#
# Compressibility (1/GPa) = 0.01885833
#
# Stress axis : x y z
#
# Youngs Moduli (GPa) = 104.76331 69.19395 80.98781
#
# Poissons Ratio (x) = 0.21461 0.18394
# Poissons Ratio (y) = 0.32492 0.27298
# Poissons Ratio (z) = 0.23794 0.23322
#
# Static dielectric constant tensor:
#      x y z
#    x 2.052780 0.005580 -0.028940 
#    y 0.005580 2.030710 0.018050 
#    z -0.028940 0.018050 2.125940 
# 
# From -- ./inp_files/424526.got.cif
#   From: 2010.05.17/outbox.cif.g08.bks.cpg/sg2_213_cif.got.tgz:424526.got - 2010.06.03 11:33:40.
