data_PCOD9105572
_publ_section_title
;
Structure prediction by ZEFSAII (Michael W. Deem and Ramdas Pophale) SiO2 
 PCOD9105572
Probable space group: P -1
;
_chemical_formula_sum "Si O2"
_cell_formula_units_Z 16
_cell_length_a 8.705892
_cell_length_b 11.983410
_cell_length_c 9.249680
_cell_angle_alpha 61.964190
_cell_angle_beta 69.812052
_cell_angle_gamma 68.438808
_cell_volume 774.486861
_symmetry_space_group_name_H-M "P -1"
_symmetry_group_IT_number 2
_symmetry_cell_setting 'triclinic'
loop_
_space_group_symop_operation_xyz
x,y,z
-x,-y,-z
loop_
_atom_site_type_symbol
_atom_site_label
_atom_site_fract_x
_atom_site_fract_y
_atom_site_fract_z
Si Si1 0.549783 0.361919 0.981967
Si Si2 0.861079 0.686520 0.174550
Si Si3 0.302079 0.288396 0.505003
Si Si4 0.765260 0.765837 0.857834
Si Si5 0.684110 0.233629 0.297350
Si Si6 0.175952 0.594624 0.337137
Si Si7 0.694050 0.954284 0.516906
Si Si8 0.098547 0.612148 0.687871
O O1 0.389227 0.303563 0.042727
O O2 0.671217 0.264500 0.113209
O O3 0.500000 0.500000 0.000000
O O4 0.650948 0.379227 0.794755
O O5 0.706350 0.728362 0.310459
O O6 0.865414 0.541983 0.204757
O O7 0.027149 0.666189 0.233602
O O8 0.839429 0.775674 0.986747
O O9 0.490350 0.270637 0.394583
O O10 0.199919 0.437198 0.415470
O O11 0.232366 0.173139 0.526835
O O12 0.706285 0.901256 0.708186
O O13 0.911946 0.676086 0.767647
O O14 0.781444 0.323960 0.293581
O O15 0.763681 0.081217 0.396025
O O16 0.136073 0.630866 0.494987
O O17 0.500000 0.000000 0.500000
#
# Coordination Sequence:
#
# PCOD9105572 Si02
#       8
#     2   2   2   2   2   2   2   2
#     4  12  21  37  63  93 123 155 203 255 309 359
#     4  11  23  37  64  94 127 160 202 258 315 360
#     4  10  20  39  65  89 126 165 205 249 310 365
#     4  12  23  40  63  91 126 164 205 255 304 371
#     4  11  23  39  65  91 123 165 208 255 298 374
#     4  11  23  39  64  94 129 160 200 259 312 368
#     4  10  20  42  63  88 117 172 210 244 303 369
#     4  11  24  40  63  95 128 160 205 252 319 364
#
# _framework density 20.658839
#
# number of rings (size 3 to 8) (size 9 to 14) (size 15 to 20)
#    0.000    1.000    3.750    5.625    1.750    1.500 
#    0.000    3.750    0.000    3.000    0.000    0.000 
#    0.000    0.000    0.000    0.000    0.000    0.000 
#
# Total GULP energy -89407.425054 kJ/mol
# GULP energy per Si atom -5587.964066 kJ/mol
# Density = 2.061182 g / cm^3
# Si number density = 20.658839 Si / 1000 Ang^3
#
#
#
# Elastic Constant Matrix: (Units=GPa)
#
#
# Indices 1 2 3 4 5 6 
#
# 1 56.6546 -1.4484 15.6256 6.0620 3.8393 -3.1044
# 2 -1.4484 9.6051 4.0400 0.2930 6.8974 -19.1631
# 3 15.6256 4.0400 135.2908 3.8236 15.6292 -32.8051
# 4 6.0620 0.2930 3.8236 31.1203 -7.2559 1.2344
# 5 3.8393 6.8974 15.6292 -7.2559 42.4946 2.7046
# 6 -3.1044 -19.1631 -32.8051 1.2344 2.7046 11.6541
#
#
#
# Elastic Compliance Matrix: (Units=1/GPa)
#
#
# Indices 1 2 3 4 5 6 
#
# 1 0.018635 -0.000633 -0.002569 -0.003447 -0.001053 -0.002699
# 2 -0.000633 -0.006365 -0.014359 0.006658 0.010965 -0.054305
# 3 -0.002569 -0.014359 0.006748 0.000126 0.000447 -0.005418
# 4 -0.003447 0.006658 0.000126 0.033558 0.004547 0.005774
# 5 -0.001053 0.010965 0.000447 0.004547 0.021600 0.013514
# 6 -0.002699 -0.054305 -0.005418 0.005774 0.013514 -0.023205
#
#
# Mechanical properties :
#
#
# Convention : Reuss Voigt Hill
#
# Bulk Modulus (GPa) = -62.09309 26.44277 -17.82516
# Shear Modulus (GPa) = 61.93776 29.27601 45.60689
#
# Velocity S-wave (km/s) = 5.48145 3.76855 4.70363
# Velocity P-wave (km/s) = 3.15279 5.63591 4.56637
#
# Compressibility (1/GPa) = -0.01610485
#
# Stress axis : x y z
#
# Youngs Moduli (GPa) = 53.66135 -157.11329 148.19007
#
# Poissons Ratio (x) = -0.09952 0.38068
# Poissons Ratio (y) = 0.03399 2.12792
# Poissons Ratio (z) = 0.13785 -2.25605
#
# Static dielectric constant tensor:
#      x y z
#    x 1.776640 -0.020840 0.012580 
#    y -0.020840 1.737250 -0.018540 
#    z 0.012580 -0.018540 1.765880 
# 
# From -- ./inp_files/176299.got.cif
#   From: 2010.05.17/outbox.cif.g08.bks.cpg/sg2_89_cif.got.tgz:176299.got - 2010.06.03 11:33:40.
