data_PCOD9105647
_publ_section_title
;
Structure prediction by ZEFSAII (Michael W. Deem and Ramdas Pophale) SiO2 
 PCOD9105647
Probable space group: P -1
;
_chemical_formula_sum "Si O2"
_cell_formula_units_Z 16
_cell_length_a 6.362725
_cell_length_b 14.553381
_cell_length_c 15.149852
_cell_angle_alpha 48.139445
_cell_angle_beta 54.593887
_cell_angle_gamma 84.496923
_cell_volume 747.574682
_symmetry_space_group_name_H-M "P -1"
_symmetry_group_IT_number 2
_symmetry_cell_setting 'triclinic'
loop_
_space_group_symop_operation_xyz
x,y,z
-x,-y,-z
loop_
_atom_site_type_symbol
_atom_site_label
_atom_site_fract_x
_atom_site_fract_y
_atom_site_fract_z
Si Si1 0.823014 0.648864 0.699625
Si Si2 0.232182 0.099725 0.532957
Si Si3 0.210707 0.308521 0.669246
Si Si4 0.333394 0.108091 0.874936
Si Si5 0.914348 0.197932 0.288903
Si Si6 0.186425 0.959762 0.175239
Si Si7 0.789867 0.496894 0.313532
Si Si8 0.831826 0.568784 0.052009
O O1 0.852206 0.785422 0.555137
O O2 0.507683 0.520015 0.836086
O O3 0.866295 0.694152 0.762392
O O4 0.069123 0.605303 0.644868
O O5 0.584493 0.171667 0.403595
O O6 0.077740 0.050629 0.696084
O O7 0.111805 0.955375 0.600284
O O8 0.386250 0.251153 0.725610
O O9 0.442997 0.412207 0.474916
O O10 0.090769 0.383880 0.716696
O O11 0.959535 0.178577 0.762188
O O12 0.559940 0.053997 0.824458
O O13 0.327115 0.094845 0.991048
O O14 0.000000 0.000000 0.000000
O O15 0.022634 0.271923 0.120544
O O16 0.852112 0.553787 0.161822
O O17 0.000000 0.500000 0.000000
#
# Coordination Sequence:
#
# PCOD9105647 Si02
#       8
#     2   2   2   2   2   2   2   2
#     4  12  22  43  67  94 129 177 215 266 327 385
#     4  11  24  42  68  96 131 171 215 272 322 385
#     4  10  22  42  62  96 129 163 216 263 318 384
#     4   9  20  39  61  86 127 164 206 263 309 377
#     4  11  25  43  64  98 132 169 220 268 324 388
#     4  10  20  39  65  93 126 169 212 257 325 381
#     4  11  25  40  67  96 128 170 213 266 322 383
#     4  12  24  44  66  94 135 173 216 272 325 383
#
# _framework density 21.402543999999999
#
# number of rings (size 3 to 8) (size 9 to 14) (size 15 to 20)
#    0.000    1.250    2.500    3.000    1.750    2.000 
#    4.500    3.125    0.000    0.000    0.000    0.000 
#    0.000    0.000    0.000    0.000    0.000    0.000 
#
# Total GULP energy -89361.675949 kJ/mol
# GULP energy per Si atom -5585.104747 kJ/mol
# Density = 2.135383 g / cm^3
# Si number density = 21.402544 Si / 1000 Ang^3
#
#
#
# Elastic Constant Matrix: (Units=GPa)
#
#
# Indices 1 2 3 4 5 6 
#
# 1 63.6593 33.0405 21.7140 3.6590 -7.8080 -5.5138
# 2 33.0405 78.4092 22.2354 17.4528 -8.2975 -0.3371
# 3 21.7140 22.2354 111.8095 21.3680 5.2606 -5.1654
# 4 3.6590 17.4528 21.3680 26.7505 3.8404 8.1466
# 5 -7.8080 -8.2975 5.2606 3.8404 23.7124 -8.3849
# 6 -5.5138 -0.3371 -5.1654 8.1466 -8.3849 17.9846
#
#
#
# Elastic Compliance Matrix: (Units=1/GPa)
#
#
# Indices 1 2 3 4 5 6 
#
# 1 0.022684 -0.007673 -0.002748 -0.000409 0.009166 0.010480
# 2 -0.007673 0.021412 0.000951 -0.019407 0.012469 0.012926
# 3 -0.002748 0.000951 0.012167 -0.013274 0.002333 0.009770
# 4 -0.000409 -0.019407 -0.013274 0.084976 -0.039365 -0.061146
# 5 0.009166 0.012469 0.002333 -0.039365 0.075472 0.056733
# 6 0.010480 0.012926 0.009770 -0.061146 0.056733 0.116013
#
#
# Mechanical properties :
#
#
# Convention : Reuss Voigt Hill
#
# Bulk Modulus (GPa) = 26.79390 45.31753 36.05572
# Shear Modulus (GPa) = 13.73231 25.48206 19.60718
#
# Velocity S-wave (km/s) = 2.53577 3.45426 3.03002
# Velocity P-wave (km/s) = 4.59562 6.09337 5.39670
#
# Compressibility (1/GPa) = 0.03732192
#
# Stress axis : x y z
#
# Youngs Moduli (GPa) = 44.08352 46.70288 82.19168
#
# Poissons Ratio (x) = 0.35837 0.22590
# Poissons Ratio (y) = 0.33827 -0.07820
# Poissons Ratio (z) = 0.12116 -0.04443
#
# Static dielectric constant tensor:
#      x y z
#    x 1.796680 -0.007700 0.040120 
#    y -0.007700 1.789010 -0.004770 
#    z 0.040120 -0.004770 1.795750 
# 
# From -- ./inp_files/484326.got.cif
#   From: 2010.05.17/outbox.cif.g08.bks.cpg/sg2_243_cif.got.tgz:484326.got - 2010.06.03 11:33:40.
