data_PCOD9105359
_publ_section_title
;
Structure prediction by ZEFSAII (Michael W. Deem and Ramdas Pophale) SiO2 
 PCOD9105359
Probable space group: P -1
;
_chemical_formula_sum "Si O2"
_cell_formula_units_Z 14
_cell_length_a 11.235293
_cell_length_b 8.234848
_cell_length_c 18.832919
_cell_angle_alpha 46.742621
_cell_angle_beta 148.799118
_cell_angle_gamma 141.612859
_cell_volume 559.927265
_symmetry_space_group_name_H-M "P -1"
_symmetry_group_IT_number 2
_symmetry_cell_setting 'triclinic'
loop_
_space_group_symop_operation_xyz
x,y,z
-x,-y,-z
loop_
_atom_site_type_symbol
_atom_site_label
_atom_site_fract_x
_atom_site_fract_y
_atom_site_fract_z
Si Si1 0.586660 0.829360 0.991833
Si Si2 0.567764 0.416759 0.288116
Si Si3 0.717729 0.721902 0.494380
Si Si4 0.034266 0.672052 0.561169
Si Si5 0.667176 0.222595 0.801772
Si Si6 0.064738 0.898510 0.138245
Si Si7 0.750395 0.343323 0.999689
O O1 0.797128 0.753763 0.093186
O O2 0.327460 0.640632 0.962784
O O3 0.540933 0.956364 0.860974
O O4 0.727257 0.075120 0.045577
O O5 0.773248 0.478719 0.438505
O O6 0.283031 0.144086 0.222999
O O7 0.470979 0.621391 0.165534
O O8 0.739880 0.400256 0.315325
O O9 0.500000 0.500000 0.500000
O O10 0.941667 0.666263 0.596287
O O11 0.552230 0.702869 0.344521
O O12 0.848788 0.024397 0.494818
O O13 0.764740 0.214002 0.774472
O O14 0.941022 0.427848 0.919262
O O15 0.000000 0.000000 0.000000
#
# Coordination Sequence:
#
# PCOD9105359 Si02
#       7
#     2   2   2   2   2   2   2
#     4  10  23  38  60  99 128 161 202 263 327 379
#     4  11  21  44  66  94 131 173 211 259 322 375
#     4  11  25  45  68  94 125 172 219 261 317 381
#     4  10  25  44  66  91 133 172 212 266 312 377
#     4  11  22  41  64  91 129 162 209 264 322 371
#     4  10  20  39  64  91 128 167 203 255 324 371
#     4  11  23  38  65  99 123 162 212 262 322 381
#
# _framework density 25.003245
#
# number of rings (size 3 to 8) (size 9 to 14) (size 15 to 20)
#    0.000    1.429    4.286    1.286    2.000    6.286 
#    0.000    1.429    0.000    0.000    0.000    0.000 
#    0.000    0.000    0.000    0.000    0.000    0.000 
#
# Total GULP energy -78180.267396 kJ/mol
# GULP energy per Si atom -5584.304814 kJ/mol
# Density = 2.494634 g / cm^3
# Si number density = 25.003245 Si / 1000 Ang^3
#
#
#
# Elastic Constant Matrix: (Units=GPa)
#
#
# Indices 1 2 3 4 5 6 
#
# 1 128.6227 10.0563 13.1593 0.5712 20.5293 -3.2630
# 2 10.0563 45.8142 10.4208 23.8223 -9.1169 0.7660
# 3 13.1593 10.4208 99.3505 21.4607 10.1971 6.0159
# 4 0.5712 23.8223 21.4607 38.2399 -3.3189 5.1133
# 5 20.5293 -9.1169 10.1971 -3.3189 40.2632 -6.5858
# 6 -3.2630 0.7660 6.0159 5.1133 -6.5858 48.9940
#
#
#
# Elastic Compliance Matrix: (Units=1/GPa)
#
#
# Indices 1 2 3 4 5 6 
#
# 1 0.008974 -0.004066 -0.000740 0.002393 -0.005142 -0.000189
# 2 -0.004066 0.035776 0.000520 -0.022113 0.008641 0.002575
# 3 -0.000740 0.000520 0.012090 -0.007224 -0.003365 -0.001240
# 4 0.002393 -0.022113 -0.007224 0.044287 -0.001304 -0.003405
# 5 -0.005142 0.008641 -0.003365 -0.001304 0.030850 0.004219
# 6 -0.000189 0.002575 -0.001240 -0.003405 0.004219 0.021433
#
#
# Mechanical properties :
#
#
# Convention : Reuss Voigt Hill
#
# Bulk Modulus (GPa) = 20.71778 37.89558 29.30668
# Shear Modulus (GPa) = 28.07881 41.50949 34.79415
#
# Velocity S-wave (km/s) = 3.35476 4.07893 3.73444
# Velocity P-wave (km/s) = 4.82804 6.11332 5.50830
#
# Compressibility (1/GPa) = 0.04826772
#
# Stress axis : x y z
#
# Youngs Moduli (GPa) = 111.43779 27.95154 82.71434
#
# Poissons Ratio (x) = 0.11365 0.06119
# Poissons Ratio (y) = 0.45310 -0.04300
# Poissons Ratio (z) = 0.08244 -0.01453
#
# Static dielectric constant tensor:
#      x y z
#    x 2.051140 -0.034540 -0.002880 
#    y -0.034540 2.022050 0.025970 
#    z -0.002880 0.025970 1.951970 
# 
# From -- ./inp_files/307005.got.cif
#   From: 2010.05.17/outbox.cif.g08.bks.cpg/sg2_154_cif.got.tgz:307005.got - 2010.06.03 11:33:40.
