data_PCOD9105909
_publ_section_title
;
Structure prediction by ZEFSAII (Michael W. Deem and Ramdas Pophale) SiO2 
 PCOD9105909
Probable space group: P -1
;
_chemical_formula_sum "Si O2"
_cell_formula_units_Z 14
_cell_length_a 8.989613
_cell_length_b 12.174008
_cell_length_c 10.405981
_cell_angle_alpha 52.247220
_cell_angle_beta 63.843468
_cell_angle_gamma 49.719752
_cell_volume 685.012947
_symmetry_space_group_name_H-M "P -1"
_symmetry_group_IT_number 2
_symmetry_cell_setting 'triclinic'
loop_
_space_group_symop_operation_xyz
x,y,z
-x,-y,-z
loop_
_atom_site_type_symbol
_atom_site_label
_atom_site_fract_x
_atom_site_fract_y
_atom_site_fract_z
Si Si1 0.961383 0.867318 0.171393
Si Si2 0.374666 0.983903 0.174041
Si Si3 0.928547 0.703903 0.045711
Si Si4 0.359738 0.432668 0.132744
Si Si5 0.383756 0.379253 0.713858
Si Si6 0.330586 0.536919 0.352974
Si Si7 0.455122 0.949205 0.688734
O O1 0.911493 0.781977 0.137023
O O2 0.155131 0.722907 0.266351
O O3 0.776739 0.958098 0.269109
O O4 0.000000 0.000000 0.000000
O O5 0.428148 0.800169 0.264108
O O6 0.457247 0.997408 0.268167
O O7 0.500000 0.000000 0.000000
O O8 0.155448 0.138953 0.128347
O O9 0.780033 0.640540 0.141087
O O10 0.150962 0.555300 0.058046
O O11 0.333705 0.444190 0.289458
O O12 0.453174 0.245039 0.193294
O O13 0.500000 0.500000 0.000000
O O14 0.300994 0.467619 0.545816
O O15 0.467345 0.468384 0.701488
O O16 0.500000 0.000000 0.500000
#
# Coordination Sequence:
#
# PCOD9105909 Si02
#       7
#     2   2   2   2   2   2   2
#     4  11  22  40  68  94 124 177 226 258 320 402
#     4  10  20  39  67  93 119 167 225 261 304 394
#     4  10  22  39  70  88 119 173 226 254 308 404
#     4  11  26  41  60  95 137 166 207 272 339 381
#     4  10  20  39  66  94 117 161 226 266 305 370
#     4  10  23  39  65  90 129 166 216 265 317 390
#     4  12  25  41  65 101 136 165 214 284 333 376
#
# _framework density 20.437569
#
# number of rings (size 3 to 8) (size 9 to 14) (size 15 to 20)
#    0.000    1.429    2.857    3.429    8.000    1.714 
#    0.000    0.000    0.000    5.143    0.000    0.000 
#    0.000    0.000    0.000    0.000    0.000    0.000 
#
# Total GULP energy -78235.089704 kJ/mol
# GULP energy per Si atom -5588.220693 kJ/mol
# Density = 2.039105 g / cm^3
# Si number density = 20.437569 Si / 1000 Ang^3
#
#
#
# Elastic Constant Matrix: (Units=GPa)
#
#
# Indices 1 2 3 4 5 6 
#
# 1 56.0267 -3.4923 1.1911 11.5670 4.5313 -7.5349
# 2 -3.4923 43.0221 -7.3711 4.7106 -6.1465 -4.3294
# 3 1.1911 -7.3711 69.1439 1.4848 9.5065 -9.0991
# 4 11.5670 4.7106 1.4848 30.7993 -0.3136 2.1514
# 5 4.5313 -6.1465 9.5065 -0.3136 36.4354 0.6069
# 6 -7.5349 -4.3294 -9.0991 2.1514 0.6069 36.0133
#
#
#
# Elastic Compliance Matrix: (Units=1/GPa)
#
#
# Indices 1 2 3 4 5 6 
#
# 1 0.020778 0.003055 0.001244 -0.008748 -0.002562 0.005595
# 2 0.003055 0.025514 0.002994 -0.005494 0.003017 0.004740
# 3 0.001244 0.002994 0.015982 -0.002074 -0.003918 0.004848
# 4 -0.008748 -0.005494 -0.002074 0.037072 0.001109 -0.005248
# 5 -0.002562 0.003017 -0.003918 0.001109 0.029334 -0.001724
# 6 0.005595 0.004740 0.004848 -0.005248 -0.001724 0.031075
#
#
# Mechanical properties :
#
#
# Convention : Reuss Voigt Hill
#
# Bulk Modulus (GPa) = 13.01066 16.53868 14.77467
# Shear Modulus (GPa) = 29.27583 32.50727 30.89155
#
# Velocity S-wave (km/s) = 3.78888 3.99251 3.89203
# Velocity P-wave (km/s) = 5.05180 5.41880 5.23852
#
# Compressibility (1/GPa) = 0.07686007
#
# Stress axis : x y z
#
# Youngs Moduli (GPa) = 48.12746 39.19344 62.57204
#
# Poissons Ratio (x) = -0.11972 -0.07784
# Poissons Ratio (y) = -0.14701 -0.18736
# Poissons Ratio (z) = -0.05987 -0.11736
#
# Static dielectric constant tensor:
#      x y z
#    x 1.714240 -0.028750 -0.008720 
#    y -0.028750 1.720220 -0.017230 
#    z -0.008720 -0.017230 1.709150 
# 
# From -- ./inp_files/159741.got.cif
#   From: 2010.05.17/outbox.cif.g08.bks.cpg/sg2_80_cif.got.tgz:159741.got - 2010.06.03 11:33:40.
