data_PCOD9105952
_publ_section_title
;
Structure prediction by ZEFSAII (Michael W. Deem and Ramdas Pophale) SiO2 
 PCOD9105952
Probable space group: P -1
;
_chemical_formula_sum "Si O2"
_cell_formula_units_Z 16
_cell_length_a 8.849056
_cell_length_b 10.069779
_cell_length_c 14.101486
_cell_angle_alpha 135.313322
_cell_angle_beta 82.228162
_cell_angle_gamma 75.926286
_cell_volume 764.699834
_symmetry_space_group_name_H-M "P -1"
_symmetry_group_IT_number 2
_symmetry_cell_setting 'triclinic'
loop_
_space_group_symop_operation_xyz
x,y,z
-x,-y,-z
loop_
_atom_site_type_symbol
_atom_site_label
_atom_site_fract_x
_atom_site_fract_y
_atom_site_fract_z
Si Si1 0.470811 0.738410 0.639677
Si Si2 0.714835 0.715795 0.759567
Si Si3 0.892475 0.088988 0.154150
Si Si4 0.847362 0.353051 0.041235
Si Si5 0.909904 0.500064 0.310756
Si Si6 0.559443 0.939597 0.571976
Si Si7 0.561811 0.213631 0.034346
Si Si8 0.418156 0.343479 0.914839
O O1 0.500000 0.500000 0.500000
O O2 0.645858 0.718564 0.661831
O O3 0.303688 0.866205 0.788141
O O4 0.445943 0.860218 0.603851
O O5 0.906807 0.541238 0.684740
O O6 0.686340 0.956089 0.905236
O O7 0.576483 0.688610 0.821464
O O8 0.877447 0.323585 0.280885
O O9 0.009740 0.894435 0.117048
O O10 0.000000 0.000000 0.000000
O O11 0.678971 0.330336 0.077601
O O12 0.913107 0.438420 0.167461
O O13 0.774193 0.517080 0.042644
O O14 0.754232 0.740710 0.456338
O O15 0.500000 0.000000 0.500000
O O16 0.531693 0.153501 0.736044
O O17 0.446606 0.241122 0.964247
O O18 0.500000 0.500000 0.000000
#
# Coordination Sequence:
#
# PCOD9105952 Si02
#       8
#     2   2   2   2   2   2   2   2
#     4  12  26  45  69 103 139 186 233 285 358 422
#     4  11  23  38  64  99 134 167 227 293 339 402
#     4  10  21  39  67 101 133 176 228 284 342 404
#     4  10  20  39  66  95 134 178 226 274 347 413
#     4  11  22  39  68  98 133 178 226 286 348 409
#     4  12  25  46  70  99 143 189 230 282 360 425
#     4  10  21  38  65  96 134 173 222 286 340 406
#     4  10  22  42  67  96 129 184 228 277 351 423
#
# _framework density 20.923242999999999
#
# number of rings (size 3 to 8) (size 9 to 14) (size 15 to 20)
#    0.000    1.250    5.000    1.500    5.250    0.500 
#    6.750    1.250    0.000    3.750    0.000    0.000 
#    0.000    0.000    0.000    0.000    0.000    0.000 
#
# Total GULP energy -89287.806884 kJ/mol
# GULP energy per Si atom -5580.487930 kJ/mol
# Density = 2.087562 g / cm^3
# Si number density = 20.923243 Si / 1000 Ang^3
#
#
#
# Elastic Constant Matrix: (Units=GPa)
#
#
# Indices 1 2 3 4 5 6 
#
# 1 83.2827 44.1842 22.9108 2.4738 -12.3363 -16.1290
# 2 44.1842 117.5338 55.6115 5.2706 -15.9268 -36.0436
# 3 22.9108 55.6115 87.8366 17.1581 -2.6008 -5.5829
# 4 2.4738 5.2706 17.1581 45.0093 -3.1666 -6.3224
# 5 -12.3363 -15.9268 -2.6008 -3.1666 30.9890 9.9479
# 6 -16.1290 -36.0436 -5.5829 -6.3224 9.9479 35.7937
#
#
#
# Elastic Compliance Matrix: (Units=1/GPa)
#
#
# Indices 1 2 3 4 5 6 
#
# 1 0.015413 -0.004306 -0.001206 0.000577 0.003371 0.001586
# 2 -0.004306 0.021719 -0.012399 0.005175 0.003147 0.018036
# 3 -0.001206 -0.012399 0.020346 -0.007899 -0.002570 -0.010536
# 4 0.000577 0.005175 -0.007899 0.025899 0.002244 0.008190
# 5 0.003371 0.003147 -0.002570 0.002244 0.037044 -0.005612
# 6 0.001586 0.018036 -0.010536 0.008190 -0.005612 0.048177
#
#
# Mechanical properties :
#
#
# Convention : Reuss Voigt Hill
#
# Bulk Modulus (GPa) = 46.17592 59.34067 52.75830
# Shear Modulus (GPa) = 23.62508 33.42152 28.52330
#
# Velocity S-wave (km/s) = 3.36390 4.00101 3.69621
# Velocity P-wave (km/s) = 6.09958 7.05456 6.59438
#
# Compressibility (1/GPa) = 0.02165631
#
# Stress axis : x y z
#
# Youngs Moduli (GPa) = 64.88030 46.04289 49.14853
#
# Poissons Ratio (x) = 0.19828 0.05926
# Poissons Ratio (y) = 0.27940 0.60938
# Poissons Ratio (z) = 0.07823 0.57088
#
# Static dielectric constant tensor:
#      x y z
#    x 1.758290 -0.009280 0.004190 
#    y -0.009280 1.831030 -0.011820 
#    z 0.004190 -0.011820 1.753910 
# 
# From -- ./inp_files/500987.got.cif
#   From: 2010.05.17/outbox.cif.g08.bks.cpg/sg2_251_cif.got.tgz:500987.got - 2010.06.03 11:33:40.
