data_PCOD9105263
_publ_section_title
;
Structure prediction by ZEFSAII (Michael W. Deem and Ramdas Pophale) SiO2 
 PCOD9105263
Probable space group: P -1
;
_chemical_formula_sum "Si O2"
_cell_formula_units_Z 13
_cell_length_a 12.899711
_cell_length_b 14.505070
_cell_length_c 20.606237
_cell_angle_alpha 165.229277
_cell_angle_beta 32.377232
_cell_angle_gamma 138.590919
_cell_volume 459.453579
_symmetry_space_group_name_H-M "P -1"
_symmetry_group_IT_number 2
_symmetry_cell_setting 'triclinic'
loop_
_space_group_symop_operation_xyz
x,y,z
-x,-y,-z
loop_
_atom_site_type_symbol
_atom_site_label
_atom_site_fract_x
_atom_site_fract_y
_atom_site_fract_z
Si Si1 0.580121 0.559198 0.245953
Si Si2 0.134884 0.430002 0.565907
Si Si3 0.328466 0.498160 0.697361
Si Si4 0.227431 0.370526 0.323297
Si Si5 0.104764 0.437081 0.011616
Si Si6 0.500000 0.500000 0.500000
Si Si7 0.247730 0.609361 0.190640
O O1 0.566682 0.658669 0.396446
O O2 0.345921 0.596560 0.380186
O O3 0.705638 0.749161 0.269088
O O4 0.738148 0.063738 0.823549
O O5 0.192774 0.444834 0.469404
O O6 0.240171 0.651381 0.704454
O O7 0.883862 0.543228 0.795120
O O8 0.446292 0.193087 0.369330
O O9 0.066431 0.728795 0.000330
O O10 0.373185 0.861930 0.888810
O O11 0.000000 0.500000 0.500000
O O12 0.223259 0.454316 0.026427
O O13 0.914853 0.895272 0.398236
O O14 0.500000 0.500000 0.000000
#
# Coordination Sequence:
#
# PCOD9105263 Si02
#       7
#     2   2   2   2   2   1   2
#     4  10  20  40  63  85 119 169 207 243 312 382
#     4  10  20  39  64  87 121 168 204 256 311 372
#     4  11  21  40  63  89 122 159 213 253 304 377
#     4  11  23  40  61  91 125 164 206 255 313 371
#     4  10  22  39  65  90 122 172 201 256 319 363
#     4  12  18  36  66  88 116 158 216 252 306 368
#     4  10  22  39  61  94 130 161 206 256 318 377
#
# _framework density 28.294481000000001
#
# number of rings (size 3 to 8) (size 9 to 14) (size 15 to 20)
#    0.000    1.538    4.615    1.385    2.154    0.000 
#    2.769    1.538    0.000    0.000    0.000    0.000 
#    0.000    0.000    0.000    0.000    0.000    0.000 
#
# Total GULP energy -72572.340236 kJ/mol
# GULP energy per Si atom -5582.487710 kJ/mol
# Density = 2.823008 g / cm^3
# Si number density = 28.294481 Si / 1000 Ang^3
#
#
#
# Elastic Constant Matrix: (Units=GPa)
#
#
# Indices 1 2 3 4 5 6 
#
# 1 159.5723 48.5493 33.2362 -45.4242 1.7966 15.1823
# 2 48.5493 185.1544 54.0722 -61.5535 -3.0475 11.2199
# 3 33.2362 54.0722 119.9901 -23.7189 -15.5019 12.1292
# 4 -45.4242 -61.5535 -23.7189 70.9498 9.0553 -2.1095
# 5 1.7966 -3.0475 -15.5019 9.0553 45.8245 -21.8761
# 6 15.1823 11.2199 12.1292 -2.1095 -21.8761 41.1707
#
#
#
# Elastic Compliance Matrix: (Units=1/GPa)
#
#
# Indices 1 2 3 4 5 6 
#
# 1 0.008593 0.000263 -0.001445 0.005640 -0.004192 -0.004753
# 2 0.000263 0.008571 -0.002652 0.007031 -0.003140 -0.002960
# 3 -0.001445 -0.002652 0.010328 -0.000210 0.003426 0.000023
# 4 0.005640 0.007031 -0.000210 0.024547 -0.007976 -0.006914
# 5 -0.004192 -0.003140 0.003426 -0.007976 0.033474 0.018769
# 6 -0.004753 -0.002960 0.000023 -0.006914 0.018769 0.036461
#
#
# Mechanical properties :
#
#
# Convention : Reuss Voigt Hill
#
# Bulk Modulus (GPa) = 50.44306 81.82578 66.13442
# Shear Modulus (GPa) = 36.69733 53.51295 45.10514
#
# Velocity S-wave (km/s) = 3.60527 4.35361 3.99699
# Velocity P-wave (km/s) = 5.93272 7.36573 6.68772
#
# Compressibility (1/GPa) = 0.01982433
#
# Stress axis : x y z
#
# Youngs Moduli (GPa) = 116.37957 116.66608 96.82161
#
# Poissons Ratio (x) = -0.03067 0.13988
# Poissons Ratio (y) = -0.03059 0.25678
# Poissons Ratio (z) = 0.16814 0.30941
#
# Static dielectric constant tensor:
#      x y z
#    x 2.416410 -0.052410 0.198350 
#    y -0.052410 2.332290 0.004380 
#    z 0.198350 0.004380 2.497590 
# 
# From -- ./inp_files/168233.got.cif
#   From: 2010.05.17/outbox.cif.g08.bks.cpg/sg2_85_cif.got.tgz:168233.got - 2010.06.03 11:33:40.
