data_PCOD9105116
_publ_section_title
;
Structure prediction by ZEFSAII (Michael W. Deem and Ramdas Pophale) SiO2 
 PCOD9105116
Probable space group: P -1
;
_chemical_formula_sum "Si O2"
_cell_formula_units_Z 16
_cell_length_a 12.038214
_cell_length_b 7.711633
_cell_length_c 9.756209
_cell_angle_alpha 80.829278
_cell_angle_beta 78.031963
_cell_angle_gamma 51.369179
_cell_volume 691.617569
_symmetry_space_group_name_H-M "P -1"
_symmetry_group_IT_number 2
_symmetry_cell_setting 'triclinic'
loop_
_space_group_symop_operation_xyz
x,y,z
-x,-y,-z
loop_
_atom_site_type_symbol
_atom_site_label
_atom_site_fract_x
_atom_site_fract_y
_atom_site_fract_z
Si Si1 0.236257 0.035437 0.460885
Si Si2 0.342187 0.303917 0.490856
Si Si3 0.569298 0.347827 0.364750
Si Si4 0.790508 0.032917 0.043789
Si Si5 0.103419 0.705334 0.880668
Si Si6 0.343627 0.209439 0.823014
Si Si7 0.414540 0.774072 0.183487
Si Si8 0.940892 0.243351 0.439788
O O1 0.314831 0.140771 0.458692
O O2 0.071366 0.239135 0.458044
O O3 0.275621 0.862314 0.595145
O O4 0.301993 0.897223 0.321830
O O5 0.474260 0.264836 0.384382
O O6 0.357961 0.266239 0.655506
O O7 0.206025 0.560294 0.477772
O O8 0.500000 0.500000 0.500000
O O9 0.530757 0.515823 0.231543
O O10 0.710964 0.940527 0.145650
O O11 0.828966 0.174348 0.099063
O O12 0.948505 0.824053 0.976226
O O13 0.680339 0.180101 0.929735
O O14 0.217995 0.439828 0.902156
O O15 0.074779 0.736024 0.721482
O O16 0.493975 0.131840 0.860586
O O17 0.000000 0.000000 0.500000
#
# Coordination Sequence:
#
# PCOD9105116 Si02
#       8
#     2   2   2   2   2   2   2   2
#     4  11  22  40  63  98 136 168 208 274 337 391
#     4  11  23  39  62 103 129 170 213 267 340 390
#     4  10  20  39  63  91 132 169 210 266 327 393
#     4  11  24  48  68  92 131 178 227 269 328 390
#     4  10  25  46  68  95 128 178 223 272 335 384
#     4  11  24  42  67  97 135 169 224 275 320 397
#     4  11  23  43  66  98 131 177 218 267 329 395
#     4  11  23  40  67  96 129 165 216 274 328 393
#
# _framework density 23.134172
#
# number of rings (size 3 to 8) (size 9 to 14) (size 15 to 20)
#    0.000    1.250    3.750    3.000    3.500    0.500 
#    2.250    0.000    0.000    0.000    0.000    0.000 
#    0.000    0.000    0.000    0.000    0.000    0.000 
#
# Total GULP energy -89447.600359 kJ/mol
# GULP energy per Si atom -5590.475022 kJ/mol
# Density = 2.308152 g / cm^3
# Si number density = 23.134172 Si / 1000 Ang^3
#
#
#
# Elastic Constant Matrix: (Units=GPa)
#
#
# Indices 1 2 3 4 5 6 
#
# 1 145.7831 27.6750 27.4370 -11.6924 -3.3927 -10.4979
# 2 27.6750 98.2421 32.2605 0.6542 2.4431 -16.2539
# 3 27.4370 32.2605 63.5926 -6.0222 -6.5646 -11.9148
# 4 -11.6924 0.6542 -6.0222 30.9398 -3.3713 -5.4014
# 5 -3.3927 2.4431 -6.5646 -3.3713 37.6302 -4.9136
# 6 -10.4979 -16.2539 -11.9148 -5.4014 -4.9136 45.1409
#
#
#
# Elastic Compliance Matrix: (Units=1/GPa)
#
#
# Indices 1 2 3 4 5 6 
#
# 1 0.007854 -0.001358 -0.002110 0.002891 0.000846 0.001219
# 2 -0.001358 0.012946 -0.005886 -0.001715 -0.001832 0.002388
# 3 -0.002110 -0.005886 0.021345 0.004733 0.004878 0.004121
# 4 0.002891 -0.001715 0.004733 0.036020 0.005232 0.006183
# 5 0.000846 -0.001832 0.004878 0.005232 0.028686 0.004573
# 6 0.001219 0.002388 0.004121 0.006183 0.004573 0.025621
#
#
# Mechanical properties :
#
#
# Convention : Reuss Voigt Hill
#
# Bulk Modulus (GPa) = 42.66753 53.59589 48.13171
# Shear Modulus (GPa) = 31.44768 37.42519 34.43644
#
# Velocity S-wave (km/s) = 3.69095 4.02648 3.86236
# Velocity P-wave (km/s) = 6.05373 6.69585 6.38287
#
# Compressibility (1/GPa) = 0.02343703
#
# Stress axis : x y z
#
# Youngs Moduli (GPa) = 127.32732 77.24197 46.84890
#
# Poissons Ratio (x) = 0.10491 0.09885
# Poissons Ratio (y) = 0.17294 0.27575
# Poissons Ratio (z) = 0.26867 0.45464
#
# Static dielectric constant tensor:
#      x y z
#    x 2.042730 -0.031170 -0.032480 
#    y -0.031170 1.900550 0.016140 
#    z -0.032480 0.016140 1.871250 
# 
# From -- ./inp_files/243510.got.cif
#   From: 2010.05.17/outbox.cif.g08.bks.cpg/sg2_122_cif.got.tgz:243510.got - 2010.06.03 11:33:40.
