data_PCOD9105195
_publ_section_title
;
Structure prediction by ZEFSAII (Michael W. Deem and Ramdas Pophale) SiO2 
 PCOD9105195
Probable space group: P -1
;
_chemical_formula_sum "Si O2"
_cell_formula_units_Z 15
_cell_length_a 7.657257
_cell_length_b 9.102514
_cell_length_c 11.795992
_cell_angle_alpha 53.455540
_cell_angle_beta 113.854701
_cell_angle_gamma 113.601945
_cell_volume 589.693245
_symmetry_space_group_name_H-M "P -1"
_symmetry_group_IT_number 2
_symmetry_cell_setting 'triclinic'
loop_
_space_group_symop_operation_xyz
x,y,z
-x,-y,-z
loop_
_atom_site_type_symbol
_atom_site_label
_atom_site_fract_x
_atom_site_fract_y
_atom_site_fract_z
Si Si1 0.123066 0.908079 0.437211
Si Si2 0.928397 0.475397 0.268328
Si Si3 0.542070 0.596637 0.203310
Si Si4 0.248960 0.696012 0.916728
Si Si5 0.229742 0.004780 0.943504
Si Si6 0.500000 0.500000 0.500000
Si Si7 0.829255 0.150286 0.770253
Si Si8 0.305896 0.060987 0.636013
O O1 0.068916 0.706252 0.574530
O O2 0.229980 0.893521 0.353800
O O3 0.908701 0.955026 0.353339
O O4 0.256591 0.041408 0.499054
O O5 0.732276 0.539020 0.225750
O O6 0.910261 0.426922 0.152621
O O7 0.116965 0.629595 0.286996
O O8 0.495539 0.498514 0.357153
O O9 0.604233 0.822721 0.133868
O O10 0.379714 0.572773 0.072286
O O11 0.185262 0.814330 0.948417
O O12 0.356099 0.865755 0.782243
O O13 0.283664 0.957581 0.106040
O O14 0.035255 0.085514 0.859069
O O15 0.434779 0.266739 0.594281
#
# Coordination Sequence:
#
# PCOD9105195 Si02
#       8
#     2   2   2   2   2   1   2   2
#     4  10  20  42  68  94 134 171 215 272 328 377
#     4  10  23  40  64  98 131 169 219 272 320 382
#     4  11  24  43  64  91 132 174 214 270 324 391
#     4  11  21  43  65  91 135 172 209 268 332 384
#     4  10  21  38  64  89 125 173 210 268 323 384
#     4  12  24  44  68  98 130 168 226 264 330 396
#     4  10  20  39  63  95 128 165 217 265 321 389
#     4  10  22  41  69  98 129 172 216 272 324 391
#
# _framework density 25.436955000000001
#
# number of rings (size 3 to 8) (size 9 to 14) (size 15 to 20)
#    0.000    1.600    2.667    2.000    0.000    2.667 
#    9.600    1.333    0.000    0.000    0.000    0.000 
#    0.000    0.000    0.000    0.000    0.000    0.000 
#
# Total GULP energy -83658.968534 kJ/mol
# GULP energy per Si atom -5577.264569 kJ/mol
# Density = 2.537906 g / cm^3
# Si number density = 25.436955 Si / 1000 Ang^3
#
#
#
# Elastic Constant Matrix: (Units=GPa)
#
#
# Indices 1 2 3 4 5 6 
#
# 1 52.3452 22.0083 18.1404 9.5568 -2.1436 -5.3310
# 2 22.0083 132.0145 37.2329 19.3289 -21.5312 -0.9122
# 3 18.1404 37.2329 151.3234 16.4145 -40.8113 5.6537
# 4 9.5568 19.3289 16.4145 39.1501 -12.2536 -7.8557
# 5 -2.1436 -21.5312 -40.8113 -12.2536 39.4901 2.2705
# 6 -5.3310 -0.9122 5.6537 -7.8557 2.2705 27.8398
#
#
#
# Elastic Compliance Matrix: (Units=1/GPa)
#
#
# Indices 1 2 3 4 5 6 
#
# 1 0.022312 -0.003154 -0.003021 -0.003304 -0.004899 0.004250
# 2 -0.003154 0.009224 -0.000625 -0.002687 0.003449 -0.001214
# 3 -0.003021 -0.000625 0.009984 -0.000815 0.009771 -0.003653
# 4 -0.003304 -0.002687 -0.000815 0.031755 0.006916 0.007841
# 5 -0.004899 0.003449 0.009771 0.006916 0.039415 -0.004073
# 6 0.004250 -0.001214 -0.003653 0.007841 -0.004073 0.039980
#
#
# Mechanical properties :
#
#
# Convention : Reuss Voigt Hill
#
# Bulk Modulus (GPa) = 35.81312 54.49405 45.15358
# Shear Modulus (GPa) = 28.47749 38.51610 33.49680
#
# Velocity S-wave (km/s) = 3.34957 3.89547 3.63279
# Velocity P-wave (km/s) = 5.39159 6.45775 5.94860
#
# Compressibility (1/GPa) = 0.02792273
#
# Stress axis : x y z
#
# Youngs Moduli (GPa) = 44.81878 108.40897 100.15785
#
# Poissons Ratio (x) = 0.34190 0.30253
# Poissons Ratio (y) = 0.14135 0.06256
# Poissons Ratio (z) = 0.13538 0.06772
#
# Static dielectric constant tensor:
#      x y z
#    x 2.108760 0.003550 0.124410 
#    y 0.003550 1.974430 0.018970 
#    z 0.124410 0.018970 2.091790 
# 
# From -- ./inp_files/377785.got.cif
#   From: 2010.05.17/outbox.cif.g08.bks.cpg/sg2_189_cif.got.tgz:377785.got - 2010.06.03 11:33:40.
