data_PCOD9105191
_publ_section_title
;
Structure prediction by ZEFSAII (Michael W. Deem and Ramdas Pophale) SiO2 
 PCOD9105191
Probable space group: P -1
;
_chemical_formula_sum "Si O2"
_cell_formula_units_Z 16
_cell_length_a 11.982954
_cell_length_b 9.502950
_cell_length_c 11.758696
_cell_angle_alpha 48.576451
_cell_angle_beta 79.904064
_cell_angle_gamma 53.744858
_cell_volume 756.239181
_symmetry_space_group_name_H-M "P -1"
_symmetry_group_IT_number 2
_symmetry_cell_setting 'triclinic'
loop_
_space_group_symop_operation_xyz
x,y,z
-x,-y,-z
loop_
_atom_site_type_symbol
_atom_site_label
_atom_site_fract_x
_atom_site_fract_y
_atom_site_fract_z
Si Si1 0.451877 0.100596 0.325927
Si Si2 0.634531 0.391939 0.944937
Si Si3 0.236456 0.310722 0.527447
Si Si4 0.755187 0.896248 0.803731
Si Si5 0.254401 0.733653 0.249348
Si Si6 0.001865 0.647896 0.565071
Si Si7 0.908273 0.440282 0.154305
Si Si8 0.072311 0.931137 0.810792
O O1 0.359733 0.388229 0.183711
O O2 0.364915 0.042221 0.298417
O O3 0.500000 0.000000 0.500000
O O4 0.615133 0.954274 0.324327
O O5 0.643016 0.324663 0.846107
O O6 0.500000 0.500000 0.000000
O O7 0.787370 0.158317 0.094790
O O8 0.273018 0.493071 0.405719
O O9 0.123005 0.409035 0.597990
O O10 0.148444 0.317241 0.431087
O O11 0.918548 0.695886 0.827313
O O12 0.720966 0.142546 0.720441
O O13 0.783715 0.729601 0.996313
O O14 0.074925 0.945087 0.153377
O O15 0.078830 0.619807 0.683692
O O16 0.966602 0.871191 0.380773
O O17 0.882259 0.299704 0.146331
#
# Coordination Sequence:
#
# PCOD9105191 Si02
#       8
#     2   2   2   2   2   2   2   2
#     4  12  23  43  67  91 133 173 215 263 327 392
#     4  12  25  42  64  99 133 170 219 270 329 386
#     4  10  22  40  62  96 127 170 221 259 326 392
#     4  10  23  39  65  94 127 169 218 263 322 389
#     4  10  23  43  66  94 127 176 215 271 319 388
#     4  10  21  38  66  95 127 167 215 278 316 379
#     4  10  20  39  63  95 127 165 217 267 324 380
#     4  10  21  41  66  95 129 166 226 262 325 390
#
# _framework density 21.157328
#
# number of rings (size 3 to 8) (size 9 to 14) (size 15 to 20)
#    0.000    1.500    2.500    2.250    0.000    4.500 
#    2.250    1.250    0.000    0.000    0.000    0.000 
#    0.000    0.000    0.000    0.000    0.000    0.000 
#
# Total GULP energy -89168.425988 kJ/mol
# GULP energy per Si atom -5573.026624 kJ/mol
# Density = 2.110917 g / cm^3
# Si number density = 21.157328 Si / 1000 Ang^3
#
#
#
# Elastic Constant Matrix: (Units=GPa)
#
#
# Indices 1 2 3 4 5 6 
#
# 1 76.4838 23.5756 16.3159 9.1247 8.1334 7.8128
# 2 23.5756 69.8132 11.9528 2.8279 3.1718 -3.9032
# 3 16.3159 11.9528 74.1560 10.6467 6.2842 3.8497
# 4 9.1247 2.8279 10.6467 27.9070 4.9322 -5.0545
# 5 8.1334 3.1718 6.2842 4.9322 29.7012 -1.8859
# 6 7.8128 -3.9032 3.8497 -5.0545 -1.8859 26.5182
#
#
#
# Elastic Compliance Matrix: (Units=1/GPa)
#
#
# Indices 1 2 3 4 5 6 
#
# 1 0.016677 -0.005405 -0.001459 -0.004979 -0.003278 -0.006679
# 2 -0.005405 0.016677 -0.001991 0.001656 0.000141 0.004662
# 3 -0.001459 -0.001991 0.015230 -0.005378 -0.001923 -0.003236
# 4 -0.004979 0.001656 -0.005378 0.041896 -0.003986 0.010193
# 5 -0.003278 0.000141 -0.001923 -0.003986 0.035814 0.003053
# 6 -0.006679 0.004662 -0.003236 0.010193 0.003053 0.042994
#
#
# Mechanical properties :
#
#
# Convention : Reuss Voigt Hill
#
# Bulk Modulus (GPa) = 32.38810 36.01575 34.20193
# Shear Modulus (GPa) = 25.34379 28.06586 26.70483
#
# Velocity S-wave (km/s) = 3.46479 3.64611 3.55660
# Velocity P-wave (km/s) = 5.59891 5.89790 5.75035
#
# Compressibility (1/GPa) = 0.03087553
#
# Stress axis : x y z
#
# Youngs Moduli (GPa) = 59.96389 59.96264 65.66012
#
# Poissons Ratio (x) = 0.32408 0.09578
# Poissons Ratio (y) = 0.32409 0.13071
# Poissons Ratio (z) = 0.08747 0.11937
#
# Static dielectric constant tensor:
#      x y z
#    x 1.806490 -0.047330 -0.035970 
#    y -0.047330 1.823850 0.033010 
#    z -0.035970 0.033010 1.797400 
# 
# From -- ./inp_files/418913.got.cif
#   From: 2010.05.17/outbox.cif.g08.bks.cpg/sg2_210_cif.got.tgz:418913.got - 2010.06.03 11:33:40.
