data_PCOD9105529
_publ_section_title
;
Structure prediction by ZEFSAII (Michael W. Deem and Ramdas Pophale) SiO2 
 PCOD9105529
Probable space group: P -1
;
_chemical_formula_sum "Si O2"
_cell_formula_units_Z 16
_cell_length_a 12.116819
_cell_length_b 15.628045
_cell_length_c 9.581694
_cell_angle_alpha 121.260015
_cell_angle_beta 66.429406
_cell_angle_gamma 61.788434
_cell_volume 705.420187
_symmetry_space_group_name_H-M "P -1"
_symmetry_group_IT_number 2
_symmetry_cell_setting 'triclinic'
loop_
_space_group_symop_operation_xyz
x,y,z
-x,-y,-z
loop_
_atom_site_type_symbol
_atom_site_label
_atom_site_fract_x
_atom_site_fract_y
_atom_site_fract_z
Si Si1 0.089227 0.998069 0.587956
Si Si2 0.276371 0.334321 0.219021
Si Si3 0.904659 0.335499 0.881799
Si Si4 0.647692 0.664106 0.494430
Si Si5 0.603145 0.960413 0.063918
Si Si6 0.692061 0.277226 0.263539
Si Si7 0.636388 0.341154 0.645998
Si Si8 0.118896 0.628686 0.388797
O O1 0.090920 0.113721 0.643485
O O2 0.886031 0.135295 0.925107
O O3 0.000000 0.000000 0.500000
O O4 0.308871 0.786354 0.379769
O O5 0.315477 0.338655 0.363047
O O6 0.404701 0.140119 0.938799
O O7 0.294191 0.416963 0.182181
O O8 0.000000 0.500000 0.500000
O O9 0.855480 0.456829 0.125254
O O10 0.640987 0.470290 0.106967
O O11 0.962365 0.335073 0.698131
O O12 0.432041 0.740165 0.672636
O O13 0.554946 0.835453 0.622304
O O14 0.876883 0.801802 0.755274
O O15 0.500000 0.000000 0.000000
O O16 0.500000 0.500000 0.500000
O O17 0.784872 0.232975 0.333830
O O18 0.735236 0.372605 0.686824
#
# Coordination Sequence:
#
# PCOD9105529 Si02
#       8
#     2   2   2   2   2   2   2   2
#     4  12  24  38  58  89 139 171 214 250 304 371
#     4   9  20  38  63  89 112 155 216 267 308 373
#     4  11  25  42  57 100 136 166 205 258 314 393
#     4  10  20  39  65  84 127 164 204 261 321 369
#     4   9  20  41  63  89 113 155 220 266 306 376
#     4  11  21  39  61  93 129 173 213 252 306 381
#     4  11  23  40  64  91 139 170 212 250 306 395
#     4  11  21  39  66  90 125 168 205 257 334 362
#
# _framework density 22.681519000000002
#
# number of rings (size 3 to 8) (size 9 to 14) (size 15 to 20)
#    0.000    1.500    3.750    2.250    0.000    1.000 
#    6.750    6.250    0.000    0.000    0.000    0.000 
#    0.000    0.000    0.000    0.000    0.000    0.000 
#
# Total GULP energy -89293.684189 kJ/mol
# GULP energy per Si atom -5580.855262 kJ/mol
# Density = 2.262989 g / cm^3
# Si number density = 22.681519 Si / 1000 Ang^3
#
#
#
# Elastic Constant Matrix: (Units=GPa)
#
#
# Indices 1 2 3 4 5 6 
#
# 1 82.3925 30.0251 29.0493 15.1164 26.4324 12.8325
# 2 30.0251 162.0635 47.2782 15.4936 38.5550 13.9706
# 3 29.0493 47.2782 79.5180 -3.5235 24.1523 17.5761
# 4 15.1164 15.4936 -3.5235 46.2891 1.7424 16.1079
# 5 26.4324 38.5550 24.1523 1.7424 42.9432 10.6755
# 6 12.8325 13.9706 17.5761 16.1079 10.6755 22.6807
#
#
#
# Elastic Compliance Matrix: (Units=1/GPa)
#
#
# Indices 1 2 3 4 5 6 
#
# 1 0.017328 0.000808 -0.004985 -0.006908 -0.008976 0.002693
# 2 0.000808 0.009175 -0.004858 -0.004995 -0.006907 0.004454
# 3 -0.004985 -0.004858 0.022353 0.011773 -0.000770 -0.019508
# 4 -0.006908 -0.004995 0.011773 0.037562 0.008781 -0.032949
# 5 -0.008976 -0.006907 -0.000770 0.008781 0.038699 -0.014523
# 6 0.002693 0.004454 -0.019508 -0.032949 -0.014523 0.085176
#
#
# Mechanical properties :
#
#
# Convention : Reuss Voigt Hill
#
# Bulk Modulus (GPa) = 32.48440 59.63100 46.05770
# Shear Modulus (GPa) = 20.95333 36.89070 28.92202
#
# Velocity S-wave (km/s) = 3.04272 4.03732 3.57478
# Velocity P-wave (km/s) = 5.16694 6.93404 6.11466
#
# Compressibility (1/GPa) = 0.03078401
#
# Stress axis : x y z
#
# Youngs Moduli (GPa) = 57.71006 108.99680 44.73733
#
# Poissons Ratio (x) = -0.08804 0.22303
# Poissons Ratio (y) = -0.04662 0.21733
# Poissons Ratio (z) = 0.28771 0.52951
#
# Static dielectric constant tensor:
#      x y z
#    x 1.834070 0.088730 -0.037860 
#    y 0.088730 1.938160 0.073930 
#    z -0.037860 0.073930 1.904180 
# 
# From -- ./inp_files/274074.got.cif
#   From: 2010.05.17/outbox.cif.g08.bks.cpg/sg2_138_cif.got.tgz:274074.got - 2010.06.03 11:33:40.
