data_PCOD9105669
_publ_section_title
;
Structure prediction by ZEFSAII (Michael W. Deem and Ramdas Pophale) SiO2 
 PCOD9105669
Probable space group: P -1
;
_chemical_formula_sum "Si O2"
_cell_formula_units_Z 14
_cell_length_a 10.223037
_cell_length_b 16.170808
_cell_length_c 10.060474
_cell_angle_alpha 72.634982
_cell_angle_beta 128.702399
_cell_angle_gamma 145.394949
_cell_volume 643.464535
_symmetry_space_group_name_H-M "P -1"
_symmetry_group_IT_number 2
_symmetry_cell_setting 'triclinic'
loop_
_space_group_symop_operation_xyz
x,y,z
-x,-y,-z
loop_
_atom_site_type_symbol
_atom_site_label
_atom_site_fract_x
_atom_site_fract_y
_atom_site_fract_z
Si Si1 0.293447 0.821301 0.420339
Si Si2 0.353528 0.749196 0.216712
Si Si3 0.728620 0.481535 0.757970
Si Si4 0.147461 0.038259 0.215728
Si Si5 0.874116 0.748114 0.330680
Si Si6 0.202221 0.977770 0.847351
Si Si7 0.856183 0.211701 0.263572
O O1 0.302296 0.787362 0.293316
O O2 0.937747 0.695562 0.297107
O O3 0.500000 0.000000 0.500000
O O4 0.483851 0.831300 0.618409
O O5 0.374124 0.656157 0.300955
O O6 0.661926 0.915455 0.248892
O O7 0.053190 0.621655 0.985615
O O8 0.458572 0.391030 0.734820
O O9 0.839026 0.591099 0.654691
O O10 0.956840 0.874092 0.245893
O O11 0.083511 0.093298 0.239596
O O12 0.000000 0.000000 0.000000
O O13 0.116667 0.831102 0.565406
O O14 0.118367 0.843778 0.816430
O O15 0.510854 0.106132 0.080757
#
# Coordination Sequence:
#
# PCOD9105669 Si02
#       7
#     2   2   2   2   2   2   2
#     4  10  23  40  64  95 128 162 212 267 310 370
#     4  10  21  41  67  97 124 167 216 257 312 376
#     4  10  22  40  67  94 130 166 207 259 315 387
#     4  11  23  38  63  92 125 164 216 264 313 368
#     4  11  22  41  63  90 129 171 203 264 318 372
#     4  10  20  39  65  94 122 168 211 268 308 362
#     4  10  22  37  65  96 128 158 217 258 312 378
#
# _framework density 21.757218999999999
#
# number of rings (size 3 to 8) (size 9 to 14) (size 15 to 20)
#    0.000    1.714    1.429    3.000    2.000    7.429 
#    0.000    0.714    0.000    0.000    0.000    0.000 
#    0.000    0.000    0.000    0.000    0.000    0.000 
#
# Total GULP energy -78101.382632 kJ/mol
# GULP energy per Si atom -5578.670188 kJ/mol
# Density = 2.170770 g / cm^3
# Si number density = 21.757219 Si / 1000 Ang^3
#
#
#
# Elastic Constant Matrix: (Units=GPa)
#
#
# Indices 1 2 3 4 5 6 
#
# 1 146.0418 16.8069 7.8969 3.4311 -0.0345 -9.2614
# 2 16.8069 87.0254 15.0476 -15.6427 1.9199 -9.7080
# 3 7.8969 15.0476 69.6907 -25.4440 -9.2292 -6.2222
# 4 3.4311 -15.6427 -25.4440 25.7190 -2.1374 -2.0665
# 5 -0.0345 1.9199 -9.2292 -2.1374 39.3417 -1.6248
# 6 -9.2614 -9.7080 -6.2222 -2.0665 -1.6248 23.7387
#
#
#
# Elastic Compliance Matrix: (Units=1/GPa)
#
#
# Indices 1 2 3 4 5 6 
#
# 1 0.007296 -0.001585 -0.001721 -0.003565 -0.000456 0.001405
# 2 -0.001585 0.014250 0.001964 0.011420 0.000664 0.006763
# 3 -0.001721 0.001964 0.026941 0.029593 0.008257 0.010335
# 4 -0.003565 0.011420 0.029593 0.078022 0.011389 0.018608
# 5 -0.000456 0.000664 0.008257 0.011389 0.028155 0.005177
# 6 0.001405 0.006763 0.010335 0.018608 0.005177 0.050123
#
#
# Mechanical properties :
#
#
# Convention : Reuss Voigt Hill
#
# Bulk Modulus (GPa) = 21.83295 42.47341 32.15318
# Shear Modulus (GPa) = 22.44797 35.29365 28.87081
#
# Velocity S-wave (km/s) = 3.21557 4.03197 3.64669
# Velocity P-wave (km/s) = 4.88294 6.42181 5.70450
#
# Compressibility (1/GPa) = 0.04580232
#
# Stress axis : x y z
#
# Youngs Moduli (GPa) = 137.06855 70.17498 37.11851
#
# Poissons Ratio (x) = 0.11125 0.06387
# Poissons Ratio (y) = 0.21731 -0.07290
# Poissons Ratio (z) = 0.23586 -0.13783
#
# Static dielectric constant tensor:
#      x y z
#    x 1.837580 0.020720 0.025450 
#    y 0.020720 1.819070 -0.017970 
#    z 0.025450 -0.017970 1.848950 
# 
# From -- ./inp_files/207143.got.cif
#   From: 2010.05.17/outbox.cif.g08.bks.cpg/sg2_104_cif.got.tgz:207143.got - 2010.06.03 11:33:40.
