data_PCOD9105596
_publ_section_title
;
Structure prediction by ZEFSAII (Michael W. Deem and Ramdas Pophale) SiO2 
 PCOD9105596
Probable space group: P -1
;
_chemical_formula_sum "Si O2"
_cell_formula_units_Z 12
_cell_length_a 14.983726
_cell_length_b 9.811993
_cell_length_c 14.771746
_cell_angle_alpha 150.701209
_cell_angle_beta 153.278826
_cell_angle_gamma 38.959101
_cell_volume 477.866411
_symmetry_space_group_name_H-M "P -1"
_symmetry_group_IT_number 2
_symmetry_cell_setting 'triclinic'
loop_
_space_group_symop_operation_xyz
x,y,z
-x,-y,-z
loop_
_atom_site_type_symbol
_atom_site_label
_atom_site_fract_x
_atom_site_fract_y
_atom_site_fract_z
Si Si1 0.775311 0.217712 0.892835
Si Si2 0.774103 0.110981 0.336754
Si Si3 0.207821 0.839661 0.422883
Si Si4 0.805664 0.582221 0.976016
Si Si5 0.332359 0.393137 0.599398
Si Si6 0.207477 0.472354 0.724500
O O1 0.898483 0.400367 0.037435
O O2 0.550930 0.309020 0.716583
O O3 0.792399 0.891446 0.697138
O O4 0.790680 0.310760 0.065173
O O5 0.698615 0.202347 0.418816
O O6 0.760955 0.353527 0.392929
O O7 0.000000 0.000000 0.500000
O O8 0.679797 0.828218 0.048433
O O9 0.294358 0.641037 0.309701
O O10 0.222278 0.162345 0.598496
O O11 0.976376 0.744971 0.167761
O O12 0.353064 0.482375 0.775370
O O13 0.000000 0.500000 0.500000
#
# Coordination Sequence:
#
# PCOD9105596 Si02
#       6
#     2   2   2   2   2   2
#     4  11  25  45  68  96 141 179 219 269 339 405
#     4  10  21  40  65  94 129 168 219 276 323 384
#     4  10  21  38  63  96 130 162 226 277 320 390
#     4  10  20  39  65  91 129 173 215 273 327 385
#     4  11  26  45  67  99 138 180 220 270 335 404
#     4  12  24  41  70 102 129 176 227 281 329 388
#
# _framework density 25.111619999999998
#
# number of rings (size 3 to 8) (size 9 to 14) (size 15 to 20)
#    0.000    1.333    3.333    2.500    2.333    6.667 
#    0.000    0.833    0.000    0.000    0.000    0.000 
#    0.000    0.000    0.000    0.000    0.000    0.000 
#
# Total GULP energy -67111.559138 kJ/mol
# GULP energy per Si atom -5592.629928 kJ/mol
# Density = 2.505446 g / cm^3
# Si number density = 25.111620 Si / 1000 Ang^3
#
#
#
# Elastic Constant Matrix: (Units=GPa)
#
#
# Indices 1 2 3 4 5 6 
#
# 1 150.8858 54.2244 43.3579 15.3850 -51.3276 22.9247
# 2 54.2244 147.2232 56.3494 35.9340 -13.7761 25.1254
# 3 43.3579 56.3494 104.0508 26.8044 -43.6463 9.9071
# 4 15.3850 35.9340 26.8044 47.2508 -6.7576 5.3991
# 5 -51.3276 -13.7761 -43.6463 -6.7576 68.4949 1.5407
# 6 22.9247 25.1254 9.9071 5.3991 1.5407 51.1209
#
#
#
# Elastic Compliance Matrix: (Units=1/GPa)
#
#
# Indices 1 2 3 4 5 6 
#
# 1 0.010757 -0.002825 0.000882 -0.000257 0.008115 -0.003824
# 2 -0.002825 0.010940 -0.004596 -0.004965 -0.003276 -0.002596
# 3 0.000882 -0.004596 0.017556 -0.005107 0.010449 -0.001315
# 4 -0.000257 -0.004965 -0.005107 0.027593 -0.001738 0.000683
# 5 0.008115 -0.003276 0.010449 -0.001738 0.026614 -0.004673
# 6 -0.003824 -0.002596 -0.001315 0.000683 -0.004673 0.022876
#
#
# Mechanical properties :
#
#
# Convention : Reuss Voigt Hill
#
# Bulk Modulus (GPa) = 38.20341 78.89147 58.54744
# Shear Modulus (GPa) = 36.19531 49.92185 43.05858
#
# Velocity S-wave (km/s) = 3.80067 4.46353 4.14537
# Velocity P-wave (km/s) = 5.87423 7.61897 6.80277
#
# Compressibility (1/GPa) = 0.02617567
#
# Stress axis : x y z
#
# Youngs Moduli (GPa) = 92.96129 91.40562 56.96096
#
# Poissons Ratio (x) = 0.25820 -0.05023
# Poissons Ratio (y) = 0.26260 0.26178
# Poissons Ratio (z) = -0.08197 0.42008
#
# Static dielectric constant tensor:
#      x y z
#    x 2.111830 -0.072930 0.072770 
#    y -0.072930 1.968210 -0.066320 
#    z 0.072770 -0.066320 2.125710 
# 
# From -- ./inp_files/158946.got.cif
#   From: 2010.05.17/outbox.cif.g08.bks.cpg/sg2_80_cif.got.tgz:158946.got - 2010.06.03 11:33:40.
