data_PCOD9105317
_publ_section_title
;
Structure prediction by ZEFSAII (Michael W. Deem and Ramdas Pophale) SiO2 
 PCOD9105317
Probable space group: P -1
;
_chemical_formula_sum "Si O2"
_cell_formula_units_Z 16
_cell_length_a 20.446015
_cell_length_b 12.502448
_cell_length_c 5.961780
_cell_angle_alpha 46.218984
_cell_angle_beta 58.593698
_cell_angle_gamma 41.446520
_cell_volume 728.300687
_symmetry_space_group_name_H-M "P -1"
_symmetry_group_IT_number 2
_symmetry_cell_setting 'triclinic'
loop_
_space_group_symop_operation_xyz
x,y,z
-x,-y,-z
loop_
_atom_site_type_symbol
_atom_site_label
_atom_site_fract_x
_atom_site_fract_y
_atom_site_fract_z
Si Si1 0.193078 0.522736 0.930686
Si Si2 0.778953 0.251057 0.736347
Si Si3 0.728502 0.142712 0.576632
Si Si4 0.943502 0.454688 0.511909
Si Si5 0.343067 0.382511 0.248781
Si Si6 0.247341 0.232481 0.875991
Si Si7 0.541164 0.493791 0.184098
Si Si8 0.923527 0.958596 0.240676
O O1 0.160947 0.696375 0.580910
O O2 0.221086 0.345308 0.992638
O O3 0.109435 0.594037 0.155248
O O4 0.289668 0.447525 0.009608
O O5 0.709402 0.245870 0.698800
O O6 0.719064 0.433461 0.743083
O O7 0.853416 0.048334 0.016218
O O8 0.650064 0.287887 0.319871
O O9 0.838727 0.064725 0.427737
O O10 0.723845 0.972191 0.852432
O O11 0.854769 0.635255 0.271829
O O12 0.000000 0.500000 0.500000
O O13 0.017388 0.265769 0.509090
O O14 0.327317 0.239839 0.593732
O O15 0.445604 0.343278 0.090296
O O16 0.500000 0.500000 0.500000
O O17 0.500000 0.500000 0.000000
O O18 0.000000 0.000000 0.000000
#
# Coordination Sequence:
#
# PCOD9105317 Si02
#       8
#     2   2   2   2   2   2   2   2
#     4  10  20  39  64  89 133 189 231 275 355 421
#     4  11  20  38  67  91 141 180 240 290 346 420
#     4  12  25  44  68 106 136 185 238 302 362 431
#     4  11  23  38  54  95 140 187 235 284 342 427
#     4  10  21  45  68 101 131 182 230 285 368 433
#     4  10  24  41  69  94 145 190 230 290 364 426
#     4  12  27  49  82 111 142 183 246 312 377 442
#     4  12  24  36  61 100 141 182 243 292 347 424
#
# _framework density 21.968945999999999
#
# number of rings (size 3 to 8) (size 9 to 14) (size 15 to 20)
#    0.000    1.000    2.500    5.250    1.750    7.000 
#    0.000    1.250    0.000    0.000    0.000    0.000 
#    0.000    0.000    0.000    0.000    0.000    0.000 
#
# Total GULP energy -89271.139160 kJ/mol
# GULP energy per Si atom -5579.446198 kJ/mol
# Density = 2.191894 g / cm^3
# Si number density = 21.968946 Si / 1000 Ang^3
#
#
#
# Elastic Constant Matrix: (Units=GPa)
#
#
# Indices 1 2 3 4 5 6 
#
# 1 137.0551 21.2431 33.5010 5.2976 1.3540 22.3324
# 2 21.2431 42.9910 26.4821 0.7820 -8.7420 12.6340
# 3 33.5010 26.4821 98.0160 -8.6218 -3.5087 2.5821
# 4 5.2976 0.7820 -8.6218 36.1260 7.2978 -7.7810
# 5 1.3540 -8.7420 -3.5087 7.2978 33.6710 5.3677
# 6 22.3324 12.6340 2.5821 -7.7810 5.3677 29.1632
#
#
#
# Elastic Compliance Matrix: (Units=1/GPa)
#
#
# Indices 1 2 3 4 5 6 
#
# 1 0.009687 0.000406 -0.003524 -0.004517 0.001731 -0.008806
# 2 0.000406 0.039447 -0.010664 -0.011304 0.015112 -0.022253
# 3 -0.003524 -0.010664 0.014524 0.006868 -0.003972 0.008596
# 4 -0.004517 -0.011304 0.006868 0.037256 -0.013323 0.020141
# 5 0.001731 0.015112 -0.003972 -0.013323 0.038935 -0.018242
# 6 -0.008806 -0.022253 0.008596 0.020141 -0.018242 0.058644
#
#
# Mechanical properties :
#
#
# Convention : Reuss Voigt Hill
#
# Bulk Modulus (GPa) = 27.70525 48.94605 38.32565
# Shear Modulus (GPa) = 21.00069 32.91444 26.95756
#
# Velocity S-wave (km/s) = 3.09516 3.87489 3.50676
# Velocity P-wave (km/s) = 5.04101 6.50751 5.82063
#
# Compressibility (1/GPa) = 0.03609424
#
# Stress axis : x y z
#
# Youngs Moduli (GPa) = 103.22953 25.35047 68.85379
#
# Poissons Ratio (x) = -0.01030 0.24265
# Poissons Ratio (y) = -0.04193 0.73424
# Poissons Ratio (z) = 0.36379 0.27033
#
# Static dielectric constant tensor:
#      x y z
#    x 1.612910 -0.034880 -0.047810 
#    y -0.034880 1.825820 0.061170 
#    z -0.047810 0.061170 1.838910 
# 
# From -- ./inp_files/37576.got.cif
#   From: 2010.05.17/outbox.cif.g08.bks.cpg/sg2_19_cif.got.tgz:37576.got - 2010.06.03 11:33:40.
