data_PCOD9105393
_publ_section_title
;
Structure prediction by ZEFSAII (Michael W. Deem and Ramdas Pophale) SiO2 
 PCOD9105393
Probable space group: P -1
;
_chemical_formula_sum "Si O2"
_cell_formula_units_Z 12
_cell_length_a 12.321406
_cell_length_b 9.275949
_cell_length_c 9.391564
_cell_angle_alpha 109.721712
_cell_angle_beta 91.116027
_cell_angle_gamma 143.560462
_cell_volume 512.509690
_symmetry_space_group_name_H-M "P -1"
_symmetry_group_IT_number 2
_symmetry_cell_setting 'triclinic'
loop_
_space_group_symop_operation_xyz
x,y,z
-x,-y,-z
loop_
_atom_site_type_symbol
_atom_site_label
_atom_site_fract_x
_atom_site_fract_y
_atom_site_fract_z
Si Si1 0.706805 0.263292 0.304392
Si Si2 0.237727 0.317415 0.556970
Si Si3 0.382125 0.440811 0.281396
Si Si4 0.042920 0.424568 0.298343
Si Si5 0.296843 0.591053 0.116636
Si Si6 0.754249 0.791910 0.079788
O O1 0.702155 0.435427 0.323958
O O2 0.773422 0.333231 0.497265
O O3 0.892627 0.390074 0.277981
O O4 0.479115 0.909116 0.151955
O O5 0.278415 0.343468 0.398114
O O6 0.402466 0.394709 0.651337
O O7 0.000000 0.000000 0.500000
O O8 0.413066 0.636708 0.263372
O O9 0.221627 0.162423 0.075810
O O10 0.136662 0.501364 0.171509
O O11 0.899268 0.104828 0.244549
O O12 0.203772 0.337445 0.935066
O O13 0.500000 0.500000 0.000000
#
# Coordination Sequence:
#
# PCOD9105393 Si02
#       6
#     2   2   2   2   2   2
#     4  11  23  36  62  96 119 156 207 257 301 355
#     4  11  24  40  61  88 127 166 201 246 303 373
#     4   9  23  40  62  89 119 161 208 242 305 357
#     4  11  21  35  62  95 121 152 198 254 314 348
#     4  10  21  38  65  90 121 151 207 260 296 350
#     4  10  20  39  64  93 125 156 200 258 305 363
#
# _framework density 23.414192
#
# number of rings (size 3 to 8) (size 9 to 14) (size 15 to 20)
#    1.000    0.667    3.333    1.000    7.000    1.333 
#    0.000    0.833    0.000    2.000    0.000    0.000 
#    0.000    0.000    0.000    0.000    0.000    0.000 
#
# Total GULP energy -67023.912347 kJ/mol
# GULP energy per Si atom -5585.326029 kJ/mol
# Density = 2.336090 g / cm^3
# Si number density = 23.414192 Si / 1000 Ang^3
#
#
#
# Elastic Constant Matrix: (Units=GPa)
#
#
# Indices 1 2 3 4 5 6 
#
# 1 129.6166 38.8192 15.4599 -2.0215 -29.6119 20.6311
# 2 38.8192 76.7733 13.2972 8.2827 0.5467 3.8009
# 3 15.4599 13.2972 64.1356 9.1592 -13.9334 -2.7635
# 4 -2.0215 8.2827 9.1592 32.6396 3.4275 0.2100
# 5 -29.6119 0.5467 -13.9334 3.4275 29.2789 -6.8426
# 6 20.6311 3.8009 -2.7635 0.2100 -6.8426 31.0745
#
#
#
# Elastic Compliance Matrix: (Units=1/GPa)
#
#
# Indices 1 2 3 4 5 6 
#
# 1 0.013435 -0.006835 0.000528 0.001129 0.012603 -0.005269
# 2 -0.006835 0.017435 -0.003351 -0.003025 -0.008415 0.000275
# 3 0.000528 -0.003351 0.019742 -0.005916 0.011721 0.004436
# 4 0.001129 -0.003025 -0.005916 0.033798 -0.006156 -0.002489
# 5 0.012603 -0.008415 0.011721 -0.006156 0.054710 0.005793
# 6 -0.005269 0.000275 0.004436 -0.002489 0.005793 0.037332
#
#
# Mechanical properties :
#
#
# Convention : Reuss Voigt Hill
#
# Bulk Modulus (GPa) = 31.95402 45.07533 38.51468
# Shear Modulus (GPa) = 24.24843 32.12855 28.18849
#
# Velocity S-wave (km/s) = 3.22161 3.70832 3.47350
# Velocity P-wave (km/s) = 5.24550 6.13421 5.70718
#
# Compressibility (1/GPa) = 0.03129497
#
# Stress axis : x y z
#
# Youngs Moduli (GPa) = 74.43439 57.35715 50.65395
#
# Poissons Ratio (x) = 0.39205 -0.02677
# Poissons Ratio (y) = 0.50878 0.16976
# Poissons Ratio (z) = -0.03934 0.19222
#
# Static dielectric constant tensor:
#      x y z
#    x 1.897920 0.022340 -0.000640 
#    y 0.022340 1.866900 -0.054600 
#    z -0.000640 -0.054600 1.944810 
# 
# From -- ./inp_files/415629.got.cif
#   From: 2010.05.17/outbox.cif.g08.bks.cpg/sg2_208_cif.got.tgz:415629.got - 2010.06.03 11:33:40.
