data_PCOD9105043
_publ_section_title
;
Structure prediction by ZEFSAII (Michael W. Deem and Ramdas Pophale) SiO2 
 PCOD9105043
Probable space group: P -1
;
_chemical_formula_sum "Si O2"
_cell_formula_units_Z 14
_cell_length_a 13.073072
_cell_length_b 9.820976
_cell_length_c 12.857315
_cell_angle_alpha 57.667435
_cell_angle_beta 31.813365
_cell_angle_gamma 75.865752
_cell_volume 648.181045
_symmetry_space_group_name_H-M "P -1"
_symmetry_group_IT_number 2
_symmetry_cell_setting 'triclinic'
loop_
_space_group_symop_operation_xyz
x,y,z
-x,-y,-z
loop_
_atom_site_type_symbol
_atom_site_label
_atom_site_fract_x
_atom_site_fract_y
_atom_site_fract_z
Si Si1 0.904901 0.167821 0.941071
Si Si2 0.826677 0.521477 0.063300
Si Si3 0.976588 0.850654 0.927552
Si Si4 0.471531 0.830804 0.226305
Si Si5 0.432022 0.861081 0.488760
Si Si6 0.958126 0.440492 0.362820
Si Si7 0.841198 0.065476 0.662204
O O1 0.655569 0.041120 0.247828
O O2 0.046007 0.220927 0.904237
O O3 0.962778 0.036505 0.875327
O O4 0.933323 0.349232 0.786528
O O5 0.930716 0.566715 0.840622
O O6 0.809059 0.688673 0.063759
O O7 0.000000 0.500000 0.000000
O O8 0.619488 0.320595 0.327115
O O9 0.218820 0.891663 0.663982
O O10 0.303153 0.635929 0.401579
O O11 0.466404 0.817029 0.358906
O O12 0.341845 0.945263 0.258691
O O13 0.705167 0.938137 0.926150
O O14 0.964753 0.282873 0.491857
O O15 0.000000 0.000000 0.500000
#
# Coordination Sequence:
#
# PCOD9105043 Si02
#       7
#     2   2   2   2   2   2   2
#     4  11  22  33  53  84 120 148 183 223 282 331
#     4  10  16  33  60  78 113 149 184 221 268 328
#     4  10  20  36  51  79 118 156 180 221 268 338
#     4   9  19  36  62  81 107 146 186 234 277 320
#     4  11  20  35  57  83 117 149 182 228 279 328
#     4  10  18  37  58  82 113 147 181 236 274 325
#     4   9  19  38  62  84 103 140 200 236 269 323
#
# _framework density 21.598901999999999
#
# number of rings (size 3 to 8) (size 9 to 14) (size 15 to 20)
#    0.857    1.143    5.714    0.429    0.000    2.857 
#    2.571    0.714    0.000    1.714    0.000    0.000 
#    0.000    0.000    0.000    0.000    0.000    0.000 
#
# Total GULP energy -78078.000811 kJ/mol
# GULP energy per Si atom -5577.000058 kJ/mol
# Density = 2.154974 g / cm^3
# Si number density = 21.598902 Si / 1000 Ang^3
#
#
#
# Elastic Constant Matrix: (Units=GPa)
#
#
# Indices 1 2 3 4 5 6 
#
# 1 17.2537 3.5402 11.1582 -3.7404 1.8205 -3.0068
# 2 3.5402 162.0608 72.8668 -12.2798 -5.5442 -12.2645
# 3 11.1582 72.8668 166.2488 -14.1788 7.4611 -8.4036
# 4 -3.7404 -12.2798 -14.1788 46.2094 1.7222 -0.0562
# 5 1.8205 -5.5442 7.4611 1.7222 20.6771 -1.7936
# 6 -3.0068 -12.2645 -8.4036 -0.0562 -1.7936 19.2863
#
#
#
# Elastic Compliance Matrix: (Units=1/GPa)
#
#
# Indices 1 2 3 4 5 6 
#
# 1 0.062982 0.001191 -0.003783 0.004394 -0.003479 0.008618
# 2 0.001191 0.008276 -0.003567 0.001069 0.003680 0.004240
# 3 -0.003783 -0.003567 0.008131 0.001377 -0.003642 0.000350
# 4 0.004394 0.001069 0.001377 0.022792 -0.002338 0.001814
# 5 -0.003479 0.003680 -0.003642 -0.002338 0.051599 0.005003
# 6 0.008618 0.004240 0.000350 0.001814 0.005003 0.056513
#
#
# Mechanical properties :
#
#
# Convention : Reuss Voigt Hill
#
# Bulk Modulus (GPa) = 14.90942 57.85487 36.38214
# Shear Modulus (GPa) = 20.41086 34.43443 27.42265
#
# Velocity S-wave (km/s) = 3.07741 3.99716 3.56705
# Velocity P-wave (km/s) = 4.42099 6.93882 5.81775
#
# Compressibility (1/GPa) = 0.06707168
#
# Stress axis : x y z
#
# Youngs Moduli (GPa) = 15.87755 120.82985 122.98671
#
# Poissons Ratio (x) = -0.14391 0.46523
# Poissons Ratio (y) = -0.01891 0.43869
# Poissons Ratio (z) = 0.06006 0.43100
#
# Static dielectric constant tensor:
#      x y z
#    x 1.862090 -0.011700 -0.040140 
#    y -0.011700 1.833760 -0.035110 
#    z -0.040140 -0.035110 1.822420 
# 
# From -- ./inp_files/536944.got.cif
#   From: 2010.05.17/outbox.cif.g08.bks.cpg/sg2_269_cif.got.tgz:536944.got - 2010.06.03 11:33:40.
