data_PCOD9105690
_publ_section_title
;
Structure prediction by ZEFSAII (Michael W. Deem and Ramdas Pophale) SiO2 
 PCOD9105690
Probable space group: P -1
;
_chemical_formula_sum "Si O2"
_cell_formula_units_Z 14
_cell_length_a 13.308401
_cell_length_b 8.804999
_cell_length_c 16.276647
_cell_angle_alpha 88.577127
_cell_angle_beta 23.229417
_cell_angle_gamma 76.716897
_cell_volume 640.128277
_symmetry_space_group_name_H-M "P -1"
_symmetry_group_IT_number 2
_symmetry_cell_setting 'triclinic'
loop_
_space_group_symop_operation_xyz
x,y,z
-x,-y,-z
loop_
_atom_site_type_symbol
_atom_site_label
_atom_site_fract_x
_atom_site_fract_y
_atom_site_fract_z
Si Si1 0.291777 0.370848 0.489222
Si Si2 0.568581 0.813496 0.184116
Si Si3 0.232635 0.537194 0.870908
Si Si4 0.178217 0.143224 0.706294
Si Si5 0.160301 0.979122 0.968347
Si Si6 0.085910 0.986932 0.339254
Si Si7 0.270887 0.256048 0.127581
O O1 0.501048 0.442554 0.368572
O O2 0.199365 0.268211 0.622699
O O3 0.522070 0.206837 0.261211
O O4 0.996032 0.538683 0.671414
O O5 0.607222 0.627688 0.183959
O O6 0.786318 0.859389 0.066899
O O7 0.655838 0.800294 0.022910
O O8 0.229963 0.964207 0.461688
O O9 0.000000 0.500000 0.000000
O O10 0.024702 0.718064 0.073283
O O11 0.500000 0.000000 0.500000
O O12 0.025825 0.026114 0.814190
O O13 0.000000 0.000000 0.000000
O O14 0.159236 0.137914 0.257671
O O15 0.396821 0.803632 0.088396
O O16 0.000000 0.000000 0.500000
#
# Coordination Sequence:
#
# PCOD9105690 Si02
#       7
#     2   2   2   2   2   2   2
#     4  11  22  40  58  85 122 166 199 250 307 359
#     4  11  21  39  62  94 123 159 207 257 302 358
#     4  11  24  36  58  88 122 158 210 255 293 358
#     4  11  23  39  55  79 121 170 203 238 298 356
#     4  11  24  40  57  86 132 169 201 245 303 357
#     4   9  20  38  67  94 122 149 198 267 317 360
#     4  10  20  39  65  95 117 156 209 253 313 366
#
# _framework density 21.870614
#
# number of rings (size 3 to 8) (size 9 to 14) (size 15 to 20)
#    0.000    1.429    4.286    1.714    0.000    2.857 
#    0.000    0.714    0.000    8.571    0.000    0.000 
#    0.000    0.000    0.000    0.000    0.000    0.000 
#
# Total GULP energy -77998.928328 kJ/mol
# GULP energy per Si atom -5571.352023 kJ/mol
# Density = 2.182084 g / cm^3
# Si number density = 21.870614 Si / 1000 Ang^3
#
#
#
# Elastic Constant Matrix: (Units=GPa)
#
#
# Indices 1 2 3 4 5 6 
#
# 1 15.8492 13.3359 5.1531 -10.3295 -0.0504 -10.3806
# 2 13.3359 145.1131 61.1858 -15.3725 -8.4276 -28.1580
# 3 5.1531 61.1858 137.5007 -0.1503 -11.2751 -21.0978
# 4 -10.3295 -15.3725 -0.1503 60.5384 -10.9294 -0.4586
# 5 -0.0504 -8.4276 -11.2751 -10.9294 20.6200 -3.4950
# 6 -10.3806 -28.1580 -21.0978 -0.4586 -3.4950 32.5987
#
#
#
# Elastic Compliance Matrix: (Units=1/GPa)
#
#
# Indices 1 2 3 4 5 6 
#
# 1 0.099210 -0.000362 0.003530 0.020547 0.018999 0.035890
# 2 -0.000362 0.010378 -0.002950 0.003684 0.005873 0.007622
# 3 0.003530 -0.002950 0.009753 0.000922 0.005557 0.005497
# 4 0.020547 0.003684 0.000922 0.024118 0.016959 0.012480
# 5 0.018999 0.005873 0.005557 0.016959 0.066719 0.022111
# 6 0.035890 0.007622 0.005497 0.012480 0.022111 0.054792
#
#
# Mechanical properties :
#
#
# Convention : Reuss Voigt Hill
#
# Bulk Modulus (GPa) = 8.34872 50.86807 29.60840
# Shear Modulus (GPa) = 16.42257 37.33729 26.87993
#
# Velocity S-wave (km/s) = 2.74322 4.13630 3.50957
# Velocity P-wave (km/s) = 3.72281 6.79125 5.47633
#
# Compressibility (1/GPa) = 0.11977878
#
# Stress axis : x y z
#
# Youngs Moduli (GPa) = 10.07967 96.35360 102.53190
#
# Poissons Ratio (x) = 0.03485 -0.36195
# Poissons Ratio (y) = 0.00365 0.30243
# Poissons Ratio (z) = -0.03558 0.28421
#
# Static dielectric constant tensor:
#      x y z
#    x 1.832190 0.018800 -0.072900 
#    y 0.018800 1.859650 -0.060580 
#    z -0.072900 -0.060580 1.875500 
# 
# From -- ./inp_files/31427.got.cif
#   From: 2010.05.17/outbox.cif.g08.bks.cpg/sg2_16_cif.got.tgz:31427.got - 2010.06.03 11:33:40.
