data_PCOD9105969
_publ_section_title
;
Structure prediction by ZEFSAII (Michael W. Deem and Ramdas Pophale) SiO2 
 PCOD9105969
Probable space group: P -1
;
_chemical_formula_sum "Si O2"
_cell_formula_units_Z 13
_cell_length_a 6.991339
_cell_length_b 7.199957
_cell_length_c 9.935751
_cell_angle_alpha 94.865172
_cell_angle_beta 65.216001
_cell_angle_gamma 87.000040
_cell_volume 450.297398
_symmetry_space_group_name_H-M "P -1"
_symmetry_group_IT_number 2
_symmetry_cell_setting 'triclinic'
loop_
_space_group_symop_operation_xyz
x,y,z
-x,-y,-z
loop_
_atom_site_type_symbol
_atom_site_label
_atom_site_fract_x
_atom_site_fract_y
_atom_site_fract_z
Si Si1 0.766585 0.871271 0.549641
Si Si2 0.000000 0.500000 0.500000
Si Si3 0.109767 0.178813 0.928741
Si Si4 0.116797 0.538884 0.799900
Si Si5 0.568445 0.464755 0.762613
Si Si6 0.563884 0.094806 0.850990
Si Si7 0.343328 0.761050 0.544474
O O1 0.544734 0.784038 0.578858
O O2 0.959623 0.714779 0.469757
O O3 0.742686 0.975884 0.706763
O O4 0.767389 0.037035 0.448572
O O5 0.214487 0.449249 0.328121
O O6 0.065352 0.327304 0.829137
O O7 0.348068 0.096913 0.830416
O O8 0.068320 0.319982 0.076016
O O9 0.000000 0.000000 0.000000
O O10 0.330131 0.567909 0.829589
O O11 0.186890 0.610249 0.636414
O O12 0.592510 0.314886 0.867259
O O13 0.561355 0.335209 0.622984
O O14 0.500000 0.000000 0.000000
#
# Coordination Sequence:
#
# PCOD9105969 Si02
#       7
#     2   1   2   2   2   2   2
#     4  10  23  40  70 100 132 177 228 278 344 415
#     4  12  24  40  64 106 142 174 220 280 354 414
#     4  10  22  39  67  97 128 181 234 274 341 412
#     4  10  20  39  66  96 135 169 226 296 332 395
#     4  10  23  41  65  97 138 173 224 282 341 403
#     4  10  23  46  65  93 139 180 215 281 346 414
#     4  10  20  42  69  95 133 175 226 287 338 395
#
# _framework density 28.869810000000001
#
# number of rings (size 3 to 8) (size 9 to 14) (size 15 to 20)
#    0.000    1.846    1.538    1.385    0.000    6.154 
#    2.769    0.769    0.000    0.000    0.000    0.000 
#    0.000    0.000    0.000    0.000    0.000    0.000 
#
# Total GULP energy -72605.311147 kJ/mol
# GULP energy per Si atom -5585.023934 kJ/mol
# Density = 2.880410 g / cm^3
# Si number density = 28.869810 Si / 1000 Ang^3
#
#
#
# Elastic Constant Matrix: (Units=GPa)
#
#
# Indices 1 2 3 4 5 6 
#
# 1 96.7618 28.5767 21.8443 -3.6637 -32.8467 2.1175
# 2 28.5767 200.9500 48.6025 -19.1829 -3.3704 -20.4515
# 3 21.8443 48.6025 130.3204 -36.0571 -7.3121 -8.3481
# 4 -3.6637 -19.1829 -36.0571 82.8219 3.9015 -21.0575
# 5 -32.8467 -3.3704 -7.3121 3.9015 52.0891 -11.5251
# 6 2.1175 -20.4515 -8.3481 -21.0575 -11.5251 52.9243
#
#
#
# Elastic Compliance Matrix: (Units=1/GPa)
#
#
# Indices 1 2 3 4 5 6 
#
# 1 0.014023 -0.001541 -0.001483 -0.000740 0.008633 0.000195
# 2 -0.001541 0.005930 -0.001428 0.001359 -0.000315 0.002600
# 3 -0.001483 -0.001428 0.009999 0.004715 0.000712 0.003116
# 4 -0.000740 0.001359 0.004715 0.016406 0.000826 0.008006
# 5 0.008633 -0.000315 0.000712 0.000826 0.025902 0.005614
# 6 0.000195 0.002600 0.003116 0.008006 0.005614 0.024791
#
#
# Mechanical properties :
#
#
# Convention : Reuss Voigt Hill
#
# Bulk Modulus (GPa) = 47.51476 69.56436 58.53956
# Shear Modulus (GPa) = 44.25850 59.50098 51.87974
#
# Velocity S-wave (km/s) = 3.91965 4.54476 4.24373
# Velocity P-wave (km/s) = 6.08103 7.18944 6.65834
#
# Compressibility (1/GPa) = 0.02104609
#
# Stress axis : x y z
#
# Youngs Moduli (GPa) = 71.31049 168.63067 100.01122
#
# Poissons Ratio (x) = 0.25992 0.14836
# Poissons Ratio (y) = 0.10992 0.14284
# Poissons Ratio (z) = 0.10579 0.24084
#
# Static dielectric constant tensor:
#      x y z
#    x 2.108740 -0.047780 -0.070670 
#    y -0.047780 2.236140 -0.146900 
#    z -0.070670 -0.146900 2.085990 
# 
# From -- ./inp_files/378537.got.cif
#   From: 2010.05.17/outbox.cif.g08.bks.cpg/sg2_190_cif.got.tgz:378537.got - 2010.06.03 11:33:40.
