data_PCOD9105476
_publ_section_title
;
Structure prediction by ZEFSAII (Michael W. Deem and Ramdas Pophale) SiO2 
 PCOD9105476
Probable space group: P -1
;
_chemical_formula_sum "Si O2"
_cell_formula_units_Z 16
_cell_length_a 15.213208
_cell_length_b 10.818740
_cell_length_c 9.574107
_cell_angle_alpha 82.512434
_cell_angle_beta 72.541178
_cell_angle_gamma 28.934599
_cell_volume 696.757591
_symmetry_space_group_name_H-M "P -1"
_symmetry_group_IT_number 2
_symmetry_cell_setting 'triclinic'
loop_
_space_group_symop_operation_xyz
x,y,z
-x,-y,-z
loop_
_atom_site_type_symbol
_atom_site_label
_atom_site_fract_x
_atom_site_fract_y
_atom_site_fract_z
Si Si1 0.172613 0.707325 0.388433
Si Si2 0.902476 0.344387 0.304014
Si Si3 0.948015 0.028074 0.177874
Si Si4 0.362210 0.114429 0.672340
Si Si5 0.706478 0.040394 0.695992
Si Si6 0.465441 0.557925 0.672341
Si Si7 0.938953 0.681107 0.388437
Si Si8 0.374116 0.149790 0.177876
O O1 0.171729 0.590728 0.510493
O O2 0.383250 0.520657 0.333099
O O3 0.000000 0.000000 0.500000
O O4 0.109420 0.781398 0.245863
O O5 0.885118 0.234981 0.248694
O O6 0.774615 0.605599 0.259356
O O7 0.126605 0.123388 0.246801
O O8 0.765352 0.151763 0.238398
O O9 0.000000 0.000000 0.000000
O O10 0.216344 0.187568 0.666901
O O11 0.500000 0.000000 0.500000
O O12 0.503739 0.913386 0.761602
O O13 0.817768 0.919777 0.510498
O O14 0.633807 0.986299 0.751314
O O15 0.533955 0.346268 0.740649
O O16 0.500000 0.500000 0.500000
O O17 0.000000 0.500000 0.500000
O O18 0.144721 0.464460 0.245869
O O19 0.500000 0.000000 0.000000
#
# Coordination Sequence:
#
# PCOD9105476 Si02
#       8
#     2   2   2   2   2   2   2   2
#     4  10  20  39  64  97 125 160 216 272 305 380
#     4  11  20  40  68  91 127 171 211 262 324 370
#     4  11  24  41  63  92 134 172 210 262 321 381
#     4  12  21  39  70  94 122 168 216 261 318 379
#     4  11  20  40  68  91 127 171 211 262 324 370
#     4  12  21  39  70  94 122 168 216 261 318 379
#     4  10  20  39  64  97 125 160 216 272 305 380
#     4  11  24  41  63  92 134 172 210 262 321 381
#
# _framework density 22.963509999999999
#
# number of rings (size 3 to 8) (size 9 to 14) (size 15 to 20)
#    0.000    1.000   10.000    0.750    0.000    1.000 
#    0.000    7.500    0.000    0.000    0.000    0.000 
#    0.000    0.000    0.000    0.000    0.000    0.000 
#
# Total GULP energy -89450.291315 kJ/mol
# GULP energy per Si atom -5590.643207 kJ/mol
# Density = 2.291124 g / cm^3
# Si number density = 22.963510 Si / 1000 Ang^3
#
#
#
# Elastic Constant Matrix: (Units=GPa)
#
#
# Indices 1 2 3 4 5 6 
#
# 1 114.7462 49.2677 16.6174 -2.0805 2.8401 -42.5039
# 2 49.2677 85.2608 25.7335 -2.6808 1.7762 -49.1934
# 3 16.6174 25.7335 134.5371 -0.6078 -2.1115 -36.6710
# 4 -2.0805 -2.6808 -0.6078 15.9551 -4.5427 2.3414
# 5 2.8401 1.7762 -2.1115 -4.5427 25.9169 -0.7897
# 6 -42.5039 -49.1934 -36.6710 2.3414 -0.7897 65.5244
#
#
#
# Elastic Compliance Matrix: (Units=1/GPa)
#
#
# Indices 1 2 3 4 5 6 
#
# 1 0.012431 -0.004419 0.000693 -0.000093 -0.000863 0.005126
# 2 -0.004419 0.022311 0.000058 0.001013 -0.000440 0.013875
# 3 0.000693 0.000058 0.008834 -0.000141 0.000781 0.005451
# 4 -0.000093 0.001013 -0.000141 0.066342 0.011509 -0.001610
# 5 -0.000863 -0.000440 0.000781 0.011509 0.040779 -0.000372
# 6 0.005126 0.013875 0.005451 -0.001610 -0.000372 0.032107
#
#
# Mechanical properties :
#
#
# Convention : Reuss Voigt Hill
#
# Bulk Modulus (GPa) = 27.59446 57.53126 42.56286
# Shear Modulus (GPa) = 24.72553 37.67432 31.19992
#
# Velocity S-wave (km/s) = 3.28492 4.05485 3.69002
# Velocity P-wave (km/s) = 5.14104 6.85785 6.06055
#
# Compressibility (1/GPa) = 0.03623916
#
# Stress axis : x y z
#
# Youngs Moduli (GPa) = 80.44691 44.82014 113.20257
#
# Poissons Ratio (x) = 0.19808 -0.07848
# Poissons Ratio (y) = 0.35552 -0.00654
# Poissons Ratio (z) = -0.05577 -0.00259
#
# Static dielectric constant tensor:
#      x y z
#    x 1.517530 1.023600 -0.032830 
#    y 1.023600 -0.412060 0.085800 
#    z -0.032830 0.085800 1.840230 
# 
# From -- ./inp_files/307516.got.cif
#   From: 2010.05.17/outbox.cif.g08.bks.cpg/sg2_154_cif.got.tgz:307516.got - 2010.06.03 11:33:40.
