data_PCOD9105258
_publ_section_title
;
Structure prediction by ZEFSAII (Michael W. Deem and Ramdas Pophale) SiO2 
 PCOD9105258
Probable space group: P -1
;
_chemical_formula_sum "Si O2"
_cell_formula_units_Z 16
_cell_length_a 9.556277
_cell_length_b 11.012878
_cell_length_c 22.504846
_cell_angle_alpha 35.538549
_cell_angle_beta 142.985687
_cell_angle_gamma 150.188012
_cell_volume 648.448055
_symmetry_space_group_name_H-M "P -1"
_symmetry_group_IT_number 2
_symmetry_cell_setting 'triclinic'
loop_
_space_group_symop_operation_xyz
x,y,z
-x,-y,-z
loop_
_atom_site_type_symbol
_atom_site_label
_atom_site_fract_x
_atom_site_fract_y
_atom_site_fract_z
Si Si1 0.815853 0.566184 0.639302
Si Si2 0.114563 0.212394 0.304986
Si Si3 0.904456 0.655155 0.139136
Si Si4 0.913754 0.113122 0.015760
Si Si5 0.233600 0.580603 0.097688
Si Si6 0.420108 0.322202 0.195038
Si Si7 0.844022 0.644747 0.484215
Si Si8 0.376886 0.724009 0.597638
O O1 0.978458 0.730495 0.688523
O O2 0.946838 0.702168 0.565905
O O3 0.505119 0.516249 0.561080
O O4 0.811930 0.311695 0.750092
O O5 0.060939 0.329871 0.184310
O O6 0.471486 0.370916 0.352942
O O7 0.957743 0.902414 0.381066
O O8 0.640186 0.392404 0.188420
O O9 0.910432 0.665953 0.065791
O O10 0.849907 0.861472 0.060882
O O11 0.108976 0.164216 0.118998
O O12 0.683875 0.161905 0.941420
O O13 0.476162 0.576647 0.147086
O O14 0.000000 0.500000 0.000000
O O15 0.467591 0.198495 0.315732
O O16 0.022657 0.544762 0.558510
O O17 0.500000 0.000000 0.500000
#
# Coordination Sequence:
#
# PCOD9105258 Si02
#       8
#     2   2   2   2   2   2   2   2
#     4  11  22  39  60  90 123 155 196 243 296 361
#     4  10  20  39  64  87 118 157 196 247 298 349
#     4  11  22  39  60  90 123 155 196 243 296 361
#     4  10  22  40  60  88 121 154 198 245 297 354
#     4   9  19  39  62  88 117 153 201 244 294 352
#     4  10  20  39  64  87 118 157 196 247 298 349
#     4  10  22  40  60  88 121 154 198 245 297 354
#     4   9  19  39  62  88 117 153 201 244 294 352
#
# _framework density 24.674299999999999
#
# number of rings (size 3 to 8) (size 9 to 14) (size 15 to 20)
#    0.000    2.000    2.500    0.750    0.000    2.000 
#   18.000   10.000    0.000    0.000    0.000    0.000 
#    0.000    0.000    0.000    0.000    0.000    0.000 
#
# Total GULP energy -89083.299675 kJ/mol
# GULP energy per Si atom -5567.706230 kJ/mol
# Density = 2.461814 g / cm^3
# Si number density = 24.674300 Si / 1000 Ang^3
#
#
#
# Elastic Constant Matrix: (Units=GPa)
#
#
# Indices 1 2 3 4 5 6 
#
# 1 147.8891 17.2116 26.3280 -0.7451 -2.1409 1.1961
# 2 17.2116 20.2622 10.6642 -0.9520 0.6348 -0.0556
# 3 26.3280 10.6642 145.5756 -7.0898 -22.4302 2.2599
# 4 -0.7451 -0.9520 -7.0898 13.9844 2.0062 4.9917
# 5 -2.1409 0.6348 -22.4302 2.0062 30.8621 -0.5252
# 6 1.1961 -0.0556 2.2599 4.9917 -0.5252 24.7216
#
#
#
# Elastic Compliance Matrix: (Units=1/GPa)
#
#
# Indices 1 2 3 4 5 6 
#
# 1 0.007630 -0.005994 -0.000961 -0.000410 -0.000023 -0.000213
# 2 -0.005994 0.056597 -0.003627 0.002248 -0.004359 0.000203
# 3 -0.000961 -0.003627 0.008408 0.003599 0.005862 -0.001332
# 4 -0.000410 0.002248 0.003599 0.079763 -0.002924 -0.016472
# 5 -0.000023 -0.004359 0.005862 -0.002924 0.036955 0.000831
# 6 -0.000213 0.000203 -0.001332 -0.016472 0.000831 0.043926
#
#
# Mechanical properties :
#
#
# Convention : Reuss Voigt Hill
#
# Bulk Modulus (GPa) = 19.42906 46.90383 33.16644
# Shear Modulus (GPa) = 18.40940 31.21519 24.81229
#
# Velocity S-wave (km/s) = 2.73444 3.56067 3.17455
# Velocity P-wave (km/s) = 4.22621 5.99624 5.18728
#
# Compressibility (1/GPa) = 0.05146929
#
# Stress axis : x y z
#
# Youngs Moduli (GPa) = 131.06395 17.66891 118.93458
#
# Poissons Ratio (x) = 0.10592 0.11429
# Poissons Ratio (y) = 0.78566 0.43140
# Poissons Ratio (z) = 0.12594 0.06409
#
# Static dielectric constant tensor:
#      x y z
#    x 2.013490 -0.005720 0.082620 
#    y -0.005720 2.067310 0.000720 
#    z 0.082620 0.000720 2.075790 
# 
# From -- ./inp_files/588977.got.cif
#   From: 2010.05.17/outbox.cif.g08.bks.cpg/sg2_295_cif.got.tgz:588977.got - 2010.06.03 11:33:40.
