data_PCOD9105627
_publ_section_title
;
Structure prediction by ZEFSAII (Michael W. Deem and Ramdas Pophale) SiO2 
 PCOD9105627
Probable space group: P -1
;
_chemical_formula_sum "Si O2"
_cell_formula_units_Z 14
_cell_length_a 6.355010
_cell_length_b 5.791678
_cell_length_c 18.548720
_cell_angle_alpha 74.819249
_cell_angle_beta 124.406092
_cell_angle_gamma 105.699876
_cell_volume 537.128994
_symmetry_space_group_name_H-M "P -1"
_symmetry_group_IT_number 2
_symmetry_cell_setting 'triclinic'
loop_
_space_group_symop_operation_xyz
x,y,z
-x,-y,-z
loop_
_atom_site_type_symbol
_atom_site_label
_atom_site_fract_x
_atom_site_fract_y
_atom_site_fract_z
Si Si1 0.349090 0.553650 0.393532
Si Si2 0.225232 0.008575 0.409144
Si Si3 0.234367 0.144141 0.814001
Si Si4 0.116814 0.450973 0.878346
Si Si5 0.738771 0.775682 0.805152
Si Si6 0.316176 0.067583 0.667782
Si Si7 0.384489 0.156178 0.056558
O O1 0.500000 0.500000 0.500000
O O2 0.232459 0.288162 0.362468
O O3 0.538703 0.693796 0.360394
O O4 0.192525 0.768526 0.371502
O O5 0.500000 0.000000 0.500000
O O6 0.974308 0.979767 0.413258
O O7 0.169828 0.395956 0.809932
O O8 0.284959 0.102296 0.744209
O O9 0.504048 0.095591 0.907151
O O10 0.983041 0.962602 0.807693
O O11 0.351014 0.661665 0.924745
O O12 0.837259 0.521815 0.830841
O O13 0.167204 0.225076 0.955759
O O14 0.699281 0.802301 0.881006
O O15 0.487200 0.851890 0.711840
#
# Coordination Sequence:
#
# PCOD9105627 Si02
#       7
#     2   2   2   2   2   2   2
#     4  10  24  48  77 109 143 184 242 298 364 440
#     4  10  24  48  76 110 144 183 243 298 362 444
#     4  10  22  41  59  97 138 177 237 286 360 431
#     4  10  20  39  65  92 130 182 236 290 345 431
#     4  10  22  41  58  95 138 176 236 288 360 427
#     4  11  24  47  66 107 146 190 230 305 369 428
#     4   9  20  38  63  93 130 179 234 294 351 408
#
# _framework density 26.064502999999998
#
# number of rings (size 3 to 8) (size 9 to 14) (size 15 to 20)
#    0.000    2.000    0.000    1.714    0.000    8.571 
#   33.429    0.000    0.000    0.000    0.000    0.000 
#    0.000    0.000    0.000    0.000    0.000    0.000 
#
# Total GULP energy -78250.014207 kJ/mol
# GULP energy per Si atom -5589.286729 kJ/mol
# Density = 2.600518 g / cm^3
# Si number density = 26.064503 Si / 1000 Ang^3
#
#
#
# Elastic Constant Matrix: (Units=GPa)
#
#
# Indices 1 2 3 4 5 6 
#
# 1 164.9099 64.2404 62.3196 -25.9008 18.0866 -27.4300
# 2 64.2404 124.5717 38.8728 -18.5489 19.7795 -23.7689
# 3 62.3196 38.8728 116.3244 -17.5794 14.6979 -22.0876
# 4 -25.9008 -18.5489 -17.5794 37.6096 -8.4773 1.4471
# 5 18.0866 19.7795 14.6979 -8.4773 55.7073 -8.6088
# 6 -27.4300 -23.7689 -22.0876 1.4471 -8.6088 53.8803
#
#
#
# Elastic Compliance Matrix: (Units=1/GPa)
#
#
# Indices 1 2 3 4 5 6 
#
# 1 0.009241 -0.002867 -0.003052 0.003366 -0.000349 0.002042
# 2 -0.002867 0.010991 -0.001034 0.002429 -0.001929 0.002592
# 3 -0.003052 -0.001034 0.011545 0.002480 -0.000923 0.002509
# 4 0.003366 0.002429 0.002480 0.031753 0.002746 0.003388
# 5 -0.000349 -0.001929 -0.000923 0.002746 0.019667 0.001662
# 6 0.002042 0.002592 0.002509 0.003388 0.001662 0.021946
#
#
# Mechanical properties :
#
#
# Convention : Reuss Voigt Hill
#
# Bulk Modulus (GPa) = 55.95672 81.85241 68.90456
# Shear Modulus (GPa) = 39.99837 45.46433 42.73135
#
# Velocity S-wave (km/s) = 3.92164 4.18101 4.05340
# Velocity P-wave (km/s) = 6.48235 7.40134 6.95703
#
# Compressibility (1/GPa) = 0.01787096
#
# Stress axis : x y z
#
# Youngs Moduli (GPa) = 108.21749 90.98416 86.61679
#
# Poissons Ratio (x) = 0.26081 0.26435
# Poissons Ratio (y) = 0.31021 0.08959
# Poissons Ratio (z) = 0.33028 0.09411
#
# Static dielectric constant tensor:
#      x y z
#    x 1.996210 0.009560 0.046850 
#    y 0.009560 2.152750 0.034240 
#    z 0.046850 0.034240 2.368310 
# 
# From -- ./inp_files/10287.got.cif
#   From: 2010.05.17/outbox.cif.g08.bks.cpg/sg2_6_cif.got.tgz:10287.got - 2010.06.03 11:33:40.
