data_PCOD9105379
_publ_section_title
;
Structure prediction by ZEFSAII (Michael W. Deem and Ramdas Pophale) SiO2 
 PCOD9105379
Probable space group: P -1
;
_chemical_formula_sum "Si O2"
_cell_formula_units_Z 12
_cell_length_a 9.082954
_cell_length_b 15.465434
_cell_length_c 8.915225
_cell_angle_alpha 129.687552
_cell_angle_beta 48.470210
_cell_angle_gamma 142.977573
_cell_volume 547.670709
_symmetry_space_group_name_H-M "P -1"
_symmetry_group_IT_number 2
_symmetry_cell_setting 'triclinic'
loop_
_space_group_symop_operation_xyz
x,y,z
-x,-y,-z
loop_
_atom_site_type_symbol
_atom_site_label
_atom_site_fract_x
_atom_site_fract_y
_atom_site_fract_z
Si Si1 0.889682 0.032348 0.976141
Si Si2 0.407342 0.346948 0.957099
Si Si3 0.075558 0.152912 0.481333
Si Si4 0.493062 0.051039 0.226057
Si Si5 0.413850 0.669568 0.470593
Si Si6 0.296356 0.402830 0.398257
O O1 0.108830 0.203928 0.973913
O O2 0.849582 0.931164 0.754860
O O3 0.643191 0.010871 0.171642
O O4 0.000000 0.000000 0.000000
O O5 0.564591 0.321707 0.714926
O O6 0.500000 0.500000 0.000000
O O7 0.422511 0.367202 0.148281
O O8 0.301076 0.252946 0.564113
O O9 0.075334 0.253091 0.469684
O O10 0.794939 0.038198 0.616743
O O11 0.641485 0.225276 0.322454
O O12 0.500000 0.000000 0.000000
O O13 0.241622 0.501819 0.463425
O O14 0.500000 0.500000 0.500000
#
# Coordination Sequence:
#
# PCOD9105379 Si02
#       6
#     2   2   2   2   2   2
#     4  12  24  41  65  95 133 166 214 269 319 378
#     4  10  20  39  64  92 127 168 208 263 321 372
#     4  11  21  42  67  94 131 169 211 265 319 378
#     4  12  24  39  67  98 127 171 218 259 321 380
#     4  10  20  40  67  95 129 168 214 264 315 380
#     4   9  20  38  67  91 128 173 207 259 328 378
#
# _framework density 21.910976000000002
#
# number of rings (size 3 to 8) (size 9 to 14) (size 15 to 20)
#    0.000    1.333    5.000    1.500    0.000    0.667 
#    0.000    5.833    0.000    0.000    0.000    0.000 
#    0.000    0.000    0.000    0.000    0.000    0.000 
#
# Total GULP energy -66938.439133 kJ/mol
# GULP energy per Si atom -5578.203261 kJ/mol
# Density = 2.186111 g / cm^3
# Si number density = 21.910976 Si / 1000 Ang^3
#
#
#
# Elastic Constant Matrix: (Units=GPa)
#
#
# Indices 1 2 3 4 5 6 
#
# 1 62.6143 7.4987 27.6454 -5.0840 -5.3735 -18.4079
# 2 7.4987 108.3518 24.9773 5.1465 -3.8319 -24.6427
# 3 27.6454 24.9773 134.1097 18.3913 14.2825 -18.7843
# 4 -5.0840 5.1465 18.3913 33.4361 -1.9257 7.2988
# 5 -5.3735 -3.8319 14.2825 -1.9257 48.7525 2.1871
# 6 -18.4079 -24.6427 -18.7843 7.2988 2.1871 26.4102
#
#
#
# Elastic Compliance Matrix: (Units=1/GPa)
#
#
# Indices 1 2 3 4 5 6 
#
# 1 0.021876 0.002584 -0.003584 0.001954 0.003099 0.014313
# 2 0.002584 0.012685 -0.000267 -0.004585 0.000521 0.014671
# 3 -0.003584 -0.000267 0.010947 -0.008461 -0.004304 0.007734
# 4 0.001954 -0.004585 -0.008461 0.040314 0.004845 -0.020477
# 5 0.003099 0.000521 -0.004304 0.004845 0.022509 -0.003618
# 6 0.014313 0.014671 0.007734 -0.020477 -0.003618 0.072990
#
#
# Mechanical properties :
#
#
# Convention : Reuss Voigt Hill
#
# Bulk Modulus (GPa) = 23.26942 47.25763 35.26352
# Shear Modulus (GPa) = 25.22972 38.05006 31.63989
#
# Velocity S-wave (km/s) = 3.39701 4.17174 3.80415
# Velocity P-wave (km/s) = 5.10189 6.69473 5.95183
#
# Compressibility (1/GPa) = 0.04297485
#
# Stress axis : x y z
#
# Youngs Moduli (GPa) = 45.71147 78.83421 91.34813
#
# Poissons Ratio (x) = -0.20373 0.32741
# Poissons Ratio (y) = -0.11813 0.02438
# Poissons Ratio (z) = 0.16384 0.02104
#
# Static dielectric constant tensor:
#      x y z
#    x 1.883590 -0.011360 0.021200 
#    y -0.011360 1.849630 0.020560 
#    z 0.021200 0.020560 1.820330 
# 
# From -- ./inp_files/28535.got.cif
#   From: 2010.05.17/outbox.cif.g08.bks.cpg/sg2_15_cif.got.tgz:28535.got - 2010.06.03 11:33:40.
