data_PCOD9105225
_publ_section_title
;
Structure prediction by ZEFSAII (Michael W. Deem and Ramdas Pophale) SiO2 
 PCOD9105225
Probable space group: P -1
;
_chemical_formula_sum "Si O2"
_cell_formula_units_Z 16
_cell_length_a 8.212194
_cell_length_b 11.706488
_cell_length_c 9.510263
_cell_angle_alpha 94.330971
_cell_angle_beta 90.531261
_cell_angle_gamma 47.900342
_cell_volume 675.381227
_symmetry_space_group_name_H-M "P -1"
_symmetry_group_IT_number 2
_symmetry_cell_setting 'triclinic'
loop_
_space_group_symop_operation_xyz
x,y,z
-x,-y,-z
loop_
_atom_site_type_symbol
_atom_site_label
_atom_site_fract_x
_atom_site_fract_y
_atom_site_fract_z
Si Si1 0.536611 0.876112 0.333739
Si Si2 0.331808 0.352281 0.223654
Si Si3 0.658447 0.071658 0.382071
Si Si4 0.248032 0.965135 0.099744
Si Si5 0.020519 0.133933 0.853758
Si Si6 0.999365 0.297833 0.254594
Si Si7 0.721415 0.466817 0.007372
Si Si8 0.983895 0.383621 0.561493
O O1 0.376772 0.892406 0.449143
O O2 0.472246 0.868568 0.177616
O O3 0.786063 0.737438 0.367782
O O4 0.513177 0.024543 0.355055
O O5 0.553202 0.219658 0.298589
O O6 0.329810 0.394304 0.067108
O O7 0.216109 0.509678 0.323991
O O8 0.181248 0.310265 0.229138
O O9 0.896053 0.925939 0.309200
O O10 0.148914 0.885676 0.107186
O O11 0.085524 0.133853 0.189295
O O12 0.235217 0.011095 0.942801
O O13 0.913729 0.303826 0.913918
O O14 0.954713 0.314462 0.422240
O O15 0.798827 0.433632 0.166586
O O16 0.500000 0.500000 0.000000
O O17 0.000000 0.500000 0.500000
#
# Coordination Sequence:
#
# PCOD9105225 Si02
#       8
#     2   2   2   2   2   2   2   2
#     4  11  20  40  68  93 126 164 215 261 314 375
#     4  11  22  42  66  98 128 164 213 265 320 375
#     4  11  22  39  66  96 127 164 213 265 312 377
#     4  10  22  41  67  92 126 171 217 262 307 378
#     4  10  25  44  60  94 132 171 211 261 316 374
#     4  10  20  43  66  97 125 167 210 270 318 365
#     4  11  26  44  66  92 130 173 212 258 319 385
#     4  10  20  39  63  98 131 159 203 268 320 371
#
# _framework density 23.690322999999999
#
# number of rings (size 3 to 8) (size 9 to 14) (size 15 to 20)
#    0.000    1.500    3.750    1.875    5.250    3.000 
#    2.250    0.625    0.000    0.000    0.000    0.000 
#    0.000    0.000    0.000    0.000    0.000    0.000 
#
# Total GULP energy -89417.767584 kJ/mol
# GULP energy per Si atom -5588.610474 kJ/mol
# Density = 2.363640 g / cm^3
# Si number density = 23.690323 Si / 1000 Ang^3
#
#
#
# Elastic Constant Matrix: (Units=GPa)
#
#
# Indices 1 2 3 4 5 6 
#
# 1 23.3650 2.6597 14.7277 -14.6358 6.8693 -6.2854
# 2 2.6597 88.6565 49.8194 -24.3748 0.3243 -6.0722
# 3 14.7277 49.8194 93.2498 -5.9191 -2.5019 -5.4081
# 4 -14.6358 -24.3748 -5.9191 50.5512 -4.8396 0.9625
# 5 6.8693 0.3243 -2.5019 -4.8396 23.0455 5.6161
# 6 -6.2854 -6.0722 -5.4081 0.9625 5.6161 27.8557
#
#
#
# Elastic Compliance Matrix: (Units=1/GPa)
#
#
# Indices 1 2 3 4 5 6 
#
# 1 0.087143 0.019164 -0.021525 0.028758 -0.028491 0.024412
# 2 0.019164 0.023168 -0.014239 0.014300 -0.006385 0.007403
# 3 -0.021525 -0.014239 0.021028 -0.009760 0.008111 -0.005176
# 4 0.028758 0.014300 -0.009760 0.033270 -0.004675 0.007504
# 5 -0.028491 -0.006385 0.008111 -0.004675 0.056113 -0.017398
# 6 0.024412 0.007403 -0.005176 0.007504 -0.017398 0.045265
#
#
# Mechanical properties :
#
#
# Convention : Reuss Voigt Hill
#
# Bulk Modulus (GPa) = 10.18947 37.74277 23.96612
# Shear Modulus (GPa) = 15.06478 29.49477 22.27978
#
# Velocity S-wave (km/s) = 2.52445 3.53230 3.07002
# Velocity P-wave (km/s) = 3.57877 5.70986 4.76498
#
# Compressibility (1/GPa) = 0.09814049
#
# Stress axis : x y z
#
# Youngs Moduli (GPa) = 11.47538 43.16335 47.55453
#
# Poissons Ratio (x) = -0.82719 1.02362
# Poissons Ratio (y) = -0.21992 0.67711
# Poissons Ratio (z) = 0.24701 0.61459
#
# Static dielectric constant tensor:
#      x y z
#    x 1.858380 -0.007930 -0.006460 
#    y -0.007930 1.950460 0.004860 
#    z -0.006460 0.004860 1.985600 
# 
# From -- ./inp_files/187611.got.cif
#   From: 2010.05.17/outbox.cif.g08.bks.cpg/sg2_94_cif.got.tgz:187611.got - 2010.06.03 11:33:40.
