data_PCOD9105817
_publ_section_title
;
Structure prediction by ZEFSAII (Michael W. Deem and Ramdas Pophale) SiO2 
 PCOD9105817
Probable space group: P -1
;
_chemical_formula_sum "Si O2"
_cell_formula_units_Z 14
_cell_length_a 10.967807
_cell_length_b 9.937779
_cell_length_c 14.563203
_cell_angle_alpha 25.343786
_cell_angle_beta 64.850705
_cell_angle_gamma 76.945852
_cell_volume 561.440269
_symmetry_space_group_name_H-M "P -1"
_symmetry_group_IT_number 2
_symmetry_cell_setting 'triclinic'
loop_
_space_group_symop_operation_xyz
x,y,z
-x,-y,-z
loop_
_atom_site_type_symbol
_atom_site_label
_atom_site_fract_x
_atom_site_fract_y
_atom_site_fract_z
Si Si1 0.313189 0.015313 0.534174
Si Si2 0.472285 0.927193 0.357002
Si Si3 0.806708 0.256694 0.080458
Si Si4 0.249187 0.959267 0.263627
Si Si5 0.860519 0.587295 0.503574
Si Si6 0.535762 0.665703 0.180258
Si Si7 0.075343 0.260554 0.417142
O O1 0.241350 0.709793 0.820431
O O2 0.405886 0.357985 0.355451
O O3 0.172010 0.038144 0.517028
O O4 0.579471 0.005052 0.566790
O O5 0.646383 0.127929 0.162318
O O6 0.375369 0.034173 0.252302
O O7 0.443216 0.524599 0.618539
O O8 0.874301 0.973249 0.248419
O O9 0.911523 0.550348 0.799594
O O10 0.235190 0.610257 0.430749
O O11 0.093512 0.912433 0.386367
O O12 0.316025 0.218691 0.998097
O O13 0.836283 0.492454 0.677957
O O14 0.000000 0.500000 0.500000
O O15 0.500000 0.000000 0.000000
#
# Coordination Sequence:
#
# PCOD9105817 Si02
#       7
#     2   2   2   2   2   2   2
#     4  10  23  44  65  89 126 171 212 253 309 379
#     4  11  25  41  63  94 127 167 211 256 313 374
#     4  10  20  39  66  89 120 169 215 254 312 377
#     4  11  24  38  60  95 129 161 207 263 315 368
#     4   9  21  39  58  89 129 166 205 253 314 376
#     4  11  23  42  67  93 125 163 210 265 311 365
#     4  10  22  40  63  90 123 167 211 257 316 375
#
# _framework density 24.935866999999998
#
# number of rings (size 3 to 8) (size 9 to 14) (size 15 to 20)
#    0.000    1.714    0.000    5.143    0.000   14.286 
#    0.000    1.429    0.000    0.000    0.000    0.000 
#    0.000    0.000    0.000    0.000    0.000    0.000 
#
# Total GULP energy -78091.871398 kJ/mol
# GULP energy per Si atom -5577.990814 kJ/mol
# Density = 2.487911 g / cm^3
# Si number density = 24.935867 Si / 1000 Ang^3
#
#
#
# Elastic Constant Matrix: (Units=GPa)
#
#
# Indices 1 2 3 4 5 6 
#
# 1 125.2951 20.6539 33.1607 5.2741 -9.3598 -26.3598
# 2 20.6539 99.2569 13.9430 6.1943 -5.1967 -4.9310
# 3 33.1607 13.9430 116.3451 27.6440 -23.8849 -10.5285
# 4 5.2741 6.1943 27.6440 29.4860 -6.8937 0.1248
# 5 -9.3598 -5.1967 -23.8849 -6.8937 26.7184 12.3653
# 6 -26.3598 -4.9310 -10.5285 0.1248 12.3653 43.5022
#
#
#
# Elastic Compliance Matrix: (Units=1/GPa)
#
#
# Indices 1 2 3 4 5 6 
#
# 1 0.009982 -0.001548 -0.002619 0.000589 -0.001632 0.005702
# 2 -0.001548 0.010574 -0.000303 -0.001450 0.000899 -0.000064
# 3 -0.002619 -0.000303 0.013519 -0.010056 0.008909 -0.000853
# 4 0.000589 -0.001450 -0.010056 0.044502 0.004045 -0.003519
# 5 -0.001632 0.000899 0.008909 0.004045 0.052342 -0.013620
# 6 0.005702 -0.000064 -0.000853 -0.003519 -0.013620 0.030110
#
#
# Mechanical properties :
#
#
# Convention : Reuss Voigt Hill
#
# Bulk Modulus (GPa) = 39.78321 52.93470 46.35896
# Shear Modulus (GPa) = 28.03526 38.15062 33.09294
#
# Velocity S-wave (km/s) = 3.35669 3.91570 3.64692
# Velocity P-wave (km/s) = 5.56884 6.45895 6.03034
#
# Compressibility (1/GPa) = 0.02513623
#
# Stress axis : x y z
#
# Youngs Moduli (GPa) = 100.17823 94.57228 73.97063
#
# Poissons Ratio (x) = 0.14642 0.19370
# Poissons Ratio (y) = 0.15510 0.02238
# Poissons Ratio (z) = 0.26233 0.02861
#
# Static dielectric constant tensor:
#      x y z
#    x 2.027540 0.033020 -0.069430 
#    y 0.033020 2.057560 -0.066040 
#    z -0.069430 -0.066040 2.031620 
# 
# From -- ./inp_files/569283.got.cif
#   From: 2010.05.17/outbox.cif.g08.bks.cpg/sg2_285_cif.got.tgz:569283.got - 2010.06.03 11:33:40.
