data_PCOD9105351
_publ_section_title
;
Structure prediction by ZEFSAII (Michael W. Deem and Ramdas Pophale) SiO2 
 PCOD9105351
Probable space group: P -1
;
_chemical_formula_sum "Si O2"
_cell_formula_units_Z 16
_cell_length_a 10.660532
_cell_length_b 15.949094
_cell_length_c 10.082318
_cell_angle_alpha 41.972097
_cell_angle_beta 78.264678
_cell_angle_gamma 109.153438
_cell_volume 764.733236
_symmetry_space_group_name_H-M "P -1"
_symmetry_group_IT_number 2
_symmetry_cell_setting 'triclinic'
loop_
_space_group_symop_operation_xyz
x,y,z
-x,-y,-z
loop_
_atom_site_type_symbol
_atom_site_label
_atom_site_fract_x
_atom_site_fract_y
_atom_site_fract_z
Si Si1 0.878531 0.523941 0.936633
Si Si2 0.054854 0.896925 0.363173
Si Si3 0.614604 0.425075 0.328699
Si Si4 0.257439 0.333201 0.531346
Si Si5 0.906873 0.797291 0.985391
Si Si6 0.840167 0.205781 0.919163
Si Si7 0.586668 0.924558 0.083364
Si Si8 0.796717 0.440285 0.745034
O O1 0.696808 0.417470 0.190800
O O2 0.835758 0.459736 0.869565
O O3 0.000000 0.500000 0.000000
O O4 0.987190 0.734410 0.660086
O O5 0.913969 0.796908 0.383256
O O6 0.959808 0.975388 0.722806
O O7 0.264346 0.012084 0.133160
O O8 0.419878 0.356031 0.427509
O O9 0.761051 0.628782 0.116625
O O10 0.576260 0.292843 0.604532
O O11 0.187357 0.252212 0.789591
O O12 0.331994 0.530206 0.284377
O O13 0.070993 0.813570 0.959893
O O14 0.739528 0.262311 0.917499
O O15 0.012735 0.379467 0.585293
O O16 0.708381 0.022757 0.076445
O O17 0.500000 0.000000 0.000000
#
# Coordination Sequence:
#
# PCOD9105351 Si02
#       8
#     2   2   2   2   2   2   2   2
#     4  11  23  43  60  89 132 166 202 252 312 374
#     4  11  22  42  65  86 123 173 202 251 317 365
#     4  12  26  36  62  98 127 161 203 263 312 354
#     4  10  20  39  64  91 125 155 209 262 305 359
#     4  11  21  38  65  92 127 158 209 260 304 366
#     4  10  20  39  66  94 117 164 213 249 309 366
#     4  12  24  37  61  95 122 158 210 260 302 365
#     4   9  20  36  67  86 118 166 208 246 301 370
#
# _framework density 20.922328
#
# number of rings (size 3 to 8) (size 9 to 14) (size 15 to 20)
#    0.000    1.250    5.000    3.000    5.250    2.500 
#    0.000    0.625    0.000    1.500    0.000    0.000 
#    0.000    0.000    0.000    0.000    0.000    0.000 
#
# Total GULP energy -89390.874886 kJ/mol
# GULP energy per Si atom -5586.929680 kJ/mol
# Density = 2.087471 g / cm^3
# Si number density = 20.922328 Si / 1000 Ang^3
#
#
#
# Elastic Constant Matrix: (Units=GPa)
#
#
# Indices 1 2 3 4 5 6 
#
# 1 128.6501 4.1406 21.9125 7.9043 10.3102 -23.4386
# 2 4.1406 36.6227 -1.5200 -13.3351 5.9757 -10.2717
# 3 21.9125 -1.5200 46.3175 9.8735 10.5526 -9.8056
# 4 7.9043 -13.3351 9.8735 21.4812 -3.6025 6.2854
# 5 10.3102 5.9757 10.5526 -3.6025 19.1048 2.3810
# 6 -23.4386 -10.2717 -9.8056 6.2854 2.3810 30.1224
#
#
#
# Elastic Compliance Matrix: (Units=1/GPa)
#
#
# Indices 1 2 3 4 5 6 
#
# 1 0.011182 0.000319 0.001986 -0.010269 -0.010719 0.012446
# 2 0.000319 0.038960 0.002612 0.017439 -0.011970 0.011691
# 3 0.001986 0.002612 0.039543 -0.029752 -0.032341 0.024073
# 4 -0.010269 0.017439 -0.029752 0.091054 0.037893 -0.033723
# 5 -0.010719 -0.011970 -0.032341 0.037893 0.091628 -0.038099
# 6 0.012446 0.011691 0.024073 -0.033723 -0.038099 0.064754
#
#
# Mechanical properties :
#
#
# Convention : Reuss Voigt Hill
#
# Bulk Modulus (GPa) = 10.04824 28.96182 19.50503
# Shear Modulus (GPa) = 13.87119 26.61215 20.24167
#
# Velocity S-wave (km/s) = 2.57764 3.57031 3.11379
# Velocity P-wave (km/s) = 3.69757 5.55596 4.71915
#
# Compressibility (1/GPa) = 0.09951990
#
# Stress axis : x y z
#
# Youngs Moduli (GPa) = 89.43017 25.66731 25.28897
#
# Poissons Ratio (x) = -0.00819 -0.05023
# Poissons Ratio (y) = -0.02852 -0.06606
# Poissons Ratio (z) = -0.17764 -0.06705
#
# Static dielectric constant tensor:
#      x y z
#    x 1.769320 -0.015870 0.011880 
#    y -0.015870 1.747350 -0.005210 
#    z 0.011880 -0.005210 1.749760 
# 
# From -- ./inp_files/279036.got.cif
#   From: 2010.05.17/outbox.cif.g08.bks.cpg/sg2_140_cif.got.tgz:279036.got - 2010.06.03 11:33:40.
