data_PCOD9105937
_publ_section_title
;
Structure prediction by ZEFSAII (Michael W. Deem and Ramdas Pophale) SiO2 
 PCOD9105937
Probable space group: P -1
;
_chemical_formula_sum "Si O2"
_cell_formula_units_Z 14
_cell_length_a 21.174452
_cell_length_b 8.667241
_cell_length_c 5.521766
_cell_angle_alpha 119.816710
_cell_angle_beta 50.968222
_cell_angle_gamma 129.385513
_cell_volume 600.315272
_symmetry_space_group_name_H-M "P -1"
_symmetry_group_IT_number 2
_symmetry_cell_setting 'triclinic'
loop_
_space_group_symop_operation_xyz
x,y,z
-x,-y,-z
loop_
_atom_site_type_symbol
_atom_site_label
_atom_site_fract_x
_atom_site_fract_y
_atom_site_fract_z
Si Si1 0.783882 0.458828 0.505538
Si Si2 0.105603 0.754933 0.711956
Si Si3 0.916799 0.553591 0.870491
Si Si4 0.560607 0.965563 0.032277
Si Si5 0.623668 0.307793 0.468477
Si Si6 0.088760 0.130822 0.216127
Si Si7 0.440894 0.418078 0.331652
O O1 0.825359 0.314120 0.384093
O O2 0.675848 0.351418 0.631837
O O3 0.829170 0.674003 0.696474
O O4 0.820144 0.506361 0.179893
O O5 0.096513 0.650336 0.386875
O O6 0.995849 0.628113 0.940946
O O7 0.124516 0.982276 0.896174
O O8 0.944998 0.752641 0.797556
O O9 0.484307 0.828173 0.308551
O O10 0.637452 0.164956 0.131718
O O11 0.601253 0.821904 0.734281
O O12 0.500000 0.000000 0.000000
O O13 0.633175 0.503509 0.460864
O O14 0.000000 0.000000 0.500000
O O15 0.500000 0.500000 0.500000
O O16 0.500000 0.500000 0.000000
#
# Coordination Sequence:
#
# PCOD9105937 Si02
#       7
#     2   2   2   2   2   2   2
#     4  11  24  40  60  92 128 157 206 267 311 360
#     4  10  22  38  61  88 120 162 212 251 311 372
#     4  10  22  38  62  87 118 168 207 257 310 369
#     4  10  20  39  69  87 118 166 207 246 318 389
#     4  10  23  40  61  94 125 156 208 262 314 380
#     4  11  23  38  63  87 117 163 215 254 306 376
#     4  10  20  39  66  95 123 167 211 260 319 392
#
# _framework density 23.321079000000001
#
# number of rings (size 3 to 8) (size 9 to 14) (size 15 to 20)
#    0.000    1.714    2.857    0.857    4.000    3.429 
#    0.000    1.429    0.000    0.000    0.000    0.000 
#    0.000    0.000    0.000    0.000    0.000    0.000 
#
# Total GULP energy -77951.982880 kJ/mol
# GULP energy per Si atom -5567.998777 kJ/mol
# Density = 2.326800 g / cm^3
# Si number density = 23.321079 Si / 1000 Ang^3
#
#
#
# Elastic Constant Matrix: (Units=GPa)
#
#
# Indices 1 2 3 4 5 6 
#
# 1 145.5207 67.3802 24.4169 50.4618 9.1571 -6.4925
# 2 67.3802 112.1787 58.9856 65.8552 -4.3826 -17.8849
# 3 24.4169 58.9856 74.5000 50.9094 0.3330 -15.4751
# 4 50.4618 65.8552 50.9094 72.2599 -7.2950 -3.3014
# 5 9.1571 -4.3826 0.3330 -7.2950 28.5782 3.5336
# 6 -6.4925 -17.8849 -15.4751 -3.3014 3.5336 42.2229
#
#
#
# Elastic Compliance Matrix: (Units=1/GPa)
#
#
# Indices 1 2 3 4 5 6 
#
# 1 0.011874 -0.005694 0.006938 -0.008631 -0.007195 0.001884
# 2 -0.005694 0.024984 -0.008143 -0.012615 0.001840 0.005582
# 3 0.006938 -0.008143 0.035395 -0.023024 -0.010962 0.009707
# 4 -0.008631 -0.012615 -0.023024 0.048529 0.015042 -0.012574
# 5 -0.007195 0.001840 -0.010962 0.015042 0.042377 -0.006715
# 6 0.001884 0.005582 0.009707 -0.012574 -0.006715 0.029475
#
#
# Mechanical properties :
#
#
# Convention : Reuss Voigt Hill
#
# Bulk Modulus (GPa) = 17.10688 70.41831 43.76259
# Shear Modulus (GPa) = 22.13201 40.70665 31.41933
#
# Velocity S-wave (km/s) = 3.08395 4.18244 3.67447
# Velocity P-wave (km/s) = 4.47574 7.32013 6.06699
#
# Compressibility (1/GPa) = 0.05845602
#
# Stress axis : x y z
#
# Youngs Moduli (GPa) = 84.21662 40.02539 28.25260
#
# Poissons Ratio (x) = 0.22791 -0.19603
# Poissons Ratio (y) = 0.47954 0.23006
# Poissons Ratio (z) = -0.58433 0.32592
#
# Static dielectric constant tensor:
#      x y z
#    x 1.984120 0.046610 -0.079450 
#    y 0.046610 2.006050 0.157240 
#    z -0.079450 0.157240 2.394050 
# 
# From -- ./inp_files/116577.got.cif
#   From: 2010.05.17/outbox.cif.g08.bks.cpg/sg2_59_cif.got.tgz:116577.got - 2010.06.03 11:33:40.
