data_PCOD9105962
_publ_section_title
;
Structure prediction by ZEFSAII (Michael W. Deem and Ramdas Pophale) SiO2 
 PCOD9105962
Probable space group: P -1
;
_chemical_formula_sum "Si O2"
_cell_formula_units_Z 16
_cell_length_a 9.413045
_cell_length_b 10.853784
_cell_length_c 11.574094
_cell_angle_alpha 79.278160
_cell_angle_beta 63.071464
_cell_angle_gamma 41.675036
_cell_volume 677.488190
_symmetry_space_group_name_H-M "P -1"
_symmetry_group_IT_number 2
_symmetry_cell_setting 'triclinic'
loop_
_space_group_symop_operation_xyz
x,y,z
-x,-y,-z
loop_
_atom_site_type_symbol
_atom_site_label
_atom_site_fract_x
_atom_site_fract_y
_atom_site_fract_z
Si Si1 0.758504 0.718101 0.534396
Si Si2 0.668292 0.012204 0.208602
Si Si3 0.397106 0.364462 0.571123
Si Si4 0.099480 0.993306 0.669707
Si Si5 0.623074 0.030027 0.810139
Si Si6 0.049810 0.143087 0.085579
Si Si7 0.771835 0.548100 0.115494
Si Si8 0.030036 0.780699 0.517408
O O1 0.576629 0.779160 0.689784
O O2 0.667619 0.733488 0.440691
O O3 0.832683 0.813291 0.515368
O O4 0.000000 0.500000 0.500000
O O5 0.826768 0.936944 0.280064
O O6 0.563489 0.945758 0.199612
O O7 0.809802 0.987723 0.055236
O O8 0.681372 0.196160 0.459066
O O9 0.297553 0.423419 0.727254
O O10 0.248945 0.563559 0.523516
O O11 0.037786 0.919831 0.794459
O O12 0.906838 0.159651 0.617235
O O13 0.469228 0.238712 0.877980
O O14 0.850511 0.928575 0.660724
O O15 0.236344 0.110240 0.106466
O O16 0.843734 0.364662 0.085058
O O17 0.000000 0.500000 0.000000
#
# Coordination Sequence:
#
# PCOD9105962 Si02
#       8
#     2   2   2   2   2   2   2   2
#     4   8  18  33  64  94 120 161 213 270 316 365
#     4  10  22  42  68  96 130 169 221 273 321 384
#     4  10  21  41  61  98 132 169 219 273 323 386
#     4  11  25  42  68  95 134 178 215 267 328 394
#     4  11  23  42  68  96 126 172 223 271 323 381
#     4  12  26  44  64  98 138 176 214 265 332 397
#     4  12  25  40  67  98 131 172 218 275 327 386
#     4  10  20  39  66  96 129 170 219 269 325 381
#
# _framework density 23.616648999999999
#
# number of rings (size 3 to 8) (size 9 to 14) (size 15 to 20)
#    0.000    1.500    3.750    0.750    1.750    3.500 
#    0.000    2.500    0.000    9.000    0.000    0.000 
#    0.000    0.000    0.000    0.000    0.000    0.000 
#
# Total GULP energy -89129.585722 kJ/mol
# GULP energy per Si atom -5570.599108 kJ/mol
# Density = 2.356290 g / cm^3
# Si number density = 23.616649 Si / 1000 Ang^3
#
#
#
# Elastic Constant Matrix: (Units=GPa)
#
#
# Indices 1 2 3 4 5 6 
#
# 1 59.6226 2.2921 15.1918 -1.5289 11.5459 7.2751
# 2 2.2921 87.7351 32.9715 -10.4580 4.5021 -9.7087
# 3 15.1918 32.9715 175.6749 7.8979 11.0077 -6.0543
# 4 -1.5289 -10.4580 7.8979 36.2288 1.1525 -0.0041
# 5 11.5459 4.5021 11.0077 1.1525 28.2410 0.8783
# 6 7.2751 -9.7087 -6.0543 -0.0041 0.8783 23.9649
#
#
#
# Elastic Compliance Matrix: (Units=1/GPa)
#
#
# Indices 1 2 3 4 5 6 
#
# 1 0.019306 -0.000089 -0.001470 0.001337 -0.007174 -0.006005
# 2 -0.000089 0.013479 -0.002460 0.004471 -0.001489 0.004921
# 3 -0.001470 -0.002460 0.006511 -0.002144 -0.001493 0.001149
# 4 0.001337 0.004471 -0.002144 0.029470 -0.001655 0.000930
# 5 -0.007174 -0.001489 -0.001493 -0.001655 0.039237 -0.000241
# 6 -0.006005 0.004921 0.001149 0.000930 -0.000241 0.045844
#
#
# Mechanical properties :
#
#
# Convention : Reuss Voigt Hill
#
# Bulk Modulus (GPa) = 31.99279 47.10485 39.54882
# Shear Modulus (GPa) = 29.01850 35.85875 32.43863
#
# Velocity S-wave (km/s) = 3.50913 3.90085 3.71016
# Velocity P-wave (km/s) = 5.47675 6.34648 5.92758
#
# Compressibility (1/GPa) = 0.03125705
#
# Stress axis : x y z
#
# Youngs Moduli (GPa) = 51.79611 74.19049 153.59222
#
# Poissons Ratio (x) = 0.00659 0.22585
# Poissons Ratio (y) = 0.00460 0.37787
# Poissons Ratio (z) = 0.07617 0.18252
#
# Static dielectric constant tensor:
#      x y z
#    x 2.120130 0.007410 -0.059660 
#    y 0.007410 1.858200 -0.024400 
#    z -0.059660 -0.024400 1.882580 
# 
# From -- ./inp_files/454612.got.cif
#   From: 2010.05.17/outbox.cif.g08.bks.cpg/sg2_228_cif.got.tgz:454612.got - 2010.06.03 11:33:40.
