data_PCOD9105905
_publ_section_title
;
Structure prediction by ZEFSAII (Michael W. Deem and Ramdas Pophale) SiO2 
 PCOD9105905
Probable space group: P -1
;
_chemical_formula_sum "Si O2"
_cell_formula_units_Z 14
_cell_length_a 9.440645
_cell_length_b 14.841207
_cell_length_c 5.698212
_cell_angle_alpha 59.023635
_cell_angle_beta 60.376902
_cell_angle_gamma 70.788575
_cell_volume 592.053337
_symmetry_space_group_name_H-M "P -1"
_symmetry_group_IT_number 2
_symmetry_cell_setting 'triclinic'
loop_
_space_group_symop_operation_xyz
x,y,z
-x,-y,-z
loop_
_atom_site_type_symbol
_atom_site_label
_atom_site_fract_x
_atom_site_fract_y
_atom_site_fract_z
Si Si1 0.405789 0.242551 0.204095
Si Si2 0.344359 0.703566 0.697912
Si Si3 0.680671 0.613133 0.294759
Si Si4 0.865486 0.424828 0.632108
Si Si5 0.878015 0.096004 0.376613
Si Si6 0.105346 0.247669 0.743228
Si Si7 0.579283 0.968076 0.727681
O O1 0.570006 0.249776 0.204263
O O2 0.266082 0.203663 0.534437
O O3 0.415182 0.158679 0.101453
O O4 0.339345 0.356308 0.001790
O O5 0.500455 0.648889 0.502471
O O6 0.230675 0.802802 0.545407
O O7 0.231642 0.618441 0.009866
O O8 0.741962 0.492596 0.469401
O O9 0.816008 0.682562 0.210771
O O10 0.000000 0.500000 0.500000
O O11 0.980037 0.323126 0.583858
O O12 0.741093 0.026017 0.491799
O O13 0.000000 0.000000 0.500000
O O14 0.997459 0.158871 0.037093
O O15 0.500000 0.000000 0.500000
O O16 0.500000 0.000000 0.000000
#
# Coordination Sequence:
#
# PCOD9105905 Si02
#       7
#     2   2   2   2   2   2   2
#     4  11  23  40  65  93 135 180 228 294 345 433
#     4  10  21  41  63  96 133 173 232 289 347 429
#     4  10  20  39  66  93 130 179 227 275 359 422
#     4   9  19  39  66  94 131 174 219 292 353 420
#     4  11  23  42  68  96 135 186 235 294 357 418
#     4   9  22  42  61  98 135 170 231 286 354 415
#     4  12  27  48  73 103 141 193 244 297 358 428
#
# _framework density 23.646515999999998
#
# number of rings (size 3 to 8) (size 9 to 14) (size 15 to 20)
#    0.000    1.714    1.429    2.143    4.000    1.714 
#    2.571    8.571    0.000    0.000    0.000    0.000 
#    0.000    0.000    0.000    0.000    0.000    0.000 
#
# Total GULP energy -78069.536948 kJ/mol
# GULP energy per Si atom -5576.395496 kJ/mol
# Density = 2.359270 g / cm^3
# Si number density = 23.646516 Si / 1000 Ang^3
#
#
#
# Elastic Constant Matrix: (Units=GPa)
#
#
# Indices 1 2 3 4 5 6 
#
# 1 127.6756 49.2900 62.8138 -5.7217 -22.3428 -22.4876
# 2 49.2900 82.5772 38.0335 -30.1738 4.2887 -22.5876
# 3 62.8138 38.0335 97.6006 -19.3478 -30.6286 -8.0462
# 4 -5.7217 -30.1738 -19.3478 37.7609 -6.3998 13.5038
# 5 -22.3428 4.2887 -30.6286 -6.3998 53.7141 -14.7279
# 6 -22.4876 -22.5876 -8.0462 13.5038 -14.7279 40.2238
#
#
#
# Elastic Compliance Matrix: (Units=1/GPa)
#
#
# Indices 1 2 3 4 5 6 
#
# 1 0.016161 -0.007890 -0.007265 -0.009707 0.004236 0.007961
# 2 -0.007890 0.024463 -0.002534 0.015610 -0.004267 0.002017
# 3 -0.007265 -0.002534 0.020866 0.009568 0.009980 -0.000868
# 4 -0.009707 0.015610 0.009568 0.046175 0.003182 -0.009084
# 5 0.004236 -0.004267 0.009980 0.003182 0.030054 0.011904
# 6 0.007961 0.002017 -0.000868 -0.009084 0.011904 0.037679
#
#
# Mechanical properties :
#
#
# Convention : Reuss Voigt Hill
#
# Bulk Modulus (GPa) = 38.29471 67.56976 52.93224
# Shear Modulus (GPa) = 22.78120 36.85415 29.81768
#
# Velocity S-wave (km/s) = 3.10725 3.95212 3.55487
# Velocity P-wave (km/s) = 5.39473 7.03297 6.26761
#
# Compressibility (1/GPa) = 0.02611327
#
# Stress axis : x y z
#
# Youngs Moduli (GPa) = 61.87782 40.87759 47.92510
#
# Poissons Ratio (x) = 0.32251 0.34818
# Poissons Ratio (y) = 0.48819 0.12143
# Poissons Ratio (z) = 0.44955 0.10357
#
# Static dielectric constant tensor:
#      x y z
#    x 2.116520 0.123210 0.260360 
#    y 0.123210 2.096410 0.078300 
#    z 0.260360 0.078300 2.065820 
# 
# From -- ./inp_files/46129.got.cif
#   From: 2010.05.17/outbox.cif.g08.bks.cpg/sg2_24_cif.got.tgz:46129.got - 2010.06.03 11:33:40.
