data_PCOD9105824
_publ_section_title
;
Structure prediction by ZEFSAII (Michael W. Deem and Ramdas Pophale) SiO2 
 PCOD9105824
Probable space group: P -1
;
_chemical_formula_sum "Si O2"
_cell_formula_units_Z 15
_cell_length_a 11.341236
_cell_length_b 13.345609
_cell_length_c 10.832264
_cell_angle_alpha 83.594494
_cell_angle_beta 95.825204
_cell_angle_gamma 158.626459
_cell_volume 593.776382
_symmetry_space_group_name_H-M "P -1"
_symmetry_group_IT_number 2
_symmetry_cell_setting 'triclinic'
loop_
_space_group_symop_operation_xyz
x,y,z
-x,-y,-z
loop_
_atom_site_type_symbol
_atom_site_label
_atom_site_fract_x
_atom_site_fract_y
_atom_site_fract_z
Si Si1 0.620748 0.514878 0.644706
Si Si2 0.163675 0.865578 0.200406
Si Si3 0.141986 0.983155 0.969606
Si Si4 0.932813 0.466644 0.202722
Si Si5 0.666517 0.438753 0.408733
Si Si6 0.155738 0.440709 0.122211
Si Si7 0.000000 0.500000 0.500000
Si Si8 0.082772 0.061881 0.260475
O O1 0.609669 0.470349 0.509966
O O2 0.742422 0.517011 0.737262
O O3 0.859932 0.795388 0.663485
O O4 0.265186 0.256753 0.695975
O O5 0.054916 0.674345 0.151636
O O6 0.998410 0.728560 0.334471
O O7 0.546488 0.163765 0.203014
O O8 0.047246 0.871212 0.111047
O O9 0.103951 0.846955 0.910508
O O10 0.931638 0.898136 0.882970
O O11 0.515887 0.310138 0.956607
O O12 0.039959 0.531042 0.347029
O O13 0.046910 0.468318 0.125199
O O14 0.723349 0.371161 0.473259
O O15 0.381915 0.228372 0.307321
#
# Coordination Sequence:
#
# PCOD9105824 Si02
#       8
#     2   2   2   2   2   2   1   2
#     4  10  21  41  65  99 123 165 213 274 313 380
#     4  11  26  39  61  92 131 171 215 251 324 380
#     4  10  22  41  61  95 125 164 219 268 304 380
#     4  11  23  42  60  95 125 177 208 259 320 381
#     4  11  23  43  65  95 132 171 207 266 320 394
#     4  10  20  39  66  89 127 167 215 265 317 359
#     4  10  24  42  64  94 138 164 206 256 322 396
#     4  10  23  40  70  94 125 166 218 264 325 362
#
# _framework density 25.262035999999998
#
# number of rings (size 3 to 8) (size 9 to 14) (size 15 to 20)
#    0.000    1.600    1.333    2.400    0.000   10.133 
#    2.400    0.000    0.000    8.800    0.000    0.000 
#    0.000    0.000    0.000    0.000    0.000    0.000 
#
# Total GULP energy -83773.705702 kJ/mol
# GULP energy per Si atom -5584.913713 kJ/mol
# Density = 2.520454 g / cm^3
# Si number density = 25.262036 Si / 1000 Ang^3
#
#
#
# Elastic Constant Matrix: (Units=GPa)
#
#
# Indices 1 2 3 4 5 6 
#
# 1 132.9080 21.9812 14.8637 6.8623 23.4011 12.2345
# 2 21.9812 65.4440 20.1395 10.1173 18.5509 -2.0507
# 3 14.8637 20.1395 132.7332 20.2274 25.5349 12.6184
# 4 6.8623 10.1173 20.2274 27.5557 8.1115 3.4169
# 5 23.4011 18.5509 25.5349 8.1115 50.4056 4.3604
# 6 12.2345 -2.0507 12.6184 3.4169 4.3604 35.7276
#
#
#
# Elastic Compliance Matrix: (Units=1/GPa)
#
#
# Indices 1 2 3 4 5 6 
#
# 1 0.008664 -0.002159 0.000259 -0.000307 -0.003069 -0.002778
# 2 -0.002159 0.018520 -0.001309 -0.004310 -0.004738 0.003255
# 3 0.000259 -0.001309 0.009377 -0.005166 -0.003334 -0.002575
# 4 -0.000307 -0.004310 -0.005166 0.042693 -0.002342 -0.002115
# 5 -0.003069 -0.004738 -0.003334 -0.002342 0.025151 -0.000889
# 6 -0.002778 0.003255 -0.002575 -0.002115 -0.000889 0.030348
#
#
# Mechanical properties :
#
#
# Convention : Reuss Voigt Hill
#
# Bulk Modulus (GPa) = 33.17741 49.45044 41.31392
# Shear Modulus (GPa) = 33.06455 41.01117 37.03786
#
# Velocity S-wave (km/s) = 3.62175 4.03355 3.83318
# Velocity P-wave (km/s) = 5.53635 6.42730 5.99839
#
# Compressibility (1/GPa) = 0.03014099
#
# Stress axis : x y z
#
# Youngs Moduli (GPa) = 115.41801 53.99615 106.64251
#
# Poissons Ratio (x) = 0.11660 -0.02759
# Poissons Ratio (y) = 0.24923 0.13963
# Poissons Ratio (z) = -0.02986 0.07070
#
# Static dielectric constant tensor:
#      x y z
#    x 2.021770 -0.044880 -0.026870 
#    y -0.044880 1.886190 0.025150 
#    z -0.026870 0.025150 2.024400 
# 
# From -- ./inp_files/99076.got.cif
#   From: 2010.05.17/outbox.cif.g08.bks.cpg/sg2_50_cif.got.tgz:99076.got - 2010.06.03 11:33:40.
