data_PCOD9105424
_publ_section_title
;
Structure prediction by ZEFSAII (Michael W. Deem and Ramdas Pophale) SiO2 
 PCOD9105424
Probable space group: P -1
;
_chemical_formula_sum "Si O2"
_cell_formula_units_Z 16
_cell_length_a 5.401191
_cell_length_b 11.318124
_cell_length_c 23.036463
_cell_angle_alpha 31.122407
_cell_angle_beta 103.739920
_cell_angle_gamma 101.115710
_cell_volume 706.894785
_symmetry_space_group_name_H-M "P -1"
_symmetry_group_IT_number 2
_symmetry_cell_setting 'triclinic'
loop_
_space_group_symop_operation_xyz
x,y,z
-x,-y,-z
loop_
_atom_site_type_symbol
_atom_site_label
_atom_site_fract_x
_atom_site_fract_y
_atom_site_fract_z
Si Si1 0.506249 0.122575 0.785665
Si Si2 0.519801 0.484193 0.199775
Si Si3 0.133930 0.133906 0.658213
Si Si4 0.024957 0.731391 0.117446
Si Si5 0.181029 0.532190 0.419328
Si Si6 0.863958 0.710754 0.822174
Si Si7 0.808896 0.556231 0.289957
Si Si8 0.270313 0.330905 0.039807
O O1 0.300698 0.047428 0.757806
O O2 0.642170 0.326758 0.672895
O O3 0.364857 0.229009 0.788546
O O4 0.661531 0.888736 0.903188
O O5 0.761550 0.613842 0.133033
O O6 0.395275 0.323821 0.212841
O O7 0.637378 0.400672 0.303678
O O8 0.277955 0.644166 0.136390
O O9 0.280481 0.301430 0.552529
O O10 0.918190 0.295520 0.608543
O O11 0.017585 0.912354 0.716104
O O12 0.024148 0.650950 0.218691
O O13 0.000000 0.000000 0.000000
O O14 0.940268 0.462711 0.394627
O O15 0.807352 0.778635 0.856806
O O16 0.039426 0.483332 0.936631
O O17 0.500000 0.500000 0.000000
#
# Coordination Sequence:
#
# PCOD9105424 Si02
#       8
#     2   2   2   2   2   2   2   2
#     4  11  20  39  65  96 129 172 218 283 329 398
#     4  10  24  41  65  89 136 173 218 272 322 401
#     4  10  21  38  64  96 125 174 217 278 333 386
#     4  10  22  43  62  97 125 177 230 268 326 380
#     4  10  20  39  64  94 132 161 228 278 329 387
#     4  11  24  43  59  93 131 176 219 263 337 409
#     4   9  23  38  64  94 131 172 219 276 333 382
#     4  11  24  39  60  90 132 172 216 262 335 403
#
# _framework density 22.634204
#
# number of rings (size 3 to 8) (size 9 to 14) (size 15 to 20)
#    0.750    1.000    2.500    1.500    1.750    3.000 
#    0.000    0.625    0.000    1.500    0.000    0.000 
#    0.000    0.000    0.000    0.000    0.000    0.000 
#
# Total GULP energy -89278.564083 kJ/mol
# GULP energy per Si atom -5579.910255 kJ/mol
# Density = 2.258269 g / cm^3
# Si number density = 22.634204 Si / 1000 Ang^3
#
#
#
# Elastic Constant Matrix: (Units=GPa)
#
#
# Indices 1 2 3 4 5 6 
#
# 1 58.2423 9.1650 -5.3375 2.3923 -1.4573 16.2739
# 2 9.1650 84.3321 20.4913 19.2813 4.5182 28.6173
# 3 -5.3375 20.4913 65.1074 -3.1332 -4.3895 11.7360
# 4 2.3923 19.2813 -3.1332 20.0599 6.0228 -3.9573
# 5 -1.4573 4.5182 -4.3895 6.0228 23.2120 -3.8276
# 6 16.2739 28.6173 11.7360 -3.9573 -3.8276 50.2483
#
#
#
# Elastic Compliance Matrix: (Units=1/GPa)
#
#
# Indices 1 2 3 4 5 6 
#
# 1 0.019665 0.000848 0.002611 -0.004731 0.001518 -0.007718
# 2 0.000848 0.024882 -0.006438 -0.027620 -0.001351 -0.015220
# 3 0.002611 -0.006438 0.018272 0.007782 0.002750 -0.000624
# 4 -0.004731 -0.027620 0.007782 0.086062 -0.012269 0.021288
# 5 0.001518 -0.001351 0.002750 -0.012269 0.047520 0.002289
# 6 -0.007718 -0.015220 -0.000624 0.021288 0.002289 0.033066
#
#
# Mechanical properties :
#
#
# Convention : Reuss Voigt Hill
#
# Bulk Modulus (GPa) = 17.58703 28.47993 23.03348
# Shear Modulus (GPa) = 19.65574 30.92822 25.29198
#
# Velocity S-wave (km/s) = 2.95007 3.70055 3.34641
# Velocity P-wave (km/s) = 4.40351 5.55596 5.01296
#
# Compressibility (1/GPa) = 0.05686008
#
# Stress axis : x y z
#
# Youngs Moduli (GPa) = 50.85303 40.18953 54.72813
#
# Poissons Ratio (x) = -0.03408 -0.14291
# Poissons Ratio (y) = -0.04312 0.35236
# Poissons Ratio (z) = -0.13279 0.25876
#
# Static dielectric constant tensor:
#      x y z
#    x 1.917450 0.032330 -0.000670 
#    y 0.032330 1.906300 0.024390 
#    z -0.000670 0.024390 1.800240 
# 
# From -- ./inp_files/550129.got.cif
#   From: 2010.05.17/outbox.cif.g08.bks.cpg/sg2_276_cif.got.tgz:550129.got - 2010.06.03 11:33:40.
