data_PCOD9105301
_publ_section_title
;
Structure prediction by ZEFSAII (Michael W. Deem and Ramdas Pophale) SiO2 
 PCOD9105301
Probable space group: P -1
;
_chemical_formula_sum "Si O2"
_cell_formula_units_Z 16
_cell_length_a 7.613840
_cell_length_b 16.505393
_cell_length_c 10.923001
_cell_angle_alpha 34.871455
_cell_angle_beta 71.932054
_cell_angle_gamma 84.421462
_cell_volume 714.212928
_symmetry_space_group_name_H-M "P -1"
_symmetry_group_IT_number 2
_symmetry_cell_setting 'triclinic'
loop_
_space_group_symop_operation_xyz
x,y,z
-x,-y,-z
loop_
_atom_site_type_symbol
_atom_site_label
_atom_site_fract_x
_atom_site_fract_y
_atom_site_fract_z
Si Si1 0.488055 0.332400 0.731357
Si Si2 0.918005 0.322576 0.232670
Si Si3 0.366703 0.964178 0.402614
Si Si4 0.679123 0.953830 0.968511
Si Si5 0.924322 0.422007 0.487988
Si Si6 0.967244 0.805980 0.392188
Si Si7 0.121608 0.288666 0.997395
Si Si8 0.211436 0.991450 0.663068
O O1 0.500000 0.500000 0.500000
O O2 0.704689 0.321610 0.688145
O O3 0.345034 0.296628 0.922944
O O4 0.367630 0.221247 0.792863
O O5 0.709950 0.218206 0.357523
O O6 0.931350 0.268080 0.433739
O O7 0.000000 0.500000 0.000000
O O8 0.059355 0.272603 0.171264
O O9 0.594175 0.029590 0.294512
O O10 0.313050 0.011623 0.222017
O O11 0.263062 0.015250 0.477561
O O12 0.871226 0.050412 0.869734
O O13 0.500000 0.000000 0.000000
O O14 0.064336 0.324932 0.536433
O O15 0.911143 0.555922 0.234449
O O16 0.000000 0.500000 0.500000
O O17 0.825739 0.875110 0.414711
O O18 0.976206 0.153402 0.120238
#
# Coordination Sequence:
#
# PCOD9105301 Si02
#       8
#     2   2   2   2   2   2   2   2
#     4  10  22  39  60  88 119 161 202 242 292 364
#     4  10  20  39  64  89 120 157 200 247 300 354
#     4   9  23  38  63  89 126 157 196 254 302 354
#     4  11  21  38  63  89 118 161 203 242 297 354
#     4  11  24  42  57  89 127 160 196 250 309 359
#     4  11  22  39  64  90 117 154 210 252 289 365
#     4  10  21  39  65  86 119 163 198 246 305 359
#     4  10  21  42  62  91 120 154 204 251 307 352
#
# _framework density 22.402280999999999
#
# number of rings (size 3 to 8) (size 9 to 14) (size 15 to 20)
#    0.000    1.750    3.750    0.000    3.500    1.500 
#    6.750    1.875    0.000    0.000    0.000    0.000 
#    0.000    0.000    0.000    0.000    0.000    0.000 
#
# Total GULP energy -89115.662974 kJ/mol
# GULP energy per Si atom -5569.728936 kJ/mol
# Density = 2.235129 g / cm^3
# Si number density = 22.402281 Si / 1000 Ang^3
#
#
#
# Elastic Constant Matrix: (Units=GPa)
#
#
# Indices 1 2 3 4 5 6 
#
# 1 52.6594 21.2215 26.7382 -0.5709 -8.8232 -6.9277
# 2 21.2215 145.2821 31.2490 -27.5981 3.3683 -14.6292
# 3 26.7382 31.2490 85.4420 -22.6102 -14.0667 -0.5823
# 4 -0.5709 -27.5981 -22.6102 38.8683 -7.9816 1.6434
# 5 -8.8232 3.3683 -14.0667 -7.9816 20.7958 0.7318
# 6 -6.9277 -14.6292 -0.5823 1.6434 0.7318 30.7315
#
#
#
# Elastic Compliance Matrix: (Units=1/GPa)
#
#
# Indices 1 2 3 4 5 6 
#
# 1 0.025112 -0.002687 -0.007689 -0.005452 0.003640 0.004441
# 2 -0.002687 0.008894 -0.001342 0.005007 -0.001685 0.003375
# 3 -0.007689 -0.001342 0.021434 0.015103 0.017362 -0.003187
# 4 -0.005452 0.005007 0.015103 0.042896 0.023605 -0.001416
# 5 0.003640 -0.001685 0.017362 0.023605 0.070799 -0.002601
# 6 0.004441 0.003375 -0.003187 -0.001416 -0.002601 0.035225
#
#
# Mechanical properties :
#
#
# Convention : Reuss Voigt Hill
#
# Bulk Modulus (GPa) = 31.24554 49.08899 40.16726
# Shear Modulus (GPa) = 20.96750 31.69077 26.32913
#
# Velocity S-wave (km/s) = 3.06265 3.76523 3.43197
# Velocity P-wave (km/s) = 5.14628 6.39239 5.80288
#
# Compressibility (1/GPa) = 0.03200457
#
# Stress axis : x y z
#
# Youngs Moduli (GPa) = 39.82150 112.43222 46.65456
#
# Poissons Ratio (x) = 0.30213 0.35873
# Poissons Ratio (y) = 0.10701 0.06259
# Poissons Ratio (z) = 0.30619 0.15084
#
# Static dielectric constant tensor:
#      x y z
#    x 1.849180 0.010750 0.014050 
#    y 0.010750 1.883420 -0.006890 
#    z 0.014050 -0.006890 1.963000 
# 
# From -- ./inp_files/208231.got.cif
#   From: 2010.05.17/outbox.cif.g08.bks.cpg/sg2_105_cif.got.tgz:208231.got - 2010.06.03 11:33:40.
