data_PCOD9105568
_publ_section_title
;
Structure prediction by ZEFSAII (Michael W. Deem and Ramdas Pophale) SiO2 
 PCOD9105568
Probable space group: P -1
;
_chemical_formula_sum "Si O2"
_cell_formula_units_Z 16
_cell_length_a 11.028503
_cell_length_b 23.782543
_cell_length_c 11.347199
_cell_angle_alpha 138.235188
_cell_angle_beta 43.756254
_cell_angle_gamma 158.328858
_cell_volume 726.900258
_symmetry_space_group_name_H-M "P -1"
_symmetry_group_IT_number 2
_symmetry_cell_setting 'triclinic'
loop_
_space_group_symop_operation_xyz
x,y,z
-x,-y,-z
loop_
_atom_site_type_symbol
_atom_site_label
_atom_site_fract_x
_atom_site_fract_y
_atom_site_fract_z
Si Si1 0.788417 0.831922 0.273924
Si Si2 0.756014 0.980731 0.293776
Si Si3 0.737305 0.829159 0.572078
Si Si4 0.608339 0.566452 0.663158
Si Si5 0.791840 0.378105 0.188380
Si Si6 0.747458 0.808050 0.910388
Si Si7 0.210096 0.714334 0.409100
Si Si8 0.576516 0.479960 0.033352
O O1 0.757981 0.798288 0.380794
O O2 0.512893 0.793222 0.386708
O O3 0.684787 0.705814 0.079336
O O4 0.132443 0.020579 0.301505
O O5 0.377797 0.832430 0.366488
O O6 0.802291 0.898364 0.113509
O O7 0.000905 0.107732 0.424304
O O8 0.913602 0.079145 0.217273
O O9 0.386681 0.682683 0.655215
O O10 0.500000 0.500000 0.500000
O O11 0.575941 0.653446 0.826823
O O12 0.444828 0.474917 0.759559
O O13 0.980957 0.684258 0.593552
O O14 0.493630 0.244702 0.096947
O O15 0.977965 0.539709 0.270467
O O16 0.062288 0.415703 0.061197
O O17 0.500000 0.500000 0.000000
#
# Coordination Sequence:
#
# PCOD9105568 Si02
#       8
#     2   2   2   2   2   2   2   2
#     4   9  20  40  65  85 122 166 209 254 306 380
#     4   9  20  37  63  90 118 162 208 258 308 372
#     4   9  18  36  67  89 112 161 219 251 301 376
#     4  12  25  39  62  95 132 162 208 263 310 363
#     4  10  21  37  65  90 121 168 207 254 312 380
#     4  10  20  39  65  89 124 160 210 257 310 372
#     4  10  21  36  59  92 122 161 201 255 313 369
#     4  11  27  42  62  94 131 165 207 262 311 367
#
# _framework density 22.011272999999999
#
# number of rings (size 3 to 8) (size 9 to 14) (size 15 to 20)
#    0.000    2.000    1.250    2.250    5.250    2.500 
#    0.000    0.625   27.500    0.000    0.000    0.000 
#    0.000    0.000    0.000    0.000    0.000    0.000 
#
# Total GULP energy -89171.171267 kJ/mol
# GULP energy per Si atom -5573.198204 kJ/mol
# Density = 2.196117 g / cm^3
# Si number density = 22.011273 Si / 1000 Ang^3
#
#
#
# Elastic Constant Matrix: (Units=GPa)
#
#
# Indices 1 2 3 4 5 6 
#
# 1 74.1534 4.7514 28.6518 -5.8410 9.5874 3.4343
# 2 4.7514 89.1660 14.1563 -20.5133 8.5516 0.7832
# 3 28.6518 14.1563 80.5453 -7.8264 30.5457 10.1812
# 4 -5.8410 -20.5133 -7.8264 42.0161 0.1059 2.9774
# 5 9.5874 8.5516 30.5457 0.1059 40.6211 -5.3503
# 6 3.4343 0.7832 10.1812 2.9774 -5.3503 14.4938
#
#
#
# Elastic Compliance Matrix: (Units=1/GPa)
#
#
# Indices 1 2 3 4 5 6 
#
# 1 0.015708 0.000303 -0.005800 0.001227 0.000629 0.000316
# 2 0.000303 0.013079 -0.000175 0.006628 -0.003128 -0.003172
# 3 -0.005800 -0.000175 0.027126 0.006151 -0.022601 -0.027277
# 4 0.001227 0.006628 0.006151 0.029369 -0.008236 -0.014043
# 5 0.000629 -0.003128 -0.022601 -0.008236 0.046733 0.034839
# 6 0.000316 -0.003172 -0.027277 -0.014043 0.034839 0.103998
#
#
# Mechanical properties :
#
#
# Convention : Reuss Voigt Hill
#
# Bulk Modulus (GPa) = 22.43715 37.66486 30.05100
# Shear Modulus (GPa) = 19.06838 32.51321 25.79080
#
# Velocity S-wave (km/s) = 2.94649 3.84750 3.42674
# Velocity P-wave (km/s) = 4.66812 6.07342 5.41654
#
# Compressibility (1/GPa) = 0.04456894
#
# Stress axis : x y z
#
# Youngs Moduli (GPa) = 63.66200 76.45620 36.86491
#
# Poissons Ratio (x) = -0.02317 0.21382
# Poissons Ratio (y) = -0.01930 0.00646
# Poissons Ratio (z) = 0.36924 0.01340
#
# Static dielectric constant tensor:
#      x y z
#    x 1.876920 -0.069620 0.041470 
#    y -0.069620 1.879890 -0.009510 
#    z 0.041470 -0.009510 1.808940 
# 
# From -- ./inp_files/225612.got.cif
#   From: 2010.05.17/outbox.cif.g08.bks.cpg/sg2_113_cif.got.tgz:225612.got - 2010.06.03 11:33:40.
