data_PCOD9105713
_publ_section_title
;
Structure prediction by ZEFSAII (Michael W. Deem and Ramdas Pophale) SiO2 
 PCOD9105713
Probable space group: P -1
;
_chemical_formula_sum "Si O2"
_cell_formula_units_Z 16
_cell_length_a 8.098585
_cell_length_b 12.560374
_cell_length_c 12.492670
_cell_angle_alpha 50.544840
_cell_angle_beta 60.989852
_cell_angle_gamma 53.322200
_cell_volume 775.441664
_symmetry_space_group_name_H-M "P -1"
_symmetry_group_IT_number 2
_symmetry_cell_setting 'triclinic'
loop_
_space_group_symop_operation_xyz
x,y,z
-x,-y,-z
loop_
_atom_site_type_symbol
_atom_site_label
_atom_site_fract_x
_atom_site_fract_y
_atom_site_fract_z
Si Si1 0.694276 0.269097 0.904555
Si Si2 0.249974 0.315936 0.022815
Si Si3 0.164475 0.831585 0.521957
Si Si4 0.072003 0.391159 0.444565
Si Si5 0.033292 0.567619 0.770844
Si Si6 0.110416 0.779150 0.894613
Si Si7 0.495071 0.631013 0.713758
Si Si8 0.074339 0.868410 0.296115
O O1 0.603689 0.447583 0.786474
O O2 0.815145 0.172207 0.826688
O O3 0.498343 0.226782 0.014150
O O4 0.838676 0.246742 0.978390
O O5 0.164792 0.394659 0.114232
O O6 0.089632 0.246576 0.072602
O O7 0.213840 0.446830 0.863057
O O8 0.043100 0.727214 0.648676
O O9 0.369097 0.739199 0.586161
O O10 0.218401 0.834183 0.378677
O O11 0.000000 0.000000 0.500000
O O12 0.305176 0.333498 0.362103
O O13 0.000000 0.500000 0.500000
O O14 0.946205 0.490622 0.318673
O O15 0.036105 0.243530 0.579453
O O16 0.323538 0.672527 0.834582
O O17 0.068551 0.952076 0.771470
#
# Coordination Sequence:
#
# PCOD9105713 Si02
#       8
#     2   2   2   2   2   2   2   2
#     4  12  25  43  69 103 134 181 234 273 342 411
#     4  11  21  41  70  98 132 177 230 277 332 400
#     4  11  21  43  67  94 138 171 225 285 333 403
#     4  11  24  42  67  98 138 175 223 285 344 405
#     4  10  20  39  65  95 132 169 221 280 328 399
#     4  12  25  46  69  99 142 177 227 290 333 400
#     4  12  22  43  71  99 125 186 228 274 347 394
#     4  11  26  46  63  98 144 177 221 287 342 404
#
# _framework density 20.633403999999999
#
# number of rings (size 3 to 8) (size 9 to 14) (size 15 to 20)
#    0.000    0.750    5.000    3.000    0.000    2.500 
#    4.500    0.000    0.000    0.000    0.000    0.000 
#    0.000    0.000    0.000    0.000    0.000    0.000 
#
# Total GULP energy -89148.883642 kJ/mol
# GULP energy per Si atom -5571.805228 kJ/mol
# Density = 2.058644 g / cm^3
# Si number density = 20.633404 Si / 1000 Ang^3
#
#
#
# Elastic Constant Matrix: (Units=GPa)
#
#
# Indices 1 2 3 4 5 6 
#
# 1 55.7663 8.9638 28.1376 9.6318 -3.0523 8.5481
# 2 8.9638 59.3713 18.7849 -5.6978 9.6608 19.8901
# 3 28.1376 18.7849 80.6411 6.2907 20.8152 14.3619
# 4 9.6318 -5.6978 6.2907 42.0059 3.0420 6.8650
# 5 -3.0523 9.6608 20.8152 3.0420 42.0399 6.7645
# 6 8.5481 19.8901 14.3619 6.8650 6.7645 21.2769
#
#
#
# Elastic Compliance Matrix: (Units=1/GPa)
#
#
# Indices 1 2 3 4 5 6 
#
# 1 0.024488 -0.001292 -0.009240 -0.004401 0.007509 -0.003361
# 2 -0.001292 0.027493 -0.001390 0.008698 -0.002108 -0.026380
# 3 -0.009240 -0.001390 0.019171 0.000570 -0.009042 -0.005238
# 4 -0.004401 0.008698 0.000570 0.028564 -0.002212 -0.015260
# 5 0.007509 -0.002108 -0.009042 -0.002212 0.030063 -0.003787
# 6 -0.003361 -0.026380 -0.005238 -0.015260 -0.003787 0.082674
#
#
# Mechanical properties :
#
#
# Convention : Reuss Voigt Hill
#
# Bulk Modulus (GPa) = 21.13763 34.17239 27.65501
# Shear Modulus (GPa) = 19.83609 30.39069 25.11339
#
# Velocity S-wave (km/s) = 3.10394 3.84199 3.49251
# Velocity P-wave (km/s) = 4.80755 6.02319 5.44937
#
# Compressibility (1/GPa) = 0.04730900
#
# Stress axis : x y z
#
# Youngs Moduli (GPa) = 40.83620 36.37234 52.16296
#
# Poissons Ratio (x) = 0.04699 0.48198
# Poissons Ratio (y) = 0.05276 0.07249
# Poissons Ratio (z) = 0.37732 0.05055
#
# Static dielectric constant tensor:
#      x y z
#    x 1.873150 0.043730 0.004160 
#    y 0.043730 1.713650 0.009330 
#    z 0.004160 0.009330 1.742960 
# 
# From -- ./inp_files/298546.got.cif
#   From: 2010.05.17/outbox.cif.g08.bks.cpg/sg2_150_cif.got.tgz:298546.got - 2010.06.03 11:33:40.
