data_PCOD9105592
_publ_section_title
;
Structure prediction by ZEFSAII (Michael W. Deem and Ramdas Pophale) SiO2 
 PCOD9105592
Probable space group: P -1
;
_chemical_formula_sum "Si O2"
_cell_formula_units_Z 16
_cell_length_a 8.402795
_cell_length_b 8.161516
_cell_length_c 15.785237
_cell_angle_alpha 136.606176
_cell_angle_beta 64.932803
_cell_angle_gamma 104.830335
_cell_volume 671.320435
_symmetry_space_group_name_H-M "P -1"
_symmetry_group_IT_number 2
_symmetry_cell_setting 'triclinic'
loop_
_space_group_symop_operation_xyz
x,y,z
-x,-y,-z
loop_
_atom_site_type_symbol
_atom_site_label
_atom_site_fract_x
_atom_site_fract_y
_atom_site_fract_z
Si Si1 0.584783 0.231593 0.474941
Si Si2 0.271468 0.506723 0.305724
Si Si3 0.792471 0.789029 0.231041
Si Si4 0.395811 0.805240 0.903183
Si Si5 0.301871 0.642863 0.691409
Si Si6 0.971074 0.484273 0.781346
Si Si7 0.135842 0.982322 0.158912
Si Si8 0.700466 0.484115 0.975545
O O1 0.709604 0.337741 0.556883
O O2 0.394294 0.372788 0.581962
O O3 0.646450 0.295067 0.390718
O O4 0.620303 0.947336 0.361983
O O5 0.471309 0.432189 0.199859
O O6 0.143478 0.629835 0.309457
O O7 0.195604 0.250625 0.249996
O O8 0.898000 0.663962 0.239020
O O9 0.934812 0.951810 0.216559
O O10 0.745077 0.611713 0.100748
O O11 0.383553 0.808380 0.805942
O O12 0.202662 0.859564 0.008332
O O13 0.500000 0.000000 0.000000
O O14 0.098109 0.646483 0.762668
O O15 0.818021 0.597386 0.919536
O O16 0.239953 0.798242 0.132332
O O17 0.500000 0.500000 0.000000
#
# Coordination Sequence:
#
# PCOD9105592 Si02
#       8
#     2   2   2   2   2   2   2   2
#     4  10  24  43  63  90 126 167 203 250 307 366
#     4  10  22  40  64  92 122 161 209 254 301 360
#     4  11  24  41  61  90 129 164 199 248 313 374
#     4   9  18  35  61  93 121 151 199 255 307 356
#     4  10  21  40  64  89 122 161 209 254 301 361
#     4  11  23  40  64  92 120 161 208 256 305 360
#     4  10  20  39  65  91 124 159 202 259 305 361
#     4  11  24  42  64  92 127 162 201 253 316 371
#
# _framework density 23.833625000000001
#
# number of rings (size 3 to 8) (size 9 to 14) (size 15 to 20)
#    0.000    1.750    0.000    4.500    0.000   10.000 
#    0.000   11.250    0.000    0.000    0.000    0.000 
#    0.000    0.000    0.000    0.000    0.000    0.000 
#
# Total GULP energy -89338.792546 kJ/mol
# GULP energy per Si atom -5583.674534 kJ/mol
# Density = 2.377938 g / cm^3
# Si number density = 23.833625 Si / 1000 Ang^3
#
#
#
# Elastic Constant Matrix: (Units=GPa)
#
#
# Indices 1 2 3 4 5 6 
#
# 1 114.7124 20.0946 45.1318 -13.9569 3.5560 -14.7857
# 2 20.0946 73.4804 32.4128 -15.2356 4.6099 8.5166
# 3 45.1318 32.4128 112.3908 -16.2753 17.4435 0.6862
# 4 -13.9569 -15.2356 -16.2753 44.1595 -11.8725 -2.2431
# 5 3.5560 4.6099 17.4435 -11.8725 38.2127 -10.0140
# 6 -14.7857 8.5166 0.6862 -2.2431 -10.0140 39.7812
#
#
#
# Elastic Compliance Matrix: (Units=1/GPa)
#
#
# Indices 1 2 3 4 5 6 
#
# 1 0.011710 -0.001568 -0.004429 0.002764 0.003500 0.005801
# 2 -0.001568 0.016895 -0.003661 0.003760 -0.000087 -0.003946
# 3 -0.004429 -0.003661 0.012649 0.000417 -0.005425 -0.002423
# 4 0.002764 0.003760 0.000417 0.027504 0.008679 0.003951
# 5 0.003500 -0.000087 -0.005425 0.008679 0.033752 0.010399
# 6 0.005801 -0.003946 -0.002423 0.003951 0.010399 0.031021
#
#
# Mechanical properties :
#
#
# Convention : Reuss Voigt Hill
#
# Bulk Modulus (GPa) = 45.57911 55.09578 50.33745
# Shear Modulus (GPa) = 31.21907 37.96030 34.58968
#
# Velocity S-wave (km/s) = 3.62315 3.99522 3.81372
# Velocity P-wave (km/s) = 6.05544 6.66704 6.36858
#
# Compressibility (1/GPa) = 0.02193987
#
# Stress axis : x y z
#
# Youngs Moduli (GPa) = 85.39788 59.18850 79.05847
#
# Poissons Ratio (x) = 0.09279 0.35011
# Poissons Ratio (y) = 0.13388 0.28941
# Poissons Ratio (z) = 0.37819 0.21667
#
# Static dielectric constant tensor:
#      x y z
#    x 1.928330 -0.025700 -0.044770 
#    y -0.025700 2.020310 0.005660 
#    z -0.044770 0.005660 1.893860 
# 
# From -- ./inp_files/495787.got.cif
#   From: 2010.05.17/outbox.cif.g08.bks.cpg/sg2_248_cif.got.tgz:495787.got - 2010.06.03 11:33:40.
