data_PCOD9105539
_publ_section_title
;
Structure prediction by ZEFSAII (Michael W. Deem and Ramdas Pophale) SiO2 
 PCOD9105539
Probable space group: P -1
;
_chemical_formula_sum "Si O2"
_cell_formula_units_Z 14
_cell_length_a 9.823763
_cell_length_b 12.169455
_cell_length_c 8.723271
_cell_angle_alpha 116.793923
_cell_angle_beta 65.529486
_cell_angle_gamma 131.627255
_cell_volume 685.456224
_symmetry_space_group_name_H-M "P -1"
_symmetry_group_IT_number 2
_symmetry_cell_setting 'triclinic'
loop_
_space_group_symop_operation_xyz
x,y,z
-x,-y,-z
loop_
_atom_site_type_symbol
_atom_site_label
_atom_site_fract_x
_atom_site_fract_y
_atom_site_fract_z
Si Si1 0.510637 0.355409 0.403916
Si Si2 0.492562 0.240488 0.679220
Si Si3 0.788037 0.419629 0.082041
Si Si4 0.547324 0.093685 0.823713
Si Si5 0.091467 0.134086 0.919595
Si Si6 0.722328 0.960344 0.827381
Si Si7 0.297828 0.459895 0.068132
O O1 0.500000 0.500000 0.500000
O O2 0.482585 0.277138 0.531309
O O3 0.708759 0.404973 0.277723
O O4 0.360044 0.216414 0.273604
O O5 0.523871 0.125244 0.679238
O O6 0.292105 0.184324 0.803964
O O7 0.669836 0.404873 0.760179
O O8 0.678988 0.254568 0.951471
O O9 0.735931 0.516492 0.074679
O O10 0.000000 0.500000 0.000000
O O11 0.637472 0.005867 0.762493
O O12 0.359178 0.020824 0.964302
O O13 0.138462 0.287463 0.073401
O O14 0.942504 0.071770 0.812926
O O15 0.000000 0.000000 0.000000
O O16 0.500000 0.500000 0.000000
#
# Coordination Sequence:
#
# PCOD9105539 Si02
#       7
#     2   2   2   2   2   2   2
#     4  11  24  39  62  92 133 167 201 257 331 373
#     4  10  21  38  59  90 125 165 199 257 316 368
#     4  10  20  39  65  87 115 165 217 252 298 375
#     4   9  19  38  60  87 120 164 211 250 306 368
#     4  11  20  33  61  92 119 160 218 253 290 367
#     4  10  21  37  61  89 124 165 206 254 307 369
#     4   9  19  35  61  86 121 164 206 249 303 372
#
# _framework density 20.424353
#
# number of rings (size 3 to 8) (size 9 to 14) (size 15 to 20)
#    0.000    2.000    1.429    2.571    4.000    1.143 
#    0.000    2.857    0.000    0.000    0.000    0.000 
#    0.000    0.000    0.000    0.000    0.000    0.000 
#
# Total GULP energy -77953.669770 kJ/mol
# GULP energy per Si atom -5568.119269 kJ/mol
# Density = 2.037787 g / cm^3
# Si number density = 20.424353 Si / 1000 Ang^3
#
#
#
# Elastic Constant Matrix: (Units=GPa)
#
#
# Indices 1 2 3 4 5 6 
#
# 1 106.6322 46.0230 28.1793 -3.7437 3.4675 -8.6794
# 2 46.0230 135.9357 42.3005 3.8554 -3.2074 -3.0408
# 3 28.1793 42.3005 74.8201 -11.8866 3.4936 -9.0158
# 4 -3.7437 3.8554 -11.8866 39.1342 -5.6232 0.7686
# 5 3.4675 -3.2074 3.4936 -5.6232 21.1473 -7.3127
# 6 -8.6794 -3.0408 -9.0158 0.7686 -7.3127 39.9574
#
#
#
# Elastic Compliance Matrix: (Units=1/GPa)
#
#
# Indices 1 2 3 4 5 6 
#
# 1 0.011540 -0.003241 -0.002184 0.000535 -0.001359 0.001508
# 2 -0.003241 0.010144 -0.005094 -0.002556 0.002001 -0.000666
# 3 -0.002184 -0.005094 0.018376 0.005686 -0.000897 0.003011
# 4 0.000535 -0.002556 0.005686 0.028527 0.006830 0.001906
# 5 -0.001359 0.002001 -0.000897 0.006830 0.052965 0.009216
# 6 0.001508 -0.000666 0.003011 0.001906 0.009216 0.027633
#
#
# Mechanical properties :
#
#
# Convention : Reuss Voigt Hill
#
# Bulk Modulus (GPa) = 52.57064 61.15485 56.86274
# Shear Modulus (GPa) = 28.31866 33.44015 30.87940
#
# Velocity S-wave (km/s) = 3.72763 4.05071 3.89252
# Velocity P-wave (km/s) = 6.65748 7.20311 6.93566
#
# Compressibility (1/GPa) = 0.01902203
#
# Stress axis : x y z
#
# Youngs Moduli (GPa) = 86.65792 98.58387 54.41929
#
# Poissons Ratio (x) = 0.31950 0.11883
# Poissons Ratio (y) = 0.28085 0.27721
# Poissons Ratio (z) = 0.18923 0.50219
#
# Static dielectric constant tensor:
#      x y z
#    x 1.764230 -0.037170 0.003430 
#    y -0.037170 1.782800 0.030320 
#    z 0.003430 0.030320 1.787420 
# 
# From -- ./inp_files/181367.got.cif
#   From: 2010.05.17/outbox.cif.g08.bks.cpg/sg2_91_cif.got.tgz:181367.got - 2010.06.03 11:33:40.
