data_PCOD9105156
_publ_section_title
;
Structure prediction by ZEFSAII (Michael W. Deem and Ramdas Pophale) SiO2 
 PCOD9105156
Probable space group: P -1
;
_chemical_formula_sum "Si O2"
_cell_formula_units_Z 16
_cell_length_a 9.363957
_cell_length_b 14.592303
_cell_length_c 18.466188
_cell_angle_alpha 27.850650
_cell_angle_beta 43.627307
_cell_angle_gamma 37.648481
_cell_volume 717.513917
_symmetry_space_group_name_H-M "P -1"
_symmetry_group_IT_number 2
_symmetry_cell_setting 'triclinic'
loop_
_space_group_symop_operation_xyz
x,y,z
-x,-y,-z
loop_
_atom_site_type_symbol
_atom_site_label
_atom_site_fract_x
_atom_site_fract_y
_atom_site_fract_z
Si Si1 0.100713 0.419288 0.939737
Si Si2 0.494010 0.280976 0.316983
Si Si3 0.616572 0.553227 0.987078
Si Si4 0.452981 0.066058 0.705382
Si Si5 0.424829 0.044453 0.895251
Si Si6 0.805484 0.861402 0.398746
Si Si7 0.297906 0.793211 0.224175
Si Si8 0.652613 0.317895 0.381759
O O1 0.153235 0.600411 0.753452
O O2 0.335229 0.190776 0.024435
O O3 0.000000 0.500000 0.000000
O O4 0.894379 0.395081 0.993255
O O5 0.502244 0.500659 0.135513
O O6 0.245158 0.302507 0.416431
O O7 0.647836 0.203211 0.387904
O O8 0.619824 0.099582 0.334682
O O9 0.500000 0.500000 0.000000
O O10 0.574431 0.802282 0.833248
O O11 0.265259 0.160234 0.642817
O O12 0.636395 0.162497 0.558445
O O13 0.357925 0.112231 0.789775
O O14 0.503152 0.205661 0.796099
O O15 0.253129 0.984269 0.047710
O O16 0.064100 0.833216 0.322994
O O17 0.413215 0.551780 0.313411
#
# Coordination Sequence:
#
# PCOD9105156 Si02
#       8
#     2   2   2   2   2   2   2   2
#     4  11  20  39  66  90 122 170 203 253 326 372
#     4  10  20  39  63  93 131 160 212 253 318 379
#     4  12  22  37  60  94 131 158 204 261 315 370
#     4  11  23  39  61  98 132 158 216 270 305 369
#     4  10  22  41  66  93 122 168 219 261 304 389
#     4  10  22  39  66  93 127 171 205 263 316 376
#     4  10  22  43  66  87 126 179 212 249 324 379
#     4  10  23  41  66  94 130 166 215 260 310 384
#
# _framework density 22.299218
#
# number of rings (size 3 to 8) (size 9 to 14) (size 15 to 20)
#    0.000    1.500    3.750    1.500    0.000    3.500 
#    2.250    1.250    0.000    0.000    0.000    0.000 
#    0.000    0.000    0.000    0.000    0.000    0.000 
#
# Total GULP energy -89343.408876 kJ/mol
# GULP energy per Si atom -5583.963055 kJ/mol
# Density = 2.224846 g / cm^3
# Si number density = 22.299218 Si / 1000 Ang^3
#
#
#
# Elastic Constant Matrix: (Units=GPa)
#
#
# Indices 1 2 3 4 5 6 
#
# 1 76.2909 19.3410 24.8020 14.2395 -8.5540 18.3746
# 2 19.3410 59.5222 36.7282 20.2662 -7.6284 10.8255
# 3 24.8020 36.7282 180.7198 26.8077 -19.9651 -6.6495
# 4 14.2395 20.2662 26.8077 35.6092 0.4027 -4.9741
# 5 -8.5540 -7.6284 -19.9651 0.4027 30.7964 10.1930
# 6 18.3746 10.8255 -6.6495 -4.9741 10.1930 30.0476
#
#
#
# Elastic Compliance Matrix: (Units=1/GPa)
#
#
# Indices 1 2 3 4 5 6 
#
# 1 0.021719 0.003809 -0.001087 -0.013221 0.013629 -0.021706
# 2 0.003809 0.029687 -0.002939 -0.019381 0.013909 -0.021602
# 3 -0.001087 -0.002939 0.007135 -0.003052 0.003052 0.001762
# 4 -0.013221 -0.019381 -0.003052 0.051125 -0.021048 0.029995
# 5 0.013629 0.013909 0.003052 -0.021048 0.053286 -0.034230
# 6 -0.021706 -0.021602 0.001762 0.029995 -0.034230 0.071304
#
#
# Mechanical properties :
#
#
# Convention : Reuss Voigt Hill
#
# Bulk Modulus (GPa) = 17.20970 53.14173 35.17571
# Shear Modulus (GPa) = 19.68051 35.00142 27.34096
#
# Velocity S-wave (km/s) = 2.97402 3.96615 3.50536
# Velocity P-wave (km/s) = 4.41899 6.69752 5.67381
#
# Compressibility (1/GPa) = 0.05810677
#
# Stress axis : x y z
#
# Youngs Moduli (GPa) = 46.04251 33.68518 140.15943
#
# Poissons Ratio (x) = -0.12832 0.15231
# Poissons Ratio (y) = -0.17539 0.41198
# Poissons Ratio (z) = 0.05003 0.09901
#
# Static dielectric constant tensor:
#      x y z
#    x 1.841860 0.011640 -0.002360 
#    y 0.011640 1.837140 0.012930 
#    z -0.002360 0.012930 1.894880 
# 
# From -- ./inp_files/514729.got.cif
#   From: 2010.05.17/outbox.cif.g08.bks.cpg/sg2_258_cif.got.tgz:514729.got - 2010.06.03 11:33:40.
