data_PCOD9105641
_publ_section_title
;
Structure prediction by ZEFSAII (Michael W. Deem and Ramdas Pophale) SiO2 
 PCOD9105641
Probable space group: P -1
;
_chemical_formula_sum "Si O2"
_cell_formula_units_Z 16
_cell_length_a 9.350817
_cell_length_b 17.738570
_cell_length_c 8.371950
_cell_angle_alpha 138.461577
_cell_angle_beta 98.949252
_cell_angle_gamma 61.334768
_cell_volume 756.960723
_symmetry_space_group_name_H-M "P -1"
_symmetry_group_IT_number 2
_symmetry_cell_setting 'triclinic'
loop_
_space_group_symop_operation_xyz
x,y,z
-x,-y,-z
loop_
_atom_site_type_symbol
_atom_site_label
_atom_site_fract_x
_atom_site_fract_y
_atom_site_fract_z
Si Si1 0.989095 0.319933 0.044487
Si Si2 0.140268 0.450228 0.084586
Si Si3 0.148431 0.020754 0.492056
Si Si4 0.104252 0.697673 0.642055
Si Si5 0.423306 0.736581 0.722171
Si Si6 0.388166 0.531465 0.872617
Si Si7 0.513132 0.268214 0.916611
Si Si8 0.853809 0.973130 0.883329
O O1 0.923485 0.337044 0.240576
O O2 0.818158 0.382266 0.002068
O O3 0.076463 0.399385 0.138487
O O4 0.114344 0.158909 0.777959
O O5 0.155845 0.572613 0.338151
O O6 0.335693 0.325689 0.881475
O O7 0.000000 0.500000 0.000000
O O8 0.141327 0.036178 0.322934
O O9 0.332821 0.883294 0.345389
O O10 0.000000 0.000000 0.500000
O O11 0.259420 0.722983 0.708456
O O12 0.924759 0.830052 0.754692
O O13 0.548331 0.609978 0.429819
O O14 0.513650 0.729097 0.892914
O O15 0.330332 0.890833 0.884216
O O16 0.500000 0.500000 0.000000
O O17 0.424626 0.629574 0.934657
O O18 0.000000 0.000000 0.000000
#
# Coordination Sequence:
#
# PCOD9105641 Si02
#       8
#     2   2   2   2   2   2   2   2
#     4  12  25  40  62  95 127 166 215 259 322 376
#     4  12  26  43  63  90 132 174 211 258 320 389
#     4  11  21  39  66  96 129 159 215 272 312 376
#     4  11  21  41  65  89 128 169 212 265 316 381
#     4  10  20  39  65  93 123 162 214 262 318 373
#     4  12  23  35  62  94 124 159 211 271 306 361
#     4  11  22  42  66  90 127 170 208 257 324 374
#     4   9  20  33  61  93 124 165 201 258 327 365
#
# _framework density 21.137160000000002
#
# number of rings (size 3 to 8) (size 9 to 14) (size 15 to 20)
#    0.000    1.000    3.750    4.500    3.500    1.500 
#    0.000    0.000    0.000    4.500    0.000    0.000 
#    0.000    0.000    0.000    0.000    0.000    0.000 
#
# Total GULP energy -89438.770257 kJ/mol
# GULP energy per Si atom -5589.923141 kJ/mol
# Density = 2.108905 g / cm^3
# Si number density = 21.137160 Si / 1000 Ang^3
#
#
#
# Elastic Constant Matrix: (Units=GPa)
#
#
# Indices 1 2 3 4 5 6 
#
# 1 59.2681 27.0350 1.1856 11.5327 -7.1293 -15.6584
# 2 27.0350 105.0954 37.2643 22.0360 -6.9898 -22.2892
# 3 1.1856 37.2643 92.8807 16.4581 -20.0854 -19.8190
# 4 11.5327 22.0360 16.4581 33.3516 -5.6406 -3.5066
# 5 -7.1293 -6.9898 -20.0854 -5.6406 17.7342 6.8016
# 6 -15.6584 -22.2892 -19.8190 -3.5066 6.8016 37.4307
#
#
#
# Elastic Compliance Matrix: (Units=1/GPa)
#
#
# Indices 1 2 3 4 5 6 
#
# 1 0.023315 -0.004759 0.006466 -0.005580 0.009974 0.008008
# 2 -0.004759 0.014245 -0.004843 -0.005816 -0.005300 0.004346
# 3 0.006466 -0.004843 0.018604 -0.004540 0.018027 0.005971
# 4 -0.005580 -0.005816 -0.004540 0.038195 0.004562 -0.005452
# 5 0.009974 -0.005300 0.018027 0.004562 0.081653 -0.003848
# 6 0.008008 0.004346 0.005971 -0.005452 -0.003848 0.036004
#
#
# Mechanical properties :
#
#
# Convention : Reuss Voigt Hill
#
# Bulk Modulus (GPa) = 20.04254 43.13489 31.58871
# Shear Modulus (GPa) = 21.28416 30.48728 25.88572
#
# Velocity S-wave (km/s) = 3.17670 3.80195 3.50330
# Velocity P-wave (km/s) = 4.79144 6.30274 5.59833
#
# Compressibility (1/GPa) = 0.04989389
#
# Stress axis : x y z
#
# Youngs Moduli (GPa) = 42.89066 70.19963 53.75286
#
# Poissons Ratio (x) = 0.33405 -0.34757
# Poissons Ratio (y) = 0.20410 0.26030
# Poissons Ratio (z) = -0.27733 0.33995
#
# Static dielectric constant tensor:
#      x y z
#    x 1.776280 0.017360 -0.045050 
#    y 0.017360 1.808260 0.013750 
#    z -0.045050 0.013750 1.768310 
# 
# From -- ./inp_files/205151.got.cif
#   From: 2010.05.17/outbox.cif.g08.bks.cpg/sg2_103_cif.got.tgz:205151.got - 2010.06.03 11:33:40.
