data_PCOD9105434
_publ_section_title
;
Structure prediction by ZEFSAII (Michael W. Deem and Ramdas Pophale) SiO2 
 PCOD9105434
Probable space group: P -1
;
_chemical_formula_sum "Si O2"
_cell_formula_units_Z 10
_cell_length_a 9.589474
_cell_length_b 10.184908
_cell_length_c 5.189064
_cell_angle_alpha 78.634133
_cell_angle_beta 74.360049
_cell_angle_gamma 68.489341
_cell_volume 451.311190
_symmetry_space_group_name_H-M "P -1"
_symmetry_group_IT_number 2
_symmetry_cell_setting 'triclinic'
loop_
_space_group_symop_operation_xyz
x,y,z
-x,-y,-z
loop_
_atom_site_type_symbol
_atom_site_label
_atom_site_fract_x
_atom_site_fract_y
_atom_site_fract_z
Si Si1 0.605670 0.967238 0.710925
Si Si2 0.971233 0.196720 0.023353
Si Si3 0.844359 0.422770 0.358534
Si Si4 0.821000 0.154117 0.608840
Si Si5 0.830534 0.709919 0.452939
O O1 0.712972 0.804788 0.679744
O O2 0.500000 0.000000 0.500000
O O3 0.712121 0.065862 0.634364
O O4 0.500000 0.000000 0.000000
O O5 0.132015 0.188284 0.821124
O O6 0.880585 0.141412 0.875591
O O7 0.889456 0.365686 0.066888
O O8 0.953915 0.127662 0.331698
O O9 0.745355 0.325991 0.540822
O O10 0.782632 0.587753 0.384641
O O11 0.006979 0.361602 0.454785
#
# Coordination Sequence:
#
# PCOD9105434 Si02
#       5
#     2   2   2   2   2
#     4  12  28  44  58  82 126 174 203 232 282 368
#     4   9  18  35  66  92 119 140 189 266 306 344
#     4   8  19  37  67  98 114 145 190 272 307 340
#     4   9  20  39  60  88 121 151 202 242 303 350
#     4  10  20  39  64  95 122 151 197 245 312 349
#
# _framework density 22.15766
#
# number of rings (size 3 to 8) (size 9 to 14) (size 15 to 20)
#    1.200    1.200    0.000    1.800    2.800    4.000 
#    0.000    2.000    0.000    0.000    0.000    0.000 
#    0.000    0.000    0.000    0.000    0.000    0.000 
#
# Total GULP energy -55772.753221 kJ/mol
# GULP energy per Si atom -5577.275322 kJ/mol
# Density = 2.210723 g / cm^3
# Si number density = 22.157660 Si / 1000 Ang^3
#
#
#
# Elastic Constant Matrix: (Units=GPa)
#
#
# Indices 1 2 3 4 5 6 
#
# 1 75.5096 61.9495 40.2826 14.7984 6.5211 24.2532
# 2 61.9495 152.8801 50.2501 34.1019 -11.4083 38.5054
# 3 40.2826 50.2501 154.0496 30.1431 4.0045 3.7509
# 4 14.7984 34.1019 30.1431 36.8086 3.3136 9.4830
# 5 6.5211 -11.4083 4.0045 3.3136 37.3290 11.1886
# 6 24.2532 38.5054 3.7509 9.4830 11.1886 32.3765
#
#
#
# Elastic Compliance Matrix: (Units=1/GPa)
#
#
# Indices 1 2 3 4 5 6 
#
# 1 0.023691 -0.006950 -0.004192 0.002886 -0.003480 -0.008638
# 2 -0.006950 0.016905 -0.002040 -0.008038 0.012273 -0.016550
# 3 -0.004192 -0.002040 0.009236 -0.005564 -0.002481 0.006984
# 4 0.002886 -0.008038 -0.005564 0.038878 -0.005369 -0.001489
# 5 -0.003480 0.012273 -0.002481 -0.005369 0.038962 -0.023595
# 6 -0.008638 -0.016550 0.006984 -0.001489 -0.023595 0.064821
#
#
# Mechanical properties :
#
#
# Convention : Reuss Voigt Hill
#
# Bulk Modulus (GPa) = 42.61007 76.37817 59.49412
# Shear Modulus (GPa) = 22.05745 36.63329 29.34537
#
# Velocity S-wave (km/s) = 3.15854 4.07049 3.64316
# Velocity P-wave (km/s) = 5.70736 7.52576 6.67874
#
# Compressibility (1/GPa) = 0.02346863
#
# Stress axis : x y z
#
# Youngs Moduli (GPa) = 42.21023 59.15351 108.26913
#
# Poissons Ratio (x) = 0.41110 0.45385
# Poissons Ratio (y) = 0.29335 0.22090
# Poissons Ratio (z) = 0.17694 0.12069
#
# Static dielectric constant tensor:
#      x y z
#    x 1.784900 -0.020410 0.003620 
#    y -0.020410 1.972430 -0.045820 
#    z 0.003620 -0.045820 1.850290 
# 
# From -- ./inp_files/15449.got.cif
#   From: 2010.05.17/outbox.cif.g08.bks.cpg/sg2_8_cif.got.tgz:15449.got - 2010.06.03 11:33:40.
