data_PCOD9105519
_publ_section_title
;
Structure prediction by ZEFSAII (Michael W. Deem and Ramdas Pophale) SiO2 
 PCOD9105519
Probable space group: P -1
;
_chemical_formula_sum "Si O2"
_cell_formula_units_Z 16
_cell_length_a 19.013262
_cell_length_b 16.224550
_cell_length_c 11.398318
_cell_angle_alpha 32.682332
_cell_angle_beta 157.103933
_cell_angle_gamma 148.494465
_cell_volume 686.976922
_symmetry_space_group_name_H-M "P -1"
_symmetry_group_IT_number 2
_symmetry_cell_setting 'triclinic'
loop_
_space_group_symop_operation_xyz
x,y,z
-x,-y,-z
loop_
_atom_site_type_symbol
_atom_site_label
_atom_site_fract_x
_atom_site_fract_y
_atom_site_fract_z
Si Si1 0.728988 0.247833 0.883168
Si Si2 0.472531 0.358433 0.783926
Si Si3 0.284587 0.004237 0.682328
Si Si4 0.328476 0.274054 0.266780
Si Si5 0.185770 0.572473 0.434509
Si Si6 0.440182 0.156184 0.202584
Si Si7 0.225602 0.534198 0.077347
Si Si8 0.112129 0.203896 0.787351
O O1 0.504094 0.224384 0.545122
O O2 0.837205 0.346900 0.820029
O O3 0.783745 0.355753 0.956860
O O4 0.764898 0.081411 0.164400
O O5 0.590159 0.531522 0.823943
O O6 0.297639 0.397675 0.407630
O O7 0.615279 0.354133 0.903409
O O8 0.419538 0.212085 0.970755
O O9 0.114132 0.888245 0.475323
O O10 0.285577 0.181021 0.436573
O O11 0.500000 0.000000 0.000000
O O12 0.157442 0.212862 0.984144
O O13 0.378819 0.691104 0.650061
O O14 0.191252 0.393128 0.639731
O O15 0.978362 0.538853 0.216181
O O16 0.500000 0.000000 0.500000
O O17 0.243495 0.127284 0.007533
#
# Coordination Sequence:
#
# PCOD9105519 Si02
#       8
#     2   2   2   2   2   2   2   2
#     4  10  20  39  65 102 133 172 231 283 333 404
#     4  10  23  45  66  97 141 182 229 279 352 414
#     4  10  23  38  64 106 136 167 227 292 341 396
#     4  10  20  40  66  96 136 177 230 277 334 413
#     4  12  23  43  72 105 134 182 238 278 344 414
#     4  12  28  47  67 102 142 182 230 287 347 415
#     4  10  22  40  71  99 134 183 225 290 341 407
#     4  12  22  43  73  99 136 188 226 290 343 405
#
# _framework density 23.290448000000001
#
# number of rings (size 3 to 8) (size 9 to 14) (size 15 to 20)
#    0.000    1.250    3.750    2.625    1.750    2.500 
#    9.000    0.625    0.000    0.000    0.000    0.000 
#    0.000    0.000    0.000    0.000    0.000    0.000 
#
# Total GULP energy -89398.659919 kJ/mol
# GULP energy per Si atom -5587.416245 kJ/mol
# Density = 2.323744 g / cm^3
# Si number density = 23.290448 Si / 1000 Ang^3
#
#
#
# Elastic Constant Matrix: (Units=GPa)
#
#
# Indices 1 2 3 4 5 6 
#
# 1 64.1483 14.3711 35.1575 -14.0816 -15.9695 3.9189
# 2 14.3711 89.7757 46.8507 -2.1198 -7.0024 1.1577
# 3 35.1575 46.8507 115.2561 1.8846 -6.2386 -1.8925
# 4 -14.0816 -2.1198 1.8846 68.7931 14.9648 -13.8567
# 5 -15.9695 -7.0024 -6.2386 14.9648 32.7999 -2.4830
# 6 3.9189 1.1577 -1.8925 -13.8567 -2.4830 20.2117
#
#
#
# Elastic Compliance Matrix: (Units=1/GPa)
#
#
# Indices 1 2 3 4 5 6 
#
# 1 0.021726 0.000652 -0.006524 0.002419 0.008207 -0.002194
# 2 0.000652 0.014307 -0.005919 0.000025 0.002142 -0.001220
# 3 -0.006524 -0.005919 0.013055 -0.001235 -0.001255 0.001826
# 4 0.002419 0.000025 -0.001235 0.018861 -0.006786 0.011511
# 5 0.008207 0.002142 -0.001255 -0.006786 0.037657 -0.001857
# 6 -0.002194 -0.001220 0.001826 0.011511 -0.001857 0.057806
#
#
# Mechanical properties :
#
#
# Convention : Reuss Voigt Hill
#
# Bulk Modulus (GPa) = 39.20587 51.32652 45.26620
# Shear Modulus (GPa) = 25.57602 35.88097 30.72849
#
# Velocity S-wave (km/s) = 3.31740 3.92929 3.63624
# Velocity P-wave (km/s) = 5.61637 6.53232 6.09158
#
# Compressibility (1/GPa) = 0.02550638
#
# Stress axis : x y z
#
# Youngs Moduli (GPa) = 46.02707 69.89673 76.60139
#
# Poissons Ratio (x) = -0.04558 0.49974
# Poissons Ratio (y) = -0.03002 0.45340
# Poissons Ratio (z) = 0.30027 0.41372
#
# Static dielectric constant tensor:
#      x y z
#    x 1.904860 0.002870 -0.014200 
#    y 0.002870 1.945400 -0.004650 
#    z -0.014200 -0.004650 1.882850 
# 
# From -- ./inp_files/472373.got.cif
#   From: 2010.05.17/outbox.cif.g08.bks.cpg/sg2_237_cif.got.tgz:472373.got - 2010.06.03 11:33:40.
