data_PCOD9105276
_publ_section_title
;
Structure prediction by ZEFSAII (Michael W. Deem and Ramdas Pophale) SiO2 
 PCOD9105276
Probable space group: P -1
;
_chemical_formula_sum "Si O2"
_cell_formula_units_Z 12
_cell_length_a 10.425395
_cell_length_b 8.683235
_cell_length_c 8.874835
_cell_angle_alpha 87.154945
_cell_angle_beta 38.249221
_cell_angle_gamma 88.288390
_cell_volume 496.707414
_symmetry_space_group_name_H-M "P -1"
_symmetry_group_IT_number 2
_symmetry_cell_setting 'triclinic'
loop_
_space_group_symop_operation_xyz
x,y,z
-x,-y,-z
loop_
_atom_site_type_symbol
_atom_site_label
_atom_site_fract_x
_atom_site_fract_y
_atom_site_fract_z
Si Si1 0.386902 0.336491 0.721597
Si Si2 0.457543 0.782620 0.927657
Si Si3 0.024213 0.143669 0.081235
Si Si4 0.312654 0.442408 0.453096
Si Si5 0.871461 0.365590 0.961482
Si Si6 0.793859 0.055483 0.598846
O O1 0.385399 0.343199 0.540145
O O2 0.607059 0.387592 0.583966
O O3 0.255408 0.482356 0.893705
O O4 0.265430 0.184052 0.894070
O O5 0.583228 0.625392 0.789202
O O6 0.630416 0.914467 0.733172
O O7 0.270368 0.762254 0.982688
O O8 0.336892 0.822431 0.189330
O O9 0.886422 0.113892 0.354225
O O10 0.952228 0.290065 0.043458
O O11 0.000000 0.000000 0.000000
O O12 0.068000 0.416249 0.677686
O O13 0.000000 0.000000 0.500000
#
# Coordination Sequence:
#
# PCOD9105276 Si02
#       6
#     2   2   2   2   2   2
#     4   9  19  35  60  89 117 151 189 239 295 339
#     4  10  21  37  60  83 113 160 194 233 294 344
#     4  11  21  36  62  91 115 148 195 243 289 341
#     4   9  16  33  58  84 115 148 190 233 284 346
#     4  10  20  39  64  88 116 150 193 245 291 337
#     4  11  23  40  56  81 124 159 191 235 289 350
#
# _framework density 24.159091
#
# number of rings (size 3 to 8) (size 9 to 14) (size 15 to 20)
#    0.000    2.000    0.000    6.000    0.000    0.667 
#    0.000   25.000    0.000    9.000    0.000    0.000 
#    0.000    0.000    0.000    0.000    0.000    0.000 
#
# Total GULP energy -67089.713899 kJ/mol
# GULP energy per Si atom -5590.809492 kJ/mol
# Density = 2.410410 g / cm^3
# Si number density = 24.159091 Si / 1000 Ang^3
#
#
#
# Elastic Constant Matrix: (Units=GPa)
#
#
# Indices 1 2 3 4 5 6 
#
# 1 84.0334 41.9423 53.6553 -18.1468 -21.6833 27.0377
# 2 41.9423 96.4011 73.5807 4.6163 -3.6743 34.2741
# 3 53.6553 73.5807 219.8615 -5.6501 -13.3151 25.9862
# 4 -18.1468 4.6163 -5.6501 47.6610 10.9207 -11.4507
# 5 -21.6833 -3.6743 -13.3151 10.9207 39.5141 -8.6201
# 6 27.0377 34.2741 25.9862 -11.4507 -8.6201 45.4725
#
#
#
# Elastic Compliance Matrix: (Units=1/GPa)
#
#
# Indices 1 2 3 4 5 6 
#
# 1 0.020563 -0.006172 -0.001914 0.005558 0.007740 -0.003614
# 2 -0.006172 0.020939 -0.004483 -0.006956 -0.003644 -0.011993
# 3 -0.001914 -0.004483 0.006445 0.000558 0.000796 0.001125
# 4 0.005558 -0.006956 0.000558 0.026377 -0.003021 0.007689
# 5 0.007740 -0.003644 0.000796 -0.003021 0.030928 0.002792
# 6 -0.003614 -0.011993 0.001125 0.007689 0.002792 0.035002
#
#
# Mechanical properties :
#
#
# Convention : Reuss Voigt Hill
#
# Bulk Modulus (GPa) = 43.84318 82.07249 62.95783
# Shear Modulus (GPa) = 28.90249 41.93737 35.41993
#
# Velocity S-wave (km/s) = 3.46257 4.17091 3.83314
# Velocity P-wave (km/s) = 5.84576 7.56576 6.76068
#
# Compressibility (1/GPa) = 0.02280856
#
# Stress axis : x y z
#
# Youngs Moduli (GPa) = 48.63115 47.75859 155.15054
#
# Poissons Ratio (x) = 0.29477 0.29694
# Poissons Ratio (y) = 0.30015 0.69558
# Poissons Ratio (z) = 0.09307 0.21412
#
# Static dielectric constant tensor:
#      x y z
#    x 2.012820 -0.003810 -0.056940 
#    y -0.003810 1.925940 -0.015250 
#    z -0.056940 -0.015250 1.940200 
# 
# From -- ./inp_files/231411.got.cif
#   From: 2010.05.17/outbox.cif.g08.bks.cpg/sg2_116_cif.got.tgz:231411.got - 2010.06.03 11:33:40.
