data_PCOD9105316
_publ_section_title
;
Structure prediction by ZEFSAII (Michael W. Deem and Ramdas Pophale) SiO2 
 PCOD9105316
Probable space group: P -1
;
_chemical_formula_sum "Si O2"
_cell_formula_units_Z 16
_cell_length_a 10.642517
_cell_length_b 10.397748
_cell_length_c 7.730411
_cell_angle_alpha 83.392290
_cell_angle_beta 93.911516
_cell_angle_gamma 124.209302
_cell_volume 702.728576
_symmetry_space_group_name_H-M "P -1"
_symmetry_group_IT_number 2
_symmetry_cell_setting 'triclinic'
loop_
_space_group_symop_operation_xyz
x,y,z
-x,-y,-z
loop_
_atom_site_type_symbol
_atom_site_label
_atom_site_fract_x
_atom_site_fract_y
_atom_site_fract_z
Si Si1 0.843801 0.844180 0.453284
Si Si2 0.901732 0.655759 0.705425
Si Si3 0.358264 0.942548 0.873358
Si Si4 0.446174 0.176871 0.535917
Si Si5 0.399866 0.605416 0.792526
Si Si6 0.561129 0.424263 0.813046
Si Si7 0.105348 0.980829 0.888420
Si Si8 0.883104 0.420218 0.161678
O O1 0.853283 0.701093 0.520705
O O2 0.709550 0.843115 0.534496
O O3 0.823647 0.868821 0.250698
O O4 0.000000 0.000000 0.500000
O O5 0.743494 0.546162 0.805535
O O6 0.006205 0.591206 0.693606
O O7 0.003408 0.817095 0.799135
O O8 0.252192 0.756264 0.873285
O O9 0.401800 0.024770 0.672055
O O10 0.249714 0.981830 0.958282
O O11 0.500000 0.000000 0.000000
O O12 0.547195 0.253724 0.361496
O O13 0.523349 0.308389 0.670511
O O14 0.468477 0.504479 0.760890
O O15 0.215864 0.513215 0.801837
O O16 0.467515 0.651375 0.987556
O O17 0.000000 0.000000 0.000000
O O18 0.000000 0.500000 0.000000
#
# Coordination Sequence:
#
# PCOD9105316 Si02
#       8
#     2   2   2   2   2   2   2   2
#     4   9  19  39  61  88 130 165 211 281 330 379
#     4  10  20  39  64  89 132 173 212 275 340 385
#     4  10  23  43  66  94 136 174 217 283 336 389
#     4  11  23  44  68 101 137 167 232 286 326 400
#     4  11  24  41  70 100 131 184 222 269 344 400
#     4  11  23  41  69 102 131 172 224 279 333 398
#     4   9  20  38  63  96 127 168 223 275 331 396
#     4  11  23  44  65  92 137 178 217 276 337 407
#
# _framework density 22.768391999999999
#
# number of rings (size 3 to 8) (size 9 to 14) (size 15 to 20)
#    0.000    1.750    2.500    1.875    0.000    5.500 
#    2.250    0.625    0.000    0.000    0.000    0.000 
#    0.000    0.000    0.000    0.000    0.000    0.000 
#
# Total GULP energy -89218.524907 kJ/mol
# GULP energy per Si atom -5576.157807 kJ/mol
# Density = 2.271657 g / cm^3
# Si number density = 22.768392 Si / 1000 Ang^3
#
#
#
# Elastic Constant Matrix: (Units=GPa)
#
#
# Indices 1 2 3 4 5 6 
#
# 1 166.9403 31.9946 41.2226 -2.0989 5.6872 14.3988
# 2 31.9946 80.7168 36.9123 -16.5907 3.1458 14.2437
# 3 41.2226 36.9123 79.4980 -18.8200 -1.8340 5.6904
# 4 -2.0989 -16.5907 -18.8200 25.9826 5.6824 -2.8832
# 5 5.6872 3.1458 -1.8340 5.6824 39.9119 -6.8024
# 6 14.3988 14.2437 5.6904 -2.8832 -6.8024 31.4032
#
#
#
# Elastic Compliance Matrix: (Units=1/GPa)
#
#
# Indices 1 2 3 4 5 6 
#
# 1 0.007405 -0.001317 -0.003782 -0.003025 -0.001144 -0.002638
# 2 -0.001317 0.018423 -0.005664 0.007621 -0.003776 -0.006844
# 3 -0.003782 -0.005664 0.019474 0.010229 0.000743 0.001874
# 4 -0.003025 0.007621 0.010229 0.052020 -0.007227 -0.000713
# 5 -0.001144 -0.003776 0.000743 -0.007227 0.027853 0.007472
# 6 -0.002638 -0.006844 0.001874 -0.000713 0.007472 0.037371
#
#
# Mechanical properties :
#
#
# Convention : Reuss Voigt Hill
#
# Bulk Modulus (GPa) = 42.05943 60.82378 51.44161
# Shear Modulus (GPa) = 26.04207 33.92789 29.98498
#
# Velocity S-wave (km/s) = 3.38565 3.86441 3.63293
# Velocity P-wave (km/s) = 5.81346 6.83255 6.34350
#
# Compressibility (1/GPa) = 0.02377588
#
# Stress axis : x y z
#
# Youngs Moduli (GPa) = 135.04510 54.28108 51.34966
#
# Poissons Ratio (x) = 0.07151 0.19419
# Poissons Ratio (y) = 0.17791 0.29084
# Poissons Ratio (z) = 0.51069 0.30744
#
# Static dielectric constant tensor:
#      x y z
#    x 2.020050 -0.004320 -0.006780 
#    y -0.004320 1.872860 -0.049920 
#    z -0.006780 -0.049920 1.934600 
# 
# From -- ./inp_files/252573.got.cif
#   From: 2010.05.17/outbox.cif.g08.bks.cpg/sg2_127_cif.got.tgz:252573.got - 2010.06.03 11:33:40.
