data_PCOD9105360
_publ_section_title
;
Structure prediction by ZEFSAII (Michael W. Deem and Ramdas Pophale) SiO2 
 PCOD9105360
Probable space group: P -1
;
_chemical_formula_sum "Si O2"
_cell_formula_units_Z 16
_cell_length_a 13.806717
_cell_length_b 13.871772
_cell_length_c 22.443422
_cell_angle_alpha 162.278899
_cell_angle_beta 32.683007
_cell_angle_gamma 152.615853
_cell_volume 601.530708
_symmetry_space_group_name_H-M "P -1"
_symmetry_group_IT_number 2
_symmetry_cell_setting 'triclinic'
loop_
_space_group_symop_operation_xyz
x,y,z
-x,-y,-z
loop_
_atom_site_type_symbol
_atom_site_label
_atom_site_fract_x
_atom_site_fract_y
_atom_site_fract_z
Si Si1 0.213216 0.274876 0.992248
Si Si2 0.317725 0.520639 0.640078
Si Si3 0.851886 0.589390 0.553240
Si Si4 0.231101 0.621723 0.975258
Si Si5 0.010613 0.448044 0.661216
Si Si6 0.902407 0.817279 0.788589
Si Si7 0.509868 0.396910 0.066903
Si Si8 0.542174 0.493858 0.319888
O O1 0.158086 0.893402 0.828839
O O2 0.414055 0.453660 0.950801
O O3 0.020539 0.153331 0.972414
O O4 0.193605 0.552759 0.210609
O O5 0.500000 0.500000 0.500000
O O6 0.119541 0.354006 0.601621
O O7 0.302229 0.354996 0.616005
O O8 0.397505 0.952184 0.861368
O O9 0.985144 0.753587 0.520083
O O10 0.869347 0.840272 0.748765
O O11 0.604549 0.342714 0.520869
O O12 0.944738 0.342579 0.381022
O O13 0.289048 0.471357 0.915878
O O14 0.358726 0.068152 0.180496
O O15 0.345714 0.536938 0.813702
O O16 0.000000 0.500000 0.000000
O O17 0.668048 0.547385 0.778101
#
# Coordination Sequence:
#
# PCOD9105360 Si02
#       8
#     2   2   2   2   2   2   2   2
#     4  10  23  41  68  92 125 168 219 269 314 380
#     4  11  22  40  64  89 129 169 207 263 322 375
#     4  10  20  39  64  91 128 167 211 258 329 374
#     4  10  23  37  60  92 121 161 210 259 316 373
#     4  10  21  42  63  91 128 174 213 260 324 376
#     4  10  21  41  66  92 127 168 206 275 324 368
#     4  11  23  40  67  98 121 166 227 261 319 390
#     4  10  21  39  62  86 123 166 205 257 314 383
#
# _framework density 26.598808999999999
#
# number of rings (size 3 to 8) (size 9 to 14) (size 15 to 20)
#    0.000    1.750    3.750    0.000    3.500    0.500 
#    0.000   10.000    0.000    0.000    0.000    0.000 
#    0.000    0.000    0.000    0.000    0.000    0.000 
#
# Total GULP energy -89483.747855 kJ/mol
# GULP energy per Si atom -5592.734241 kJ/mol
# Density = 2.653827 g / cm^3
# Si number density = 26.598809 Si / 1000 Ang^3
#
#
#
# Elastic Constant Matrix: (Units=GPa)
#
#
# Indices 1 2 3 4 5 6 
#
# 1 186.5785 48.3581 26.4594 -20.5193 0.3091 -5.8166
# 2 48.3581 95.4220 44.6754 -20.7720 -9.0108 6.8328
# 3 26.4594 44.6754 88.5573 -35.4337 -7.5110 -0.6105
# 4 -20.5193 -20.7720 -35.4337 52.8499 3.6431 11.0113
# 5 0.3091 -9.0108 -7.5110 3.6431 47.7475 -10.6886
# 6 -5.8166 6.8328 -0.6105 11.0113 -10.6886 49.3280
#
#
#
# Elastic Compliance Matrix: (Units=1/GPa)
#
#
# Indices 1 2 3 4 5 6 
#
# 1 0.006301 -0.003096 0.000110 0.001173 -0.000518 0.000799
# 2 -0.003096 0.015594 -0.006423 0.001064 0.001298 -0.002561
# 3 0.000110 -0.006423 0.018617 0.010154 0.000722 -0.000977
# 4 0.001173 0.001064 0.010154 0.028093 -0.001819 -0.006549
# 5 -0.000518 0.001298 0.000722 -0.001819 0.022578 0.005066
# 6 0.000799 -0.002561 -0.000977 -0.006549 0.005066 0.023269
#
#
# Mechanical properties :
#
#
# Convention : Reuss Voigt Hill
#
# Bulk Modulus (GPa) = 46.09738 67.72709 56.91224
# Shear Modulus (GPa) = 35.58686 46.72273 41.15480
#
# Velocity S-wave (km/s) = 3.66172 4.19570 3.93777
# Velocity P-wave (km/s) = 5.93682 6.99925 6.48981
#
# Compressibility (1/GPa) = 0.02169320
#
# Stress axis : x y z
#
# Youngs Moduli (GPa) = 158.70060 64.12899 53.71415
#
# Poissons Ratio (x) = 0.19852 -0.00589
# Poissons Ratio (y) = 0.49127 0.34503
# Poissons Ratio (z) = -0.01741 0.41193
#
# Static dielectric constant tensor:
#      x y z
#    x 2.166260 -0.002380 0.026810 
#    y -0.002380 2.113070 0.047320 
#    z 0.026810 0.047320 2.100900 
# 
# From -- ./inp_files/612150.got.cif
#   From: 2010.05.17/outbox.cif.g08.bks.cpg/sg2_307_cif.got.tgz:612150.got - 2010.06.03 11:33:40.
