data_PCOD9105694
_publ_section_title
;
Structure prediction by ZEFSAII (Michael W. Deem and Ramdas Pophale) SiO2 
 PCOD9105694
Probable space group: P -1
;
_chemical_formula_sum "Si O2"
_cell_formula_units_Z 14
_cell_length_a 13.517176
_cell_length_b 11.800788
_cell_length_c 8.143489
_cell_angle_alpha 144.369817
_cell_angle_beta 121.896689
_cell_angle_gamma 48.016129
_cell_volume 562.151860
_symmetry_space_group_name_H-M "P -1"
_symmetry_group_IT_number 2
_symmetry_cell_setting 'triclinic'
loop_
_space_group_symop_operation_xyz
x,y,z
-x,-y,-z
loop_
_atom_site_type_symbol
_atom_site_label
_atom_site_fract_x
_atom_site_fract_y
_atom_site_fract_z
Si Si1 0.824252 0.132866 0.585126
Si Si2 0.004949 0.663508 0.334798
Si Si3 0.103207 0.554821 0.821011
Si Si4 0.546151 0.449949 0.700220
Si Si5 0.180385 0.047469 0.997397
Si Si6 0.759726 0.391394 0.308793
Si Si7 0.460710 0.869808 0.949334
O O1 0.675781 0.262166 0.687122
O O2 0.825764 0.044099 0.299044
O O3 0.933648 0.919811 0.524502
O O4 0.865185 0.323982 0.858315
O O5 0.902956 0.657842 0.373698
O O6 0.154486 0.568847 0.425793
O O7 0.000000 0.500000 0.000000
O O8 0.197190 0.542185 0.741868
O O9 0.951782 0.722978 0.834474
O O10 0.399778 0.503211 0.693167
O O11 0.551776 0.680400 0.941889
O O12 0.567212 0.302422 0.382346
O O13 0.187051 0.871272 0.928944
O O14 0.322175 0.043751 0.115887
O O15 0.500000 0.000000 0.000000
#
# Coordination Sequence:
#
# PCOD9105694 Si02
#       7
#     2   2   2   2   2   2   2
#     4  11  23  43  66  94 132 168 225 265 324 378
#     4  12  25  42  68  97 128 170 221 272 321 381
#     4  12  24  41  66  96 134 171 213 271 326 386
#     4   9  22  40  61  93 131 170 213 266 319 383
#     4  10  20  39  65  95 121 169 214 267 321 373
#     4  11  24  43  65  97 134 170 216 264 328 394
#     4   9  19  36  62  92 125 166 221 265 314 376
#
# _framework density 24.904304
#
# number of rings (size 3 to 8) (size 9 to 14) (size 15 to 20)
#    0.000    1.429    2.857    3.000    2.000    2.857 
#    0.000    0.714    0.000    0.000    0.000    0.000 
#    0.000    0.000    0.000    0.000    0.000    0.000 
#
# Total GULP energy -78087.487219 kJ/mol
# GULP energy per Si atom -5577.677659 kJ/mol
# Density = 2.484762 g / cm^3
# Si number density = 24.904304 Si / 1000 Ang^3
#
#
#
# Elastic Constant Matrix: (Units=GPa)
#
#
# Indices 1 2 3 4 5 6 
#
# 1 159.7340 60.3174 8.3651 24.5873 8.5064 -4.9637
# 2 60.3174 90.7728 20.3784 19.9326 -1.4247 -26.8925
# 3 8.3651 20.3784 67.1906 -0.0536 3.6813 0.0488
# 4 24.5873 19.9326 -0.0536 31.6143 2.7415 -4.7057
# 5 8.5064 -1.4247 3.6813 2.7415 30.1352 3.8804
# 6 -4.9637 -26.8925 0.0488 -4.7057 3.8804 43.0850
#
#
#
# Elastic Compliance Matrix: (Units=1/GPa)
#
#
# Indices 1 2 3 4 5 6 
#
# 1 0.009243 -0.006636 0.000989 -0.003281 -0.002330 -0.003227
# 2 -0.006636 0.021897 -0.005980 -0.007125 0.002757 0.011883
# 3 0.000989 -0.005980 0.016713 0.002779 -0.002456 -0.003113
# 4 -0.003281 -0.007125 0.002779 0.038920 -0.003254 -0.000285
# 5 -0.002330 0.002757 -0.002456 -0.003254 0.034830 -0.002037
# 6 -0.003227 0.011883 -0.003113 -0.000285 -0.002037 0.030411
#
#
# Mechanical properties :
#
#
# Convention : Reuss Voigt Hill
#
# Bulk Modulus (GPa) = 40.65269 55.09101 47.87185
# Shear Modulus (GPa) = 27.25247 36.20934 31.73090
#
# Velocity S-wave (km/s) = 3.31159 3.81719 3.57334
# Velocity P-wave (km/s) = 5.56607 6.44958 6.02404
#
# Compressibility (1/GPa) = 0.02459862
#
# Stress axis : x y z
#
# Youngs Moduli (GPa) = 108.18513 45.66763 59.83468
#
# Poissons Ratio (x) = 0.30306 -0.05920
# Poissons Ratio (y) = 0.71795 0.35784
# Poissons Ratio (z) = -0.10703 0.27311
#
# Static dielectric constant tensor:
#      x y z
#    x 2.100680 0.055300 -0.048470 
#    y 0.055300 2.193440 -0.124400 
#    z -0.048470 -0.124400 2.028320 
# 
# From -- ./inp_files/263776.got.cif
#   From: 2010.05.17/outbox.cif.g08.bks.cpg/sg2_132_cif.got.tgz:263776.got - 2010.06.03 11:33:40.
