data_PCOD9105233
_publ_section_title
;
Structure prediction by ZEFSAII (Michael W. Deem and Ramdas Pophale) SiO2 
 PCOD9105233
Probable space group: P -1
;
_chemical_formula_sum "Si O2"
_cell_formula_units_Z 16
_cell_length_a 10.469837
_cell_length_b 11.076798
_cell_length_c 9.304626
_cell_angle_alpha 88.779412
_cell_angle_beta 60.396233
_cell_angle_gamma 52.227063
_cell_volume 676.647651
_symmetry_space_group_name_H-M "P -1"
_symmetry_group_IT_number 2
_symmetry_cell_setting 'triclinic'
loop_
_space_group_symop_operation_xyz
x,y,z
-x,-y,-z
loop_
_atom_site_type_symbol
_atom_site_label
_atom_site_fract_x
_atom_site_fract_y
_atom_site_fract_z
Si Si1 0.859516 0.955892 0.397816
Si Si2 0.676122 0.296829 0.922849
Si Si3 0.493087 0.770155 0.209605
Si Si4 0.262230 0.124533 0.003603
Si Si5 0.680754 0.150444 0.194863
Si Si6 0.161914 0.230749 0.380722
Si Si7 0.127331 0.523367 0.840781
Si Si8 0.228644 0.441256 0.471504
O O1 0.788764 0.862705 0.494147
O O2 0.104205 0.813980 0.272907
O O3 0.717630 0.107908 0.586922
O O4 0.799075 0.041367 0.273928
O O5 0.562271 0.249036 0.913850
O O6 0.500000 0.500000 0.000000
O O7 0.744298 0.218806 0.047168
O O8 0.611600 0.831009 0.126063
O O9 0.654546 0.590171 0.203377
O O10 0.336722 0.962731 0.886588
O O11 0.259347 0.127724 0.180351
O O12 0.022546 0.277680 0.093555
O O13 0.464799 0.325450 0.360483
O O14 0.206594 0.346329 0.372089
O O15 0.916876 0.366608 0.495820
O O16 0.150039 0.453390 0.672458
O O17 0.000000 0.500000 0.000000
#
# Coordination Sequence:
#
# PCOD9105233 Si02
#       8
#     2   2   2   2   2   2   2   2
#     4  12  26  43  69  99 137 183 232 282 332 405
#     4  12  29  49  70  94 134 188 237 279 335 405
#     4  11  23  45  70 101 139 179 229 277 343 407
#     4  10  23  41  71 109 141 175 213 287 352 407
#     4  12  25  44  71 102 141 168 234 288 348 395
#     4  10  22  39  67  99 142 180 224 270 344 409
#     4   9  20  37  63 100 139 173 213 269 346 403
#     4  10  20  39  64 101 137 180 217 280 341 413
#
# _framework density 23.645986000000001
#
# number of rings (size 3 to 8) (size 9 to 14) (size 15 to 20)
#    0.000    1.250    1.250    3.750    5.250    5.500 
#    0.000    0.625    0.000    0.000    0.000    0.000 
#    0.000    0.000    0.000    0.000    0.000    0.000 
#
# Total GULP energy -89209.540285 kJ/mol
# GULP energy per Si atom -5575.596268 kJ/mol
# Density = 2.359217 g / cm^3
# Si number density = 23.645986 Si / 1000 Ang^3
#
#
#
# Elastic Constant Matrix: (Units=GPa)
#
#
# Indices 1 2 3 4 5 6 
#
# 1 39.3544 22.8201 30.0157 1.2832 -3.7401 -12.7613
# 2 22.8201 104.2180 82.2614 -14.1878 -3.9457 -26.6375
# 3 30.0157 82.2614 123.7446 14.9950 -18.4094 -14.5650
# 4 1.2832 -14.1878 14.9950 44.8632 -12.2592 -0.1759
# 5 -3.7401 -3.9457 -18.4094 -12.2592 31.0717 5.8241
# 6 -12.7613 -26.6375 -14.5650 -0.1759 5.8241 33.6099
#
#
#
# Elastic Compliance Matrix: (Units=1/GPa)
#
#
# Indices 1 2 3 4 5 6 
#
# 1 0.034669 0.004252 -0.010550 0.003218 -0.002597 0.012429
# 2 0.004252 0.037548 -0.026860 0.018862 -0.007142 0.021070
# 3 -0.010550 -0.026860 0.030188 -0.015707 0.009625 -0.013962
# 4 0.003218 0.018862 -0.015707 0.034998 0.005680 0.008563
# 5 -0.002597 -0.007142 0.009625 0.005680 0.040687 -0.009496
# 6 0.012429 0.021070 -0.013962 0.008563 -0.009496 0.046811
#
#
# Mechanical properties :
#
#
# Convention : Reuss Voigt Hill
#
# Bulk Modulus (GPa) = 27.70878 59.72349 43.71614
# Shear Modulus (GPa) = 16.48816 30.72361 23.60589
#
# Velocity S-wave (km/s) = 2.64349 3.60851 3.16302
# Velocity P-wave (km/s) = 4.58923 6.53253 5.64513
#
# Compressibility (1/GPa) = 0.03608964
#
# Stress axis : x y z
#
# Youngs Moduli (GPa) = 28.84413 26.63236 33.12577
#
# Poissons Ratio (x) = -0.11325 0.34946
# Poissons Ratio (y) = -0.12265 0.88977
# Poissons Ratio (z) = 0.30429 0.71536
#
# Static dielectric constant tensor:
#      x y z
#    x 1.922940 -0.040360 -0.060570 
#    y -0.040360 1.996050 0.017140 
#    z -0.060570 0.017140 1.937330 
# 
# From -- ./inp_files/262505.got.cif
#   From: 2010.05.17/outbox.cif.g08.bks.cpg/sg2_132_cif.got.tgz:262505.got - 2010.06.03 11:33:40.
