data_PCOD9105781
_publ_section_title
;
Structure prediction by ZEFSAII (Michael W. Deem and Ramdas Pophale) SiO2 
 PCOD9105781
Probable space group: P -1
;
_chemical_formula_sum "Si O2"
_cell_formula_units_Z 16
_cell_length_a 18.137446
_cell_length_b 7.778054
_cell_length_c 8.512541
_cell_angle_alpha 129.072177
_cell_angle_beta 131.646436
_cell_angle_gamma 69.412584
_cell_volume 691.993474
_symmetry_space_group_name_H-M "P -1"
_symmetry_group_IT_number 2
_symmetry_cell_setting 'triclinic'
loop_
_space_group_symop_operation_xyz
x,y,z
-x,-y,-z
loop_
_atom_site_type_symbol
_atom_site_label
_atom_site_fract_x
_atom_site_fract_y
_atom_site_fract_z
Si Si1 0.781411 0.847447 0.268576
Si Si2 0.876833 0.605790 0.782544
Si Si3 0.012271 0.012839 0.211011
Si Si4 0.417237 0.136329 0.798468
Si Si5 0.161047 0.802810 0.729001
Si Si6 0.542573 0.340830 0.342728
Si Si7 0.236527 0.596748 0.209555
Si Si8 0.266458 0.012516 0.269626
O O1 0.679114 0.880150 0.230673
O O2 0.877944 0.880742 0.533358
O O3 0.812012 0.022657 0.273327
O O4 0.768571 0.601352 0.036662
O O5 0.866815 0.438755 0.525397
O O6 0.843251 0.466721 0.808095
O O7 0.978690 0.755451 0.058078
O O8 0.230009 0.827172 0.243129
O O9 0.934079 0.144635 0.272188
O O10 0.000000 0.000000 0.000000
O O11 0.471799 0.913530 0.760186
O O12 0.370063 0.130465 0.554429
O O13 0.491326 0.333014 0.094933
O O14 0.256206 0.858106 0.010497
O O15 0.500000 0.500000 0.500000
O O16 0.801704 0.792298 0.748797
O O17 0.339740 0.602575 0.453310
#
# Coordination Sequence:
#
# PCOD9105781 Si02
#       8
#     2   2   2   2   2   2   2   2
#     4  12  22  44  71  99 135 183 223 274 340 396
#     4  11  25  48  66  96 141 175 227 282 321 399
#     4  11  26  45  65 103 137 176 231 274 332 400
#     4  10  22  39  68  98 137 171 221 279 329 403
#     4  11  24  43  69  97 137 181 226 277 330 395
#     4  10  20  39  66 103 129 173 224 270 337 398
#     4  11  23  43  74  97 136 181 221 280 337 398
#     4  10  23  42  67 102 130 176 224 268 337 392
#
# _framework density 23.121604000000001
#
# number of rings (size 3 to 8) (size 9 to 14) (size 15 to 20)
#    0.000    1.250    3.750    3.375    3.500    1.000 
#    6.750    0.625    0.000   19.500    0.000    0.000 
#    0.000    0.000    0.000    0.000    0.000    0.000 
#
# Total GULP energy -89389.599630 kJ/mol
# GULP energy per Si atom -5586.849977 kJ/mol
# Density = 2.306898 g / cm^3
# Si number density = 23.121604 Si / 1000 Ang^3
#
#
#
# Elastic Constant Matrix: (Units=GPa)
#
#
# Indices 1 2 3 4 5 6 
#
# 1 27.1439 1.6234 -7.1361 5.3845 -13.2808 -2.3996
# 2 1.6234 66.3869 22.9917 7.6792 -5.7824 -8.5718
# 3 -7.1361 22.9917 172.6165 15.7606 -14.8458 -21.1464
# 4 5.3845 7.6792 15.7606 42.7214 -12.8232 -6.9704
# 5 -13.2808 -5.7824 -14.8458 -12.8232 42.2614 7.6443
# 6 -2.3996 -8.5718 -21.1464 -6.9704 7.6443 35.2683
#
#
#
# Elastic Compliance Matrix: (Units=1/GPa)
#
#
# Indices 1 2 3 4 5 6 
#
# 1 0.045524 -0.000635 0.003613 -0.002359 0.014501 0.001500
# 2 -0.000635 0.016216 -0.001693 -0.001668 0.000475 0.002450
# 3 0.003613 -0.001693 0.006890 -0.001485 0.002300 0.003174
# 4 -0.002359 -0.001668 -0.001485 0.026820 0.006194 0.002502
# 5 0.014501 0.000475 0.002300 0.006194 0.031538 -0.003131
# 6 0.001500 0.002450 0.003174 0.002502 -0.003131 0.032128
#
#
# Mechanical properties :
#
#
# Convention : Reuss Voigt Hill
#
# Bulk Modulus (GPa) = 14.04480 33.45612 23.75046
# Shear Modulus (GPa) = 27.73488 40.62811 34.18150
#
# Velocity S-wave (km/s) = 3.46717 4.19638 3.84908
# Velocity P-wave (km/s) = 4.70275 6.16284 5.48163
#
# Compressibility (1/GPa) = 0.07120073
#
# Stress axis : x y z
#
# Youngs Moduli (GPa) = 21.96634 61.66866 145.13424
#
# Poissons Ratio (x) = 0.03915 -0.52436
# Poissons Ratio (y) = 0.01394 0.24568
# Poissons Ratio (z) = -0.07936 0.10439
#
# Static dielectric constant tensor:
#      x y z
#    x 1.953600 0.048350 0.091780 
#    y 0.048350 1.926560 0.028680 
#    z 0.091780 0.028680 2.007340 
# 
# From -- ./inp_files/329670.got.cif
#   From: 2010.05.17/outbox.cif.g08.bks.cpg/sg2_165_cif.got.tgz:329670.got - 2010.06.03 11:33:40.
