data_PCOD9105032
_publ_section_title
;
Structure prediction by ZEFSAII (Michael W. Deem and Ramdas Pophale) SiO2 
 PCOD9105032
Probable space group: P -1
;
_chemical_formula_sum "Si O2"
_cell_formula_units_Z 14
_cell_length_a 14.838200
_cell_length_b 6.587133
_cell_length_c 9.254162
_cell_angle_alpha 57.128877
_cell_angle_beta 55.424065
_cell_angle_gamma 82.978629
_cell_volume 602.521496
_symmetry_space_group_name_H-M "P -1"
_symmetry_group_IT_number 2
_symmetry_cell_setting 'triclinic'
loop_
_space_group_symop_operation_xyz
x,y,z
-x,-y,-z
loop_
_atom_site_type_symbol
_atom_site_label
_atom_site_fract_x
_atom_site_fract_y
_atom_site_fract_z
Si Si1 0.999526 0.220134 0.572773
Si Si2 0.571219 0.291597 0.830676
Si Si3 0.263815 0.858104 0.466953
Si Si4 0.855972 0.723293 0.870206
Si Si5 0.645489 0.567674 0.948711
Si Si6 0.913357 0.611008 0.172504
Si Si7 0.139534 0.988057 0.773079
O O1 0.063687 0.250073 0.351049
O O2 0.076775 0.103529 0.656578
O O3 0.000000 0.500000 0.500000
O O4 0.875520 0.020814 0.770724
O O5 0.652123 0.293029 0.618643
O O6 0.636952 0.384871 0.887642
O O7 0.478070 0.451325 0.862700
O O8 0.500000 0.000000 0.000000
O O9 0.140606 0.668092 0.613621
O O10 0.242259 0.906652 0.637009
O O11 0.304468 0.141033 0.260842
O O12 0.734532 0.555289 0.996413
O O13 0.901873 0.613363 0.010057
O O14 0.832469 0.781433 0.232894
O O15 0.958201 0.228281 0.975793
#
# Coordination Sequence:
#
# PCOD9105032 Si02
#       7
#     2   2   2   2   2   2   2
#     4  10  22  36  58  86 122 162 206 244 289 350
#     4   9  21  38  64  92 111 151 207 256 300 356
#     4  11  20  36  62  87 116 159 198 247 299 350
#     4  10  22  39  55  91 123 156 198 252 292 355
#     4  10  20  39  63  89 119 151 208 251 297 358
#     4  10  23  36  56  87 126 164 197 239 299 355
#     4  10  21  38  57  85 123 167 206 237 284 366
#
# _framework density 23.235685
#
# number of rings (size 3 to 8) (size 9 to 14) (size 15 to 20)
#    0.000    2.000    1.429    1.286    2.000    4.571 
#    0.000    0.714    0.000    8.571    0.000    0.000 
#    0.000    0.000    0.000    0.000    0.000    0.000 
#
# Total GULP energy -77996.752698 kJ/mol
# GULP energy per Si atom -5571.196621 kJ/mol
# Density = 2.318280 g / cm^3
# Si number density = 23.235685 Si / 1000 Ang^3
#
#
#
# Elastic Constant Matrix: (Units=GPa)
#
#
# Indices 1 2 3 4 5 6 
#
# 1 68.9771 9.5642 14.7188 -2.1343 -5.5683 12.2438
# 2 9.5642 168.8617 30.4217 2.9360 -13.6725 0.2766
# 3 14.7188 30.4217 92.8026 0.5129 -11.6296 -7.7311
# 4 -2.1343 2.9360 0.5129 51.0241 -2.9558 -16.5241
# 5 -5.5683 -13.6725 -11.6296 -2.9558 27.4543 5.4012
# 6 12.2438 0.2766 -7.7311 -16.5241 5.4012 32.0294
#
#
#
# Elastic Compliance Matrix: (Units=1/GPa)
#
#
# Indices 1 2 3 4 5 6 
#
# 1 0.016926 -0.000089 -0.002914 -0.001883 0.003676 -0.008764
# 2 -0.000089 0.006489 -0.001887 -0.000605 0.002590 -0.001227
# 3 -0.002914 -0.001887 0.012604 0.001467 0.003099 0.004407
# 4 -0.001883 -0.000605 0.001467 0.023878 -0.000132 0.013420
# 5 0.003676 0.002590 0.003099 -0.000132 0.041274 -0.007708
# 6 -0.008764 -0.001227 0.004407 0.013420 -0.007708 0.043869
#
#
# Mechanical properties :
#
#
# Convention : Reuss Voigt Hill
#
# Bulk Modulus (GPa) = 38.11328 48.89453 43.50391
# Shear Modulus (GPa) = 30.56821 40.49735 35.53278
#
# Velocity S-wave (km/s) = 3.63102 4.17933 3.91478
# Velocity P-wave (km/s) = 5.83246 6.66165 6.26080
#
# Compressibility (1/GPa) = 0.02623757
#
# Stress axis : x y z
#
# Youngs Moduli (GPa) = 59.08089 154.09865 79.34084
#
# Poissons Ratio (x) = 0.01370 0.23124
# Poissons Ratio (y) = 0.00525 0.14975
# Poissons Ratio (z) = 0.17219 0.29085
#
# Static dielectric constant tensor:
#      x y z
#    x 1.965210 0.003970 0.002050 
#    y 0.003970 2.014870 -0.005920 
#    z 0.002050 -0.005920 1.902040 
# 
# From -- ./inp_files/288344.got.cif
#   From: 2010.05.17/outbox.cif.g08.bks.cpg/sg2_145_cif.got.tgz:288344.got - 2010.06.03 11:33:40.
