data_PCOD9105579
_publ_section_title
;
Structure prediction by ZEFSAII (Michael W. Deem and Ramdas Pophale) SiO2 
 PCOD9105579
Probable space group: P -1
;
_chemical_formula_sum "Si O2"
_cell_formula_units_Z 16
_cell_length_a 15.854120
_cell_length_b 8.821520
_cell_length_c 11.524610
_cell_angle_alpha 129.210430
_cell_angle_beta 105.876080
_cell_angle_gamma 43.483249
_cell_volume 805.936360
_symmetry_space_group_name_H-M "P -1"
_symmetry_group_IT_number 2
_symmetry_cell_setting 'triclinic'
loop_
_space_group_symop_operation_xyz
x,y,z
-x,-y,-z
loop_
_atom_site_type_symbol
_atom_site_label
_atom_site_fract_x
_atom_site_fract_y
_atom_site_fract_z
Si Si1 0.728201 0.211963 0.248522
Si Si2 0.826558 0.720992 0.801639
Si Si3 0.547241 0.351547 0.074803
Si Si4 0.960253 0.989670 0.103679
Si Si5 0.157169 0.728730 0.464065
Si Si6 0.297848 0.574306 0.198692
Si Si7 0.068199 0.205157 0.320424
Si Si8 0.830230 0.614919 0.999554
O O1 0.589196 0.432702 0.234782
O O2 0.817651 0.146531 0.146583
O O3 0.781501 0.248152 0.395675
O O4 0.763401 0.929166 0.158333
O O5 0.821081 0.536829 0.632433
O O6 0.900001 0.767544 0.782704
O O7 0.891997 0.545353 0.861368
O O8 0.681542 0.018675 0.931814
O O9 0.440887 0.393073 0.119479
O O10 0.500000 0.500000 0.000000
O O11 0.984805 0.143442 0.264899
O O12 0.055033 0.656163 0.010419
O O13 0.000000 0.000000 0.000000
O O14 0.248485 0.634082 0.341784
O O15 0.000000 0.000000 0.500000
O O16 0.265098 0.414297 0.057121
O O17 0.206211 0.901550 0.274890
O O18 0.000000 0.500000 0.500000
#
# Coordination Sequence:
#
# PCOD9105579 Si02
#       8
#     2   2   2   2   2   2   2   2
#     4  11  23  39  62  94 127 169 212 265 321 373
#     4  10  20  39  65  90 123 172 208 263 320 373
#     4  11  23  43  68  88 128 171 226 265 304 377
#     4  11  22  35  57  90 128 159 208 265 315 380
#     4  11  23  42  65  96 136 162 206 269 333 390
#     4  10  22  40  66  90 125 170 213 261 320 377
#     4  11  21  36  61  91 121 163 209 256 330 380
#     4   9  21  37  61  91 121 162 215 261 320 374
#
# _framework density 19.852685000000001
#
# number of rings (size 3 to 8) (size 9 to 14) (size 15 to 20)
#    0.000    1.500    1.250    5.625    1.750    8.000 
#    0.000    0.625    0.000    0.000    0.000    0.000 
#    0.000    0.000    0.000    0.000    0.000    0.000 
#
# Total GULP energy -89069.385517 kJ/mol
# GULP energy per Si atom -5566.836595 kJ/mol
# Density = 1.980750 g / cm^3
# Si number density = 19.852685 Si / 1000 Ang^3
#
#
#
# Elastic Constant Matrix: (Units=GPa)
#
#
# Indices 1 2 3 4 5 6 
#
# 1 145.8305 40.2122 29.2791 -6.5361 -10.0412 -13.3914
# 2 40.2122 67.7219 29.4296 -8.8026 15.2367 8.8443
# 3 29.2791 29.4296 94.7849 -8.4990 14.4896 -9.4104
# 4 -6.5361 -8.8026 -8.4990 30.4235 -0.7171 3.7627
# 5 -10.0412 15.2367 14.4896 -0.7171 40.8337 -3.2563
# 6 -13.3914 8.8443 -9.4104 3.7627 -3.2563 37.8269
#
#
#
# Elastic Compliance Matrix: (Units=1/GPa)
#
#
# Indices 1 2 3 4 5 6 
#
# 1 0.010170 -0.007815 -0.001190 -0.000974 0.006282 0.005769
# 2 -0.007815 0.026130 -0.004673 0.005748 -0.010833 -0.011543
# 3 -0.001190 -0.004673 0.013320 0.001602 -0.002962 0.003571
# 4 -0.000974 0.005748 0.001602 0.035330 -0.002734 -0.005040
# 5 0.006282 -0.010833 -0.002962 -0.002734 0.031639 0.007015
# 6 0.005769 -0.011543 0.003571 -0.005040 0.007015 0.033171
#
#
# Mechanical properties :
#
#
# Convention : Reuss Voigt Hill
#
# Bulk Modulus (GPa) = 44.91886 56.24213 50.58049
# Shear Modulus (GPa) = 27.09494 35.77791 31.43642
#
# Velocity S-wave (km/s) = 3.69833 4.24980 3.98362
# Velocity P-wave (km/s) = 6.39625 7.24378 6.83317
#
# Compressibility (1/GPa) = 0.02226236
#
# Stress axis : x y z
#
# Youngs Moduli (GPa) = 98.33023 38.27090 75.07632
#
# Poissons Ratio (x) = 0.29909 0.08933
# Poissons Ratio (y) = 0.76846 0.35086
# Poissons Ratio (z) = 0.11700 0.17886
#
# Static dielectric constant tensor:
#      x y z
#    x 1.753950 -0.042940 0.003600 
#    y -0.042940 1.768670 -0.056840 
#    z 0.003600 -0.056840 1.798780 
# 
# From -- ./inp_files/402161.got.cif
#   From: 2010.05.17/outbox.cif.g08.bks.cpg/sg2_202_cif.got.tgz:402161.got - 2010.06.03 11:33:40.
