data_PCOD9105959
_publ_section_title
;
Structure prediction by ZEFSAII (Michael W. Deem and Ramdas Pophale) SiO2 
 PCOD9105959
Probable space group: P -1
;
_chemical_formula_sum "Si O2"
_cell_formula_units_Z 15
_cell_length_a 11.120506
_cell_length_b 14.211992
_cell_length_c 11.644549
_cell_angle_alpha 122.579415
_cell_angle_beta 99.639418
_cell_angle_gamma 31.139577
_cell_volume 592.862560
_symmetry_space_group_name_H-M "P -1"
_symmetry_group_IT_number 2
_symmetry_cell_setting 'triclinic'
loop_
_space_group_symop_operation_xyz
x,y,z
-x,-y,-z
loop_
_atom_site_type_symbol
_atom_site_label
_atom_site_fract_x
_atom_site_fract_y
_atom_site_fract_z
Si Si1 0.285725 0.498513 0.656132
Si Si2 0.439953 0.995767 0.864463
Si Si3 0.869122 0.618340 0.390970
Si Si4 0.341774 0.225151 0.782650
Si Si5 0.997202 0.160346 0.936538
Si Si6 0.000000 0.000000 0.000000
Si Si7 0.065272 0.958719 0.617269
Si Si8 0.757382 0.057470 0.804906
O O1 0.310537 0.347387 0.589262
O O2 0.570389 0.309723 0.505462
O O3 0.965872 0.787579 0.724902
O O4 0.230143 0.619984 0.844515
O O5 0.798825 0.657176 0.672727
O O6 0.300992 0.188642 0.867406
O O7 0.216864 0.079572 0.901107
O O8 0.500000 0.000000 0.000000
O O9 0.897827 0.589344 0.237857
O O10 0.660948 0.900750 0.570008
O O11 0.431350 0.277183 0.859216
O O12 0.890517 0.202732 0.824919
O O13 0.188968 0.896895 0.853415
O O14 0.247344 0.845753 0.033126
O O15 0.946680 0.947641 0.655211
O O16 0.000000 0.000000 0.500000
#
# Coordination Sequence:
#
# PCOD9105959 Si02
#       8
#     2   2   2   2   2   1   2   2
#     4  11  21  43  67  93 132 174 223 276 335 391
#     4  12  22  42  68  97 133 176 217 270 339 399
#     4  11  24  42  66  99 135 172 220 278 332 399
#     4  11  24  41  68 100 134 172 224 274 336 399
#     4  10  22  40  69  96 130 174 220 271 335 397
#     4   8  18  40  62  92 124 164 220 270 316 386
#     4  11  24  40  65  95 133 175 223 274 331 398
#     4  10  20  39  66  96 126 177 221 273 330 397
#
# _framework density 25.300974
#
# number of rings (size 3 to 8) (size 9 to 14) (size 15 to 20)
#    0.000    1.333    2.667    3.200    1.867    2.133 
#    0.000    1.333    0.000    0.000    0.000    0.000 
#    0.000    0.000    0.000    0.000    0.000    0.000 
#
# Total GULP energy -83619.848025 kJ/mol
# GULP energy per Si atom -5574.656535 kJ/mol
# Density = 2.524339 g / cm^3
# Si number density = 25.300974 Si / 1000 Ang^3
#
#
#
# Elastic Constant Matrix: (Units=GPa)
#
#
# Indices 1 2 3 4 5 6 
#
# 1 109.4682 31.5931 32.0374 -29.7660 -16.7277 6.6320
# 2 31.5931 131.3662 28.5925 -30.5474 -0.1548 9.6834
# 3 32.0374 28.5925 102.9394 -36.5860 -2.3722 -4.1029
# 4 -29.7660 -30.5474 -36.5860 57.3204 -3.9606 -2.9573
# 5 -16.7277 -0.1548 -2.3722 -3.9606 44.8227 -16.0527
# 6 6.6320 9.6834 -4.1029 -2.9573 -16.0527 29.8842
#
#
#
# Elastic Compliance Matrix: (Units=1/GPa)
#
#
# Indices 1 2 3 4 5 6 
#
# 1 0.012072 -0.001498 -0.001421 0.004967 0.005181 0.000886
# 2 -0.001498 0.009187 -0.001144 0.003114 -0.001493 -0.003295
# 3 -0.001421 -0.001144 0.013432 0.007638 0.002512 0.004635
# 4 0.004967 0.003114 0.007638 0.027276 0.006519 0.005138
# 5 0.005181 -0.001493 0.002512 0.006519 0.031034 0.016994
# 6 0.000886 -0.003295 0.004635 0.005138 0.016994 0.044607
#
#
# Mechanical properties :
#
#
# Convention : Reuss Voigt Hill
#
# Bulk Modulus (GPa) = 37.64469 58.69109 48.16789
# Shear Modulus (GPa) = 32.34388 43.17552 37.75970
#
# Velocity S-wave (km/s) = 3.57930 4.13543 3.86738
# Velocity P-wave (km/s) = 5.65623 6.78601 6.24671
#
# Compressibility (1/GPa) = 0.02656417
#
# Stress axis : x y z
#
# Youngs Moduli (GPa) = 82.83645 108.84896 74.44993
#
# Poissons Ratio (x) = 0.16307 0.10578
# Poissons Ratio (y) = 0.12410 0.08520
# Poissons Ratio (z) = 0.11770 0.12456
#
# Static dielectric constant tensor:
#      x y z
#    x 2.013220 0.145630 0.100810 
#    y 0.145630 2.276310 0.250410 
#    z 0.100810 0.250410 2.281890 
# 
# From -- ./inp_files/434252.got.cif
#   From: 2010.05.17/outbox.cif.g08.bks.cpg/sg2_218_cif.got.tgz:434252.got - 2010.06.03 11:33:40.
