data_PCOD9105120
_publ_section_title
;
Structure prediction by ZEFSAII (Michael W. Deem and Ramdas Pophale) SiO2 
 PCOD9105120
Probable space group: P -1
;
_chemical_formula_sum "Si O2"
_cell_formula_units_Z 14
_cell_length_a 25.250124
_cell_length_b 5.897929
_cell_length_c 22.830955
_cell_angle_alpha 104.186001
_cell_angle_beta 10.407218
_cell_angle_gamma 103.590136
_cell_volume 595.111130
_symmetry_space_group_name_H-M "P -1"
_symmetry_group_IT_number 2
_symmetry_cell_setting 'triclinic'
loop_
_space_group_symop_operation_xyz
x,y,z
-x,-y,-z
loop_
_atom_site_type_symbol
_atom_site_label
_atom_site_fract_x
_atom_site_fract_y
_atom_site_fract_z
Si Si1 0.309993 0.279730 0.675637
Si Si2 0.250005 0.061478 0.548467
Si Si3 0.790473 0.222067 0.756990
Si Si4 0.630367 0.890707 0.233050
Si Si5 0.535171 0.924756 0.107489
Si Si6 0.145669 0.654381 0.433169
Si Si7 0.180708 0.516866 0.711751
O O1 0.500000 0.500000 0.500000
O O2 0.168169 0.350755 0.771953
O O3 0.507437 0.052877 0.430491
O O4 0.059732 0.279227 0.997405
O O5 0.141436 0.333185 0.691032
O O6 0.495505 0.000826 0.326562
O O7 0.376949 0.008781 0.343462
O O8 0.976132 0.902698 0.850991
O O9 0.705232 0.314510 0.790975
O O10 0.986078 0.409836 0.588670
O O11 0.000000 0.000000 0.500000
O O12 0.542979 0.127051 0.062489
O O13 0.488920 0.639834 0.378590
O O14 0.369437 0.710263 0.244520
O O15 0.870490 0.841467 0.749984
#
# Coordination Sequence:
#
# PCOD9105120 Si02
#       7
#     2   2   2   2   2   2   2
#     4  10  20  39  63  92 119 149 207 258 307 366
#     4  11  25  41  58  89 124 162 211 244 291 374
#     4   9  21  40  66  95 123 158 199 254 306 350
#     4  11  24  41  63  87 122 163 203 253 310 356
#     4  11  23  40  61  88 126 165 201 249 299 356
#     4  10  22  40  64  94 123 155 206 251 300 361
#     4  10  23  40  61  89 122 159 198 259 308 357
#
# _framework density 23.525017999999999
#
# number of rings (size 3 to 8) (size 9 to 14) (size 15 to 20)
#    0.000    1.714    1.429    1.714    2.000   10.286 
#    0.000    0.000    0.000    0.000    0.000    0.000 
#    0.000    0.000    0.000    0.000    0.000    0.000 
#
# Total GULP energy -78350.368306 kJ/mol
# GULP energy per Si atom -5596.454879 kJ/mol
# Density = 2.347147 g / cm^3
# Si number density = 23.525018 Si / 1000 Ang^3
#
#
#
# Elastic Constant Matrix: (Units=GPa)
#
#
# Indices 1 2 3 4 5 6 
#
# 1 117.0719 33.7494 54.5954 10.4841 31.5719 26.5541
# 2 33.7494 86.9757 25.3560 -8.7059 29.5400 11.6276
# 3 54.5954 25.3560 110.4287 -3.6691 31.4536 11.3888
# 4 10.4841 -8.7059 -3.6691 34.8654 1.2569 -5.0998
# 5 31.5719 29.5400 31.4536 1.2569 52.3162 9.3543
# 6 26.5541 11.6276 11.3888 -5.0998 9.3543 33.0698
#
#
#
# Elastic Compliance Matrix: (Units=1/GPa)
#
#
# Indices 1 2 3 4 5 6 
#
# 1 0.015570 -0.003016 -0.005536 -0.007393 -0.002399 -0.009996
# 2 -0.003016 0.015595 0.000142 0.005027 -0.007135 -0.000317
# 3 -0.005536 0.000142 0.013124 0.003534 -0.005045 0.001848
# 4 -0.007393 0.005027 0.003534 0.033957 -0.002929 0.009017
# 5 -0.002399 -0.007135 -0.005045 -0.002929 0.028093 -0.002225
# 6 -0.009996 -0.000317 0.001848 0.009017 -0.002225 0.039761
#
#
# Mechanical properties :
#
#
# Convention : Reuss Voigt Hill
#
# Bulk Modulus (GPa) = 36.40542 60.20866 48.30704
# Shear Modulus (GPa) = 29.05705 37.43531 33.24618
#
# Velocity S-wave (km/s) = 3.51829 3.99344 3.76337
# Velocity P-wave (km/s) = 5.65803 6.84926 6.28194
#
# Compressibility (1/GPa) = 0.02746844
#
# Stress axis : x y z
#
# Youngs Moduli (GPa) = 64.22805 64.12187 76.19739
#
# Poissons Ratio (x) = 0.19341 0.42184
# Poissons Ratio (y) = 0.19373 -0.01085
# Poissons Ratio (z) = 0.35558 -0.00913
#
# Static dielectric constant tensor:
#      x y z
#    x 1.906640 -0.058320 -0.053430 
#    y -0.058320 1.921450 0.052320 
#    z -0.053430 0.052320 1.899840 
# 
# From -- ./inp_files/7666.got.cif
#   From: 2010.05.17/outbox.cif.g08.bks.cpg/sg2_4_cif.got.tgz:7666.got - 2010.06.03 11:33:40.
