data_PCOD9105655
_publ_section_title
;
Structure prediction by ZEFSAII (Michael W. Deem and Ramdas Pophale) SiO2 
 PCOD9105655
Probable space group: P -1
;
_chemical_formula_sum "Si O2"
_cell_formula_units_Z 16
_cell_length_a 25.392929
_cell_length_b 8.609179
_cell_length_c 9.291550
_cell_angle_alpha 128.534967
_cell_angle_beta 55.406189
_cell_angle_gamma 151.141932
_cell_volume 765.550107
_symmetry_space_group_name_H-M "P -1"
_symmetry_group_IT_number 2
_symmetry_cell_setting 'triclinic'
loop_
_space_group_symop_operation_xyz
x,y,z
-x,-y,-z
loop_
_atom_site_type_symbol
_atom_site_label
_atom_site_fract_x
_atom_site_fract_y
_atom_site_fract_z
Si Si1 0.879416 0.279776 0.571581
Si Si2 0.769726 0.674905 0.520511
Si Si3 0.327071 0.622983 0.968260
Si Si4 0.909683 0.805972 0.907146
Si Si5 0.372244 0.922880 0.377787
Si Si6 0.761089 0.020329 0.308337
Si Si7 0.064123 0.257168 0.684598
Si Si8 0.565427 0.212165 0.375342
O O1 0.880286 0.515644 0.725799
O O2 0.820478 0.097343 0.405595
O O3 0.000000 0.500000 0.500000
O O4 0.828984 0.035791 0.645400
O O5 0.703721 0.424697 0.614735
O O6 0.857280 0.724967 0.373173
O O7 0.685024 0.509052 0.429277
O O8 0.414175 0.869647 0.846071
O O9 0.306220 0.333910 0.856442
O O10 0.205319 0.391308 0.983878
O O11 0.365477 0.834896 0.173161
O O12 0.972163 0.079812 0.841132
O O13 0.000000 0.000000 0.000000
O O14 0.319339 0.002544 0.535497
O O15 0.494320 0.213139 0.420462
O O16 0.855969 0.361748 0.262313
O O17 0.000000 0.000000 0.500000
O O18 0.500000 0.000000 0.500000
#
# Coordination Sequence:
#
# PCOD9105655 Si02
#       8
#     2   2   2   2   2   2   2   2
#     4  12  20  38  63  94 130 176 209 252 318 383
#     4  10  20  39  65  93 131 168 218 260 317 387
#     4  12  23  41  65  96 129 162 221 271 320 385
#     4  12  24  36  60  97 134 169 214 265 315 381
#     4  10  23  43  66  94 125 169 218 275 321 374
#     4  11  23  40  66  93 129 174 213 264 321 382
#     4  11  20  39  62  91 132 176 209 253 318 385
#     4  10  22  42  68  92 124 173 213 269 337 378
#
# _framework density 20.900003999999999
#
# number of rings (size 3 to 8) (size 9 to 14) (size 15 to 20)
#    0.000    1.000    5.000    2.625    0.000    2.000 
#    0.000    0.000    0.000   11.250    0.000    0.000 
#    0.000    0.000    0.000    0.000    0.000    0.000 
#
# Total GULP energy -89193.997315 kJ/mol
# GULP energy per Si atom -5574.624832 kJ/mol
# Density = 2.085243 g / cm^3
# Si number density = 20.900004 Si / 1000 Ang^3
#
#
#
# Elastic Constant Matrix: (Units=GPa)
#
#
# Indices 1 2 3 4 5 6 
#
# 1 110.3738 32.4843 17.6764 -11.7093 -9.5795 25.7165
# 2 32.4843 58.6029 12.3927 -13.5322 -11.4682 -19.1689
# 3 17.6764 12.3927 71.6114 -11.7701 -9.9896 -5.5189
# 4 -11.7093 -13.5322 -11.7701 37.6085 2.1623 -1.8312
# 5 -9.5795 -11.4682 -9.9896 2.1623 31.1825 -1.5310
# 6 25.7165 -19.1689 -5.5189 -1.8312 -1.5310 44.1488
#
#
#
# Elastic Compliance Matrix: (Units=1/GPa)
#
#
# Indices 1 2 3 4 5 6 
#
# 1 0.018339 -0.016336 -0.003795 -0.002118 -0.002347 -0.018419
# 2 -0.016336 0.039176 0.002635 0.010557 0.010860 0.027669
# 3 -0.003795 0.002635 0.016392 0.004891 0.004999 0.005780
# 4 -0.002118 0.010557 0.004891 0.031469 0.003002 0.007838
# 5 -0.002347 0.010860 0.004999 0.003002 0.037134 0.008120
# 6 -0.018419 0.027669 0.005780 0.007838 0.008120 0.046722
#
#
# Mechanical properties :
#
#
# Convention : Reuss Voigt Hill
#
# Bulk Modulus (GPa) = 25.69683 40.63276 33.16480
# Shear Modulus (GPa) = 21.07976 34.45695 27.76835
#
# Velocity S-wave (km/s) = 3.17929 4.06477 3.64899
# Velocity P-wave (km/s) = 5.07927 6.44310 5.80140
#
# Compressibility (1/GPa) = 0.03891530
#
# Stress axis : x y z
#
# Youngs Moduli (GPa) = 54.52901 25.52605 61.00698
#
# Poissons Ratio (x) = 0.41700 0.23150
# Poissons Ratio (y) = 0.89079 -0.16078
# Poissons Ratio (z) = 0.20692 -0.06727
#
# Static dielectric constant tensor:
#      x y z
#    x 4.112530 3.585280 2.767820 
#    y 3.585280 7.362530 4.197670 
#    z 2.767820 4.197670 4.978800 
# 
# From -- ./inp_files/223677.got.cif
#   From: 2010.05.17/outbox.cif.g08.bks.cpg/sg2_112_cif.got.tgz:223677.got - 2010.06.03 11:33:40.
