data_PCOD9105676
_publ_section_title
;
Structure prediction by ZEFSAII (Michael W. Deem and Ramdas Pophale) SiO2 
 PCOD9105676
Probable space group: P -1
;
_chemical_formula_sum "Si O2"
_cell_formula_units_Z 16
_cell_length_a 14.132332
_cell_length_b 9.565235
_cell_length_c 11.336663
_cell_angle_alpha 79.109333
_cell_angle_beta 32.234259
_cell_angle_gamma 100.809899
_cell_volume 600.758051
_symmetry_space_group_name_H-M "P -1"
_symmetry_group_IT_number 2
_symmetry_cell_setting 'triclinic'
loop_
_space_group_symop_operation_xyz
x,y,z
-x,-y,-z
loop_
_atom_site_type_symbol
_atom_site_label
_atom_site_fract_x
_atom_site_fract_y
_atom_site_fract_z
Si Si1 0.972429 0.223722 0.208986
Si Si2 0.075273 0.766891 0.235618
Si Si3 0.066744 0.268625 0.355128
Si Si4 0.317071 0.519845 0.642349
Si Si5 0.397589 0.799884 0.697392
Si Si6 0.619095 0.816553 0.872180
Si Si7 0.261479 0.180868 0.500019
Si Si8 0.454629 0.811523 0.270604
O O1 0.111195 0.348180 0.162035
O O2 0.718348 0.160097 0.503577
O O3 0.952628 0.044193 0.258526
O O4 0.069520 0.314327 0.963554
O O5 0.205896 0.732741 0.011941
O O6 0.282343 0.993353 0.010229
O O7 0.985389 0.674657 0.476632
O O8 0.858745 0.730915 0.403153
O O9 0.276193 0.271051 0.167469
O O10 0.832787 0.045165 0.616158
O O11 0.500000 0.500000 0.500000
O O12 0.297435 0.647842 0.725209
O O13 0.397771 0.631209 0.418607
O O14 0.500000 0.000000 0.500000
O O15 0.605849 0.809945 0.529113
O O16 0.421007 0.774892 0.171940
O O17 0.564337 0.752814 0.805722
#
# Coordination Sequence:
#
# PCOD9105676 Si02
#       8
#     2   2   2   2   2   2   2   2
#     4  11  21  36  64  96 128 168 213 257 323 380
#     4  10  20  39  65  94 130 158 216 270 308 367
#     4   8  16  31  58  93 122 163 204 261 315 369
#     4  12  26  45  61  88 133 175 209 259 319 386
#     4  12  25  44  65  97 127 167 218 264 312 380
#     4   8  16  31  60  93 124 153 215 264 306 366
#     4  10  21  40  68  99 122 167 212 267 320 366
#     4  11  20  37  62  96 124 167 215 264 306 374
#
# _framework density 26.633018
#
# number of rings (size 3 to 8) (size 9 to 14) (size 15 to 20)
#    0.000    1.750    2.500    4.125    1.750    2.000 
#    4.500    0.625    0.000    2.250    0.000    0.000 
#    0.000    0.000    0.000    0.000    0.000    0.000 
#
# Total GULP energy -89505.100469 kJ/mol
# GULP energy per Si atom -5594.068779 kJ/mol
# Density = 2.657240 g / cm^3
# Si number density = 26.633018 Si / 1000 Ang^3
#
#
#
# Elastic Constant Matrix: (Units=GPa)
#
#
# Indices 1 2 3 4 5 6 
#
# 1 95.6323 11.0655 -1.5641 2.6644 1.9170 -20.2286
# 2 11.0655 81.7224 14.1079 7.3882 6.7466 1.3112
# 3 -1.5641 14.1079 81.7762 9.4019 7.7049 1.6545
# 4 2.6644 7.3882 9.4019 32.3246 -10.7759 6.1883
# 5 1.9170 6.7466 7.7049 -10.7759 32.8501 14.3334
# 6 -20.2286 1.3112 1.6545 6.1883 14.3334 34.0041
#
#
#
# Elastic Compliance Matrix: (Units=1/GPa)
#
#
# Indices 1 2 3 4 5 6 
#
# 1 0.013791 -0.001009 0.001837 -0.007025 -0.009127 0.013280
# 2 -0.001009 0.013361 -0.001431 -0.004370 -0.004502 0.001647
# 3 0.001837 -0.001431 0.013997 -0.007462 -0.007769 0.005100
# 4 -0.007025 -0.004370 -0.007462 0.049763 0.030542 -0.025578
# 5 -0.009127 -0.004502 -0.007769 0.030542 0.059177 -0.035381
# 6 0.013280 0.001647 0.005100 -0.025578 -0.035381 0.056565
#
#
# Mechanical properties :
#
#
# Convention : Reuss Voigt Hill
#
# Bulk Modulus (GPa) = 25.03576 34.03883 29.53729
# Shear Modulus (GPa) = 22.60665 35.53720 29.07193
#
# Velocity S-wave (km/s) = 2.91661 3.65681 3.30748
# Velocity P-wave (km/s) = 4.55663 5.53517 5.06956
#
# Compressibility (1/GPa) = 0.03994286
#
# Stress axis : x y z
#
# Youngs Moduli (GPa) = 72.51037 74.84737 71.44280
#
# Poissons Ratio (x) = 0.07551 -0.13123
# Poissons Ratio (y) = 0.07316 0.10223
# Poissons Ratio (z) = -0.13319 0.10710
#
# Static dielectric constant tensor:
#      x y z
#    x 2.145690 0.028760 0.064910 
#    y 0.028760 2.068730 -0.077300 
#    z 0.064910 -0.077300 2.161220 
# 
# From -- ./inp_files/311954.got.cif
#   From: 2010.05.17/outbox.cif.g08.bks.cpg/sg2_156_cif.got.tgz:311954.got - 2010.06.03 11:33:40.
