data_PCOD9105654
_publ_section_title
;
Structure prediction by ZEFSAII (Michael W. Deem and Ramdas Pophale) SiO2 
 PCOD9105654
Probable space group: P -1
;
_chemical_formula_sum "Si O2"
_cell_formula_units_Z 16
_cell_length_a 17.454010
_cell_length_b 5.900926
_cell_length_c 12.849007
_cell_angle_alpha 116.154894
_cell_angle_beta 30.032271
_cell_angle_gamma 116.036422
_cell_volume 589.656784
_symmetry_space_group_name_H-M "P -1"
_symmetry_group_IT_number 2
_symmetry_cell_setting 'triclinic'
loop_
_space_group_symop_operation_xyz
x,y,z
-x,-y,-z
loop_
_atom_site_type_symbol
_atom_site_label
_atom_site_fract_x
_atom_site_fract_y
_atom_site_fract_z
Si Si1 0.173495 0.442852 0.303029
Si Si2 0.555722 0.218966 0.062121
Si Si3 0.699556 0.122870 0.281739
Si Si4 0.687643 0.423947 0.608754
Si Si5 0.007383 0.435869 0.187543
Si Si6 0.376082 0.058675 0.894462
Si Si7 0.735136 0.692215 0.306142
Si Si8 0.004153 0.075740 0.807954
O O1 0.221503 0.480672 0.374701
O O2 0.000000 0.500000 0.500000
O O3 0.292717 0.643038 0.142517
O O4 0.238060 0.186152 0.136538
O O5 0.406372 0.359228 0.276329
O O6 0.613675 0.195891 0.106897
O O7 0.500000 0.000000 0.000000
O O8 0.653222 0.411787 0.382617
O O9 0.646223 0.972198 0.206867
O O10 0.656961 0.911966 0.380384
O O11 0.883947 0.152333 0.050779
O O12 0.824823 0.359257 0.360290
O O13 0.542953 0.212343 0.758675
O O14 0.017144 0.745326 0.230818
O O15 0.023971 0.232507 0.220201
O O16 0.136267 0.375620 0.942369
O O17 0.828792 0.832200 0.320939
#
# Coordination Sequence:
#
# PCOD9105654 Si02
#       8
#     2   2   2   2   2   2   2   2
#     4  11  25  40  65  96 130 164 223 278 327 384
#     4  11  21  45  66  82 126 191 221 251 336 405
#     4  10  21  34  63  95 122 161 220 263 317 388
#     4  11  24  41  62  90 132 174 217 266 329 393
#     4  10  21  34  64  96 123 161 221 265 319 386
#     4  11  24  42  63  89 129 180 214 264 328 398
#     4  10  20  40  64  94 130 167 206 272 348 397
#     4  10  20  39  65  93 131 166 207 271 348 397
#
# _framework density 27.134429999999998
#
# number of rings (size 3 to 8) (size 9 to 14) (size 15 to 20)
#    0.000    1.500    2.500    4.500    8.750    1.500 
#    2.250    0.000    0.000    8.250    0.000    0.000 
#    0.000    0.000    0.000    0.000    0.000    0.000 
#
# Total GULP energy -89324.784641 kJ/mol
# GULP energy per Si atom -5582.799040 kJ/mol
# Density = 2.707267 g / cm^3
# Si number density = 27.134430 Si / 1000 Ang^3
#
#
#
# Elastic Constant Matrix: (Units=GPa)
#
#
# Indices 1 2 3 4 5 6 
#
# 1 157.0500 57.4022 39.9602 9.9329 -20.5948 -22.0363
# 2 57.4022 175.8185 31.8784 1.1881 -7.0803 -33.8870
# 3 39.9602 31.8784 176.5775 15.5227 -18.9903 -0.2042
# 4 9.9329 1.1881 15.5227 32.8087 0.2723 -6.6939
# 5 -20.5948 -7.0803 -18.9903 0.2723 25.4974 3.2918
# 6 -22.0363 -33.8870 -0.2042 -6.6939 3.2918 50.6711
#
#
#
# Elastic Compliance Matrix: (Units=1/GPa)
#
#
# Indices 1 2 3 4 5 6 
#
# 1 0.008371 -0.002035 -0.000786 -0.001789 0.005412 0.001688
# 2 -0.002035 0.007335 -0.001124 0.001771 -0.001020 0.004316
# 3 -0.000786 -0.001124 0.006808 -0.003345 0.004391 -0.001793
# 4 -0.001789 0.001771 -0.003345 0.033622 -0.004465 0.005125
# 5 0.005412 -0.001020 0.004391 -0.004465 0.046877 -0.001946
# 6 0.001688 0.004316 -0.001793 0.005125 -0.001946 0.024152
#
#
# Mechanical properties :
#
#
# Convention : Reuss Voigt Hill
#
# Bulk Modulus (GPa) = 68.37991 85.32528 76.85259
# Shear Modulus (GPa) = 35.73218 47.14246 41.43732
#
# Velocity S-wave (km/s) = 3.63279 4.17270 3.91207
# Velocity P-wave (km/s) = 6.54609 7.39789 6.98499
#
# Compressibility (1/GPa) = 0.01462418
#
# Stress axis : x y z
#
# Youngs Moduli (GPa) = 119.46101 136.33814 146.88185
#
# Poissons Ratio (x) = 0.27746 0.11540
# Poissons Ratio (y) = 0.24311 0.16511
# Poissons Ratio (z) = 0.09385 0.15326
#
# Static dielectric constant tensor:
#      x y z
#    x 1.796540 0.054710 -0.339640 
#    y 0.054710 2.180220 0.108840 
#    z -0.339640 0.108840 1.725110 
# 
# From -- ./inp_files/105179.got.cif
#   From: 2010.05.17/outbox.cif.g08.bks.cpg/sg2_53_cif.got.tgz:105179.got - 2010.06.03 11:33:40.
