data_PCOD9105309
_publ_section_title
;
Structure prediction by ZEFSAII (Michael W. Deem and Ramdas Pophale) SiO2 
 PCOD9105309
Probable space group: P -1
;
_chemical_formula_sum "Si O2"
_cell_formula_units_Z 14
_cell_length_a 6.767406
_cell_length_b 6.154762
_cell_length_c 18.189322
_cell_angle_alpha 117.731501
_cell_angle_beta 94.949944
_cell_angle_gamma 108.235100
_cell_volume 612.208933
_symmetry_space_group_name_H-M "P -1"
_symmetry_group_IT_number 2
_symmetry_cell_setting 'triclinic'
loop_
_space_group_symop_operation_xyz
x,y,z
-x,-y,-z
loop_
_atom_site_type_symbol
_atom_site_label
_atom_site_fract_x
_atom_site_fract_y
_atom_site_fract_z
Si Si1 0.111972 0.727539 0.936341
Si Si2 0.965766 0.663477 0.321273
Si Si3 0.851184 0.811454 0.194119
Si Si4 0.644075 0.106914 0.163672
Si Si5 0.407047 0.064221 0.430678
Si Si6 0.198413 0.465443 0.541369
Si Si7 0.808912 0.901408 0.869125
O O1 0.293409 0.947891 0.925189
O O2 0.159970 0.468756 0.882463
O O3 0.129332 0.834457 0.035625
O O4 0.887019 0.709489 0.890245
O O5 0.845354 0.363158 0.240976
O O6 0.877365 0.649105 0.398096
O O7 0.895473 0.828818 0.284713
O O8 0.225967 0.789226 0.350898
O O9 0.055756 0.019197 0.188711
O O10 0.640834 0.864325 0.175039
O O11 0.440942 0.183878 0.168925
O O12 0.277048 0.253012 0.472329
O O13 0.601546 0.243971 0.412047
O O14 0.500000 0.000000 0.500000
O O15 0.000000 0.500000 0.500000
#
# Coordination Sequence:
#
# PCOD9105309 Si02
#       7
#     2   2   2   2   2   2   2
#     4   9  20  40  61  90 129 168 217 273 310 376
#     4  11  25  43  64  95 140 163 211 271 322 384
#     4  10  23  39  58  93 131 167 212 264 324 376
#     4  10  23  39  60  95 127 169 216 262 321 384
#     4  11  25  45  70  98 124 170 216 263 322 384
#     4  11  25  45  70  98 126 166 221 261 318 391
#     4  10  20  39  64  89 127 175 216 261 321 380
#
# _framework density 22.868012
#
# number of rings (size 3 to 8) (size 9 to 14) (size 15 to 20)
#    0.000    1.714    1.429    1.286    4.000    2.857 
#    5.143    0.000    0.000    0.000    0.000    0.000 
#    0.000    0.000    0.000    0.000    0.000    0.000 
#
# Total GULP energy -78185.819402 kJ/mol
# GULP energy per Si atom -5584.701386 kJ/mol
# Density = 2.281596 g / cm^3
# Si number density = 22.868012 Si / 1000 Ang^3
#
#
#
# Elastic Constant Matrix: (Units=GPa)
#
#
# Indices 1 2 3 4 5 6 
#
# 1 95.0185 34.9777 31.7803 0.7052 14.8751 0.3213
# 2 34.9777 79.9880 36.0191 -11.3722 18.3695 5.1872
# 3 31.7803 36.0191 77.6842 -11.9172 13.1963 8.3113
# 4 0.7052 -11.3722 -11.9172 41.6884 7.2400 -8.3960
# 5 14.8751 18.3695 13.1963 7.2400 30.0084 -9.3103
# 6 0.3213 5.1872 8.3113 -8.3960 -9.3103 45.0590
#
#
#
# Elastic Compliance Matrix: (Units=1/GPa)
#
#
# Indices 1 2 3 4 5 6 
#
# 1 0.013596 -0.004141 -0.003626 -0.001989 -0.002052 0.000254
# 2 -0.004141 0.019596 -0.004623 0.005332 -0.009953 -0.002437
# 3 -0.003626 -0.004623 0.018453 0.004398 -0.005532 -0.003169
# 4 -0.001989 0.005332 0.004398 0.028940 -0.010641 0.001783
# 5 -0.002052 -0.009953 -0.005532 -0.010641 0.048611 0.010242
# 6 0.000254 -0.002437 -0.003169 0.001783 0.010242 0.025505
#
#
# Mechanical properties :
#
#
# Convention : Reuss Voigt Hill
#
# Bulk Modulus (GPa) = 37.22130 50.91609 44.06870
# Shear Modulus (GPa) = 26.53433 33.34538 29.93986
#
# Velocity S-wave (km/s) = 3.41005 3.82274 3.62228
# Velocity P-wave (km/s) = 5.64061 6.46514 6.06690
#
# Compressibility (1/GPa) = 0.02686634
#
# Stress axis : x y z
#
# Youngs Moduli (GPa) = 73.54884 51.03130 54.19238
#
# Poissons Ratio (x) = 0.21130 0.19650
# Poissons Ratio (y) = 0.30454 0.25051
# Poissons Ratio (z) = 0.26669 0.23590
#
# Static dielectric constant tensor:
#      x y z
#    x 1.876670 -0.004640 0.000090 
#    y -0.004640 1.943300 -0.002050 
#    z 0.000090 -0.002050 1.868120 
# 
# From -- ./inp_files/7870.got.cif
#   From: 2010.05.17/outbox.cif.g08.bks.cpg/sg2_4_cif.got.tgz:7870.got - 2010.06.03 11:33:40.
