data_PCOD9105097
_publ_section_title
;
Structure prediction by ZEFSAII (Michael W. Deem and Ramdas Pophale) SiO2 
 PCOD9105097
Probable space group: P -1
;
_chemical_formula_sum "Si O2"
_cell_formula_units_Z 14
_cell_length_a 11.850565
_cell_length_b 9.419548
_cell_length_c 10.337337
_cell_angle_alpha 101.820919
_cell_angle_beta 52.360484
_cell_angle_gamma 137.500546
_cell_volume 548.540048
_symmetry_space_group_name_H-M "P -1"
_symmetry_group_IT_number 2
_symmetry_cell_setting 'triclinic'
loop_
_space_group_symop_operation_xyz
x,y,z
-x,-y,-z
loop_
_atom_site_type_symbol
_atom_site_label
_atom_site_fract_x
_atom_site_fract_y
_atom_site_fract_z
Si Si1 0.269302 0.738987 0.372013
Si Si2 0.884289 0.008927 0.364230
Si Si3 0.365626 0.542649 0.099880
Si Si4 0.356374 0.021526 0.155409
Si Si5 0.982941 0.188254 0.880615
Si Si6 0.516511 0.454967 0.332061
Si Si7 0.403814 0.153184 0.699832
O O1 0.398366 0.709682 0.199053
O O2 0.310942 0.928124 0.314604
O O3 0.376891 0.778991 0.439099
O O4 0.000000 0.500000 0.500000
O O5 0.103235 0.289793 0.270323
O O6 0.742838 0.823887 0.548510
O O7 0.698011 0.933421 0.388471
O O8 0.988844 0.959659 0.196988
O O9 0.500000 0.500000 0.000000
O O10 0.475923 0.703288 0.922291
O O11 0.132192 0.851462 0.183465
O O12 0.500000 0.000000 0.000000
O O13 0.238904 0.435913 0.802178
O O14 0.803234 0.064842 0.100404
O O15 0.500000 0.500000 0.500000
O O16 0.542854 0.630355 0.270828
#
# Coordination Sequence:
#
# PCOD9105097 Si02
#       7
#     2   2   2   2   2   2   2
#     4  11  25  39  62  89 126 161 202 242 300 374
#     4  10  20  34  58  89 120 148 197 263 304 328
#     4  11  21  41  65  90 120 159 202 252 302 348
#     4  10  20  37  61  85 119 162 202 231 310 367
#     4  10  16  33  60  86 112 156 208 242 284 363
#     4   8  18  29  53  84 120 147 196 249 302 337
#     4  10  18  35  57  87 113 161 206 237 286 371
#
# _framework density 25.522293999999999
#
# number of rings (size 3 to 8) (size 9 to 14) (size 15 to 20)
#    0.000    2.286    4.286    1.714    6.000    0.000 
#    0.000    7.143    0.000    0.000    0.000    0.000 
#    0.000    0.000    0.000    0.000    0.000    0.000 
#
# Total GULP energy -77952.546872 kJ/mol
# GULP energy per Si atom -5568.039062 kJ/mol
# Density = 2.546420 g / cm^3
# Si number density = 25.522294 Si / 1000 Ang^3
#
#
#
# Elastic Constant Matrix: (Units=GPa)
#
#
# Indices 1 2 3 4 5 6 
#
# 1 183.8035 29.1302 42.7618 -21.9464 -21.5584 -33.6357
# 2 29.1302 84.7487 17.3804 -26.8160 -7.4999 -20.0669
# 3 42.7618 17.3804 139.6469 -40.2713 -16.7753 -3.5113
# 4 -21.9464 -26.8160 -40.2713 50.9697 6.5440 4.3382
# 5 -21.5584 -7.4999 -16.7753 6.5440 30.9860 0.1782
# 6 -33.6357 -20.0669 -3.5113 4.3382 0.1782 34.7381
#
#
#
# Elastic Compliance Matrix: (Units=1/GPa)
#
#
# Indices 1 2 3 4 5 6 
#
# 1 0.007707 0.000075 -0.001338 0.001126 0.004377 0.007207
# 2 0.000075 0.016517 0.000864 0.008321 0.002711 0.008649
# 3 -0.001338 0.000864 0.009954 0.007406 0.003107 -0.000731
# 4 0.001126 0.008321 0.007406 0.030030 0.000448 0.002893
# 5 0.004377 0.002711 0.003107 0.000448 0.037528 0.005869
# 6 0.007207 0.008649 -0.000731 0.002893 0.005869 0.040296
#
#
# Mechanical properties :
#
#
# Convention : Reuss Voigt Hill
#
# Bulk Modulus (GPa) = 29.95740 65.19374 47.57557
# Shear Modulus (GPa) = 32.47710 44.60054 38.53882
#
# Velocity S-wave (km/s) = 3.57108 4.18486 3.89010
# Velocity P-wave (km/s) = 5.36346 6.99643 6.23365
#
# Compressibility (1/GPa) = 0.03338073
#
# Stress axis : x y z
#
# Youngs Moduli (GPa) = 129.76047 60.54332 100.46518
#
# Poissons Ratio (x) = -0.00457 0.13438
# Poissons Ratio (y) = -0.00980 -0.08679
# Poissons Ratio (z) = 0.17357 -0.05230
#
# Static dielectric constant tensor:
#      x y z
#    x 2.753690 0.460310 0.198050 
#    y 0.460310 2.367040 0.071010 
#    z 0.198050 0.071010 2.207790 
# 
# From -- ./inp_files/514267.got.cif
#   From: 2010.05.17/outbox.cif.g08.bks.cpg/sg2_258_cif.got.tgz:514267.got - 2010.06.03 11:33:40.
