data_PCOD9105943
_publ_section_title
;
Structure prediction by ZEFSAII (Michael W. Deem and Ramdas Pophale) SiO2 
 PCOD9105943
Probable space group: P -1
;
_chemical_formula_sum "Si O2"
_cell_formula_units_Z 16
_cell_length_a 8.343353
_cell_length_b 11.647342
_cell_length_c 9.601487
_cell_angle_alpha 104.236080
_cell_angle_beta 99.514591
_cell_angle_gamma 47.651634
_cell_volume 668.407353
_symmetry_space_group_name_H-M "P -1"
_symmetry_group_IT_number 2
_symmetry_cell_setting 'triclinic'
loop_
_space_group_symop_operation_xyz
x,y,z
-x,-y,-z
loop_
_atom_site_type_symbol
_atom_site_label
_atom_site_fract_x
_atom_site_fract_y
_atom_site_fract_z
Si Si1 0.604813 0.763670 0.359221
Si Si2 0.593824 0.586787 0.518049
Si Si3 0.741506 0.547392 0.821915
Si Si4 0.825671 0.722912 0.090334
Si Si5 0.789820 0.872662 0.619325
Si Si6 0.255217 0.807728 0.906014
Si Si7 0.869052 0.121117 0.392043
Si Si8 0.818381 0.909345 0.938771
O O1 0.646801 0.611038 0.379669
O O2 0.709804 0.731333 0.213601
O O3 0.717129 0.798717 0.495132
O O4 0.362928 0.937558 0.369148
O O5 0.500000 0.500000 0.500000
O O6 0.754268 0.539095 0.653748
O O7 0.379688 0.767883 0.571155
O O8 0.489984 0.642655 0.852423
O O9 0.925402 0.373895 0.858192
O O10 0.803325 0.639255 0.936810
O O11 0.737687 0.884930 0.058517
O O12 0.774263 0.858083 0.776849
O O13 0.030905 0.795417 0.585974
O O14 0.134292 0.915862 0.780843
O O15 0.079202 0.804880 0.944602
O O16 0.283849 0.910877 0.032665
O O17 0.000000 0.000000 0.500000
#
# Coordination Sequence:
#
# PCOD9105943 Si02
#       8
#     2   2   2   2   2   2   2   2
#     4  11  24  41  66 101 127 173 218 268 328 388
#     4  11  25  45  67  95 131 172 215 273 326 387
#     4  10  24  47  60  94 129 176 214 263 320 384
#     4  11  25  43  66  92 133 175 218 262 318 392
#     4  10  22  40  67 100 131 164 217 276 324 384
#     4   9  21  39  66  95 128 165 219 264 321 383
#     4  10  20  39  66  95 128 165 215 273 325 381
#     4  10  21  41  67  97 125 172 210 272 325 376
#
# _framework density 23.937495999999999
#
# number of rings (size 3 to 8) (size 9 to 14) (size 15 to 20)
#    0.000    1.750    1.250    1.500    3.500    4.000 
#   18.000    0.000    0.000    0.000    0.000    0.000 
#    0.000    0.000    0.000    0.000    0.000    0.000 
#
# Total GULP energy -89288.304232 kJ/mol
# GULP energy per Si atom -5580.519015 kJ/mol
# Density = 2.388301 g / cm^3
# Si number density = 23.937496 Si / 1000 Ang^3
#
#
#
# Elastic Constant Matrix: (Units=GPa)
#
#
# Indices 1 2 3 4 5 6 
#
# 1 62.1104 26.3474 56.0311 -25.9544 -11.4123 2.6252
# 2 26.3474 55.0901 33.3167 -23.7918 -3.6471 -1.2806
# 3 56.0311 33.3167 146.8502 -27.6745 -3.8148 18.4750
# 4 -25.9544 -23.7918 -27.6745 29.8024 1.8052 -5.2937
# 5 -11.4123 -3.6471 -3.8148 1.8052 46.0564 -8.0995
# 6 2.6252 -1.2806 18.4750 -5.2937 -8.0995 43.2602
#
#
#
# Elastic Compliance Matrix: (Units=1/GPa)
#
#
# Indices 1 2 3 4 5 6 
#
# 1 0.035816 -0.001057 -0.009893 0.021769 0.008213 0.006222
# 2 -0.001057 0.029707 -0.003014 0.020791 0.001929 0.005136
# 3 -0.009893 -0.003014 0.011662 -0.000936 -0.002578 -0.005067
# 4 0.021769 0.020791 -0.000936 0.069538 0.005873 0.009303
# 5 0.008213 0.001929 -0.002578 0.005873 0.024506 0.005967
# 6 0.006222 0.005136 -0.005067 0.009303 0.005967 0.027310
#
#
# Mechanical properties :
#
#
# Convention : Reuss Voigt Hill
#
# Bulk Modulus (GPa) = 20.30172 55.04902 37.67537
# Shear Modulus (GPa) = 20.58583 33.71418 27.15001
#
# Velocity S-wave (km/s) = 2.93573 3.75697 3.37145
# Velocity P-wave (km/s) = 4.47112 6.47045 5.56136
#
# Compressibility (1/GPa) = 0.04925691
#
# Stress axis : x y z
#
# Youngs Moduli (GPa) = 27.92055 33.66229 85.74704
#
# Poissons Ratio (x) = 0.03558 0.84828
# Poissons Ratio (y) = 0.02951 0.25847
# Poissons Ratio (z) = 0.27621 0.10147
#
# Static dielectric constant tensor:
#      x y z
#    x 1.955400 -0.017210 -0.016770 
#    y -0.017210 1.982030 0.001620 
#    z -0.016770 0.001620 1.921070 
# 
# From -- ./inp_files/188645.got.cif
#   From: 2010.05.17/outbox.cif.g08.bks.cpg/sg2_95_cif.got.tgz:188645.got - 2010.06.03 11:33:40.
