data_PCOD9105842
_publ_section_title
;
Structure prediction by ZEFSAII (Michael W. Deem and Ramdas Pophale) SiO2 
 PCOD9105842
Probable space group: P -1
;
_chemical_formula_sum "Si O2"
_cell_formula_units_Z 16
_cell_length_a 23.801244
_cell_length_b 8.634876
_cell_length_c 9.087587
_cell_angle_alpha 67.714853
_cell_angle_beta 31.137391
_cell_angle_gamma 53.388945
_cell_volume 735.450032
_symmetry_space_group_name_H-M "P -1"
_symmetry_group_IT_number 2
_symmetry_cell_setting 'triclinic'
loop_
_space_group_symop_operation_xyz
x,y,z
-x,-y,-z
loop_
_atom_site_type_symbol
_atom_site_label
_atom_site_fract_x
_atom_site_fract_y
_atom_site_fract_z
Si Si1 0.911562 0.921568 0.285241
Si Si2 0.710713 0.607372 0.468109
Si Si3 0.298340 0.231028 0.996766
Si Si4 0.848855 0.619409 0.432856
Si Si5 0.681016 0.305645 0.814949
Si Si6 0.124342 0.607127 0.108491
Si Si7 0.496324 0.212263 0.356691
Si Si8 0.113170 0.768269 0.373522
O O1 0.914405 0.746803 0.247666
O O2 0.765786 0.117641 0.577821
O O3 0.979447 0.796671 0.328030
O O4 0.000000 0.000000 0.000000
O O5 0.795701 0.639795 0.380240
O O6 0.657698 0.503615 0.722104
O O7 0.799617 0.450317 0.195438
O O8 0.590502 0.791500 0.579849
O O9 0.161650 0.390205 0.161052
O O10 0.408081 0.266236 0.678708
O O11 0.364903 0.004248 0.872642
O O12 0.267799 0.263311 0.225493
O O13 0.921817 0.383923 0.414466
O O14 0.780130 0.247672 0.750033
O O15 0.541589 0.355400 0.160347
O O16 0.173106 0.670494 0.115201
O O17 0.000000 0.000000 0.500000
#
# Coordination Sequence:
#
# PCOD9105842 Si02
#       8
#     2   2   2   2   2   2   2   2
#     4  12  23  40  66  92 132 167 210 262 315 378
#     4  10  22  41  62  91 129 165 213 257 311 382
#     4   9  20  39  61  90 123 157 212 259 313 373
#     4  10  23  41  63  96 126 170 211 259 316 376
#     4  11  21  39  63  95 124 169 209 261 312 375
#     4  10  21  39  61  89 128 163 203 260 314 371
#     4  10  20  39  66  90 125 166 210 264 317 365
#     4  10  21  39  64  93 130 166 214 257 317 382
#
# _framework density 21.755385
#
# number of rings (size 3 to 8) (size 9 to 14) (size 15 to 20)
#    0.000    1.750    3.750    0.375    0.000    4.000 
#    0.000   15.000    0.000    0.000    0.000    0.000 
#    0.000    0.000    0.000    0.000    0.000    0.000 
#
# Total GULP energy -89073.151698 kJ/mol
# GULP energy per Si atom -5567.071981 kJ/mol
# Density = 2.170587 g / cm^3
# Si number density = 21.755385 Si / 1000 Ang^3
#
#
#
# Elastic Constant Matrix: (Units=GPa)
#
#
# Indices 1 2 3 4 5 6 
#
# 1 105.1782 34.9021 21.7927 -22.6121 12.2889 1.1149
# 2 34.9021 90.7633 17.1427 -0.6761 -7.8902 2.4803
# 3 21.7927 17.1427 103.0457 -24.7309 11.8293 13.3669
# 4 -22.6121 -0.6761 -24.7309 30.8158 4.2522 -11.2034
# 5 12.2889 -7.8902 11.8293 4.2522 25.5159 -1.8166
# 6 1.1149 2.4803 13.3669 -11.2034 -1.8166 29.8477
#
#
#
# Elastic Compliance Matrix: (Units=1/GPa)
#
#
# Indices 1 2 3 4 5 6 
#
# 1 0.017755 -0.008890 0.003660 0.019742 -0.015940 0.004877
# 2 -0.008890 0.016632 -0.005331 -0.013391 0.013925 -0.002842
# 3 0.003660 -0.005331 0.015443 0.016339 -0.013385 -0.001291
# 4 0.019742 -0.013391 0.016339 0.070534 -0.031725 0.017602
# 5 -0.015940 0.013925 -0.013385 -0.031725 0.062476 -0.002673
# 6 0.004877 -0.002842 -0.001291 0.017602 -0.002673 0.040580
#
#
# Mechanical properties :
#
#
# Convention : Reuss Voigt Hill
#
# Bulk Modulus (GPa) = 34.83573 49.62915 42.23244
# Shear Modulus (GPa) = 19.67645 32.24586 25.96116
#
# Velocity S-wave (km/s) = 3.01065 3.85411 3.45820
# Velocity P-wave (km/s) = 5.30402 6.53203 5.94979
#
# Compressibility (1/GPa) = 0.02870616
#
# Stress axis : x y z
#
# Youngs Moduli (GPa) = 56.32311 60.12623 64.75526
#
# Poissons Ratio (x) = 0.53455 -0.23697
# Poissons Ratio (y) = 0.50074 0.34518
# Poissons Ratio (z) = -0.20611 0.32051
#
# Static dielectric constant tensor:
#      x y z
#    x 1.801630 0.003630 -0.030830 
#    y 0.003630 1.925390 -0.020420 
#    z -0.030830 -0.020420 1.837270 
# 
# From -- ./inp_files/352102.got.cif
#   From: 2010.05.17/outbox.cif.g08.bks.cpg/sg2_177_cif.got.tgz:352102.got - 2010.06.03 11:33:40.
