data_PCOD9105856
_publ_section_title
;
Structure prediction by ZEFSAII (Michael W. Deem and Ramdas Pophale) SiO2 
 PCOD9105856
Probable space group: P -1
;
_chemical_formula_sum "Si O2"
_cell_formula_units_Z 16
_cell_length_a 16.382458
_cell_length_b 6.610143
_cell_length_c 8.795661
_cell_angle_alpha 90.202891
_cell_angle_beta 91.288418
_cell_angle_gamma 52.780145
_cell_volume 758.231338
_symmetry_space_group_name_H-M "P -1"
_symmetry_group_IT_number 2
_symmetry_cell_setting 'triclinic'
loop_
_space_group_symop_operation_xyz
x,y,z
-x,-y,-z
loop_
_atom_site_type_symbol
_atom_site_label
_atom_site_fract_x
_atom_site_fract_y
_atom_site_fract_z
Si Si1 0.240102 0.549448 0.397039
Si Si2 0.640340 0.790685 0.846487
Si Si3 0.130745 0.217156 0.851113
Si Si4 0.858158 0.010349 0.833383
Si Si5 0.467806 0.345564 0.919777
Si Si6 0.848191 0.385863 0.027273
Si Si7 0.057678 0.493421 0.352584
Si Si8 0.734076 0.288554 0.274602
O O1 0.338182 0.291517 0.328332
O O2 0.223720 0.756554 0.276366
O O3 0.145037 0.530431 0.391451
O O4 0.252617 0.632559 0.560582
O O5 0.570003 0.091015 0.858200
O O6 0.580906 0.717667 0.948037
O O7 0.752799 0.624255 0.928682
O O8 0.103915 0.491009 0.889377
O O9 0.028057 0.290515 0.766052
O O10 0.221998 0.006829 0.741982
O O11 0.164793 0.075586 0.013682
O O12 0.902057 0.771032 0.726420
O O13 0.905125 0.145977 0.913739
O O14 0.380922 0.515891 0.791033
O O15 0.500000 0.500000 0.000000
O O16 0.802641 0.318761 0.160980
O O17 0.000000 0.500000 0.500000
#
# Coordination Sequence:
#
# PCOD9105856 Si02
#       8
#     2   2   2   2   2   2   2   2
#     4  11  24  42  59  88 132 163 199 253 303 365
#     4   9  20  37  61  90 119 155 195 247 308 359
#     4  11  22  39  62  90 119 161 216 255 296 355
#     4  10  22  38  59  84 114 160 207 251 301 347
#     4  10  20  39  66  91 116 152 203 252 301 369
#     4   9  19  38  62  87 121 156 201 257 300 355
#     4  12  26  40  60  90 125 168 211 251 301 356
#     4  10  22  38  62  91 123 163 197 246 316 363
#
# _framework density 21.101738999999998
#
# number of rings (size 3 to 8) (size 9 to 14) (size 15 to 20)
#    0.000    1.750    0.000    4.875    0.000    8.500 
#    0.000    0.625    0.000    0.000    0.000    0.000 
#    0.000    0.000    0.000    0.000    0.000    0.000 
#
# Total GULP energy -89129.512900 kJ/mol
# GULP energy per Si atom -5570.594556 kJ/mol
# Density = 2.105371 g / cm^3
# Si number density = 21.101739 Si / 1000 Ang^3
#
#
#
# Elastic Constant Matrix: (Units=GPa)
#
#
# Indices 1 2 3 4 5 6 
#
# 1 37.9276 24.0589 25.7674 8.2016 21.9619 8.4470
# 2 24.0589 120.4502 45.0659 31.7441 19.3980 6.0190
# 3 25.7674 45.0659 135.9842 40.5623 20.1591 4.6724
# 4 8.2016 31.7441 40.5623 41.0743 3.3290 -4.2027
# 5 21.9619 19.3980 20.1591 3.3290 28.5193 4.5090
# 6 8.4470 6.0190 4.6724 -4.2027 4.5090 15.8271
#
#
#
# Elastic Compliance Matrix: (Units=1/GPa)
#
#
# Indices 1 2 3 4 5 6 
#
# 1 0.055879 -0.001705 -0.001758 -0.007198 -0.036604 -0.020139
# 2 -0.001705 0.012087 -0.000101 -0.008961 -0.005064 -0.004593
# 3 -0.001758 -0.000101 0.012042 -0.011477 -0.005089 -0.004176
# 4 -0.007198 -0.008961 -0.011477 0.045098 0.011426 0.019358
# 5 -0.036604 -0.005064 -0.005089 0.011426 0.067909 0.006652
# 6 -0.020139 -0.004593 -0.004176 0.019358 0.006652 0.080156
#
#
# Mechanical properties :
#
#
# Convention : Reuss Voigt Hill
#
# Bulk Modulus (GPa) = 13.72121 53.79406 33.75763
# Shear Modulus (GPa) = 16.41530 30.38212 23.39871
#
# Velocity S-wave (km/s) = 2.79213 3.79858 3.33356
# Velocity P-wave (km/s) = 4.11232 6.69231 5.55420
#
# Compressibility (1/GPa) = 0.07287986
#
# Stress axis : x y z
#
# Youngs Moduli (GPa) = 17.89566 82.73064 83.04282
#
# Poissons Ratio (x) = 0.14109 0.14598
# Poissons Ratio (y) = 0.03052 0.00840
# Poissons Ratio (z) = 0.03146 0.00837
#
# Static dielectric constant tensor:
#      x y z
#    x 1.787040 0.022790 -0.013820 
#    y 0.022790 1.830370 0.018960 
#    z -0.013820 0.018960 1.774270 
# 
# From -- ./inp_files/323704.got.cif
#   From: 2010.05.17/outbox.cif.g08.bks.cpg/sg2_162_cif.got.tgz:323704.got - 2010.06.03 11:33:40.
