data_PCOD9105851
_publ_section_title
;
Structure prediction by ZEFSAII (Michael W. Deem and Ramdas Pophale) SiO2 
 PCOD9105851
Probable space group: P -1
;
_chemical_formula_sum "Si O2"
_cell_formula_units_Z 14
_cell_length_a 12.080695
_cell_length_b 10.222843
_cell_length_c 11.119555
_cell_angle_alpha 84.292655
_cell_angle_beta 151.975276
_cell_angle_gamma 81.046085
_cell_volume 548.136046
_symmetry_space_group_name_H-M "P -1"
_symmetry_group_IT_number 2
_symmetry_cell_setting 'triclinic'
loop_
_space_group_symop_operation_xyz
x,y,z
-x,-y,-z
loop_
_atom_site_type_symbol
_atom_site_label
_atom_site_fract_x
_atom_site_fract_y
_atom_site_fract_z
Si Si1 0.697820 0.116861 0.759550
Si Si2 0.961134 0.872980 0.197275
Si Si3 0.541320 0.683914 0.695939
Si Si4 0.392221 0.177249 0.004335
Si Si5 0.932871 0.921138 0.552885
Si Si6 0.684117 0.560922 0.236020
Si Si7 0.671415 0.362640 0.898237
O O1 0.459542 0.213366 0.424362
O O2 0.686370 0.251684 0.817224
O O3 0.691170 0.990164 0.850412
O O4 0.000000 0.000000 0.000000
O O5 0.214720 0.740993 0.379889
O O6 0.905423 0.800441 0.267400
O O7 0.047369 0.988077 0.321635
O O8 0.596903 0.738266 0.871037
O O9 0.705902 0.500037 0.868923
O O10 0.607367 0.995808 0.221777
O O11 0.447167 0.261639 0.944110
O O12 0.000000 0.000000 0.500000
O O13 0.104302 0.744962 0.774427
O O14 0.618536 0.561642 0.313545
O O15 0.000000 0.500000 0.500000
O O16 0.500000 0.500000 0.000000
#
# Coordination Sequence:
#
# PCOD9105851 Si02
#       7
#     2   2   2   2   2   2   2
#     4   9  20  41  67  92 133 183 233 300 349 419
#     4   9  21  39  61  92 126 176 228 283 356 419
#     4  10  20  39  66  90 131 172 234 287 355 411
#     4  11  22  39  64  93 134 182 223 288 350 428
#     4  10  21  38  57  90 134 173 227 276 349 417
#     4  12  26  45  72 108 150 187 231 297 362 429
#     4  11  21  41  66 102 133 183 236 290 357 426
#
# _framework density 25.541104000000001
#
# number of rings (size 3 to 8) (size 9 to 14) (size 15 to 20)
#    0.000    1.714    2.857    2.143    2.000    1.143 
#    5.143    0.000    0.000    6.000    0.000    0.000 
#    0.000    0.000    0.000    0.000    0.000    0.000 
#
# Total GULP energy -78018.327422 kJ/mol
# GULP energy per Si atom -5572.737673 kJ/mol
# Density = 2.548297 g / cm^3
# Si number density = 25.541104 Si / 1000 Ang^3
#
#
#
# Elastic Constant Matrix: (Units=GPa)
#
#
# Indices 1 2 3 4 5 6 
#
# 1 75.1135 22.1664 15.6460 1.3629 -10.1930 -5.2647
# 2 22.1664 135.2640 46.4748 -12.7982 -15.5434 -5.9932
# 3 15.6460 46.4748 82.5823 -21.6768 -9.6227 4.6313
# 4 1.3629 -12.7982 -21.6768 37.5743 4.7954 -5.3607
# 5 -10.1930 -15.5434 -9.6227 4.7954 49.6101 -5.0756
# 6 -5.2647 -5.9932 4.6313 -5.3607 -5.0756 42.7940
#
#
#
# Elastic Compliance Matrix: (Units=1/GPa)
#
#
# Indices 1 2 3 4 5 6 
#
# 1 0.014770 -0.001439 -0.002453 -0.002499 0.002541 0.001869
# 2 -0.001439 0.009683 -0.004919 0.000552 0.001936 0.002010
# 3 -0.002453 -0.004919 0.017667 0.008297 0.000394 -0.001817
# 4 -0.002499 0.000552 0.008297 0.032269 -0.001571 0.002728
# 5 0.002541 0.001936 0.000394 -0.001571 0.021814 0.002932
# 6 0.001869 0.002010 -0.001817 0.002728 0.002932 0.024765
#
#
# Mechanical properties :
#
#
# Convention : Reuss Voigt Hill
#
# Bulk Modulus (GPa) = 40.81889 51.28158 46.05023
# Shear Modulus (GPa) = 34.07023 39.90720 36.98872
#
# Velocity S-wave (km/s) = 3.65627 3.95710 3.80966
# Velocity P-wave (km/s) = 5.81728 6.40311 6.11721
#
# Compressibility (1/GPa) = 0.02449846
#
# Stress axis : x y z
#
# Youngs Moduli (GPa) = 67.70479 103.27862 56.60139
#
# Poissons Ratio (x) = 0.14864 0.13884
# Poissons Ratio (y) = 0.09744 0.27839
# Poissons Ratio (z) = 0.16608 0.50798
#
# Static dielectric constant tensor:
#      x y z
#    x 2.148170 -0.030430 -0.088460 
#    y -0.030430 1.987330 0.014790 
#    z -0.088460 0.014790 2.231090 
# 
# From -- ./inp_files/53299.got.cif
#   From: 2010.05.17/outbox.cif.g08.bks.cpg/sg2_27_cif.got.tgz:53299.got - 2010.06.03 11:33:40.
