data_PCOD9105024
_publ_section_title
;
Structure prediction by ZEFSAII (Michael W. Deem and Ramdas Pophale) SiO2 
 PCOD9105024
Probable space group: P -1
;
_chemical_formula_sum "Si O2"
_cell_formula_units_Z 16
_cell_length_a 7.672461
_cell_length_b 13.498766
_cell_length_c 9.250087
_cell_angle_alpha 128.175542
_cell_angle_beta 92.269809
_cell_angle_gamma 113.894126
_cell_volume 630.056246
_symmetry_space_group_name_H-M "P -1"
_symmetry_group_IT_number 2
_symmetry_cell_setting 'triclinic'
loop_
_space_group_symop_operation_xyz
x,y,z
-x,-y,-z
loop_
_atom_site_type_symbol
_atom_site_label
_atom_site_fract_x
_atom_site_fract_y
_atom_site_fract_z
Si Si1 0.656866 0.175300 0.684023
Si Si2 0.914370 0.284670 0.088816
Si Si3 0.410180 0.335194 0.785807
Si Si4 0.147037 0.120019 0.234156
Si Si5 0.847979 0.853731 0.140338
Si Si6 0.521819 0.245880 0.179588
Si Si7 0.304590 0.425715 0.594372
Si Si8 0.022763 0.568432 0.222745
O O1 0.545806 0.266196 0.756933
O O2 0.818604 0.254753 0.629199
O O3 0.500000 0.000000 0.500000
O O4 0.777557 0.212484 0.872355
O O5 0.731578 0.247072 0.164187
O O6 0.058985 0.465789 0.237759
O O7 0.068062 0.228656 0.027778
O O8 0.205655 0.222248 0.772517
O O9 0.414240 0.363507 0.640613
O O10 0.500000 0.500000 0.000000
O O11 0.374409 0.156657 0.230165
O O12 0.150305 0.273212 0.366027
O O13 0.035822 0.028470 0.294175
O O14 0.000000 0.000000 0.000000
O O15 0.636890 0.821520 0.025505
O O16 0.580846 0.418545 0.346758
O O17 0.186445 0.457312 0.743292
O O18 0.000000 0.500000 0.000000
#
# Coordination Sequence:
#
# PCOD9105024 Si02
#       8
#     2   2   2   2   2   2   2   2
#     4  11  23  34  56  94 139 169 203 271 332 401
#     4  10  20  39  63  88 126 174 210 261 329 389
#     4  12  21  38  65  97 131 168 216 262 338 410
#     4  10  25  42  64  92 128 174 222 274 320 378
#     4  11  22  39  66  95 131 167 213 269 332 393
#     4  10  21  44  66  90 124 172 226 263 319 384
#     4  11  22  38  71  92 125 175 216 268 324 397
#     4   9  19  37  57  91 126 166 206 254 327 394
#
# _framework density 25.394559999999998
#
# number of rings (size 3 to 8) (size 9 to 14) (size 15 to 20)
#    0.000    1.500    2.500    4.125    3.500    1.000 
#    0.000    0.000    5.500    6.750    0.000    0.000 
#    0.000    0.000    0.000    0.000    0.000    0.000 
#
# Total GULP energy -89316.857334 kJ/mol
# GULP energy per Si atom -5582.303583 kJ/mol
# Density = 2.533676 g / cm^3
# Si number density = 25.394560 Si / 1000 Ang^3
#
#
#
# Elastic Constant Matrix: (Units=GPa)
#
#
# Indices 1 2 3 4 5 6 
#
# 1 72.2216 13.8127 -14.1264 -6.4164 -11.7331 13.4292
# 2 13.8127 105.5916 16.9476 25.9492 20.2638 29.7006
# 3 -14.1264 16.9476 74.5964 6.9113 10.0915 2.1460
# 4 -6.4164 25.9492 6.9113 48.6474 8.0710 10.3675
# 5 -11.7331 20.2638 10.0915 8.0710 20.5616 5.9705
# 6 13.4292 29.7006 2.1460 10.3675 5.9705 38.5527
#
#
#
# Elastic Compliance Matrix: (Units=1/GPa)
#
#
# Indices 1 2 3 4 5 6 
#
# 1 0.019227 -0.004910 0.002577 0.003663 0.014954 -0.006359
# 2 -0.004910 0.016442 -0.002102 -0.005280 -0.013787 -0.007285
# 3 0.002577 -0.002102 0.014891 -0.000124 -0.003870 0.000525
# 4 0.003663 -0.005280 -0.000124 0.024881 -0.001342 -0.003685
# 5 0.014954 -0.013787 -0.003870 -0.001342 0.074806 -0.005596
# 6 -0.006359 -0.007285 0.000525 -0.003685 -0.005596 0.035594
#
#
# Mechanical properties :
#
#
# Convention : Reuss Voigt Hill
#
# Bulk Modulus (GPa) = 23.98598 31.74192 27.86395
# Shear Modulus (GPa) = 23.96844 37.27072 30.61958
#
# Velocity S-wave (km/s) = 3.07553 3.83517 3.47616
# Velocity P-wave (km/s) = 4.69869 5.66904 5.20652
#
# Compressibility (1/GPa) = 0.04169101
#
# Stress axis : x y z
#
# Youngs Moduli (GPa) = 52.01092 60.81834 67.15486
#
# Poissons Ratio (x) = 0.29862 -0.17306
# Poissons Ratio (y) = 0.25538 0.14113
# Poissons Ratio (z) = -0.13403 0.12781
#
# Static dielectric constant tensor:
#      x y z
#    x 2.115770 -0.373390 0.015640 
#    y -0.373390 1.689310 -0.377740 
#    z 0.015640 -0.377740 1.990050 
# 
# From -- ./inp_files/382063.got.cif
#   From: 2010.05.17/outbox.cif.g08.bks.cpg/sg2_192_cif.got.tgz:382063.got - 2010.06.03 11:33:40.
