data_PCOD9105624
_publ_section_title
;
Structure prediction by ZEFSAII (Michael W. Deem and Ramdas Pophale) SiO2 
 PCOD9105624
Probable space group: P -1
;
_chemical_formula_sum "Si O2"
_cell_formula_units_Z 14
_cell_length_a 8.190353
_cell_length_b 10.909116
_cell_length_c 9.905184
_cell_angle_alpha 65.101454
_cell_angle_beta 60.105244
_cell_angle_gamma 107.837312
_cell_volume 525.047966
_symmetry_space_group_name_H-M "P -1"
_symmetry_group_IT_number 2
_symmetry_cell_setting 'triclinic'
loop_
_space_group_symop_operation_xyz
x,y,z
-x,-y,-z
loop_
_atom_site_type_symbol
_atom_site_label
_atom_site_fract_x
_atom_site_fract_y
_atom_site_fract_z
Si Si1 0.519305 0.050744 0.124488
Si Si2 0.337699 0.319346 0.504224
Si Si3 0.636020 0.649447 0.027084
Si Si4 0.289269 0.143612 0.850215
Si Si5 0.016957 0.422445 0.665963
Si Si6 0.177269 0.510122 0.078942
Si Si7 0.455201 0.122106 0.386639
O O1 0.759315 0.257060 0.916936
O O2 0.352206 0.039627 0.315091
O O3 0.500000 0.000000 0.000000
O O4 0.591550 0.939420 0.202622
O O5 0.515169 0.487021 0.257247
O O6 0.424675 0.316662 0.618984
O O7 0.292040 0.155907 0.520657
O O8 0.124553 0.328206 0.621708
O O9 0.689912 0.804450 0.026469
O O10 0.423670 0.588557 0.035124
O O11 0.865185 0.665441 0.874507
O O12 0.000000 0.000000 0.000000
O O13 0.063398 0.553059 0.706480
O O14 0.000000 0.500000 0.500000
O O15 0.285967 0.669303 0.849771
O O16 0.500000 0.000000 0.500000
#
# Coordination Sequence:
#
# PCOD9105624 Si02
#       7
#     2   2   2   2   2   2   2
#     4  11  24  43  67  95 130 178 223 267 332 401
#     4  11  22  39  66  94 127 174 218 269 330 393
#     4  10  21  41  67  92 129 176 223 269 328 398
#     4  12  23  40  65  98 136 171 217 278 334 390
#     4  11  21  40  64  93 131 163 215 279 324 385
#     4   9  20  39  67  95 128 173 225 270 329 394
#     4  10  20  39  65  92 130 169 215 272 330 387
#
# _framework density 26.664231000000001
#
# number of rings (size 3 to 8) (size 9 to 14) (size 15 to 20)
#    0.000    1.429    4.286    2.143    0.000    0.000 
#    0.000    2.857    3.143    0.000    0.000    0.000 
#    0.000    0.000    0.000    0.000    0.000    0.000 
#
# Total GULP energy -77990.900011 kJ/mol
# GULP energy per Si atom -5570.778572 kJ/mol
# Density = 2.660354 g / cm^3
# Si number density = 26.664231 Si / 1000 Ang^3
#
#
#
# Elastic Constant Matrix: (Units=GPa)
#
#
# Indices 1 2 3 4 5 6 
#
# 1 79.5270 60.7916 37.9525 23.6241 -0.6702 -48.9775
# 2 60.7916 138.8076 43.1714 48.7808 -4.0225 -50.4356
# 3 37.9525 43.1714 121.2342 24.5750 9.0273 -26.6336
# 4 23.6241 48.7808 24.5750 69.0167 -11.7285 -7.5388
# 5 -0.6702 -4.0225 9.0273 -11.7285 48.9678 10.9747
# 6 -48.9775 -50.4356 -26.6336 -7.5388 10.9747 66.0101
#
#
#
# Elastic Compliance Matrix: (Units=1/GPa)
#
#
# Indices 1 2 3 4 5 6 
#
# 1 0.029270 -0.003776 -0.002417 -0.005332 -0.004785 0.018044
# 2 -0.003776 0.014733 -0.000446 -0.008550 -0.002537 0.007721
# 3 -0.002417 -0.000446 0.010495 -0.002888 -0.003213 0.002304
# 4 -0.005332 -0.008550 -0.002888 0.023575 0.007699 -0.010241
# 5 -0.004785 -0.002537 -0.003213 0.007699 0.024833 -0.010035
# 6 0.018044 0.007721 0.002304 -0.010241 -0.010035 0.035865
#
#
# Mechanical properties :
#
#
# Convention : Reuss Voigt Hill
#
# Bulk Modulus (GPa) = 24.26053 69.26665 46.76359
# Shear Modulus (GPa) = 30.15848 49.97579 40.06714
#
# Velocity S-wave (km/s) = 3.36675 4.33397 3.88061
# Velocity P-wave (km/s) = 4.92256 7.14690 6.13636
#
# Compressibility (1/GPa) = 0.04121922
#
# Stress axis : x y z
#
# Youngs Moduli (GPa) = 34.16411 67.87432 95.28235
#
# Poissons Ratio (x) = 0.25630 0.23034
# Poissons Ratio (y) = 0.12901 0.04252
# Poissons Ratio (z) = 0.08259 0.03029
#
# Static dielectric constant tensor:
#      x y z
#    x 3.246970 -2.281650 -0.885220 
#    y -2.281650 8.000720 2.174570 
#    z -0.885220 2.174570 2.861300 
# 
# From -- ./inp_files/185786.got.cif
#   From: 2010.05.17/outbox.cif.g08.bks.cpg/sg2_93_cif.got.tgz:185786.got - 2010.06.03 11:33:40.
