data_PCOD9105405
_publ_section_title
;
Structure prediction by ZEFSAII (Michael W. Deem and Ramdas Pophale) SiO2 
 PCOD9105405
Probable space group: P -1
;
_chemical_formula_sum "Si O2"
_cell_formula_units_Z 16
_cell_length_a 20.769171
_cell_length_b 12.517831
_cell_length_c 8.502418
_cell_angle_alpha 81.676016
_cell_angle_beta 103.731719
_cell_angle_gamma 30.197016
_cell_volume 753.759862
_symmetry_space_group_name_H-M "P -1"
_symmetry_group_IT_number 2
_symmetry_cell_setting 'triclinic'
loop_
_space_group_symop_operation_xyz
x,y,z
-x,-y,-z
loop_
_atom_site_type_symbol
_atom_site_label
_atom_site_fract_x
_atom_site_fract_y
_atom_site_fract_z
Si Si1 0.367772 0.654213 0.023854
Si Si2 0.865112 0.517798 0.818824
Si Si3 0.789210 0.891843 0.991147
Si Si4 0.279570 0.360598 0.607237
Si Si5 0.045196 0.977291 0.696516
Si Si6 0.063742 0.003258 0.137865
Si Si7 0.513680 0.603372 0.533010
Si Si8 0.704686 0.786858 0.025866
O O1 0.275855 0.900827 0.998089
O O2 0.477417 0.417035 0.269733
O O3 0.500000 0.500000 0.000000
O O4 0.214398 0.803214 0.841378
O O5 0.736135 0.685410 0.555624
O O6 0.786363 0.645053 0.924802
O O7 0.996634 0.417205 0.867776
O O8 0.009609 0.197673 0.989159
O O9 0.659222 0.078665 0.720284
O O10 0.748262 0.846063 0.072836
O O11 0.134857 0.678792 0.430004
O O12 0.230143 0.376164 0.742302
O O13 0.486632 0.091099 0.811528
O O14 0.063714 0.833480 0.824704
O O15 0.000000 0.000000 0.500000
O O16 0.286494 0.660416 0.358986
O O17 0.000000 0.000000 0.000000
O O18 0.500000 0.500000 0.500000
#
# Coordination Sequence:
#
# PCOD9105405 Si02
#       8
#     2   2   2   2   2   2   2   2
#     4  11  24  42  62 102 137 166 215 272 342 406
#     4  12  23  46  68  96 135 176 228 276 330 401
#     4  11  23  46  66  94 138 172 220 275 328 404
#     4  11  24  49  64  96 141 167 229 290 315 396
#     4  12  25  40  69 100 130 176 215 272 347 395
#     4  12  20  40  68  93 130 168 214 272 337 390
#     4  10  20  39  64  93 130 168 202 271 333 387
#     4  11  27  43  70  96 127 187 230 270 333 393
#
# _framework density 21.226918000000001
#
# number of rings (size 3 to 8) (size 9 to 14) (size 15 to 20)
#    0.000    0.750    6.250    2.250    5.250    1.500 
#    2.250    0.000    0.000    0.000    0.000    0.000 
#    0.000    0.000    0.000    0.000    0.000    0.000 
#
# Total GULP energy -89128.504619 kJ/mol
# GULP energy per Si atom -5570.531539 kJ/mol
# Density = 2.117861 g / cm^3
# Si number density = 21.226918 Si / 1000 Ang^3
#
#
#
# Elastic Constant Matrix: (Units=GPa)
#
#
# Indices 1 2 3 4 5 6 
#
# 1 153.7617 32.6592 50.4774 1.2439 10.8987 -25.7596
# 2 32.6592 68.2930 21.4433 17.2304 3.5606 -18.6100
# 3 50.4774 21.4433 98.8124 14.2521 17.2152 -10.1970
# 4 1.2439 17.2304 14.2521 36.9188 -4.4828 -0.4222
# 5 10.8987 3.5606 17.2152 -4.4828 39.1333 -3.5498
# 6 -25.7596 -18.6100 -10.1970 -0.4222 -3.5498 31.0662
#
#
#
# Elastic Compliance Matrix: (Units=1/GPa)
#
#
# Indices 1 2 3 4 5 6 
#
# 1 0.009112 -0.002398 -0.004014 0.002438 0.000166 0.004854
# 2 -0.002398 0.021302 -0.000764 -0.009582 -0.001100 0.010265
# 3 -0.004014 -0.000764 0.014156 -0.005660 -0.005676 0.000135
# 4 0.002438 -0.009582 -0.005660 0.034367 0.006221 -0.004399
# 5 0.000166 -0.001100 -0.005676 0.006221 0.028908 0.001003
# 6 0.004854 0.010265 0.000135 -0.004399 0.001003 0.042462
#
#
# Mechanical properties :
#
#
# Convention : Reuss Voigt Hill
#
# Bulk Modulus (GPa) = 33.09458 58.89190 45.99324
# Shear Modulus (GPa) = 28.61505 35.84281 32.22893
#
# Velocity S-wave (km/s) = 3.67557 4.11366 3.90077
# Velocity P-wave (km/s) = 5.79981 7.09698 6.48093
#
# Compressibility (1/GPa) = 0.03021643
#
# Stress axis : x y z
#
# Youngs Moduli (GPa) = 109.74045 46.94388 70.64230
#
# Poissons Ratio (x) = 0.11259 0.28357
# Poissons Ratio (y) = 0.26320 0.05400
# Poissons Ratio (z) = 0.44051 0.03589
#
# Static dielectric constant tensor:
#      x y z
#    x 1.387090 -0.155360 0.095160 
#    y -0.155360 1.731820 0.064880 
#    z 0.095160 0.064880 1.741750 
# 
# From -- ./inp_files/331970.got.cif
#   From: 2010.05.17/outbox.cif.g08.bks.cpg/sg2_166_cif.got.tgz:331970.got - 2010.06.03 11:33:40.
