data_PCOD9105040
_publ_section_title
;
Structure prediction by ZEFSAII (Michael W. Deem and Ramdas Pophale) SiO2 
 PCOD9105040
Probable space group: P -1
;
_chemical_formula_sum "Si O2"
_cell_formula_units_Z 14
_cell_length_a 9.305454
_cell_length_b 15.020557
_cell_length_c 14.934564
_cell_angle_alpha 150.148117
_cell_angle_beta 137.378603
_cell_angle_gamma 63.341703
_cell_volume 581.806544
_symmetry_space_group_name_H-M "P -1"
_symmetry_group_IT_number 2
_symmetry_cell_setting 'triclinic'
loop_
_space_group_symop_operation_xyz
x,y,z
-x,-y,-z
loop_
_atom_site_type_symbol
_atom_site_label
_atom_site_fract_x
_atom_site_fract_y
_atom_site_fract_z
Si Si1 0.136198 0.142084 0.561252
Si Si2 0.020765 0.111837 0.012425
Si Si3 0.642404 0.783807 0.903588
Si Si4 0.853613 0.198451 0.626232
Si Si5 0.934701 0.455422 0.536235
Si Si6 0.318237 0.523323 0.230701
Si Si7 0.686723 0.687711 0.384532
O O1 0.354748 0.279809 0.708831
O O2 0.038143 0.257198 0.677437
O O3 0.229443 0.034110 0.579354
O O4 0.874789 0.963343 0.230883
O O5 0.265148 0.168160 0.113911
O O6 0.014869 0.322859 0.206396
O O7 0.000000 0.000000 0.000000
O O8 0.798019 0.922019 0.683704
O O9 0.364289 0.734846 0.751100
O O10 0.612392 0.563476 0.729586
O O11 0.650118 0.249715 0.549691
O O12 0.019831 0.349727 0.918352
O O13 0.000000 0.500000 0.500000
O O14 0.109722 0.377695 0.584254
O O15 0.477648 0.531443 0.225183
#
# Coordination Sequence:
#
# PCOD9105040 Si02
#       7
#     2   2   2   2   2   2   2
#     4   9  21  40  61  91 116 155 207 251 303 365
#     4  11  23  41  58  88 125 162 207 245 296 356
#     4  10  22  40  62  88 126 161 200 248 304 360
#     4   9  20  40  63  87 117 155 205 253 308 356
#     4  12  23  41  61  91 128 163 201 250 295 366
#     4  10  20  39  63  89 121 159 197 254 307 360
#     4  11  24  41  60  93 126 158 207 245 302 367
#
# _framework density 24.062982000000002
#
# number of rings (size 3 to 8) (size 9 to 14) (size 15 to 20)
#    0.000    1.714    2.857    0.429    2.000    4.571 
#    5.143    0.000    0.000    0.000    0.000    0.000 
#    0.000    0.000    0.000    0.000    0.000    0.000 
#
# Total GULP energy -78185.786658 kJ/mol
# GULP energy per Si atom -5584.699047 kJ/mol
# Density = 2.400821 g / cm^3
# Si number density = 24.062982 Si / 1000 Ang^3
#
#
#
# Elastic Constant Matrix: (Units=GPa)
#
#
# Indices 1 2 3 4 5 6 
#
# 1 127.2026 39.7724 10.7232 17.6275 5.2219 18.3053
# 2 39.7724 73.8708 -13.0518 16.3719 6.1672 5.4664
# 3 10.7232 -13.0518 93.4459 -1.1814 -16.5963 -5.1028
# 4 17.6275 16.3719 -1.1814 20.1959 4.7044 -2.0506
# 5 5.2219 6.1672 -16.5963 4.7044 38.8078 12.0298
# 6 18.3053 5.4664 -5.1028 -2.0506 12.0298 54.8990
#
#
#
# Elastic Compliance Matrix: (Units=1/GPa)
#
#
# Indices 1 2 3 4 5 6 
#
# 1 0.010862 -0.004570 -0.002118 -0.006332 0.000260 -0.003657
# 2 -0.004570 0.019097 0.003100 -0.011489 0.000493 -0.000627
# 3 -0.002118 0.003100 0.012283 -0.001083 0.005055 0.000391
# 4 -0.006332 -0.011489 -0.001083 0.066962 -0.008214 0.007456
# 5 0.000260 0.000493 0.005055 -0.008214 0.030903 -0.006744
# 6 -0.003657 -0.000627 0.000391 0.007456 -0.006744 0.021290
#
#
# Mechanical properties :
#
#
# Convention : Reuss Voigt Hill
#
# Bulk Modulus (GPa) = 28.51897 41.04521 34.78209
# Shear Modulus (GPa) = 27.73733 39.91891 33.82812
#
# Velocity S-wave (km/s) = 3.39882 4.07742 3.75349
# Velocity P-wave (km/s) = 5.22304 6.26591 5.76809
#
# Compressibility (1/GPa) = 0.03506438
#
# Stress axis : x y z
#
# Youngs Moduli (GPa) = 92.06347 52.36402 81.41381
#
# Poissons Ratio (x) = 0.23932 0.17247
# Poissons Ratio (y) = 0.42076 -0.25237
# Poissons Ratio (z) = 0.19503 -0.16232
#
# Static dielectric constant tensor:
#      x y z
#    x 1.959570 -0.010880 0.037900 
#    y -0.010880 1.916030 0.033120 
#    z 0.037900 0.033120 2.064060 
# 
# From -- ./inp_files/185674.got.cif
#   From: 2010.05.17/outbox.cif.g08.bks.cpg/sg2_93_cif.got.tgz:185674.got - 2010.06.03 11:33:40.
