data_PCOD9105144
_publ_section_title
;
Structure prediction by ZEFSAII (Michael W. Deem and Ramdas Pophale) SiO2 
 PCOD9105144
Probable space group: P -1
;
_chemical_formula_sum "Si O2"
_cell_formula_units_Z 16
_cell_length_a 12.708996
_cell_length_b 19.260249
_cell_length_c 8.808554
_cell_angle_alpha 63.328185
_cell_angle_beta 131.055110
_cell_angle_gamma 149.283503
_cell_volume 792.099764
_symmetry_space_group_name_H-M "P -1"
_symmetry_group_IT_number 2
_symmetry_cell_setting 'triclinic'
loop_
_space_group_symop_operation_xyz
x,y,z
-x,-y,-z
loop_
_atom_site_type_symbol
_atom_site_label
_atom_site_fract_x
_atom_site_fract_y
_atom_site_fract_z
Si Si1 0.396662 0.187988 0.115465
Si Si2 0.213478 0.377045 0.404136
Si Si3 0.216033 0.365882 0.782223
Si Si4 0.863135 0.507947 0.282586
Si Si5 0.066347 0.611794 0.031145
Si Si6 0.022666 0.126575 0.440883
Si Si7 0.406403 0.172051 0.805103
Si Si8 0.910180 0.067952 0.736106
O O1 0.571791 0.341359 0.184159
O O2 0.335805 0.085724 0.264776
O O3 0.506378 0.213882 0.030730
O O4 0.126820 0.102678 0.911990
O O5 0.500000 0.500000 0.500000
O O6 0.230544 0.378104 0.601378
O O7 0.067816 0.235583 0.334044
O O8 0.071840 0.386593 0.199648
O O9 0.093028 0.388870 0.699563
O O10 0.037793 0.205561 0.794915
O O11 0.500000 0.500000 0.000000
O O12 0.000000 0.500000 0.500000
O O13 0.955214 0.560030 0.145892
O O14 0.374505 0.755872 0.170069
O O15 0.000000 0.500000 0.000000
O O16 0.292775 0.205623 0.633663
O O17 0.882452 0.065131 0.531990
O O18 0.844513 0.997789 0.282977
#
# Coordination Sequence:
#
# PCOD9105144 Si02
#       8
#     2   2   2   2   2   2   2   2
#     4  10  20  39  63  93 126 161 209 261 315 374
#     4  11  24  41  66  95 129 168 212 264 319 376
#     4  11  22  42  66  95 127 166 215 264 313 382
#     4  12  26  41  63  96 129 168 213 260 321 384
#     4  12  24  42  64  91 130 170 211 266 320 374
#     4   9  21  41  63  95 122 162 214 261 315 379
#     4  10  21  39  66  90 127 163 212 262 317 377
#     4   9  20  39  65  91 124 162 207 266 311 371
#
# _framework density 20.199475
#
# number of rings (size 3 to 8) (size 9 to 14) (size 15 to 20)
#    0.000    1.500    2.500    2.250    3.500    2.500 
#    2.250    0.625    0.000    0.000    0.000    0.000 
#    0.000    0.000    0.000    0.000    0.000    0.000 
#
# Total GULP energy -89202.070627 kJ/mol
# GULP energy per Si atom -5575.129414 kJ/mol
# Density = 2.015350 g / cm^3
# Si number density = 20.199475 Si / 1000 Ang^3
#
#
#
# Elastic Constant Matrix: (Units=GPa)
#
#
# Indices 1 2 3 4 5 6 
#
# 1 88.4005 40.5887 9.8346 -13.4435 8.0466 -15.9660
# 2 40.5887 96.6827 15.4321 -20.8700 4.8976 -7.5944
# 3 9.8346 15.4321 54.3020 -13.3518 14.8316 -4.6554
# 4 -13.4435 -20.8700 -13.3518 27.3505 -5.9923 4.8797
# 5 8.0466 4.8976 14.8316 -5.9923 26.3403 0.1208
# 6 -15.9660 -7.5944 -4.6554 4.8797 0.1208 41.7970
#
#
#
# Elastic Compliance Matrix: (Units=1/GPa)
#
#
# Indices 1 2 3 4 5 6 
#
# 1 0.015249 -0.005533 0.000678 0.001986 -0.003581 0.004674
# 2 -0.005533 0.014534 -0.001686 0.008043 0.001770 -0.000605
# 3 0.000678 -0.001686 0.024049 0.007926 -0.011640 0.001739
# 4 0.001986 0.008043 0.007926 0.049023 0.004599 -0.002634
# 5 -0.003581 0.001770 -0.011640 0.004599 0.046344 -0.003014
# 6 0.004674 -0.000605 0.001739 -0.002634 -0.003014 0.026111
#
#
# Mechanical properties :
#
#
# Convention : Reuss Voigt Hill
#
# Bulk Modulus (GPa) = 24.53962 41.23289 32.88626
# Shear Modulus (GPa) = 24.75551 30.66620 27.71085
#
# Velocity S-wave (km/s) = 3.50459 3.90059 3.70788
# Velocity P-wave (km/s) = 5.34333 6.38305 5.88619
#
# Compressibility (1/GPa) = 0.04075042
#
# Stress axis : x y z
#
# Youngs Moduli (GPa) = 65.57722 68.80395 41.58146
#
# Poissons Ratio (x) = 0.38068 -0.02818
# Poissons Ratio (y) = 0.36282 0.07010
# Poissons Ratio (z) = -0.04444 0.11599
#
# Static dielectric constant tensor:
#      x y z
#    x 1.721120 0.075200 -0.009040 
#    y 0.075200 1.696150 0.164010 
#    z -0.009040 0.164010 1.702920 
# 
# From -- ./inp_files/224090.got.cif
#   From: 2010.05.17/outbox.cif.g08.bks.cpg/sg2_113_cif.got.tgz:224090.got - 2010.06.03 11:33:40.
