data_PCOD9105523
_publ_section_title
;
Structure prediction by ZEFSAII (Michael W. Deem and Ramdas Pophale) SiO2 
 PCOD9105523
Probable space group: P -1
;
_chemical_formula_sum "Si O2"
_cell_formula_units_Z 13
_cell_length_a 7.909454
_cell_length_b 6.119601
_cell_length_c 12.058798
_cell_angle_alpha 84.186081
_cell_angle_beta 74.643248
_cell_angle_gamma 112.363286
_cell_volume 506.970125
_symmetry_space_group_name_H-M "P -1"
_symmetry_group_IT_number 2
_symmetry_cell_setting 'triclinic'
loop_
_space_group_symop_operation_xyz
x,y,z
-x,-y,-z
loop_
_atom_site_type_symbol
_atom_site_label
_atom_site_fract_x
_atom_site_fract_y
_atom_site_fract_z
Si Si1 0.000000 0.500000 0.000000
Si Si2 0.338675 0.466179 0.692001
Si Si3 0.281354 0.593054 0.457661
Si Si4 0.710669 0.133668 0.903528
Si Si5 0.954451 0.036216 0.164115
Si Si6 0.602493 0.951031 0.700215
Si Si7 0.944248 0.818293 0.622728
O O1 0.066434 0.775267 0.925353
O O2 0.842211 0.386608 0.927166
O O3 0.237754 0.484790 0.594014
O O4 0.525784 0.431998 0.617684
O O5 0.399817 0.719965 0.732998
O O6 0.206090 0.242776 0.802639
O O7 0.111958 0.439490 0.409900
O O8 0.339575 0.878371 0.426691
O O9 0.842517 0.982882 0.888546
O O10 0.648194 0.132827 0.785549
O O11 0.500000 0.000000 0.000000
O O12 0.929764 0.103639 0.293001
O O13 0.745876 0.824926 0.695551
O O14 0.000000 0.000000 0.500000
#
# Coordination Sequence:
#
# PCOD9105523 Si02
#       7
#     1   2   2   2   2   2   2
#     4  12  28  52  76 100 140 196 252 308 354 422
#     4  10  22  39  69 103 146 179 230 293 351 440
#     4  10  20  39  65 104 142 188 225 275 364 438
#     4  11  28  50  73 104 139 191 247 308 360 419
#     4  11  25  48  73 108 144 189 244 298 363 423
#     4  10  23  42  67 102 138 188 233 292 361 431
#     4  10  20  41  66  99 145 183 228 295 353 433
#
# _framework density 25.64254
#
# number of rings (size 3 to 8) (size 9 to 14) (size 15 to 20)
#    0.000    1.538    1.538    1.846    4.308    1.231 
#    2.769    0.000    0.000    0.000    0.000    0.000 
#    0.000    0.000    0.000    0.000    0.000    0.000 
#
# Total GULP energy -72461.036848 kJ/mol
# GULP energy per Si atom -5573.925911 kJ/mol
# Density = 2.558418 g / cm^3
# Si number density = 25.642540 Si / 1000 Ang^3
#
#
#
# Elastic Constant Matrix: (Units=GPa)
#
#
# Indices 1 2 3 4 5 6 
#
# 1 67.4123 34.5325 21.8711 7.6263 -2.4639 -2.0235
# 2 34.5325 184.3774 63.3129 -21.4428 23.8394 28.5577
# 3 21.8711 63.3129 116.8691 -10.4864 17.3798 5.7345
# 4 7.6263 -21.4428 -10.4864 55.9282 -6.4233 12.9772
# 5 -2.4639 23.8394 17.3798 -6.4233 44.8495 4.4419
# 6 -2.0235 28.5577 5.7345 12.9772 4.4419 37.4548
#
#
#
# Elastic Compliance Matrix: (Units=1/GPa)
#
#
# Indices 1 2 3 4 5 6 
#
# 1 0.019151 -0.005026 -0.002210 -0.006236 0.002993 0.007011
# 2 -0.005026 0.009775 -0.003024 0.005632 -0.002612 -0.008903
# 3 -0.002210 -0.003024 0.011059 0.000772 -0.002743 0.000551
# 4 -0.006236 0.005632 0.000772 0.024250 0.001154 -0.013288
# 5 0.002993 -0.002612 -0.002743 0.001154 0.025158 -0.000810
# 6 0.007011 -0.008903 0.000551 -0.013288 -0.000810 0.038482
#
#
# Mechanical properties :
#
#
# Convention : Reuss Voigt Hill
#
# Bulk Modulus (GPa) = 51.37546 67.56575 59.47061
# Shear Modulus (GPa) = 32.28235 44.24265 38.26250
#
# Velocity S-wave (km/s) = 3.55200 4.15825 3.86703
# Velocity P-wave (km/s) = 6.07462 7.03286 6.57123
#
# Compressibility (1/GPa) = 0.01946454
#
# Stress axis : x y z
#
# Youngs Moduli (GPa) = 52.21696 102.29919 90.42595
#
# Poissons Ratio (x) = 0.51416 0.19981
# Poissons Ratio (y) = 0.26244 0.27349
# Poissons Ratio (z) = 0.11538 0.30940
#
# Static dielectric constant tensor:
#      x y z
#    x 2.037530 0.034930 -0.015500 
#    y 0.034930 1.948060 -0.068300 
#    z -0.015500 -0.068300 1.879620 
# 
# From -- ./inp_files/25093.got.cif
#   From: 2010.05.17/outbox.cif.g08.bks.cpg/sg2_13_cif.got.tgz:25093.got - 2010.06.03 11:33:40.
