data_PCOD9105013
_publ_section_title
;
Structure prediction by ZEFSAII (Michael W. Deem and Ramdas Pophale) SiO2 
 PCOD9105013
Probable space group: P -1
;
_chemical_formula_sum "Si O2"
_cell_formula_units_Z 12
_cell_length_a 12.160969
_cell_length_b 8.601492
_cell_length_c 8.768964
_cell_angle_alpha 97.397463
_cell_angle_beta 49.815446
_cell_angle_gamma 128.745338
_cell_volume 484.812522
_symmetry_space_group_name_H-M "P -1"
_symmetry_group_IT_number 2
_symmetry_cell_setting 'triclinic'
loop_
_space_group_symop_operation_xyz
x,y,z
-x,-y,-z
loop_
_atom_site_type_symbol
_atom_site_label
_atom_site_fract_x
_atom_site_fract_y
_atom_site_fract_z
Si Si1 0.675919 0.200350 0.987172
Si Si2 0.928829 0.115440 0.136767
Si Si3 0.487320 0.671890 0.999058
Si Si4 0.488389 0.130790 0.679230
Si Si5 0.106806 0.399197 0.729101
Si Si6 0.847792 0.909472 0.486094
O O1 0.710266 0.397767 0.907313
O O2 0.569167 0.085646 0.232011
O O3 0.894486 0.281905 0.818833
O O4 0.500000 0.000000 0.000000
O O5 0.691028 0.954475 0.282659
O O6 0.934982 0.099014 0.309487
O O7 0.054587 0.337869 0.948218
O O8 0.000000 0.000000 0.000000
O O9 0.646753 0.817766 0.736296
O O10 0.500000 0.500000 0.000000
O O11 0.534727 0.783980 0.134874
O O12 0.714522 0.339459 0.439301
O O13 0.179723 0.283642 0.591385
O O14 0.000000 0.000000 0.500000
#
# Coordination Sequence:
#
# PCOD9105013 Si02
#       6
#     2   2   2   2   2   2
#     4   9  20  37  61  86 126 165 203 250 303 369
#     4   9  20  37  61  90 121 164 203 253 303 369
#     4  11  21  38  58  94 124 154 202 260 305 353
#     4  10  20  40  63  89 122 164 211 244 307 376
#     4  10  20  39  63  88 119 168 210 243 302 381
#     4  11  21  38  60  92 126 152 200 266 312 349
#
# _framework density 24.751836000000001
#
# number of rings (size 3 to 8) (size 9 to 14) (size 15 to 20)
#    0.000    2.000    1.667    4.000    0.000    5.333 
#    6.000    3.333    0.000    2.000    0.000    0.000 
#    0.000    0.000    0.000    0.000    0.000    0.000 
#
# Total GULP energy -67021.895919 kJ/mol
# GULP energy per Si atom -5585.157993 kJ/mol
# Density = 2.469550 g / cm^3
# Si number density = 24.751836 Si / 1000 Ang^3
#
#
#
# Elastic Constant Matrix: (Units=GPa)
#
#
# Indices 1 2 3 4 5 6 
#
# 1 183.8708 44.9866 57.6687 -13.4135 22.0926 -11.9203
# 2 44.9866 79.8670 52.1857 -9.2461 10.4528 -8.7378
# 3 57.6687 52.1857 161.0135 -14.4028 17.4782 7.2515
# 4 -13.4135 -9.2461 -14.4028 49.2509 2.3711 1.6691
# 5 22.0926 10.4528 17.4782 2.3711 41.0497 2.0724
# 6 -11.9203 -8.7378 7.2515 1.6691 2.0724 34.3782
#
#
#
# Elastic Compliance Matrix: (Units=1/GPa)
#
#
# Indices 1 2 3 4 5 6 
#
# 1 0.007014 -0.002237 -0.001493 0.001109 -0.002749 0.002290
# 2 -0.002237 0.017880 -0.004934 0.001216 -0.001563 0.004845
# 3 -0.001493 -0.004934 0.008808 0.001442 -0.001592 -0.003604
# 4 0.001109 0.001216 0.001442 0.021404 -0.002732 -0.000485
# 5 -0.002749 -0.001563 -0.001592 -0.002732 0.027201 -0.002522
# 6 0.002290 0.004845 -0.003604 -0.000485 -0.002522 0.032049
#
#
# Mechanical properties :
#
#
# Convention : Reuss Voigt Hill
#
# Bulk Modulus (GPa) = 61.06484 81.60370 71.33427
# Shear Modulus (GPa) = 36.45882 42.92977 39.69430
#
# Velocity S-wave (km/s) = 3.84210 4.16914 4.00896
# Velocity P-wave (km/s) = 6.66383 7.49773 7.09305
#
# Compressibility (1/GPa) = 0.01637603
#
# Stress axis : x y z
#
# Youngs Moduli (GPa) = 142.57945 55.92942 113.52772
#
# Poissons Ratio (x) = 0.12509 0.16946
# Poissons Ratio (y) = 0.31888 0.56011
# Poissons Ratio (z) = 0.21283 0.27594
#
# Static dielectric constant tensor:
#      x y z
#    x 1.072320 -0.572840 1.267860 
#    y -0.572840 1.935790 0.684040 
#    z 1.267860 0.684040 0.153820 
# 
# From -- ./inp_files/236465.got.cif
#   From: 2010.05.17/outbox.cif.g08.bks.cpg/sg2_119_cif.got.tgz:236465.got - 2010.06.03 11:33:40.
