data_PCOD9105803
_publ_section_title
;
Structure prediction by ZEFSAII (Michael W. Deem and Ramdas Pophale) SiO2 
 PCOD9105803
Probable space group: P -1
;
_chemical_formula_sum "Si O2"
_cell_formula_units_Z 16
_cell_length_a 13.923211
_cell_length_b 6.797003
_cell_length_c 16.569683
_cell_angle_alpha 101.490931
_cell_angle_beta 29.594313
_cell_angle_gamma 90.466811
_cell_volume 713.375629
_symmetry_space_group_name_H-M "P -1"
_symmetry_group_IT_number 2
_symmetry_cell_setting 'triclinic'
loop_
_space_group_symop_operation_xyz
x,y,z
-x,-y,-z
loop_
_atom_site_type_symbol
_atom_site_label
_atom_site_fract_x
_atom_site_fract_y
_atom_site_fract_z
Si Si1 0.661082 0.091767 0.098048
Si Si2 0.388982 0.669825 0.688442
Si Si3 0.790231 0.801330 0.371223
Si Si4 0.196293 0.122511 0.446676
Si Si5 0.359395 0.662767 0.024312
Si Si6 0.898179 0.611549 0.866706
Si Si7 0.770750 0.299191 0.702461
Si Si8 0.738573 0.258280 0.386645
O O1 0.709508 0.216332 0.148575
O O2 0.414670 0.152065 0.278498
O O3 0.720146 0.168243 0.975638
O O4 0.760818 0.839463 0.020094
O O5 0.573131 0.759666 0.534317
O O6 0.514890 0.419380 0.589618
O O7 0.245981 0.706772 0.717806
O O8 0.853036 0.837173 0.419698
O O9 0.970079 0.590321 0.191610
O O10 0.765470 0.015426 0.360303
O O11 0.006695 0.276980 0.546160
O O12 0.224000 0.880728 0.380980
O O13 0.603185 0.528837 0.825154
O O14 0.251404 0.481080 0.081786
O O15 0.309025 0.762526 0.157942
O O16 0.086018 0.669249 0.691956
#
# Coordination Sequence:
#
# PCOD9105803 Si02
#       8
#     2   2   2   2   2   2   2   2
#     4  11  24  40  64  90 128 164 197 254 317 355
#     4   9  22  40  62  98 124 151 214 254 289 382
#     4  10  20  39  66  87 128 165 197 252 312 358
#     4  10  21  40  61  94 119 155 212 264 289 363
#     4  11  23  42  61  87 127 170 194 255 318 355
#     4  11  22  40  59  91 128 160 208 246 299 381
#     4  10  22  41  62  87 125 153 217 256 292 376
#     4  10  21  40  67  91 122 167 200 250 312 358
#
# _framework density 22.428577000000001
#
# number of rings (size 3 to 8) (size 9 to 14) (size 15 to 20)
#    0.000    1.750    2.500    1.125    1.750    1.500 
#    0.000    1.250    0.000    0.000    0.000    0.000 
#    0.000    0.000    0.000    0.000    0.000    0.000 
#
# Total GULP energy -89321.165832 kJ/mol
# GULP energy per Si atom -5582.572864 kJ/mol
# Density = 2.237753 g / cm^3
# Si number density = 22.428577 Si / 1000 Ang^3
#
#
#
# Elastic Constant Matrix: (Units=GPa)
#
#
# Indices 1 2 3 4 5 6 
#
# 1 86.3619 31.8824 22.1681 9.0658 5.4902 11.8055
# 2 31.8824 104.9214 40.1635 30.6985 -1.6002 -14.2136
# 3 22.1681 40.1635 75.7748 18.9501 -3.5563 -5.1081
# 4 9.0658 30.6985 18.9501 32.3410 8.5006 -3.4203
# 5 5.4902 -1.6002 -3.5563 8.5006 30.6137 4.2078
# 6 11.8055 -14.2136 -5.1081 -3.4203 4.2078 24.7792
#
#
#
# Elastic Compliance Matrix: (Units=1/GPa)
#
#
# Indices 1 2 3 4 5 6 
#
# 1 0.015923 -0.005923 -0.002996 0.002488 -0.002720 -0.010796
# 2 -0.005923 0.018013 -0.003641 -0.013283 0.003908 0.009907
# 3 -0.002996 -0.003641 0.018124 -0.007312 0.004299 0.001336
# 4 0.002488 -0.013283 -0.007312 0.051316 -0.016173 -0.000483
# 5 -0.002720 0.003908 0.004299 -0.016173 0.038955 -0.004424
# 6 -0.010796 0.009907 0.001336 -0.000483 -0.004424 0.052142
#
#
# Mechanical properties :
#
#
# Convention : Reuss Voigt Hill
#
# Bulk Modulus (GPa) = 37.12296 50.60957 43.86626
# Shear Modulus (GPa) = 21.87466 29.06972 25.47219
#
# Velocity S-wave (km/s) = 3.12637 3.60405 3.37367
# Velocity P-wave (km/s) = 5.44241 6.31923 5.89714
#
# Compressibility (1/GPa) = 0.02693751
#
# Stress axis : x y z
#
# Youngs Moduli (GPa) = 62.80391 55.51551 55.17515
#
# Poissons Ratio (x) = 0.32884 0.16532
# Poissons Ratio (y) = 0.37201 0.20092
# Poissons Ratio (z) = 0.18817 0.20216
#
# Static dielectric constant tensor:
#      x y z
#    x 1.829440 0.003500 -0.042850 
#    y 0.003500 1.815510 0.003900 
#    z -0.042850 0.003900 1.870480 
# 
# From -- ./inp_files/217195.got.cif
#   From: 2010.05.17/outbox.cif.g08.bks.cpg/sg2_109_cif.got.tgz:217195.got - 2010.06.03 11:33:40.
