data_PCOD9105900
_publ_section_title
;
Structure prediction by ZEFSAII (Michael W. Deem and Ramdas Pophale) SiO2 
 PCOD9105900
Probable space group: P -1
;
_chemical_formula_sum "Si O2"
_cell_formula_units_Z 16
_cell_length_a 21.815686
_cell_length_b 10.122879
_cell_length_c 15.346937
_cell_angle_alpha 149.366002
_cell_angle_beta 23.396075
_cell_angle_gamma 147.017640
_cell_volume 665.218404
_symmetry_space_group_name_H-M "P -1"
_symmetry_group_IT_number 2
_symmetry_cell_setting 'triclinic'
loop_
_space_group_symop_operation_xyz
x,y,z
-x,-y,-z
loop_
_atom_site_type_symbol
_atom_site_label
_atom_site_fract_x
_atom_site_fract_y
_atom_site_fract_z
Si Si1 0.550628 0.020313 0.826182
Si Si2 0.569453 0.819737 0.100889
Si Si3 0.386143 0.106458 0.618803
Si Si4 0.864556 0.391589 0.280857
Si Si5 0.624378 0.639212 0.641045
Si Si6 0.872049 0.730722 0.039154
Si Si7 0.118372 0.641205 0.350668
Si Si8 0.912162 0.838042 0.606077
O O1 0.501606 0.037831 0.802625
O O2 0.713606 0.235809 0.755978
O O3 0.588475 0.747310 0.654987
O O4 0.410290 0.119719 0.117603
O O5 0.507234 0.933324 0.332524
O O6 0.500000 0.500000 0.000000
O O7 0.757818 0.902117 0.886014
O O8 0.486111 0.372275 0.684744
O O9 0.246602 0.907116 0.741433
O O10 0.296155 0.196270 0.703376
O O11 0.787757 0.556578 0.404335
O O12 0.847281 0.539898 0.479910
O O13 0.050372 0.381454 0.041731
O O14 0.861827 0.541171 0.860668
O O15 0.000000 0.000000 0.000000
O O16 0.000000 0.500000 0.500000
O O17 0.037847 0.850991 0.526459
O O18 0.000000 0.000000 0.500000
#
# Coordination Sequence:
#
# PCOD9105900 Si02
#       8
#     2   2   2   2   2   2   2   2
#     4  11  24  39  66  94 134 169 225 276 336 408
#     4  12  24  44  70  99 134 177 231 287 333 408
#     4  11  22  41  69  95 132 173 231 280 337 397
#     4  10  20  39  66  93 128 172 226 269 323 408
#     4  11  22  41  62  96 128 174 218 278 339 400
#     4   9  21  38  61  97 128 174 214 273 341 396
#     4  11  23  40  67  97 132 174 227 282 330 403
#     4  11  23  41  68  97 135 179 222 272 348 410
#
# _framework density 24.052250999999998
#
# number of rings (size 3 to 8) (size 9 to 14) (size 15 to 20)
#    0.000    1.250    3.750    1.875    5.250    0.500 
#    4.500    0.000    0.000    2.250    0.000    0.000 
#    0.000    0.000    0.000    0.000    0.000    0.000 
#
# Total GULP energy -89336.906948 kJ/mol
# GULP energy per Si atom -5583.556684 kJ/mol
# Density = 2.399751 g / cm^3
# Si number density = 24.052251 Si / 1000 Ang^3
#
#
#
# Elastic Constant Matrix: (Units=GPa)
#
#
# Indices 1 2 3 4 5 6 
#
# 1 22.0139 -31.6152 19.1488 10.7400 -33.3936 -28.6904
# 2 -31.6152 52.0624 8.9161 7.8914 0.3999 -7.6501
# 3 19.1488 8.9161 127.0889 -2.4924 -33.1831 -12.9121
# 4 10.7400 7.8914 -2.4924 28.9260 -7.0765 -5.0378
# 5 -33.3936 0.3999 -33.1831 -7.0765 41.3996 3.4486
# 6 -28.6904 -7.6501 -12.9121 -5.0378 3.4486 38.5123
#
#
#
# Elastic Compliance Matrix: (Units=1/GPa)
#
#
# Indices 1 2 3 4 5 6 
#
# 1 -0.019514 -0.014572 -0.001365 0.004764 -0.014549 -0.015963
# 2 -0.014572 0.010083 -0.003152 -0.002622 -0.014077 -0.008992
# 3 -0.001365 -0.003152 0.010694 0.004595 0.008135 0.001815
# 4 0.004764 -0.002622 0.004595 0.038673 0.013459 0.008422
# 5 -0.014549 -0.014077 0.008135 0.013459 0.022305 -0.011144
# 6 -0.015963 -0.008992 0.001815 0.008422 -0.011144 0.014995
#
#
# Mechanical properties :
#
#
# Convention : Reuss Voigt Hill
#
# Bulk Modulus (GPa) = -27.08885 21.56272 -2.76306
# Shear Modulus (GPa) = 48.49221 35.41530 41.95375
#
# Velocity S-wave (km/s) = 4.49499 3.84139 4.18098
# Velocity P-wave (km/s) = 3.95639 5.35345 4.70704
#
# Compressibility (1/GPa) = -0.03691555
#
# Stress axis : x y z
#
# Youngs Moduli (GPa) = -51.24577 99.17882 93.51084
#
# Poissons Ratio (x) = 1.44525 0.12762
# Poissons Ratio (y) = -0.74676 0.29478
# Poissons Ratio (z) = -0.06994 0.31265
#
# Static dielectric constant tensor:
#      x y z
#    x 1.950010 -0.044820 -0.028490 
#    y -0.044820 1.939860 0.025730 
#    z -0.028490 0.025730 2.009410 
# 
# From -- ./inp_files/579195.got.cif
#   From: 2010.05.17/outbox.cif.g08.bks.cpg/sg2_290_cif.got.tgz:579195.got - 2010.06.03 11:33:40.
