data_PCOD9105396
_publ_section_title
;
Structure prediction by ZEFSAII (Michael W. Deem and Ramdas Pophale) SiO2 
 PCOD9105396
Probable space group: P -1
;
_chemical_formula_sum "Si O2"
_cell_formula_units_Z 16
_cell_length_a 9.732112
_cell_length_b 15.135651
_cell_length_c 8.923798
_cell_angle_alpha 46.064554
_cell_angle_beta 46.210297
_cell_angle_gamma 64.035115
_cell_volume 681.062691
_symmetry_space_group_name_H-M "P -1"
_symmetry_group_IT_number 2
_symmetry_cell_setting 'triclinic'
loop_
_space_group_symop_operation_xyz
x,y,z
-x,-y,-z
loop_
_atom_site_type_symbol
_atom_site_label
_atom_site_fract_x
_atom_site_fract_y
_atom_site_fract_z
Si Si1 0.092754 0.608751 0.906803
Si Si2 0.173964 0.267133 0.469146
Si Si3 0.447298 0.476020 0.894283
Si Si4 0.422949 0.116928 0.008712
Si Si5 0.851713 0.570307 0.428345
Si Si6 0.942983 0.945119 0.772291
Si Si7 0.694959 0.976468 0.461679
Si Si8 0.826158 0.208411 0.618807
O O1 0.304899 0.574105 0.829694
O O2 0.099978 0.734769 0.661198
O O3 0.000000 0.500000 0.000000
O O4 0.965538 0.609780 0.148411
O O5 0.199056 0.318740 0.555436
O O6 0.219464 0.127668 0.580610
O O7 0.957544 0.277146 0.564217
O O8 0.317091 0.347114 0.154227
O O9 0.651462 0.490152 0.642328
O O10 0.500000 0.500000 0.000000
O O11 0.600524 0.216487 0.777884
O O12 0.359400 0.076273 0.270821
O O13 0.500000 0.000000 0.000000
O O14 0.239202 0.148867 0.014417
O O15 0.000000 0.500000 0.500000
O O16 0.864602 0.065059 0.770209
O O17 0.132679 0.918907 0.752929
O O18 0.000000 0.000000 0.500000
O O19 0.500000 0.000000 0.500000
#
# Coordination Sequence:
#
# PCOD9105396 Si02
#       8
#     2   2   2   2   2   2   2   2
#     4  12  23  42  68 101 135 168 227 274 313 406
#     4  10  21  42  64  95 132 173 218 268 337 395
#     4  10  21  43  65  94 138 173 217 265 334 395
#     4   9  19  41  65  89 130 175 207 271 343 383
#     4  11  22  43  67  90 136 182 211 272 340 378
#     4   8  17  39  62  86 127 165 207 268 327 381
#     4  10  21  40  68  97 130 170 224 278 320 391
#     4  10  20  39  64  93 126 170 221 262 327 391
#
# _framework density 23.492697
#
# number of rings (size 3 to 8) (size 9 to 14) (size 15 to 20)
#    0.000    2.000    3.750    0.000    0.000    2.500 
#   20.250    6.875    0.000    0.000    0.000    0.000 
#    0.000    0.000    0.000    0.000    0.000    0.000 
#
# Total GULP energy -89358.116594 kJ/mol
# GULP energy per Si atom -5584.882287 kJ/mol
# Density = 2.343923 g / cm^3
# Si number density = 23.492697 Si / 1000 Ang^3
#
#
#
# Elastic Constant Matrix: (Units=GPa)
#
#
# Indices 1 2 3 4 5 6 
#
# 1 199.9267 36.2182 59.9979 -3.5824 -45.9494 -7.5076
# 2 36.2182 66.8926 9.3111 14.2660 -1.4031 1.4923
# 3 59.9979 9.3111 103.7659 15.1944 -27.6563 0.7350
# 4 -3.5824 14.2660 15.1944 24.8708 1.8177 0.5370
# 5 -45.9494 -1.4031 -27.6563 1.8177 56.7638 2.8451
# 6 -7.5076 1.4923 0.7350 0.5370 2.8451 32.1712
#
#
#
# Elastic Compliance Matrix: (Units=1/GPa)
#
#
# Indices 1 2 3 4 5 6 
#
# 1 0.008392 -0.005284 -0.004180 0.006438 0.004329 0.001809
# 2 -0.005284 0.020409 0.002786 -0.013993 -0.001875 -0.001844
# 3 -0.004180 0.002786 0.014620 -0.011408 0.004255 -0.001625
# 4 0.006438 -0.013993 -0.011408 0.056283 -0.002580 0.001701
# 5 0.004329 -0.001875 0.004255 -0.002580 0.023282 -0.001016
# 6 0.001809 -0.001844 -0.001625 0.001701 -0.001016 0.031690
#
#
# Mechanical properties :
#
#
# Convention : Reuss Voigt Hill
#
# Bulk Modulus (GPa) = 33.26091 64.62661 48.94376
# Shear Modulus (GPa) = 28.08170 40.43168 34.25669
#
# Velocity S-wave (km/s) = 3.46112 4.15303 3.82276
# Velocity P-wave (km/s) = 5.49192 7.11097 6.35323
#
# Compressibility (1/GPa) = 0.03006532
#
# Stress axis : x y z
#
# Youngs Moduli (GPa) = 119.16576 48.99861 68.40005
#
# Poissons Ratio (x) = 0.25892 0.28589
# Poissons Ratio (y) = 0.62971 -0.19059
# Poissons Ratio (z) = 0.49807 -0.13653
#
# Static dielectric constant tensor:
#      x y z
#    x 1.885640 -0.008710 -0.068100 
#    y -0.008710 1.910300 -0.021230 
#    z -0.068100 -0.021230 1.967740 
# 
# From -- ./inp_files/216609.got.cif
#   From: 2010.05.17/outbox.cif.g08.bks.cpg/sg2_109_cif.got.tgz:216609.got - 2010.06.03 11:33:40.
