data_PCOD9105235
_publ_section_title
;
Structure prediction by ZEFSAII (Michael W. Deem and Ramdas Pophale) SiO2 
 PCOD9105235
Probable space group: P -1
;
_chemical_formula_sum "Si O2"
_cell_formula_units_Z 16
_cell_length_a 23.966859
_cell_length_b 12.886977
_cell_length_c 9.823656
_cell_angle_alpha 130.696906
_cell_angle_beta 36.084130
_cell_angle_gamma 156.059679
_cell_volume 675.904579
_symmetry_space_group_name_H-M "P -1"
_symmetry_group_IT_number 2
_symmetry_cell_setting 'triclinic'
loop_
_space_group_symop_operation_xyz
x,y,z
-x,-y,-z
loop_
_atom_site_type_symbol
_atom_site_label
_atom_site_fract_x
_atom_site_fract_y
_atom_site_fract_z
Si Si1 0.952906 0.369824 0.341353
Si Si2 0.869713 0.727991 0.389058
Si Si3 0.466240 0.152968 0.592210
Si Si4 0.602844 0.410000 0.071043
Si Si5 0.022466 0.218901 0.498175
Si Si6 0.759498 0.903500 0.184849
Si Si7 0.559863 0.983799 0.739203
Si Si8 0.711854 0.070875 0.950858
O O1 0.000000 0.500000 0.500000
O O2 0.150535 0.628053 0.094905
O O3 0.849857 0.093563 0.301606
O O4 0.785961 0.257996 0.520944
O O5 0.676065 0.468798 0.470948
O O6 0.866291 0.632286 0.450540
O O7 0.899272 0.927234 0.521023
O O8 0.052495 0.909247 0.102637
O O9 0.340365 0.108342 0.723123
O O10 0.485915 0.053348 0.360015
O O11 0.375281 0.020450 0.805989
O O12 0.630334 0.607492 0.195645
O O13 0.535795 0.274817 0.235696
O O14 0.446128 0.166319 0.056794
O O15 0.809162 0.603826 0.790118
O O16 0.869232 0.144225 0.705844
O O17 0.500000 0.000000 0.000000
#
# Coordination Sequence:
#
# PCOD9105235 Si02
#       8
#     2   2   2   2   2   2   2   2
#     4  11  25  46  68  98 137 185 223 284 347 398
#     4  10  20  39  64 101 141 173 214 286 345 385
#     4  11  24  41  69 102 134 184 225 285 339 405
#     4  11  23  45  72 103 135 184 222 282 345 406
#     4  10  21  38  67 103 136 173 221 279 339 407
#     4  10  24  43  68  98 144 172 232 282 337 408
#     4  11  26  48  69  98 142 177 232 282 341 410
#     4  12  23  43  73 103 134 178 235 275 345 411
#
# _framework density 23.671980000000001
#
# number of rings (size 3 to 8) (size 9 to 14) (size 15 to 20)
#    0.000    1.250    3.750    1.500    1.750    5.000 
#    4.500    2.500    0.000    0.000    0.000    0.000 
#    0.000    0.000    0.000    0.000    0.000    0.000 
#
# Total GULP energy -89310.292827 kJ/mol
# GULP energy per Si atom -5581.893302 kJ/mol
# Density = 2.361810 g / cm^3
# Si number density = 23.671980 Si / 1000 Ang^3
#
#
#
# Elastic Constant Matrix: (Units=GPa)
#
#
# Indices 1 2 3 4 5 6 
#
# 1 74.4337 39.7293 35.9552 -1.1938 4.1269 11.2182
# 2 39.7293 152.9075 40.6551 1.2542 10.7121 15.7988
# 3 35.9552 40.6551 123.0233 -8.7014 10.3452 8.7374
# 4 -1.1938 1.2542 -8.7014 44.9949 5.0624 -2.0872
# 5 4.1269 10.7121 10.3452 5.0624 43.3592 -1.8207
# 6 11.2182 15.7988 8.7374 -2.0872 -1.8207 40.8553
#
#
#
# Elastic Compliance Matrix: (Units=1/GPa)
#
#
# Indices 1 2 3 4 5 6 
#
# 1 0.017421 -0.003215 -0.003856 -0.000318 -0.000022 -0.002733
# 2 -0.003215 0.008084 -0.001514 -0.000545 -0.001351 -0.002008
# 3 -0.003856 -0.001514 0.010101 0.002088 -0.001934 -0.000495
# 4 -0.000318 -0.000545 0.002088 0.023012 -0.002983 0.000894
# 5 -0.000022 -0.001351 -0.001934 -0.002983 0.024287 0.001872
# 6 -0.002733 -0.002008 -0.000495 0.000894 0.001872 0.026238
#
#
# Mechanical properties :
#
#
# Convention : Reuss Voigt Hill
#
# Bulk Modulus (GPa) = 54.23880 64.78265 59.51072
# Shear Modulus (GPa) = 37.74711 41.44353 39.59532
#
# Velocity S-wave (km/s) = 3.99756 4.18873 4.09426
# Velocity P-wave (km/s) = 6.65355 7.12882 6.89528
#
# Compressibility (1/GPa) = 0.01843699
#
# Stress axis : x y z
#
# Youngs Moduli (GPa) = 57.40124 123.69557 98.99646
#
# Poissons Ratio (x) = 0.39766 0.38171
# Poissons Ratio (y) = 0.18453 0.14992
# Poissons Ratio (z) = 0.22133 0.18732
#
# Static dielectric constant tensor:
#      x y z
#    x 2.270730 0.077560 -0.258540 
#    y 0.077560 2.045580 0.018220 
#    z -0.258540 0.018220 2.215780 
# 
# From -- ./inp_files/357427.got.cif
#   From: 2010.05.17/outbox.cif.g08.bks.cpg/sg2_179_cif.got.tgz:357427.got - 2010.06.03 11:33:40.
