data_PCOD9105569
_publ_section_title
;
Structure prediction by ZEFSAII (Michael W. Deem and Ramdas Pophale) SiO2 
 PCOD9105569
Probable space group: P -1
;
_chemical_formula_sum "Si O2"
_cell_formula_units_Z 13
_cell_length_a 8.935754
_cell_length_b 8.376018
_cell_length_c 9.830849
_cell_angle_alpha 94.628969
_cell_angle_beta 87.703570
_cell_angle_gamma 53.887907
_cell_volume 588.969452
_symmetry_space_group_name_H-M "P -1"
_symmetry_group_IT_number 2
_symmetry_cell_setting 'triclinic'
loop_
_space_group_symop_operation_xyz
x,y,z
-x,-y,-z
loop_
_atom_site_type_symbol
_atom_site_label
_atom_site_fract_x
_atom_site_fract_y
_atom_site_fract_z
Si Si1 0.861463 0.941369 0.662923
Si Si2 0.500000 0.500000 0.500000
Si Si3 0.830258 0.676324 0.831465
Si Si4 0.527352 0.662724 0.235137
Si Si5 0.203581 0.957494 0.639146
Si Si6 0.186639 0.255756 0.864354
Si Si7 0.561370 0.596994 0.728916
O O1 0.902992 0.744949 0.715992
O O2 0.821457 0.959400 0.504672
O O3 0.670682 0.123529 0.751587
O O4 0.029667 0.957164 0.681550
O O5 0.570616 0.596824 0.387100
O O6 0.682220 0.425432 0.600724
O O7 0.646128 0.700921 0.791034
O O8 0.978693 0.444747 0.847615
O O9 0.800184 0.791529 0.980080
O O10 0.680670 0.677155 0.164029
O O11 0.507139 0.492290 0.169475
O O12 0.233881 0.077445 0.754795
O O13 0.391796 0.727996 0.630994
#
# Coordination Sequence:
#
# PCOD9105569 Si02
#       7
#     2   1   2   2   2   2   2
#     4  11  23  39  65  95 122 156 202 252 304 359
#     4   8  20  36  64  96 120 154 192 256 300 368
#     4  11  26  43  60  87 124 166 207 247 299 361
#     4  10  20  39  65  89 125 154 197 246 305 358
#     4  11  23  39  65  95 122 156 202 252 304 359
#     4  11  26  43  60  87 124 166 207 247 299 361
#     4  10  20  39  65  89 125 154 197 246 305 358
#
# _framework density 22.072451000000001
#
# number of rings (size 3 to 8) (size 9 to 14) (size 15 to 20)
#    0.923    0.615    1.538    2.769    2.154    5.538 
#    0.000    0.000    0.000    0.000    0.000    0.000 
#    0.000    0.000    0.000    0.000    0.000    0.000 
#
# Total GULP energy -72377.041970 kJ/mol
# GULP energy per Si atom -5567.464767 kJ/mol
# Density = 2.202221 g / cm^3
# Si number density = 22.072451 Si / 1000 Ang^3
#
#
#
# Elastic Constant Matrix: (Units=GPa)
#
#
# Indices 1 2 3 4 5 6 
#
# 1 101.0250 22.1817 45.9516 0.6410 12.9344 6.8594
# 2 22.1817 124.6855 13.2821 351.0580 325.6674 -103.7639
# 3 45.9516 13.2821 108.5581 -161.6214 -127.5729 63.1297
# 4 0.6410 351.0580 -161.6214 1847.9449 1654.4904 -586.3697
# 5 12.9344 325.6674 -127.5729 1654.4904 1524.3737 -531.8046
# 6 6.8594 -103.7639 63.1297 -586.3697 -531.8046 226.3043
#
#
#
# Elastic Compliance Matrix: (Units=1/GPa)
#
#
# Indices 1 2 3 4 5 6 
#
# 1 0.012808 -0.000041 -0.005863 0.000550 -0.001453 -0.000761
# 2 -0.000041 0.027032 -0.011808 -0.004370 -0.002755 -0.002109
# 3 -0.005863 -0.011808 0.020023 0.006259 -0.003679 -0.003250
# 4 0.000550 -0.004370 0.006259 0.022402 -0.021786 0.003082
# 5 -0.001453 -0.002755 -0.003679 -0.021786 0.026830 0.006407
# 6 -0.000761 -0.002109 -0.003250 0.003082 0.006407 0.027424
#
#
# Mechanical properties :
#
#
# Convention : Reuss Voigt Hill
#
# Bulk Modulus (GPa) = 40.91672 55.23329 48.07500
# Shear Modulus (GPa) = 27.76403 736.58147 382.17275
#
# Velocity S-wave (km/s) = 3.55048 18.28757 13.17272
# Velocity P-wave (km/s) = 5.94858 21.70234 15.91190
#
# Compressibility (1/GPa) = 0.02443989
#
# Stress axis : x y z
#
# Youngs Moduli (GPa) = 78.07326 36.99376 49.94193
#
# Poissons Ratio (x) = 0.00150 0.29281
# Poissons Ratio (y) = 0.00316 0.58972
# Poissons Ratio (z) = 0.45774 0.43683
#
# Static dielectric constant tensor:
#      x y z
#    x 1.826920 -0.005480 0.007190 
#    y -0.005480 1.926380 0.029720 
#    z 0.007190 0.029720 1.831000 
# 
# From -- ./inp_files/158782.got.cif
#   From: 2010.05.17/outbox.cif.g08.bks.cpg/sg2_80_cif.got.tgz:158782.got - 2010.06.03 11:33:40.
