data_PCOD9105354
_publ_section_title
;
Structure prediction by ZEFSAII (Michael W. Deem and Ramdas Pophale) SiO2 
 PCOD9105354
Probable space group: P -1
;
_chemical_formula_sum "Si O2"
_cell_formula_units_Z 16
_cell_length_a 17.721585
_cell_length_b 14.437887
_cell_length_c 6.918414
_cell_angle_alpha 114.844120
_cell_angle_beta 76.918461
_cell_angle_gamma 150.785330
_cell_volume 743.612001
_symmetry_space_group_name_H-M "P -1"
_symmetry_group_IT_number 2
_symmetry_cell_setting 'triclinic'
loop_
_space_group_symop_operation_xyz
x,y,z
-x,-y,-z
loop_
_atom_site_type_symbol
_atom_site_label
_atom_site_fract_x
_atom_site_fract_y
_atom_site_fract_z
Si Si1 0.688517 0.398011 0.009871
Si Si2 0.767948 0.718910 0.202787
Si Si3 0.216791 0.073900 0.864381
Si Si4 0.846281 0.248295 0.859064
Si Si5 0.124264 0.069545 0.304663
Si Si6 0.686248 0.198510 0.620088
Si Si7 0.691091 0.040354 0.172493
Si Si8 0.983962 0.744574 0.407715
O O1 0.753423 0.387116 0.811642
O O2 0.497843 0.157105 0.941990
O O3 0.702287 0.529594 0.036791
O O4 0.798710 0.516092 0.243497
O O5 0.703089 0.745354 0.158995
O O6 0.959284 0.935625 0.221571
O O7 0.764307 0.731117 0.448224
O O8 0.301236 0.061373 0.817934
O O9 0.036981 0.842151 0.674542
O O10 0.206408 0.111532 0.114049
O O11 0.703711 0.146502 0.750714
O O12 0.909344 0.230940 0.674257
O O13 0.794284 0.152256 0.015782
O O14 0.000000 0.500000 0.000000
O O15 0.056058 0.907697 0.353345
O O16 0.755720 0.209673 0.414864
O O17 0.500000 0.000000 0.500000
#
# Coordination Sequence:
#
# PCOD9105354 Si02
#       8
#     2   2   2   2   2   2   2   2
#     4  10  22  44  61  92 134 168 209 259 316 379
#     4   9  20  36  62  91 130 164 205 262 308 364
#     4  11  20  37  68  95 125 164 215 254 313 371
#     4  12  23  43  64  94 124 162 216 268 309 370
#     4   9  18  37  60  93 127 161 207 262 309 364
#     4  10  23  44  65  92 129 166 208 261 317 376
#     4  11  25  42  66  93 131 170 204 260 331 371
#     4  10  20  39  64  91 126 161 208 266 302 364
#
# _framework density 21.516596
#
# number of rings (size 3 to 8) (size 9 to 14) (size 15 to 20)
#    0.000    1.750    3.750    1.125    0.000    3.000 
#    4.500    6.875    0.000    0.000    0.000    0.000 
#    0.000    0.000    0.000    0.000    0.000    0.000 
#
# Total GULP energy -89196.385037 kJ/mol
# GULP energy per Si atom -5574.774065 kJ/mol
# Density = 2.146762 g / cm^3
# Si number density = 21.516596 Si / 1000 Ang^3
#
#
#
# Elastic Constant Matrix: (Units=GPa)
#
#
# Indices 1 2 3 4 5 6 
#
# 1 120.6173 21.4194 35.3004 15.7857 -7.2488 -8.5798
# 2 21.4194 31.0586 15.1230 3.9949 -2.9929 -4.4167
# 3 35.3004 15.1230 100.6947 7.1273 -22.7600 -2.9839
# 4 15.7857 3.9949 7.1273 19.8698 0.6755 -2.1332
# 5 -7.2488 -2.9929 -22.7600 0.6755 45.6810 8.3986
# 6 -8.5798 -4.4167 -2.9839 -2.1332 8.3986 22.8628
#
#
#
# Elastic Compliance Matrix: (Units=1/GPa)
#
#
# Indices 1 2 3 4 5 6 
#
# 1 0.010963 -0.005165 -0.002588 -0.006495 -0.000205 0.002248
# 2 -0.005165 0.038540 -0.003985 -0.001606 -0.001228 0.005288
# 3 -0.002588 -0.003985 0.012941 -0.002275 0.006283 -0.002572
# 4 -0.006495 -0.001606 -0.002275 0.057150 -0.003791 0.003680
# 5 -0.000205 -0.001228 0.006283 -0.003791 0.026742 -0.009672
# 6 0.002248 0.005288 -0.002572 0.003680 -0.009672 0.049165
#
#
# Mechanical properties :
#
#
# Convention : Reuss Voigt Hill
#
# Bulk Modulus (GPa) = 25.66131 44.00623 34.83377
# Shear Modulus (GPa) = 21.55487 29.71792 25.63639
#
# Velocity S-wave (km/s) = 3.16852 3.72043 3.45551
# Velocity P-wave (km/s) = 5.03371 6.24116 5.66967
#
# Compressibility (1/GPa) = 0.03896917
#
# Stress axis : x y z
#
# Youngs Moduli (GPa) = 91.21804 25.94718 77.27097
#
# Poissons Ratio (x) = 0.13402 0.19994
# Poissons Ratio (y) = 0.47116 0.30790
# Poissons Ratio (z) = 0.23603 0.10339
#
# Static dielectric constant tensor:
#      x y z
#    x 1.949370 -0.010950 -0.026080 
#    y -0.010950 1.757160 0.045460 
#    z -0.026080 0.045460 1.821220 
# 
# From -- ./inp_files/110952.got.cif
#   From: 2010.05.17/outbox.cif.g08.bks.cpg/sg2_56_cif.got.tgz:110952.got - 2010.06.03 11:33:40.
