data_PCOD9105363
_publ_section_title
;
Structure prediction by ZEFSAII (Michael W. Deem and Ramdas Pophale) SiO2 
 PCOD9105363
Probable space group: P -1
;
_chemical_formula_sum "Si O2"
_cell_formula_units_Z 14
_cell_length_a 12.291971
_cell_length_b 9.216335
_cell_length_c 7.690274
_cell_angle_alpha 134.093020
_cell_angle_beta 119.844087
_cell_angle_gamma 80.498018
_cell_volume 519.267641
_symmetry_space_group_name_H-M "P -1"
_symmetry_group_IT_number 2
_symmetry_cell_setting 'triclinic'
loop_
_space_group_symop_operation_xyz
x,y,z
-x,-y,-z
loop_
_atom_site_type_symbol
_atom_site_label
_atom_site_fract_x
_atom_site_fract_y
_atom_site_fract_z
Si Si1 0.247576 0.146320 0.610913
Si Si2 0.958910 0.819030 0.126110
Si Si3 0.566585 0.424680 0.766101
Si Si4 0.642711 0.151264 0.323354
Si Si5 0.074166 0.754654 0.495443
Si Si6 0.867257 0.619340 0.524719
Si Si7 0.608193 0.283373 0.048504
O O1 0.303730 0.376400 0.936777
O O2 0.222912 0.225638 0.464733
O O3 0.341889 0.022853 0.668543
O O4 0.106570 0.975419 0.372284
O O5 0.965424 0.700525 0.210562
O O6 0.877954 0.988983 0.218747
O O7 0.924513 0.684614 0.814799
O O8 0.554778 0.268655 0.794769
O O9 0.578179 0.306167 0.502272
O O10 0.452317 0.536773 0.774037
O O11 0.795008 0.280637 0.508907
O O12 0.590354 0.112191 0.048121
O O13 0.986261 0.664063 0.519043
O O14 0.764843 0.387636 0.235901
#
# Coordination Sequence:
#
# PCOD9105363 Si02
#       7
#     2   2   2   2   2   2   2
#     4   9  20  40  65  91 123 163 207 253 308 368
#     4   9  18  36  61  92 129 166 201 252 313 369
#     4  10  23  47  64  87 130 163 207 267 306 362
#     4  11  23  40  66  97 122 161 213 259 312 368
#     4   9  19  34  57  95 127 156 207 252 308 377
#     4  10  20  39  64  91 131 170 199 252 315 371
#     4  10  24  42  63  91 125 168 211 252 311 374
#
# _framework density 26.96105
#
# number of rings (size 3 to 8) (size 9 to 14) (size 15 to 20)
#    0.000    2.286    0.000    3.000    0.000   10.286 
#    0.000   24.286    0.000    0.857    0.000    0.000 
#    0.000    0.000    0.000    0.000    0.000    0.000 
#
# Total GULP energy -78073.878149 kJ/mol
# GULP energy per Si atom -5576.705582 kJ/mol
# Density = 2.689969 g / cm^3
# Si number density = 26.961050 Si / 1000 Ang^3
#
#
#
# Elastic Constant Matrix: (Units=GPa)
#
#
# Indices 1 2 3 4 5 6 
#
# 1 114.3699 6.8231 31.8337 -8.9366 -8.5470 -4.6571
# 2 6.8231 129.8371 21.5499 -35.4267 -15.8991 15.8557
# 3 31.8337 21.5499 109.6029 -20.9264 -17.4877 -4.3804
# 4 -8.9366 -35.4267 -20.9264 46.1912 2.0869 -7.4132
# 5 -8.5470 -15.8991 -17.4877 2.0869 42.1474 -15.1367
# 6 -4.6571 15.8557 -4.3804 -7.4132 -15.1367 26.4404
#
#
#
# Elastic Compliance Matrix: (Units=1/GPa)
#
#
# Indices 1 2 3 4 5 6 
#
# 1 0.009710 0.000125 -0.002135 0.001372 0.002091 0.002864
# 2 0.000125 0.010380 -0.000439 0.007214 0.002359 -0.002902
# 3 -0.002135 -0.000439 0.012329 0.005726 0.006927 0.007501
# 4 0.001372 0.007214 0.005726 0.031290 0.007365 0.009854
# 5 0.002091 0.002359 0.006927 0.007365 0.035659 0.022580
# 6 0.002864 -0.002902 0.007501 0.009854 0.022580 0.056998
#
#
# Mechanical properties :
#
#
# Convention : Reuss Voigt Hill
#
# Bulk Modulus (GPa) = 36.33699 52.69148 44.51424
# Shear Modulus (GPa) = 29.33609 42.52936 35.93272
#
# Velocity S-wave (km/s) = 3.30220 3.97600 3.65466
# Velocity P-wave (km/s) = 5.29587 6.37684 5.86133
#
# Compressibility (1/GPa) = 0.02752016
#
# Stress axis : x y z
#
# Youngs Moduli (GPa) = 102.98223 96.33973 81.11212
#
# Poissons Ratio (x) = -0.01203 0.17316
# Poissons Ratio (y) = -0.01286 0.03564
# Poissons Ratio (z) = 0.21985 0.04234
#
# Static dielectric constant tensor:
#      x y z
#    x 2.238670 -0.036470 0.082830 
#    y -0.036470 2.404000 -0.043190 
#    z 0.082830 -0.043190 2.028040 
# 
# From -- ./inp_files/325188.got.cif
#   From: 2010.05.17/outbox.cif.g08.bks.cpg/sg2_163_cif.got.tgz:325188.got - 2010.06.03 11:33:40.
