data_PCOD9105344
_publ_section_title
;
Structure prediction by ZEFSAII (Michael W. Deem and Ramdas Pophale) SiO2 
 PCOD9105344
Probable space group: P -1
;
_chemical_formula_sum "Si O2"
_cell_formula_units_Z 14
_cell_length_a 12.181517
_cell_length_b 7.189627
_cell_length_c 7.870916
_cell_angle_alpha 76.644891
_cell_angle_beta 95.596054
_cell_angle_gamma 119.913828
_cell_volume 581.217101
_symmetry_space_group_name_H-M "P -1"
_symmetry_group_IT_number 2
_symmetry_cell_setting 'triclinic'
loop_
_space_group_symop_operation_xyz
x,y,z
-x,-y,-z
loop_
_atom_site_type_symbol
_atom_site_label
_atom_site_fract_x
_atom_site_fract_y
_atom_site_fract_z
Si Si1 0.191963 0.788567 0.704459
Si Si2 0.340337 0.050996 0.155759
Si Si3 0.388781 0.693296 0.836460
Si Si4 0.317277 0.679369 0.472437
Si Si5 0.265748 0.217096 0.437209
Si Si6 0.980276 0.867848 0.758740
Si Si7 0.184680 0.206683 0.929855
O O1 0.280323 0.751997 0.859130
O O2 0.195310 0.650385 0.569505
O O3 0.053301 0.739017 0.743254
O O4 0.268176 0.043711 0.604575
O O5 0.480522 0.191216 0.070234
O O6 0.330627 0.196275 0.279664
O O7 0.774014 0.971928 0.972799
O O8 0.329441 0.834681 0.285831
O O9 0.313766 0.431092 0.876368
O O10 0.416009 0.772679 0.625711
O O11 0.316451 0.462367 0.455330
O O12 0.118526 0.128921 0.387878
O O13 0.090467 0.109746 0.778667
O O14 0.896141 0.768719 0.936314
#
# Coordination Sequence:
#
# PCOD9105344 Si02
#       7
#     2   2   2   2   2   2   2
#     4   9  21  37  60  91 124 148 199 249 290 357
#     4  10  21  42  61  89 125 152 200 250 286 362
#     4  10  21  40  62  90 122 155 198 244 303 351
#     4   9  21  38  61  95 115 155 199 237 311 345
#     4  10  20  39  64  91 119 159 194 247 301 346
#     4  10  21  41  60  84 124 157 205 242 291 357
#     4  10  22  41  64  85 119 167 196 244 300 345
#
# _framework density 24.087384
#
# number of rings (size 3 to 8) (size 9 to 14) (size 15 to 20)
#    0.857    1.429    0.000    2.143    0.000    1.714 
#   18.000    0.714    0.000    0.000    0.000    0.000 
#    0.000    0.000    0.000    0.000    0.000    0.000 
#
# Total GULP energy -78131.218076 kJ/mol
# GULP energy per Si atom -5580.801291 kJ/mol
# Density = 2.403256 g / cm^3
# Si number density = 24.087384 Si / 1000 Ang^3
#
#
#
# Elastic Constant Matrix: (Units=GPa)
#
#
# Indices 1 2 3 4 5 6 
#
# 1 108.0864 11.0711 12.5162 -1.2558 19.5227 -6.6082
# 2 11.0711 61.2370 10.9885 -2.2767 1.4644 -29.8464
# 3 12.5162 10.9885 41.4625 -5.9337 1.4381 -3.1326
# 4 -1.2558 -2.2767 -5.9337 18.4299 -1.7558 -0.0718
# 5 19.5227 1.4644 1.4381 -1.7558 31.7826 0.6310
# 6 -6.6082 -29.8464 -3.1326 -0.0718 0.6310 41.8993
#
#
#
# Elastic Compliance Matrix: (Units=1/GPa)
#
#
# Indices 1 2 3 4 5 6 
#
# 1 0.010918 -0.000840 -0.002900 -0.000919 -0.006607 0.001005
# 2 -0.000840 0.026394 -0.005110 0.001558 -0.000746 0.018301
# 3 -0.002900 -0.005110 0.027304 0.008075 0.001268 -0.002061
# 4 -0.000919 0.001558 0.008075 0.057306 0.003261 0.001618
# 5 -0.006607 -0.000746 0.001268 0.003261 0.035719 -0.002011
# 6 0.001005 0.018301 -0.002061 0.001618 -0.002011 0.036941
#
#
# Mechanical properties :
#
#
# Convention : Reuss Voigt Hill
#
# Bulk Modulus (GPa) = 21.31438 31.10415 26.20927
# Shear Modulus (GPa) = 21.93753 30.16970 26.05362
#
# Velocity S-wave (km/s) = 3.02113 3.54292 3.29238
# Velocity P-wave (km/s) = 4.58668 5.44770 5.03563
#
# Compressibility (1/GPa) = 0.04691668
#
# Stress axis : x y z
#
# Youngs Moduli (GPa) = 91.59354 37.88692 36.62526
#
# Poissons Ratio (x) = 0.03183 0.10620
# Poissons Ratio (y) = 0.07694 0.18715
# Poissons Ratio (z) = 0.26558 0.19360
#
# Static dielectric constant tensor:
#      x y z
#    x 1.930920 -0.001990 -0.030840 
#    y -0.001990 1.939510 0.020730 
#    z -0.030840 0.020730 2.018640 
# 
# From -- ./inp_files/410282.got.cif
#   From: 2010.05.17/outbox.cif.g08.bks.cpg/sg2_206_cif.got.tgz:410282.got - 2010.06.03 11:33:40.
