data_PCOD9105117
_publ_section_title
;
Structure prediction by ZEFSAII (Michael W. Deem and Ramdas Pophale) SiO2 
 PCOD9105117
Probable space group: P -1
;
_chemical_formula_sum "Si O2"
_cell_formula_units_Z 16
_cell_length_a 19.368730
_cell_length_b 10.190863
_cell_length_c 10.317471
_cell_angle_alpha 138.841583
_cell_angle_beta 138.376036
_cell_angle_gamma 58.969748
_cell_volume 885.057967
_symmetry_space_group_name_H-M "P -1"
_symmetry_group_IT_number 2
_symmetry_cell_setting 'triclinic'
loop_
_space_group_symop_operation_xyz
x,y,z
-x,-y,-z
loop_
_atom_site_type_symbol
_atom_site_label
_atom_site_fract_x
_atom_site_fract_y
_atom_site_fract_z
Si Si1 0.670752 0.707126 0.655822
Si Si2 0.489439 0.591704 0.910007
Si Si3 0.703637 0.157870 0.136726
Si Si4 0.792879 0.575805 0.974132
Si Si5 0.810007 0.569337 0.512888
Si Si6 0.720268 0.713505 0.233131
Si Si7 0.023188 0.644622 0.016639
Si Si8 0.843025 0.002251 0.439431
O O1 0.556774 0.595279 0.382684
O O2 0.717741 0.599052 0.764667
O O3 0.739952 0.663831 0.595252
O O4 0.678073 0.943016 0.872176
O O5 0.402914 0.748777 0.907083
O O6 0.500000 0.500000 0.000000
O O7 0.600625 0.693401 0.093746
O O8 0.769818 0.332552 0.277870
O O9 0.775165 0.121534 0.334688
O O10 0.733160 0.564864 0.018930
O O11 0.869595 0.410722 0.936924
O O12 0.862306 0.793367 0.242626
O O13 0.788115 0.660227 0.411120
O O14 0.927819 0.610799 0.759131
O O15 0.768360 0.925107 0.397368
O O16 0.948472 0.130631 0.725405
O O17 0.000000 0.500000 0.000000
#
# Coordination Sequence:
#
# PCOD9105117 Si02
#       8
#     2   2   2   2   2   2   2   2
#     4  10  20  39  63  92 115 160 212 238 297 375
#     4  11  21  40  64  89 128 155 200 255 299 356
#     4  10  20  39  63  92 115 160 212 238 297 375
#     4   9  22  41  57  91 127 149 204 254 300 350
#     4  11  22  39  64  89 126 155 204 260 294 350
#     4  10  23  45  54  88 140 150 184 284 297 330
#     4  12  20  37  70  88 114 173 206 237 307 364
#     4   9  22  41  57  91 127 149 204 254 300 350
#
# _framework density 18.077912000000001
#
# number of rings (size 3 to 8) (size 9 to 14) (size 15 to 20)
#    0.750    1.000    5.000    0.750    0.000    4.000 
#    4.500    0.000    0.000    0.000    0.000    0.000 
#    0.000    0.000    0.000    0.000    0.000    0.000 
#
# Total GULP energy -89167.825439 kJ/mol
# GULP energy per Si atom -5572.989090 kJ/mol
# Density = 1.803677 g / cm^3
# Si number density = 18.077912 Si / 1000 Ang^3
#
#
#
# Elastic Constant Matrix: (Units=GPa)
#
#
# Indices 1 2 3 4 5 6 
#
# 1 41.8031 -1.1121 6.2639 -3.4133 -6.5218 13.2051
# 2 -1.1121 50.8407 21.7621 -1.2943 -5.6121 2.9642
# 3 6.2639 21.7621 107.4437 1.3358 9.6790 3.3768
# 4 -3.4133 -1.2943 1.3358 24.8408 7.7444 -2.4103
# 5 -6.5218 -5.6121 9.6790 7.7444 31.1691 -0.8470
# 6 13.2051 2.9642 3.3768 -2.4103 -0.8470 23.1497
#
#
#
# Elastic Compliance Matrix: (Units=1/GPa)
#
#
# Indices 1 2 3 4 5 6 
#
# 1 0.031159 0.003684 -0.002685 0.000615 0.007388 -0.017519
# 2 0.003684 0.022981 -0.005327 -0.000452 0.006564 -0.004074
# 3 -0.002685 -0.005327 0.010975 0.000370 -0.005008 0.000468
# 4 0.000615 -0.000452 0.000370 0.044073 -0.010914 0.003843
# 5 0.007388 0.006564 -0.005008 -0.010914 0.038968 -0.004035
# 6 -0.017519 -0.004074 0.000468 0.003843 -0.004035 0.053896
#
#
# Mechanical properties :
#
#
# Convention : Reuss Voigt Hill
#
# Bulk Modulus (GPa) = 17.71261 28.21281 22.96271
# Shear Modulus (GPa) = 21.78384 27.37681 24.58032
#
# Velocity S-wave (km/s) = 3.47507 3.89572 3.69140
# Velocity P-wave (km/s) = 5.09124 5.98963 5.55861
#
# Compressibility (1/GPa) = 0.05645695
#
# Stress axis : x y z
#
# Youngs Moduli (GPa) = 32.09343 43.51478 91.11983
#
# Poissons Ratio (x) = -0.16029 0.24468
# Poissons Ratio (y) = -0.11822 0.48540
# Poissons Ratio (z) = 0.08618 0.23181
#
# Static dielectric constant tensor:
#      x y z
#    x 1.615350 -0.003700 -0.003640 
#    y -0.003700 1.607210 0.017370 
#    z -0.003640 0.017370 1.630060 
# 
# From -- ./inp_files/329659.got.cif
#   From: 2010.05.17/outbox.cif.g08.bks.cpg/sg2_165_cif.got.tgz:329659.got - 2010.06.03 11:33:40.
