data_PCOD9105266
_publ_section_title
;
Structure prediction by ZEFSAII (Michael W. Deem and Ramdas Pophale) SiO2 
 PCOD9105266
Probable space group: P -1
;
_chemical_formula_sum "Si O2"
_cell_formula_units_Z 16
_cell_length_a 13.082583
_cell_length_b 11.186046
_cell_length_c 9.014121
_cell_angle_alpha 130.940290
_cell_angle_beta 108.659381
_cell_angle_gamma 43.744209
_cell_volume 658.596847
_symmetry_space_group_name_H-M "P -1"
_symmetry_group_IT_number 2
_symmetry_cell_setting 'triclinic'
loop_
_space_group_symop_operation_xyz
x,y,z
-x,-y,-z
loop_
_atom_site_type_symbol
_atom_site_label
_atom_site_fract_x
_atom_site_fract_y
_atom_site_fract_z
Si Si1 0.003324 0.963255 0.649555
Si Si2 0.506790 0.250617 0.221065
Si Si3 0.317388 0.630838 0.023778
Si Si4 0.449262 0.447831 0.647464
Si Si5 0.673801 0.983317 0.542461
Si Si6 0.434842 0.196805 0.848792
Si Si7 0.133284 0.164764 0.901028
Si Si8 0.006800 0.619819 0.318901
O O1 0.833196 0.127637 0.781391
O O2 0.078337 0.044026 0.817640
O O3 0.080800 0.707398 0.479106
O O4 0.000000 0.000000 0.500000
O O5 0.416523 0.373702 0.430529
O O6 0.505745 0.423349 0.278769
O O7 0.682408 0.035759 0.174829
O O8 0.448880 0.184945 0.021432
O O9 0.500000 0.500000 0.000000
O O10 0.307225 0.608015 0.825069
O O11 0.321472 0.459186 0.969266
O O12 0.597340 0.210502 0.602977
O O13 0.620366 0.896369 0.341067
O O14 0.853538 0.769034 0.466659
O O15 0.596708 0.064864 0.735202
O O16 0.060176 0.276591 0.795356
O O17 0.088825 0.364375 0.141179
#
# Coordination Sequence:
#
# PCOD9105266 Si02
#       8
#     2   2   2   2   2   2   2   2
#     4  10  22  37  67  96 125 170 224 267 324 389
#     4  11  22  40  59  96 134 169 209 273 339 384
#     4  11  20  38  68  95 120 170 224 273 318 389
#     4  10  22  37  63  91 127 166 212 271 325 385
#     4  10  20  40  62  96 122 164 227 271 322 393
#     4  10  22  35  65  95 127 165 210 280 332 382
#     4  10  22  40  59  92 130 173 215 264 320 401
#     4  10  20  39  64  87 122 174 220 268 313 392
#
# _framework density 24.294073000000001
#
# number of rings (size 3 to 8) (size 9 to 14) (size 15 to 20)
#    0.000    1.750    2.500    2.250    1.750    0.500 
#    2.250    1.250    0.000    0.000    0.000    0.000 
#    0.000    0.000    0.000    0.000    0.000    0.000 
#
# Total GULP energy -89271.043986 kJ/mol
# GULP energy per Si atom -5579.440249 kJ/mol
# Density = 2.423878 g / cm^3
# Si number density = 24.294073 Si / 1000 Ang^3
#
#
#
# Elastic Constant Matrix: (Units=GPa)
#
#
# Indices 1 2 3 4 5 6 
#
# 1 62.6004 23.4804 48.5021 9.7756 8.9213 -8.1165
# 2 23.4804 43.6719 36.1353 10.7069 7.8908 0.6162
# 3 48.5021 36.1353 199.5736 11.4999 7.5986 -6.9391
# 4 9.7756 10.7069 11.4999 42.7739 16.4673 -1.2261
# 5 8.9213 7.8908 7.5986 16.4673 44.4867 5.1865
# 6 -8.1165 0.6162 -6.9391 -1.2261 5.1865 24.1178
#
#
#
# Elastic Compliance Matrix: (Units=1/GPa)
#
#
# Indices 1 2 3 4 5 6 
#
# 1 0.023849 -0.009111 -0.003711 -0.000724 -0.003179 0.007838
# 2 -0.009111 0.032065 -0.003451 -0.004804 -0.000919 -0.004925
# 3 -0.003711 -0.003451 0.006560 -0.000108 0.000197 0.000679
# 4 -0.000724 -0.004804 -0.000108 0.028734 -0.010025 0.003465
# 5 -0.003179 -0.000919 0.000197 -0.010025 0.027829 -0.007484
# 6 0.007838 -0.004925 0.000679 0.003465 -0.007484 0.046208
#
#
# Mechanical properties :
#
#
# Convention : Reuss Voigt Hill
#
# Bulk Modulus (GPa) = 33.41327 58.00905 45.71116
# Shear Modulus (GPa) = 24.06545 35.45756 29.76150
#
# Velocity S-wave (km/s) = 3.15078 3.82450 3.50387
# Velocity P-wave (km/s) = 5.19808 6.59031 5.93516
#
# Compressibility (1/GPa) = 0.02992823
#
# Stress axis : x y z
#
# Youngs Moduli (GPa) = 41.92998 31.18652 152.44373
#
# Poissons Ratio (x) = 0.28413 0.56575
# Poissons Ratio (y) = 0.38201 0.52610
# Poissons Ratio (z) = 0.15561 0.10763
#
# Static dielectric constant tensor:
#      x y z
#    x 2.047910 0.025690 0.051950 
#    y 0.025690 1.931960 -0.024620 
#    z 0.051950 -0.024620 2.075590 
# 
# From -- ./inp_files/308561.got.cif
#   From: 2010.05.17/outbox.cif.g08.bks.cpg/sg2_155_cif.got.tgz:308561.got - 2010.06.03 11:33:40.
