data_PCOD9105994
_publ_section_title
;
Structure prediction by ZEFSAII (Michael W. Deem and Ramdas Pophale) SiO2 
 PCOD9105994
Probable space group: P -1
;
_chemical_formula_sum "Si O2"
_cell_formula_units_Z 16
_cell_length_a 13.229708
_cell_length_b 5.257330
_cell_length_c 14.421815
_cell_angle_alpha 125.449982
_cell_angle_beta 62.328520
_cell_angle_gamma 88.598950
_cell_volume 660.946103
_symmetry_space_group_name_H-M "P -1"
_symmetry_group_IT_number 2
_symmetry_cell_setting 'triclinic'
loop_
_space_group_symop_operation_xyz
x,y,z
-x,-y,-z
loop_
_atom_site_type_symbol
_atom_site_label
_atom_site_fract_x
_atom_site_fract_y
_atom_site_fract_z
Si Si1 0.279589 0.673998 0.598924
Si Si2 0.119098 0.468461 0.878927
Si Si3 0.532946 0.161371 0.157423
Si Si4 0.041585 0.706865 0.605204
Si Si5 0.750705 0.540756 0.002392
Si Si6 0.028017 0.481672 0.213435
Si Si7 0.535761 0.611716 0.389187
Si Si8 0.614480 0.155306 0.914163
O O1 0.185409 0.560979 0.555222
O O2 0.417320 0.547731 0.466463
O O3 0.328340 0.556884 0.657785
O O4 0.205416 0.079820 0.730291
O O5 0.062142 0.625570 0.837292
O O6 0.197824 0.579680 0.942511
O O7 0.000000 0.500000 0.000000
O O8 0.533230 0.512268 0.263469
O O9 0.399170 0.141894 0.201861
O O10 0.592803 0.081749 0.013891
O O11 0.620859 0.874801 0.130019
O O12 0.968144 0.678531 0.722550
O O13 0.000000 0.500000 0.500000
O O14 0.014410 0.102143 0.673517
O O15 0.729829 0.255353 0.889379
O O16 0.845331 0.642431 0.924574
O O17 0.500000 0.000000 0.500000
O O18 0.500000 0.500000 0.000000
#
# Coordination Sequence:
#
# PCOD9105994 Si02
#       8
#     2   2   2   2   2   2   2   2
#     4  10  24  44  65  98 140 173 239 291 353 429
#     4   9  19  41  68 101 132 173 220 294 360 423
#     4  10  21  40  62  94 135 177 232 289 347 424
#     4  11  25  48  70  99 142 190 239 298 360 436
#     4  10  20  39  66  98 135 176 221 293 360 426
#     4  10  24  42  70 104 136 177 237 288 363 430
#     4  11  25  41  68  99 134 192 235 291 357 418
#     4   9  21  37  60  90 133 176 226 287 354 415
#
# _framework density 24.207726000000001
#
# number of rings (size 3 to 8) (size 9 to 14) (size 15 to 20)
#    0.000    2.000    1.250    0.375    7.000    2.000 
#    4.500    5.625    0.000    0.000    0.000    0.000 
#    0.000    0.000    0.000    0.000    0.000    0.000 
#
# Total GULP energy -89215.812885 kJ/mol
# GULP energy per Si atom -5575.988305 kJ/mol
# Density = 2.415263 g / cm^3
# Si number density = 24.207726 Si / 1000 Ang^3
#
#
#
# Elastic Constant Matrix: (Units=GPa)
#
#
# Indices 1 2 3 4 5 6 
#
# 1 203.2383 35.6468 58.0064 2.0631 33.6958 4.8603
# 2 35.6468 74.0346 9.8202 -2.9789 13.4240 -3.5302
# 3 58.0064 9.8202 73.6952 -2.5811 23.8219 -1.2728
# 4 2.0631 -2.9789 -2.5811 30.1382 1.4732 2.1551
# 5 33.6958 13.4240 23.8219 1.4732 44.3323 -4.7736
# 6 4.8603 -3.5302 -1.2728 2.1551 -4.7736 37.3793
#
#
#
# Elastic Compliance Matrix: (Units=1/GPa)
#
#
# Indices 1 2 3 4 5 6 
#
# 1 0.007090 -0.002499 -0.004555 -0.000898 -0.002322 -0.001558
# 2 -0.002499 0.015290 0.001057 0.001838 -0.003221 0.001288
# 3 -0.004555 0.001057 0.019490 0.002427 -0.007382 0.000273
# 4 -0.000898 0.001838 0.002427 0.033890 -0.002509 -0.001901
# 5 -0.002322 -0.003221 -0.007382 -0.002509 0.029745 0.003690
# 6 -0.001558 0.001288 0.000273 -0.001901 0.003690 0.027667
#
#
# Mechanical properties :
#
#
# Convention : Reuss Voigt Hill
#
# Bulk Modulus (GPa) = 33.47192 61.99055 47.73124
# Shear Modulus (GPa) = 32.23220 38.86959 35.55090
#
# Velocity S-wave (km/s) = 3.65291 4.01143 3.83636
# Velocity P-wave (km/s) = 5.62571 6.86431 6.27564
#
# Compressibility (1/GPa) = 0.02987579
#
# Stress axis : x y z
#
# Youngs Moduli (GPa) = 141.03957 65.40421 51.30827
#
# Poissons Ratio (x) = 0.16344 0.23373
# Poissons Ratio (y) = 0.35244 -0.05425
# Poissons Ratio (z) = 0.64249 -0.06915
#
# Static dielectric constant tensor:
#      x y z
#    x 2.096120 0.027130 -0.038750 
#    y 0.027130 1.965130 0.023500 
#    z -0.038750 0.023500 2.004640 
# 
# From -- ./inp_files/511305.got.cif
#   From: 2010.05.17/outbox.cif.g08.bks.cpg/sg2_256_cif.got.tgz:511305.got - 2010.06.03 11:33:40.
