data_PCOD9105227
_publ_section_title
;
Structure prediction by ZEFSAII (Michael W. Deem and Ramdas Pophale) SiO2 
 PCOD9105227
Probable space group: P -1
;
_chemical_formula_sum "Si O2"
_cell_formula_units_Z 16
_cell_length_a 8.824921
_cell_length_b 15.116202
_cell_length_c 10.850324
_cell_angle_alpha 101.069121
_cell_angle_beta 103.462564
_cell_angle_gamma 31.983572
_cell_volume 745.558260
_symmetry_space_group_name_H-M "P -1"
_symmetry_group_IT_number 2
_symmetry_cell_setting 'triclinic'
loop_
_space_group_symop_operation_xyz
x,y,z
-x,-y,-z
loop_
_atom_site_type_symbol
_atom_site_label
_atom_site_fract_x
_atom_site_fract_y
_atom_site_fract_z
Si Si1 0.372593 0.458051 0.603118
Si Si2 0.883793 0.496641 0.093305
Si Si3 0.948099 0.288832 0.166778
Si Si4 0.882148 0.345277 0.637164
Si Si5 0.488507 0.971210 0.630482
Si Si6 0.364323 0.367040 0.240509
Si Si7 0.268504 0.805006 0.970118
Si Si8 0.344737 0.833982 0.524015
O O1 0.257564 0.559924 0.732732
O O2 0.666203 0.366872 0.598233
O O3 0.145850 0.591296 0.485034
O O4 0.472860 0.304852 0.585880
O O5 0.960317 0.353495 0.072802
O O6 0.087068 0.438302 0.222912
O O7 0.538525 0.674896 0.081400
O O8 0.000000 0.500000 0.000000
O O9 0.834998 0.246842 0.090148
O O10 0.245833 0.134536 0.258422
O O11 0.764679 0.470734 0.751411
O O12 0.198451 0.157626 0.676461
O O13 0.449218 0.883279 0.586246
O O14 0.500000 0.000000 0.500000
O O15 0.571347 0.239359 0.134992
O O16 0.563837 0.270031 0.370229
O O17 0.000000 0.000000 0.000000
O O18 0.000000 0.000000 0.500000
#
# Coordination Sequence:
#
# PCOD9105227 Si02
#       8
#     2   2   2   2   2   2   2   2
#     4  10  21  38  66  95 136 180 213 250 329 418
#     4  10  24  48  69  91 127 178 235 287 334 390
#     4  12  24  45  68 100 135 178 220 281 347 391
#     4  10  20  39  63  99 137 180 205 256 329 415
#     4  12  25  39  64 106 143 171 217 267 323 411
#     4  10  22  44  70  92 134 179 219 267 345 396
#     4  11  26  46  70  97 128 169 235 298 334 388
#     4  11  23  39  65 101 139 174 219 256 319 421
#
# _framework density 21.460429999999999
#
# number of rings (size 3 to 8) (size 9 to 14) (size 15 to 20)
#    0.000    1.250    5.000    0.375    3.500    2.500 
#    0.000    2.500    0.000    0.000    0.000    0.000 
#    0.000    0.000    0.000    0.000    0.000    0.000 
#
# Total GULP energy -89254.549932 kJ/mol
# GULP energy per Si atom -5578.409371 kJ/mol
# Density = 2.141158 g / cm^3
# Si number density = 21.460430 Si / 1000 Ang^3
#
#
#
# Elastic Constant Matrix: (Units=GPa)
#
#
# Indices 1 2 3 4 5 6 
#
# 1 81.6923 56.8803 27.3898 -7.2623 23.9633 -8.0790
# 2 56.8803 200.4043 60.4077 1.6445 20.1999 -13.9575
# 3 27.3898 60.4077 67.7592 3.1463 10.6902 -9.8084
# 4 -7.2623 1.6445 3.1463 41.4134 -1.1886 9.0232
# 5 23.9633 20.1999 10.6902 -1.1886 37.5590 -7.2197
# 6 -8.0790 -13.9575 -9.8084 9.0232 -7.2197 28.8630
#
#
#
# Elastic Compliance Matrix: (Units=1/GPa)
#
#
# Indices 1 2 3 4 5 6 
#
# 1 0.018695 -0.003479 -0.003320 0.003625 -0.009191 -0.001010
# 2 -0.003479 0.007645 -0.005171 -0.000779 -0.000223 0.001154
# 3 -0.003320 -0.005171 0.021611 -0.003069 -0.000433 0.004765
# 4 0.003625 -0.000779 -0.003069 0.027026 -0.001961 -0.009344
# 5 -0.009191 -0.000223 -0.000433 -0.001961 0.033873 0.006258
# 6 -0.001010 0.001154 0.004765 -0.009344 0.006258 0.041028
#
#
# Mechanical properties :
#
#
# Convention : Reuss Voigt Hill
#
# Bulk Modulus (GPa) = 41.64753 71.02350 56.33552
# Shear Modulus (GPa) = 27.49946 35.24563 31.37254
#
# Velocity S-wave (km/s) = 3.58355 4.05699 3.82760
# Velocity P-wave (km/s) = 6.04742 7.42378 6.77066
#
# Compressibility (1/GPa) = 0.02401103
#
# Stress axis : x y z
#
# Youngs Moduli (GPa) = 53.49020 130.79828 46.27321
#
# Poissons Ratio (x) = 0.45507 0.15361
# Poissons Ratio (y) = 0.18610 0.23929
# Poissons Ratio (z) = 0.17757 0.67638
#
# Static dielectric constant tensor:
#      x y z
#    x 1.867880 0.045960 -0.034410 
#    y 0.045960 1.818840 -0.005120 
#    z -0.034410 -0.005120 1.889590 
# 
# From -- ./inp_files/272172.got.cif
#   From: 2010.05.17/outbox.cif.g08.bks.cpg/sg2_137_cif.got.tgz:272172.got - 2010.06.03 11:33:40.
