data_PCOD9105480
_publ_section_title
;
Structure prediction by ZEFSAII (Michael W. Deem and Ramdas Pophale) SiO2 
 PCOD9105480
Probable space group: P -1
;
_chemical_formula_sum "Si O2"
_cell_formula_units_Z 16
_cell_length_a 15.513818
_cell_length_b 8.659189
_cell_length_c 9.291031
_cell_angle_alpha 72.592000
_cell_angle_beta 37.794786
_cell_angle_gamma 81.439385
_cell_volume 721.637096
_symmetry_space_group_name_H-M "P -1"
_symmetry_group_IT_number 2
_symmetry_cell_setting 'triclinic'
loop_
_space_group_symop_operation_xyz
x,y,z
-x,-y,-z
loop_
_atom_site_type_symbol
_atom_site_label
_atom_site_fract_x
_atom_site_fract_y
_atom_site_fract_z
Si Si1 0.389829 0.434001 0.856289
Si Si2 0.550983 0.111319 0.036331
Si Si3 0.381479 0.281809 0.422915
Si Si4 0.934632 0.826818 0.205227
Si Si5 0.505920 0.834702 0.402047
Si Si6 0.838571 0.167514 0.712742
Si Si7 0.859769 0.818720 0.639751
Si Si8 0.215023 0.719571 0.925064
O O1 0.524063 0.541795 0.725159
O O2 0.452228 0.326226 0.683980
O O3 0.286334 0.556914 0.898477
O O4 0.283187 0.308283 0.126498
O O5 0.438610 0.216698 0.217311
O O6 0.566485 0.983940 0.180155
O O7 0.706961 0.216247 0.781910
O O8 0.500000 0.000000 0.000000
O O9 0.211729 0.258014 0.649763
O O10 0.429846 0.173405 0.521480
O O11 0.898994 0.859001 0.410856
O O12 0.059073 0.713765 0.067387
O O13 0.000000 0.000000 0.000000
O O14 0.336148 0.826864 0.640528
O O15 0.002159 0.251301 0.458118
O O16 0.844066 0.981032 0.706358
O O17 0.799516 0.201900 0.919798
#
# Coordination Sequence:
#
# PCOD9105480 Si02
#       8
#     2   2   2   2   2   2   2   2
#     4  11  23  44  69  99 138 180 231 271 340 418
#     4  12  23  39  65 102 131 172 234 283 328 395
#     4  11  24  41  69 100 133 182 222 279 346 393
#     4  11  25  42  66 100 136 174 229 285 335 395
#     4  11  23  43  70  96 135 182 230 278 329 412
#     4  10  20  39  64  97 128 176 223 275 335 388
#     4  10  23  40  66  99 137 175 222 282 338 403
#     4  10  22  43  67  99 130 182 227 269 344 406
#
# _framework density 22.171810000000001
#
# number of rings (size 3 to 8) (size 9 to 14) (size 15 to 20)
#    0.000    1.250    3.750    3.375    3.500    2.500 
#    0.000    2.500    0.000    0.000    0.000    0.000 
#    0.000    0.000    0.000    0.000    0.000    0.000 
#
# Total GULP energy -89337.615632 kJ/mol
# GULP energy per Si atom -5583.600977 kJ/mol
# Density = 2.212135 g / cm^3
# Si number density = 22.171810 Si / 1000 Ang^3
#
#
#
# Elastic Constant Matrix: (Units=GPa)
#
#
# Indices 1 2 3 4 5 6 
#
# 1 109.4260 27.7054 56.2143 0.3843 -42.4174 18.8876
# 2 27.7054 92.4690 47.7812 4.0889 -7.5257 7.9955
# 3 56.2143 47.7812 145.1825 9.9238 -36.1212 10.7797
# 4 0.3843 4.0889 9.9238 39.3340 3.1648 -5.6489
# 5 -42.4174 -7.5257 -36.1212 3.1648 52.0167 -0.1482
# 6 18.8876 7.9955 10.7797 -5.6489 -0.1482 24.1834
#
#
#
# Elastic Compliance Matrix: (Units=1/GPa)
#
#
# Indices 1 2 3 4 5 6 
#
# 1 0.017997 -0.002128 -0.001855 -0.002416 0.013190 -0.013009
# 2 -0.002128 0.013499 -0.004194 -0.000253 -0.002682 -0.001007
# 3 -0.001855 -0.004194 0.010774 -0.003091 0.005542 -0.002655
# 4 -0.002416 -0.000253 -0.003091 0.028143 -0.005838 0.009887
# 5 0.013190 -0.002682 0.005542 -0.005838 0.033759 -0.013042
# 6 -0.013009 -0.001007 -0.002655 0.009887 -0.013042 0.055257
#
#
# Mechanical properties :
#
#
# Convention : Reuss Voigt Hill
#
# Bulk Modulus (GPa) = 38.58788 67.83103 53.20946
# Shear Modulus (GPa) = 27.11161 37.46523 32.28842
#
# Velocity S-wave (km/s) = 3.50064 4.11514 3.82027
# Velocity P-wave (km/s) = 5.81216 7.29650 6.59622
#
# Compressibility (1/GPa) = 0.02591487
#
# Stress axis : x y z
#
# Youngs Moduli (GPa) = 55.56369 74.07829 92.81677
#
# Poissons Ratio (x) = 0.15767 0.17221
# Poissons Ratio (y) = 0.11827 0.38927
# Poissons Ratio (z) = 0.10309 0.31068
#
# Static dielectric constant tensor:
#      x y z
#    x 1.864380 -0.021310 -0.028810 
#    y -0.021310 1.827170 -0.025670 
#    z -0.028810 -0.025670 1.846820 
# 
# From -- ./inp_files/298490.got.cif
#   From: 2010.05.17/outbox.cif.g08.bks.cpg/sg2_150_cif.got.tgz:298490.got - 2010.06.03 11:33:40.
