data_PCOD9105345
_publ_section_title
;
Structure prediction by ZEFSAII (Michael W. Deem and Ramdas Pophale) SiO2 
 PCOD9105345
Probable space group: P -1
;
_chemical_formula_sum "Si O2"
_cell_formula_units_Z 12
_cell_length_a 8.906626
_cell_length_b 11.311299
_cell_length_c 9.071769
_cell_angle_alpha 72.605712
_cell_angle_beta 118.961189
_cell_angle_gamma 60.723502
_cell_volume 496.769086
_symmetry_space_group_name_H-M "P -1"
_symmetry_group_IT_number 2
_symmetry_cell_setting 'triclinic'
loop_
_space_group_symop_operation_xyz
x,y,z
-x,-y,-z
loop_
_atom_site_type_symbol
_atom_site_label
_atom_site_fract_x
_atom_site_fract_y
_atom_site_fract_z
Si Si1 0.845948 0.273493 0.819278
Si Si2 0.262969 0.690860 0.912904
Si Si3 0.513144 0.687270 0.533472
Si Si4 0.826485 0.516519 0.023683
Si Si5 0.449494 0.845594 0.922329
Si Si6 0.466402 0.940198 0.224872
O O1 0.713231 0.476517 0.637910
O O2 0.770546 0.208303 0.691691
O O3 0.710175 0.312210 0.895540
O O4 0.154244 0.124874 0.037863
O O5 0.245502 0.844050 0.803685
O O6 0.500000 0.500000 0.000000
O O7 0.067847 0.679204 0.820464
O O8 0.563238 0.652116 0.743718
O O9 0.567091 0.791278 0.452207
O O10 0.730296 0.638016 0.077328
O O11 0.000000 0.500000 0.000000
O O12 0.402365 0.997300 0.752630
O O13 0.478235 0.869005 0.096869
#
# Coordination Sequence:
#
# PCOD9105345 Si02
#       6
#     2   2   2   2   2   2
#     4  10  20  39  64  91 120 162 207 242 308 361
#     4   9  18  35  64  85 119 161 193 249 303 348
#     4  10  21  37  67  88 118 161 211 250 287 371
#     4  10  21  41  64  88 120 166 205 250 307 354
#     4  10  21  37  59  90 128 157 197 254 306 354
#     4  11  22  39  66  89 125 162 196 253 306 361
#
# _framework density 24.156095000000001
#
# number of rings (size 3 to 8) (size 9 to 14) (size 15 to 20)
#    0.000    2.000    1.667    2.500    0.000    0.667 
#    0.000    8.333    7.333    0.000    0.000    0.000 
#    0.000    0.000    0.000    0.000    0.000    0.000 
#
# Total GULP energy -66912.345461 kJ/mol
# GULP energy per Si atom -5576.028788 kJ/mol
# Density = 2.410111 g / cm^3
# Si number density = 24.156095 Si / 1000 Ang^3
#
#
#
# Elastic Constant Matrix: (Units=GPa)
#
#
# Indices 1 2 3 4 5 6 
#
# 1 167.5163 57.0744 42.1909 -16.7996 -34.3228 43.5390
# 2 57.0744 110.0003 17.4908 0.8555 -10.8448 10.2745
# 3 42.1909 17.4908 74.1597 -1.1329 -19.2927 5.5743
# 4 -16.7996 0.8555 -1.1329 21.2085 9.5038 -19.2151
# 5 -34.3228 -10.8448 -19.2927 9.5038 26.9478 -13.4232
# 6 43.5390 10.2745 5.5743 -19.2151 -13.4232 62.9587
#
#
#
# Elastic Compliance Matrix: (Units=1/GPa)
#
#
# Indices 1 2 3 4 5 6 
#
# 1 0.010967 -0.004045 -0.002964 0.001033 0.007487 -0.004750
# 2 -0.004045 0.011335 -0.000274 -0.004067 0.000575 -0.000147
# 3 -0.002964 -0.000274 0.018074 -0.005368 0.011610 0.001331
# 4 0.001033 -0.004067 -0.005368 0.074084 -0.021053 0.018546
# 5 0.007487 0.000575 0.011610 -0.021053 0.062962 0.000699
# 6 -0.004750 -0.000147 0.001331 0.018546 0.000699 0.024883
#
#
# Mechanical properties :
#
#
# Convention : Reuss Voigt Hill
#
# Bulk Modulus (GPa) = 38.74566 65.02094 51.88330
# Shear Modulus (GPa) = 22.17554 37.88434 30.02994
#
# Velocity S-wave (km/s) = 3.03316 3.96449 3.52968
# Velocity P-wave (km/s) = 5.32365 6.92327 6.17547
#
# Compressibility (1/GPa) = 0.02580934
#
# Stress axis : x y z
#
# Youngs Moduli (GPa) = 91.18664 88.22102 55.32877
#
# Poissons Ratio (x) = 0.35685 0.16402
# Poissons Ratio (y) = 0.36884 0.01515
# Poissons Ratio (z) = 0.27031 0.02415
#
# Static dielectric constant tensor:
#      x y z
#    x 2.017990 0.070670 0.071200 
#    y 0.070670 1.940400 -0.009030 
#    z 0.071200 -0.009030 1.961320 
# 
# From -- ./inp_files/157582.got.cif
#   From: 2010.05.17/outbox.cif.g08.bks.cpg/sg2_79_cif.got.tgz:157582.got - 2010.06.03 11:33:40.
