data_PCOD9105656
_publ_section_title
;
Structure prediction by ZEFSAII (Michael W. Deem and Ramdas Pophale) SiO2 
 PCOD9105656
Probable space group: P -1
;
_chemical_formula_sum "Si O2"
_cell_formula_units_Z 14
_cell_length_a 5.073524
_cell_length_b 20.417425
_cell_length_c 8.497854
_cell_angle_alpha 50.782046
_cell_angle_beta 122.062095
_cell_angle_gamma 119.552524
_cell_volume 561.076030
_symmetry_space_group_name_H-M "P -1"
_symmetry_group_IT_number 2
_symmetry_cell_setting 'triclinic'
loop_
_space_group_symop_operation_xyz
x,y,z
-x,-y,-z
loop_
_atom_site_type_symbol
_atom_site_label
_atom_site_fract_x
_atom_site_fract_y
_atom_site_fract_z
Si Si1 0.703712 0.915884 0.576023
Si Si2 0.710629 0.454173 0.367499
Si Si3 0.271393 0.263433 0.014366
Si Si4 0.998914 0.979977 0.849264
Si Si5 0.703778 0.421424 0.072145
Si Si6 0.445687 0.866148 0.270128
Si Si7 0.431417 0.713804 0.263818
O O1 0.394764 0.882870 0.414818
O O2 0.670457 0.942110 0.710878
O O3 0.798919 0.823923 0.771159
O O4 0.000000 0.000000 0.500000
O O5 0.760056 0.404572 0.298264
O O6 0.499850 0.378361 0.524217
O O7 0.000000 0.500000 0.500000
O O8 0.576660 0.531375 0.134358
O O9 0.357438 0.251066 0.876357
O O10 0.949206 0.298790 0.870272
O O11 0.588887 0.331376 0.078922
O O12 0.204601 0.070553 0.713254
O O13 0.219631 0.909506 0.023860
O O14 0.000000 0.000000 0.000000
O O15 0.000000 0.500000 0.000000
O O16 0.477794 0.778963 0.328369
#
# Coordination Sequence:
#
# PCOD9105656 Si02
#       7
#     2   2   2   2   2   2   2
#     4  10  22  45  68 102 140 188 241 303 361 434
#     4  11  24  46  74 107 150 191 248 301 378 437
#     4  12  26  48  73 107 149 191 251 301 368 442
#     4  10  20  39  65  93 132 174 235 292 356 425
#     4  11  26  45  76 112 148 196 247 309 364 451
#     4  10  22  40  63  94 133 181 230 292 360 422
#     4  12  26  46  75 103 148 199 240 303 369 439
#
# _framework density 24.952055000000001
#
# number of rings (size 3 to 8) (size 9 to 14) (size 15 to 20)
#    0.000    1.143    2.857    2.571    4.000    1.714 
#    5.143    0.000    0.000    0.000    0.000    0.000 
#    0.000    0.000    0.000    0.000    0.000    0.000 
#
# Total GULP energy -77954.729174 kJ/mol
# GULP energy per Si atom -5568.194941 kJ/mol
# Density = 2.489526 g / cm^3
# Si number density = 24.952055 Si / 1000 Ang^3
#
#
#
# Elastic Constant Matrix: (Units=GPa)
#
#
# Indices 1 2 3 4 5 6 
#
# 1 63.9797 -1.0229 14.0128 1.3879 1.3519 4.7036
# 2 -1.0229 164.9978 54.6923 15.9241 3.1925 4.4436
# 3 14.0128 54.6923 110.9585 -1.5456 -0.7882 9.1482
# 4 1.3879 15.9241 -1.5456 57.9232 12.2456 -0.9263
# 5 1.3519 3.1925 -0.7882 12.2456 24.4373 -4.9942
# 6 4.7036 4.4436 9.1482 -0.9263 -4.9942 23.1095
#
#
#
# Elastic Compliance Matrix: (Units=1/GPa)
#
#
# Indices 1 2 3 4 5 6 
#
# 1 0.016422 0.001038 -0.002360 -0.000475 -0.001485 -0.002948
# 2 0.001038 0.007571 -0.003874 -0.002187 -0.000126 -0.000249
# 3 -0.002360 -0.003874 0.011515 0.001462 -0.000412 -0.003363
# 4 -0.000475 -0.002187 0.001462 0.019997 -0.009949 -0.001410
# 5 -0.001485 -0.000126 -0.000412 -0.009949 0.048137 0.010494
# 6 -0.002948 -0.000249 -0.003363 -0.001410 0.010494 0.047463
#
#
# Mechanical properties :
#
#
# Convention : Reuss Voigt Hill
#
# Bulk Modulus (GPa) = 39.81448 52.81115 46.31281
# Shear Modulus (GPa) = 29.43470 39.24427 34.33948
#
# Velocity S-wave (km/s) = 3.43833 3.97014 3.71377
# Velocity P-wave (km/s) = 5.63506 6.49823 6.08198
#
# Compressibility (1/GPa) = 0.02511649
#
# Stress axis : x y z
#
# Youngs Moduli (GPa) = 60.89491 132.07517 86.84611
#
# Poissons Ratio (x) = -0.13708 0.20492
# Poissons Ratio (y) = -0.06320 0.33644
# Poissons Ratio (z) = 0.14369 0.51165
#
# Static dielectric constant tensor:
#      x y z
#    x 1.949130 -0.014590 0.133270 
#    y -0.014590 1.908770 -0.271360 
#    z 0.133270 -0.271360 1.561180 
# 
# From -- ./inp_files/141195.got.cif
#   From: 2010.05.17/outbox.cif.g08.bks.cpg/sg2_71_cif.got.tgz:141195.got - 2010.06.03 11:33:40.
