data_PCOD9105557
_publ_section_title
;
Structure prediction by ZEFSAII (Michael W. Deem and Ramdas Pophale) SiO2 
 PCOD9105557
Probable space group: P -1
;
_chemical_formula_sum "Si O2"
_cell_formula_units_Z 16
_cell_length_a 9.993651
_cell_length_b 11.573351
_cell_length_c 12.075986
_cell_angle_alpha 111.819512
_cell_angle_beta 54.027773
_cell_angle_gamma 144.783744
_cell_volume 634.075363
_symmetry_space_group_name_H-M "P -1"
_symmetry_group_IT_number 2
_symmetry_cell_setting 'triclinic'
loop_
_space_group_symop_operation_xyz
x,y,z
-x,-y,-z
loop_
_atom_site_type_symbol
_atom_site_label
_atom_site_fract_x
_atom_site_fract_y
_atom_site_fract_z
Si Si1 0.791900 0.572872 0.339738
Si Si2 0.462437 0.563004 0.360729
Si Si3 0.738441 0.927327 0.590768
Si Si4 0.124986 0.937356 0.912459
Si Si5 0.651899 0.957494 0.396209
Si Si6 0.508982 0.013601 0.136462
Si Si7 0.960186 0.510753 0.897903
Si Si8 0.412056 0.499867 0.925537
O O1 0.725153 0.653021 0.324948
O O2 0.764813 0.581662 0.485831
O O3 0.520339 0.321728 0.360013
O O4 0.024907 0.610849 0.215792
O O5 0.499355 0.730399 0.368216
O O6 0.404095 0.442486 0.240369
O O7 0.747199 0.988853 0.485591
O O8 0.721885 0.027730 0.724983
O O9 0.000000 0.000000 0.500000
O O10 0.412957 0.071294 0.874654
O O11 0.150631 0.915556 0.762074
O O12 0.891037 0.735640 0.030723
O O13 0.000000 0.000000 0.000000
O O14 0.500000 0.000000 0.500000
O O15 0.767190 0.241249 0.159154
O O16 0.500000 0.000000 0.000000
O O17 0.000000 0.500000 0.000000
O O18 0.672020 0.408138 0.994340
O O19 0.500000 0.500000 0.000000
#
# Coordination Sequence:
#
# PCOD9105557 Si02
#       8
#     2   2   2   2   2   2   2   2
#     4   9  20  39  66  90 119 166 217 255 312 382
#     4  10  20  39  65  88 124 162 212 261 314 374
#     4  10  22  38  63  93 126 166 207 262 319 371
#     4  11  23  41  66  89 123 176 210 258 326 378
#     4  11  22  42  66  88 127 168 217 263 321 386
#     4  10  23  39  60  96 126 155 216 264 309 381
#     4  10  20  40  64  86 122 169 203 256 316 366
#     4  11  24  39  61  94 131 163 208 258 320 383
#
# _framework density 25.233592999999999
#
# number of rings (size 3 to 8) (size 9 to 14) (size 15 to 20)
#    0.000    1.750    3.750    0.000    3.500    3.000 
#    0.000    0.625    0.000    0.000    0.000    0.000 
#    0.000    0.000    0.000    0.000    0.000    0.000 
#
# Total GULP energy -89165.314342 kJ/mol
# GULP energy per Si atom -5572.832146 kJ/mol
# Density = 2.517616 g / cm^3
# Si number density = 25.233593 Si / 1000 Ang^3
#
#
#
# Elastic Constant Matrix: (Units=GPa)
#
#
# Indices 1 2 3 4 5 6 
#
# 1 199.2010 2.4199 78.0006 27.5606 -24.8153 -20.1519
# 2 2.4199 63.6694 8.5271 30.8618 -11.5195 -23.4600
# 3 78.0006 8.5271 226.0798 45.3924 -16.1346 -15.7769
# 4 27.5606 30.8618 45.3924 45.4730 -12.5206 -2.3747
# 5 -24.8153 -11.5195 -16.1346 -12.5206 53.3981 5.5525
# 6 -20.1519 -23.4600 -15.7769 -2.3747 5.5525 31.0929
#
#
#
# Elastic Compliance Matrix: (Units=1/GPa)
#
#
# Indices 1 2 3 4 5 6 
#
# 1 0.007405 0.007474 -0.000420 -0.008089 0.002070 0.009238
# 2 0.007474 0.053942 0.007991 -0.046195 0.001939 0.045724
# 3 -0.000420 0.007991 0.007267 -0.011969 0.000031 0.008525
# 4 -0.008089 -0.046195 -0.011969 0.068887 0.003123 -0.041467
# 5 0.002070 0.001939 0.000031 0.003123 0.020920 -0.000677
# 6 0.009238 0.045724 0.008525 -0.041467 -0.000677 0.073928
#
#
# Mechanical properties :
#
#
# Convention : Reuss Voigt Hill
#
# Bulk Modulus (GPa) = 10.13133 74.09392 42.11263
# Shear Modulus (GPa) = 21.26203 52.65965 36.96084
#
# Velocity S-wave (km/s) = 2.90592 4.57320 3.83135
# Velocity P-wave (km/s) = 3.90933 7.57050 6.02476
#
# Compressibility (1/GPa) = 0.09870372
#
# Stress axis : x y z
#
# Youngs Moduli (GPa) = 135.03653 18.53851 137.60629
#
# Poissons Ratio (x) = -0.13856 0.05785
# Poissons Ratio (y) = -1.00928 -1.09961
# Poissons Ratio (z) = 0.05677 -0.14814
#
# Static dielectric constant tensor:
#      x y z
#    x 2.110900 -0.086840 -0.145030 
#    y -0.086840 2.225520 0.040780 
#    z -0.145030 0.040780 2.053950 
# 
# From -- ./inp_files/392681.got.cif
#   From: 2010.05.17/outbox.cif.g08.bks.cpg/sg2_197_cif.got.tgz:392681.got - 2010.06.03 11:33:40.
