data_PCOD9105218
_publ_section_title
;
Structure prediction by ZEFSAII (Michael W. Deem and Ramdas Pophale) SiO2 
 PCOD9105218
Probable space group: P -1
;
_chemical_formula_sum "Si O2"
_cell_formula_units_Z 16
_cell_length_a 10.805182
_cell_length_b 12.573151
_cell_length_c 10.360434
_cell_angle_alpha 95.826059
_cell_angle_beta 141.204754
_cell_angle_gamma 111.493509
_cell_volume 613.566150
_symmetry_space_group_name_H-M "P -1"
_symmetry_group_IT_number 2
_symmetry_cell_setting 'triclinic'
loop_
_space_group_symop_operation_xyz
x,y,z
-x,-y,-z
loop_
_atom_site_type_symbol
_atom_site_label
_atom_site_fract_x
_atom_site_fract_y
_atom_site_fract_z
Si Si1 0.143514 0.713619 0.138992
Si Si2 0.164824 0.866148 0.703343
Si Si3 0.624538 0.395175 0.095469
Si Si4 0.846556 0.289972 0.546514
Si Si5 0.045082 0.131542 0.982483
Si Si6 0.573312 0.385471 0.602608
Si Si7 0.734500 0.883558 0.076433
Si Si8 0.673667 0.580214 0.363552
O O1 0.094461 0.690872 0.251967
O O2 0.388683 0.720050 0.321210
O O3 0.157249 0.846276 0.139837
O O4 0.877789 0.552106 0.835264
O O5 0.085267 0.791570 0.488225
O O6 0.010926 0.722554 0.654383
O O7 0.500000 0.000000 0.000000
O O8 0.077479 0.946657 0.697221
O O9 0.455075 0.223336 0.967499
O O10 0.595869 0.438316 0.219759
O O11 0.945774 0.540174 0.327563
O O12 0.448724 0.389183 0.843634
O O13 0.515478 0.179091 0.235008
O O14 0.352027 0.290602 0.297160
O O15 0.065908 0.115845 0.845528
O O16 0.000000 0.000000 0.000000
O O17 0.451406 0.421328 0.610058
#
# Coordination Sequence:
#
# PCOD9105218 Si02
#       8
#     2   2   2   2   2   2   2   2
#     4  11  24  45  72  99 138 184 230 292 336 403
#     4   9  21  38  62  89 132 174 214 268 337 402
#     4  10  21  36  68 100 131 168 221 286 347 399
#     4  10  20  44  65  98 138 171 223 282 345 407
#     4  12  27  45  68  99 141 187 232 280 343 408
#     4  11  23  46  71 103 136 179 238 279 344 404
#     4  11  22  41  64  98 134 177 225 278 340 410
#     4  10  20  39  63  97 134 171 225 279 335 411
#
# _framework density 26.077058999999998
#
# number of rings (size 3 to 8) (size 9 to 14) (size 15 to 20)
#    0.000    1.500    2.500    2.250    3.500    1.000 
#    2.250    5.000    0.000    0.000    0.000    0.000 
#    0.000    0.000    0.000    0.000    0.000    0.000 
#
# Total GULP energy -89376.793681 kJ/mol
# GULP energy per Si atom -5586.049605 kJ/mol
# Density = 2.601771 g / cm^3
# Si number density = 26.077059 Si / 1000 Ang^3
#
#
#
# Elastic Constant Matrix: (Units=GPa)
#
#
# Indices 1 2 3 4 5 6 
#
# 1 80.4941 11.6319 14.2448 -2.0531 -9.6013 -9.3926
# 2 11.6319 128.8307 13.8319 4.1509 -4.9406 -13.9366
# 3 14.2448 13.8319 78.8699 7.9771 -7.2762 -4.7265
# 4 -2.0531 4.1509 7.9771 32.7882 -3.4801 4.9764
# 5 -9.6013 -4.9406 -7.2762 -3.4801 35.2673 2.4836
# 6 -9.3926 -13.9366 -4.7265 4.9764 2.4836 36.2483
#
#
#
# Elastic Compliance Matrix: (Units=1/GPa)
#
#
# Indices 1 2 3 4 5 6 
#
# 1 0.013590 -0.000651 -0.002033 0.001366 0.003141 0.002603
# 2 -0.000651 0.008314 -0.000989 -0.001267 0.000444 0.003043
# 3 -0.002033 -0.000989 0.013794 -0.003361 0.001735 0.001234
# 4 0.001366 -0.001267 -0.003361 0.032691 0.003098 -0.005272
# 5 0.003141 0.000444 0.001735 0.003098 0.030025 -0.001272
# 6 0.002603 0.003043 0.001234 -0.005272 -0.001272 0.030404
#
#
# Mechanical properties :
#
#
# Convention : Reuss Voigt Hill
#
# Bulk Modulus (GPa) = 35.26987 40.84576 38.05782
# Shear Modulus (GPa) = 34.33716 37.42651 35.88184
#
# Velocity S-wave (km/s) = 3.63265 3.79255 3.71346
# Velocity P-wave (km/s) = 5.58117 5.90554 5.74565
#
# Compressibility (1/GPa) = 0.02835281
#
# Stress axis : x y z
#
# Youngs Moduli (GPa) = 73.58185 120.27813 72.49676
#
# Poissons Ratio (x) = 0.07827 0.14737
# Poissons Ratio (y) = 0.04788 0.07170
# Poissons Ratio (z) = 0.14958 0.11896
#
# Static dielectric constant tensor:
#      x y z
#    x 2.053780 -0.038900 0.069230 
#    y -0.038900 2.123150 -0.026470 
#    z 0.069230 -0.026470 2.042030 
# 
# From -- ./inp_files/218057.got.cif
#   From: 2010.05.17/outbox.cif.g08.bks.cpg/sg2_110_cif.got.tgz:218057.got - 2010.06.03 11:33:40.
