data_PCOD9105080
_publ_section_title
;
Structure prediction by ZEFSAII (Michael W. Deem and Ramdas Pophale) SiO2 
 PCOD9105080
Probable space group: P -1
;
_chemical_formula_sum "Si O2"
_cell_formula_units_Z 14
_cell_length_a 29.513111
_cell_length_b 9.318557
_cell_length_c 12.634402
_cell_angle_alpha 145.148615
_cell_angle_beta 24.519343
_cell_angle_gamma 151.566378
_cell_volume 682.867176
_symmetry_space_group_name_H-M "P -1"
_symmetry_group_IT_number 2
_symmetry_cell_setting 'triclinic'
loop_
_space_group_symop_operation_xyz
x,y,z
-x,-y,-z
loop_
_atom_site_type_symbol
_atom_site_label
_atom_site_fract_x
_atom_site_fract_y
_atom_site_fract_z
Si Si1 0.529513 0.252758 0.008022
Si Si2 0.217043 0.689260 0.027534
Si Si3 0.690400 0.624689 0.501780
Si Si4 0.498293 0.799432 0.191782
Si Si5 0.806229 0.862081 0.801338
Si Si6 0.006014 0.802962 0.198773
Si Si7 0.978994 0.086173 0.216192
O O1 0.406180 0.281754 0.275042
O O2 0.551705 0.163078 0.790254
O O3 0.657913 0.577858 0.959418
O O4 0.500000 0.000000 0.000000
O O5 0.076686 0.449746 0.233624
O O6 0.193425 0.873550 0.101759
O O7 0.257214 0.472115 0.763653
O O8 0.351071 0.933771 0.950241
O O9 0.607494 0.312721 0.558056
O O10 0.819672 0.906002 0.454364
O O11 0.500000 0.500000 0.000000
O O12 0.881895 0.758364 0.501838
O O13 0.877042 0.987541 0.839684
O O14 0.016791 0.957637 0.156794
O O15 0.000000 0.500000 0.000000
O O16 0.000000 0.000000 0.000000
#
# Coordination Sequence:
#
# PCOD9105080 Si02
#       7
#     2   2   2   2   2   2   2
#     4  11  25  41  62  95 132 171 218 273 330 394
#     4  11  22  41  66 100 127 165 229 271 319 394
#     4  10  21  42  67  92 129 172 215 269 330 391
#     4  10  20  39  63  90 127 173 214 260 325 389
#     4  11  25  44  67 101 132 179 223 271 338 397
#     4  11  25  46  69  96 140 177 215 275 341 397
#     4  10  23  40  70 101 126 172 227 277 323 388
#
# _framework density 20.501791999999998
#
# number of rings (size 3 to 8) (size 9 to 14) (size 15 to 20)
#    0.000    1.429    2.857    3.000    4.000    5.143 
#    0.000    0.714    0.000    0.000    0.000    0.000 
#    0.000    0.000    0.000    0.000    0.000    0.000 
#
# Total GULP energy -78062.466979 kJ/mol
# GULP energy per Si atom -5575.890498 kJ/mol
# Density = 2.045513 g / cm^3
# Si number density = 20.501792 Si / 1000 Ang^3
#
#
#
# Elastic Constant Matrix: (Units=GPa)
#
#
# Indices 1 2 3 4 5 6 
#
# 1 173.5072 91.7699 42.5267 -19.3107 -9.3388 -11.5668
# 2 91.7699 189.3073 45.4604 -32.4948 -18.1886 6.5348
# 3 42.5267 45.4604 87.7550 -10.8324 -3.4238 2.5135
# 4 -19.3107 -32.4948 -10.8324 29.1697 5.2795 -5.7112
# 5 -9.3388 -18.1886 -3.4238 5.2795 32.2226 -1.5309
# 6 -11.5668 6.5348 2.5135 -5.7112 -1.5309 46.4049
#
#
#
# Elastic Compliance Matrix: (Units=1/GPa)
#
#
# Indices 1 2 3 4 5 6 
#
# 1 0.008482 -0.003392 -0.002239 0.001540 0.000192 0.002909
# 2 -0.003392 0.008742 -0.002002 0.006040 0.002695 -0.001136
# 3 -0.002239 -0.002002 0.013681 0.001301 -0.000580 -0.000876
# 4 0.001540 0.006040 0.001301 0.043989 -0.002986 0.004778
# 5 0.000192 0.002695 -0.000580 -0.002986 0.033059 0.000423
# 6 0.002909 -0.001136 -0.000876 0.004778 0.000423 0.023084
#
#
# Mechanical properties :
#
#
# Convention : Reuss Voigt Hill
#
# Bulk Modulus (GPa) = 63.94127 90.00927 76.97527
# Shear Modulus (GPa) = 32.99998 39.61362 36.30680
#
# Velocity S-wave (km/s) = 4.01635 4.40045 4.21278
# Velocity P-wave (km/s) = 7.26388 8.35566 7.82883
#
# Compressibility (1/GPa) = 0.01563935
#
# Stress axis : x y z
#
# Youngs Moduli (GPa) = 117.90008 114.38721 73.09607
#
# Poissons Ratio (x) = 0.38796 0.16367
# Poissons Ratio (y) = 0.39987 0.14634
# Poissons Ratio (z) = 0.26398 0.22900
#
# Static dielectric constant tensor:
#      x y z
#    x 1.733370 0.011270 0.081220 
#    y 0.011270 1.782390 -0.101490 
#    z 0.081220 -0.101490 1.945570 
# 
# From -- ./inp_files/476331.got.cif
#   From: 2010.05.17/outbox.cif.g08.bks.cpg/sg2_239_cif.got.tgz:476331.got - 2010.06.03 11:33:40.
