data_PCOD9105933
_publ_section_title
;
Structure prediction by ZEFSAII (Michael W. Deem and Ramdas Pophale) SiO2 
 PCOD9105933
Probable space group: P -1
;
_chemical_formula_sum "Si O2"
_cell_formula_units_Z 16
_cell_length_a 22.632525
_cell_length_b 9.926783
_cell_length_c 25.879965
_cell_angle_alpha 27.159177
_cell_angle_beta 17.357556
_cell_angle_gamma 26.952841
_cell_volume 752.904680
_symmetry_space_group_name_H-M "P -1"
_symmetry_group_IT_number 2
_symmetry_cell_setting 'triclinic'
loop_
_space_group_symop_operation_xyz
x,y,z
-x,-y,-z
loop_
_atom_site_type_symbol
_atom_site_label
_atom_site_fract_x
_atom_site_fract_y
_atom_site_fract_z
Si Si1 0.838458 0.157564 0.534388
Si Si2 0.561430 0.244594 0.900975
Si Si3 0.864381 0.730983 0.961143
Si Si4 0.577408 0.821493 0.549490
Si Si5 0.936819 0.708280 0.796254
Si Si6 0.034938 0.938349 0.849084
Si Si7 0.297630 0.763686 0.885397
Si Si8 0.436256 0.222229 0.122486
O O1 0.645803 0.443695 0.618978
O O2 0.921681 0.322555 0.361813
O O3 0.761868 0.889469 0.662798
O O4 0.000000 0.000000 0.500000
O O5 0.509538 0.561219 0.805972
O O6 0.790195 0.066267 0.790270
O O7 0.412602 0.300590 0.055115
O O8 0.500000 0.000000 0.000000
O O9 0.004501 0.671634 0.812161
O O10 0.936028 0.917721 0.882820
O O11 0.859751 0.412091 0.099343
O O12 0.635427 0.924908 0.067750
O O13 0.384113 0.945492 0.708238
O O14 0.500000 0.000000 0.500000
O O15 0.790620 0.893393 0.360115
O O16 0.807538 0.465733 0.977902
O O17 0.863309 0.077076 0.989600
O O18 0.500000 0.500000 0.000000
#
# Coordination Sequence:
#
# PCOD9105933 Si02
#       8
#     2   2   2   2   2   2   2   2
#     4  12  24  41  70 107 137 177 237 287 335 410
#     4   9  18  37  60  92 127 171 218 270 331 391
#     4  10  24  45  63  94 142 177 223 282 347 402
#     4  12  26  42  70 106 136 171 239 283 335 407
#     4  10  20  39  66  94 136 175 218 285 341 393
#     4  11  24  45  68  96 136 186 225 276 340 417
#     4  11  21  40  69  97 130 177 224 279 336 396
#     4  11  23  41  67  94 136 176 222 280 346 397
#
# _framework density 21.25103
#
# number of rings (size 3 to 8) (size 9 to 14) (size 15 to 20)
#    0.000    1.250    1.250    6.750    3.500    1.000 
#    4.500    2.500    0.000    0.000    0.000    0.000 
#    0.000    0.000    0.000    0.000    0.000    0.000 
#
# Total GULP energy -89230.680857 kJ/mol
# GULP energy per Si atom -5576.917554 kJ/mol
# Density = 2.120266 g / cm^3
# Si number density = 21.251030 Si / 1000 Ang^3
#
#
#
# Elastic Constant Matrix: (Units=GPa)
#
#
# Indices 1 2 3 4 5 6 
#
# 1 140.1357 25.3044 56.6794 -7.0192 14.3997 10.1480
# 2 25.3044 58.3505 18.5453 -3.8436 -11.2348 9.5900
# 3 56.6794 18.5453 120.1433 -2.8398 9.2067 22.8008
# 4 -7.0192 -3.8436 -2.8398 25.6185 9.7406 3.5562
# 5 14.3997 -11.2348 9.2067 9.7406 34.0553 0.2306
# 6 10.1480 9.5900 22.8008 3.5562 0.2306 33.9646
#
#
#
# Elastic Compliance Matrix: (Units=1/GPa)
#
#
# Indices 1 2 3 4 5 6 
#
# 1 0.010131 -0.004124 -0.003648 0.003921 -0.005781 0.000215
# 2 -0.004124 0.021818 -0.001453 -0.001162 0.009693 -0.003897
# 3 -0.003648 -0.001453 0.011771 0.002010 -0.002649 -0.006594
# 4 0.003921 -0.001162 0.002010 0.047234 -0.016047 -0.007029
# 5 -0.005781 0.009693 -0.002649 -0.016047 0.040297 0.002175
# 6 0.000215 -0.003897 -0.006594 -0.007029 0.002175 0.035626
#
#
# Mechanical properties :
#
#
# Convention : Reuss Voigt Hill
#
# Bulk Modulus (GPa) = 39.57308 57.74308 48.65808
# Shear Modulus (GPa) = 25.80630 33.26769 29.53700
#
# Velocity S-wave (km/s) = 3.48854 3.96088 3.73219
# Velocity P-wave (km/s) = 5.90667 6.93895 6.44351
#
# Compressibility (1/GPa) = 0.02526970
#
# Stress axis : x y z
#
# Youngs Moduli (GPa) = 98.70766 45.83305 84.95752
#
# Poissons Ratio (x) = 0.18902 0.30992
# Poissons Ratio (y) = 0.40708 0.12344
# Poissons Ratio (z) = 0.36008 0.06659
#
# Static dielectric constant tensor:
#      x y z
#    x 1.798250 0.017860 0.033970 
#    y 0.017860 1.823330 0.033620 
#    z 0.033970 0.033620 1.790910 
# 
# From -- ./inp_files/243138.got.cif
#   From: 2010.05.17/outbox.cif.g08.bks.cpg/sg2_122_cif.got.tgz:243138.got - 2010.06.03 11:33:40.
