data_PCOD9105564
_publ_section_title
;
Structure prediction by ZEFSAII (Michael W. Deem and Ramdas Pophale) SiO2 
 PCOD9105564
Probable space group: P -1
;
_chemical_formula_sum "Si O2"
_cell_formula_units_Z 14
_cell_length_a 19.838008
_cell_length_b 8.699884
_cell_length_c 7.619349
_cell_angle_alpha 127.598591
_cell_angle_beta 136.768036
_cell_angle_gamma 38.897665
_cell_volume 562.745811
_symmetry_space_group_name_H-M "P -1"
_symmetry_group_IT_number 2
_symmetry_cell_setting 'triclinic'
loop_
_space_group_symop_operation_xyz
x,y,z
-x,-y,-z
loop_
_atom_site_type_symbol
_atom_site_label
_atom_site_fract_x
_atom_site_fract_y
_atom_site_fract_z
Si Si1 0.246663 0.922218 0.753578
Si Si2 0.318149 0.248058 0.179036
Si Si3 0.115169 0.789432 0.184945
Si Si4 0.302855 0.598263 0.943234
Si Si5 0.083290 0.143814 0.923071
Si Si6 0.487773 0.819662 0.734478
Si Si7 0.753173 0.748563 0.553761
O O1 0.201623 0.860914 0.458290
O O2 0.325133 0.682422 0.859831
O O3 0.315948 0.039593 0.941237
O O4 0.124178 0.118152 0.779946
O O5 0.200353 0.517238 0.078807
O O6 0.439197 0.219359 0.333797
O O7 0.300133 0.236588 0.343304
O O8 0.051110 0.776265 0.230907
O O9 0.000000 0.000000 0.000000
O O10 0.254270 0.440253 0.700212
O O11 0.428505 0.437539 0.183265
O O12 0.186731 0.859205 0.981601
O O13 0.116641 0.299622 0.199686
O O14 0.343471 0.981749 0.527329
O O15 0.500000 0.000000 0.000000
#
# Coordination Sequence:
#
# PCOD9105564 Si02
#       7
#     2   2   2   2   2   2   2
#     4   9  22  40  61  86 128 157 196 245 302 359
#     4  11  22  42  61  90 125 155 204 251 298 358
#     4  12  24  38  63  93 121 160 202 251 300 356
#     4   9  19  40  59  88 125 157 196 244 296 360
#     4   9  21  38  60  91 120 161 200 234 306 356
#     4  10  22  39  65  89 122 161 200 249 304 353
#     4  10  20  39  65  89 120 162 202 246 296 355
#
# _framework density 24.878015999999999
#
# number of rings (size 3 to 8) (size 9 to 14) (size 15 to 20)
#    0.857    1.143    1.429    1.714    0.000    6.857 
#    0.000    5.714    0.000    0.000    0.000    0.000 
#    0.000    0.000    0.000    0.000    0.000    0.000 
#
# Total GULP energy -78292.902415 kJ/mol
# GULP energy per Si atom -5592.350172 kJ/mol
# Density = 2.482139 g / cm^3
# Si number density = 24.878016 Si / 1000 Ang^3
#
#
#
# Elastic Constant Matrix: (Units=GPa)
#
#
# Indices 1 2 3 4 5 6 
#
# 1 64.6652 2.3060 12.7138 -2.2478 -0.8710 2.2789
# 2 2.3060 120.1407 37.0080 -1.4006 1.8049 19.8919
# 3 12.7138 37.0080 103.2539 7.0314 5.9132 19.0533
# 4 -2.2478 -1.4006 7.0314 40.1072 7.7786 1.2628
# 5 -0.8710 1.8049 5.9132 7.7786 26.2114 -2.9505
# 6 2.2789 19.8919 19.0533 1.2628 -2.9505 20.2271
#
#
#
# Elastic Compliance Matrix: (Units=1/GPa)
#
#
# Indices 1 2 3 4 5 6 
#
# 1 0.015936 0.000391 -0.002203 0.001171 0.000643 -0.000083
# 2 0.000391 0.010454 -0.002220 0.001350 -0.001569 -0.008547
# 3 -0.002203 -0.002220 0.012933 -0.001459 -0.003550 -0.010177
# 4 0.001171 0.001350 -0.001459 0.026957 -0.008056 -0.002943
# 5 0.000643 -0.001569 -0.003550 -0.008056 0.042773 0.011557
# 6 -0.000083 -0.008547 -0.010177 -0.002943 0.011557 0.069310
#
#
# Mechanical properties :
#
#
# Convention : Reuss Voigt Hill
#
# Bulk Modulus (GPa) = 31.99248 43.56839 37.78044
# Shear Modulus (GPa) = 25.40038 33.04459 29.22249
#
# Velocity S-wave (km/s) = 3.19877 3.64849 3.43101
# Velocity P-wave (km/s) = 5.15078 5.94134 5.56012
#
# Compressibility (1/GPa) = 0.03125734
#
# Stress axis : x y z
#
# Youngs Moduli (GPa) = 62.75158 95.65370 77.32397
#
# Poissons Ratio (x) = -0.03737 0.17037
# Poissons Ratio (y) = -0.02451 0.17166
# Poissons Ratio (z) = 0.13827 0.21235
#
# Static dielectric constant tensor:
#      x y z
#    x 2.026450 0.040330 -0.038000 
#    y 0.040330 1.991850 0.009440 
#    z -0.038000 0.009440 1.911780 
# 
# From -- ./inp_files/343069.got.cif
#   From: 2010.05.17/outbox.cif.g08.bks.cpg/sg2_172_cif.got.tgz:343069.got - 2010.06.03 11:33:40.
