data_PCOD9105123
_publ_section_title
;
Structure prediction by ZEFSAII (Michael W. Deem and Ramdas Pophale) SiO2 
 PCOD9105123
Probable space group: P -1
;
_chemical_formula_sum "Si O2"
_cell_formula_units_Z 16
_cell_length_a 9.178762
_cell_length_b 13.208194
_cell_length_c 8.684781
_cell_angle_alpha 95.546414
_cell_angle_beta 129.746061
_cell_angle_gamma 104.539158
_cell_volume 735.367946
_symmetry_space_group_name_H-M "P -1"
_symmetry_group_IT_number 2
_symmetry_cell_setting 'triclinic'
loop_
_space_group_symop_operation_xyz
x,y,z
-x,-y,-z
loop_
_atom_site_type_symbol
_atom_site_label
_atom_site_fract_x
_atom_site_fract_y
_atom_site_fract_z
Si Si1 0.326208 0.829575 0.788737
Si Si2 0.664814 0.521303 0.479235
Si Si3 0.920947 0.976595 0.704740
Si Si4 0.526582 0.612919 0.123930
Si Si5 0.588336 0.716036 0.865943
Si Si6 0.981982 0.168257 0.995632
Si Si7 0.873315 0.340414 0.121356
Si Si8 0.710012 0.957586 0.267005
O O1 0.479593 0.800532 0.778881
O O2 0.166993 0.718682 0.745879
O O3 0.239206 0.910861 0.665248
O O4 0.477021 0.897165 0.040896
O O5 0.500000 0.500000 0.500000
O O6 0.649321 0.611490 0.360982
O O7 0.581806 0.403607 0.318346
O O8 0.896601 0.563179 0.705543
O O9 0.967869 0.890453 0.830468
O O10 0.747712 0.916810 0.451293
O O11 0.127801 0.043530 0.752933
O O12 0.874674 0.065009 0.791113
O O13 0.500000 0.500000 0.000000
O O14 0.623158 0.706856 0.071669
O O15 0.306584 0.616343 0.017899
O O16 0.799977 0.752267 0.922488
O O17 0.869467 0.246243 0.984024
#
# Coordination Sequence:
#
# PCOD9105123 Si02
#       8
#     2   2   2   2   2   2   2   2
#     4  10  21  39  63  92 128 166 213 269 312 389
#     4  11  23  43  67  96 129 168 212 269 321 381
#     4  10  22  37  64  91 128 169 215 262 326 383
#     4   9  23  43  65  91 124 171 213 265 314 382
#     4  10  21  41  62  90 131 166 209 267 319 374
#     4  11  21  40  61  97 130 166 207 274 321 371
#     4  11  23  41  68  94 131 172 216 260 328 376
#     4  10  20  39  63  92 123 172 215 260 320 392
#
# _framework density 21.757815999999998
#
# number of rings (size 3 to 8) (size 9 to 14) (size 15 to 20)
#    0.000    1.750    3.750    0.000    0.000    8.000 
#    2.250    1.250    0.000    0.000    0.000    0.000 
#    0.000    0.000    0.000    0.000    0.000    0.000 
#
# Total GULP energy -89349.523023 kJ/mol
# GULP energy per Si atom -5584.345189 kJ/mol
# Density = 2.170829 g / cm^3
# Si number density = 21.757816 Si / 1000 Ang^3
#
#
#
# Elastic Constant Matrix: (Units=GPa)
#
#
# Indices 1 2 3 4 5 6 
#
# 1 116.2514 26.5307 24.4141 -7.1942 4.2751 -21.9740
# 2 26.5307 64.4287 18.2668 -0.9698 0.1998 -19.0712
# 3 24.4141 18.2668 74.2684 -9.2519 -5.0950 1.6621
# 4 -7.1942 -0.9698 -9.2519 22.1197 7.0737 2.8248
# 5 4.2751 0.1998 -5.0950 7.0737 31.4461 1.3301
# 6 -21.9740 -19.0712 1.6621 2.8248 1.3301 44.9465
#
#
#
# Elastic Compliance Matrix: (Units=1/GPa)
#
#
# Indices 1 2 3 4 5 6 
#
# 1 0.010821 -0.002279 -0.002969 0.002478 -0.002679 0.004357
# 2 -0.002279 0.020050 -0.004716 -0.002730 -0.000295 0.007748
# 3 -0.002969 -0.004716 0.016547 0.005672 0.002028 -0.004481
# 4 0.002478 -0.002730 0.005672 0.052185 -0.011008 -0.003110
# 5 -0.002679 -0.000295 0.002028 -0.011008 0.035050 -0.001856
# 6 0.004357 0.007748 -0.004481 -0.003110 -0.001856 0.028082
#
#
# Mechanical properties :
#
#
# Convention : Reuss Voigt Hill
#
# Bulk Modulus (GPa) = 36.37779 43.70798 40.04289
# Shear Modulus (GPa) = 26.06530 32.08491 29.07510
#
# Velocity S-wave (km/s) = 3.46493 3.84427 3.65952
# Velocity P-wave (km/s) = 5.72393 6.31162 6.02494
#
# Compressibility (1/GPa) = 0.02748930
#
# Stress axis : x y z
#
# Youngs Moduli (GPa) = 92.41171 49.87598 60.43497
#
# Poissons Ratio (x) = 0.11366 0.17945
# Poissons Ratio (y) = 0.21059 0.28501
# Poissons Ratio (z) = 0.27440 0.23521
#
# Static dielectric constant tensor:
#      x y z
#    x 1.795360 -0.027710 -0.024960 
#    y -0.027710 1.870840 0.029910 
#    z -0.024960 0.029910 1.795790 
# 
# From -- ./inp_files/202728.got.cif
#   From: 2010.05.17/outbox.cif.g08.bks.cpg/sg2_102_cif.got.tgz:202728.got - 2010.06.03 11:33:40.
