data_PCOD9105411
_publ_section_title
;
Structure prediction by ZEFSAII (Michael W. Deem and Ramdas Pophale) SiO2 
 PCOD9105411
Probable space group: P -1
;
_chemical_formula_sum "Si O2"
_cell_formula_units_Z 16
_cell_length_a 16.773417
_cell_length_b 18.576743
_cell_length_c 7.896893
_cell_angle_alpha 50.522154
_cell_angle_beta 47.613328
_cell_angle_gamma 22.371638
_cell_volume 691.074728
_symmetry_space_group_name_H-M "P -1"
_symmetry_group_IT_number 2
_symmetry_cell_setting 'triclinic'
loop_
_space_group_symop_operation_xyz
x,y,z
-x,-y,-z
loop_
_atom_site_type_symbol
_atom_site_label
_atom_site_fract_x
_atom_site_fract_y
_atom_site_fract_z
Si Si1 0.998502 0.978427 0.835232
Si Si2 0.337182 0.979995 0.282091
Si Si3 0.389500 0.202173 0.328315
Si Si4 0.392308 0.602440 0.323075
Si Si5 0.865429 0.879427 0.278955
Si Si6 0.319565 0.452855 0.176650
Si Si7 0.479241 0.682075 0.552856
Si Si8 0.626016 0.903268 0.191794
O O1 0.833945 0.170833 0.687819
O O2 0.246469 0.805752 0.684334
O O3 0.915664 0.935694 0.018842
O O4 0.000000 0.000000 0.000000
O O5 0.175773 0.077553 0.524154
O O6 0.529671 0.897520 0.213458
O O7 0.441721 0.806129 0.319932
O O8 0.236364 0.123525 0.069012
O O9 0.323373 0.359609 0.190105
O O10 0.422388 0.119066 0.234565
O O11 0.638244 0.015235 0.324570
O O12 0.266070 0.235094 0.601073
O O13 0.500000 0.500000 0.500000
O O14 0.358517 0.525750 0.403734
O O15 0.559464 0.546655 0.070893
O O16 0.073945 0.658617 0.277485
O O17 0.461445 0.326136 0.332158
#
# Coordination Sequence:
#
# PCOD9105411 Si02
#       8
#     2   2   2   2   2   2   2   2
#     4  12  20  41  66  91 128 174 213 248 314 397
#     4  10  20  39  64  94 119 164 217 267 321 368
#     4  10  20  42  67  88 124 171 206 267 329 376
#     4  12  27  40  60  99 138 168 213 267 316 379
#     4  11  21  37  64  94 126 165 214 259 311 398
#     4  12  22  41  65  96 128 172 218 254 321 397
#     4  12  23  39  68  91 128 176 210 258 317 392
#     4   9  20  40  68  86 121 165 216 269 322 374
#
# _framework density 23.152342999999998
#
# number of rings (size 3 to 8) (size 9 to 14) (size 15 to 20)
#    0.000    1.000    7.500    1.125    1.750    0.500 
#    2.250    6.250    0.000    0.000    0.000    0.000 
#    0.000    0.000    0.000    0.000    0.000    0.000 
#
# Total GULP energy -89324.480599 kJ/mol
# GULP energy per Si atom -5582.780037 kJ/mol
# Density = 2.309965 g / cm^3
# Si number density = 23.152343 Si / 1000 Ang^3
#
#
#
# Elastic Constant Matrix: (Units=GPa)
#
#
# Indices 1 2 3 4 5 6 
#
# 1 51.5131 13.2914 24.8411 -14.0364 -11.6121 16.0005
# 2 13.2914 113.0407 21.8168 -14.7256 -11.3075 2.2200
# 3 24.8411 21.8168 76.0689 -22.6442 -21.0625 1.9436
# 4 -14.0364 -14.7256 -22.6442 23.1300 10.3239 -8.5651
# 5 -11.6121 -11.3075 -21.0625 10.3239 35.5976 -13.2279
# 6 16.0005 2.2200 1.9436 -8.5651 -13.2279 44.8224
#
#
#
# Elastic Compliance Matrix: (Units=1/GPa)
#
#
# Indices 1 2 3 4 5 6 
#
# 1 0.027036 -0.000939 -0.006458 0.006577 -0.000231 -0.008136
# 2 -0.000939 0.009842 -0.000714 0.004799 0.001462 0.001227
# 3 -0.006458 -0.000714 0.022654 0.016454 0.008954 0.007145
# 4 0.006577 0.004799 0.016454 0.071552 -0.003921 0.009217
# 5 -0.000231 0.001462 0.008954 -0.003921 0.038746 0.010307
# 6 -0.008136 0.001227 0.007145 0.009217 0.010307 0.029647
#
#
# Mechanical properties :
#
#
# Convention : Reuss Voigt Hill
#
# Bulk Modulus (GPa) = 23.08910 40.05793 31.57351
# Shear Modulus (GPa) = 21.72626 32.75491 27.24058
#
# Velocity S-wave (km/s) = 3.06666 3.76540 3.43385
# Velocity P-wave (km/s) = 4.74695 6.02028 5.42113
#
# Compressibility (1/GPa) = 0.04331048
#
# Stress axis : x y z
#
# Youngs Moduli (GPa) = 36.98741 101.60691 44.14144
#
# Poissons Ratio (x) = 0.09542 0.28505
# Poissons Ratio (y) = 0.03474 0.03152
# Poissons Ratio (z) = 0.23886 0.07256
#
# Static dielectric constant tensor:
#      x y z
#    x 1.966170 0.171980 0.004090 
#    y 0.171980 2.121480 0.024810 
#    z 0.004090 0.024810 1.972300 
# 
# From -- ./inp_files/349685.got.cif
#   From: 2010.05.17/outbox.cif.g08.bks.cpg/sg2_175_cif.got.tgz:349685.got - 2010.06.03 11:33:40.
