data_PCOD9105773
_publ_section_title
;
Structure prediction by ZEFSAII (Michael W. Deem and Ramdas Pophale) SiO2 
 PCOD9105773
Probable space group: P -1
;
_chemical_formula_sum "Si O2"
_cell_formula_units_Z 15
_cell_length_a 8.013363
_cell_length_b 13.894267
_cell_length_c 9.929164
_cell_angle_alpha 128.478639
_cell_angle_beta 133.516420
_cell_angle_gamma 75.216892
_cell_volume 597.646427
_symmetry_space_group_name_H-M "P -1"
_symmetry_group_IT_number 2
_symmetry_cell_setting 'triclinic'
loop_
_space_group_symop_operation_xyz
x,y,z
-x,-y,-z
loop_
_atom_site_type_symbol
_atom_site_label
_atom_site_fract_x
_atom_site_fract_y
_atom_site_fract_z
Si Si1 0.334175 0.589219 0.498944
Si Si2 0.519800 0.371816 0.008505
Si Si3 0.213778 0.013144 0.239297
Si Si4 0.988988 0.666818 0.195065
Si Si5 0.325048 0.785232 0.256491
Si Si6 0.000000 0.500000 0.500000
Si Si7 0.501233 0.833850 0.958798
Si Si8 0.105168 0.918654 0.665171
O O1 0.500000 0.500000 0.500000
O O2 0.167055 0.590627 0.280713
O O3 0.498339 0.735723 0.749701
O O4 0.160347 0.542215 0.488517
O O5 0.552777 0.314612 0.831071
O O6 0.284001 0.396520 0.961938
O O7 0.752349 0.491978 0.270080
O O8 0.547428 0.255207 0.016501
O O9 0.474504 0.118926 0.449728
O O10 0.122797 0.064836 0.370345
O O11 0.256919 0.879195 0.190495
O O12 0.000000 0.000000 0.000000
O O13 0.078851 0.711013 0.133402
O O14 0.048892 0.800061 0.430426
O O15 0.286022 0.892345 0.856402
O O16 0.746859 0.948193 0.205605
#
# Coordination Sequence:
#
# PCOD9105773 Si02
#       8
#     2   2   2   2   2   1   2   2
#     4  10  24  48  72 104 138 189 252 307 365 435
#     4  11  23  47  68 102 140 187 243 310 364 436
#     4  11  24  39  65 109 154 202 237 283 360 440
#     4  11  25  44  71 106 148 193 237 302 378 434
#     4  11  26  43  67 112 150 190 246 296 359 445
#     4  10  26  48  76  98 130 186 252 310 368 424
#     4   9  21  37  68 100 136 188 241 283 370 435
#     4  10  20  39  66 100 148 191 225 294 358 452
#
# _framework density 25.098451000000001
#
# number of rings (size 3 to 8) (size 9 to 14) (size 15 to 20)
#    0.000    1.600    1.333    1.600    9.333    5.867 
#    2.400    4.667    0.000    0.000    0.000    0.000 
#    0.000    0.000    0.000    0.000    0.000    0.000 
#
# Total GULP energy -83685.626274 kJ/mol
# GULP energy per Si atom -5579.041752 kJ/mol
# Density = 2.504133 g / cm^3
# Si number density = 25.098451 Si / 1000 Ang^3
#
#
#
# Elastic Constant Matrix: (Units=GPa)
#
#
# Indices 1 2 3 4 5 6 
#
# 1 114.1386 52.9120 50.7244 12.1300 31.2016 -11.5934
# 2 52.9120 99.2618 13.3764 -18.8048 0.9516 -24.9213
# 3 50.7244 13.3764 104.4283 -16.6322 22.8425 -22.1737
# 4 12.1300 -18.8048 -16.6322 20.3993 1.1996 -5.1756
# 5 31.2016 0.9516 22.8425 1.1996 34.4289 -14.6471
# 6 -11.5934 -24.9213 -22.1737 -5.1756 -14.6471 34.4151
#
#
#
# Elastic Compliance Matrix: (Units=1/GPa)
#
#
# Indices 1 2 3 4 5 6 
#
# 1 -0.010659 0.019307 0.013221 0.041889 0.011746 0.030207
# 2 0.019307 -0.012436 -0.016639 -0.042258 -0.015838 -0.026318
# 3 0.013221 -0.016639 0.001506 -0.025595 -0.019641 -0.018834
# 4 0.041889 -0.042258 -0.025595 -0.048026 -0.043035 -0.058518
# 5 0.011746 -0.015838 -0.019641 -0.043035 0.026908 -0.015187
# 6 0.030207 -0.026318 -0.018834 -0.058518 -0.015187 -0.007224
#
#
# Mechanical properties :
#
#
# Convention : Reuss Voigt Hill
#
# Bulk Modulus (GPa) = 98.15573 61.31716 79.73644
# Shear Modulus (GPa) = -63.84763 31.23637 -16.30563
#
# Velocity S-wave (km/s) = -5.04917 3.53165 -2.55162
# Velocity P-wave (km/s) = 2.28058 6.41200 4.81221
#
# Compressibility (1/GPa) = 0.01018789
#
# Stress axis : x y z
#
# Youngs Moduli (GPa) = -93.81839 -80.40883 663.81626
#
# Poissons Ratio (x) = 1.55247 -8.77601
# Poissons Ratio (y) = 1.81137 11.04548
# Poissons Ratio (z) = 1.24033 -1.33795
#
# Static dielectric constant tensor:
#      x y z
#    x 1.915680 0.015380 -0.030440 
#    y 0.015380 1.983600 -0.010780 
#    z -0.030440 -0.010780 2.120880 
# 
# From -- ./inp_files/399719.got.cif
#   From: 2010.05.17/outbox.cif.g08.bks.cpg/sg2_200_cif.got.tgz:399719.got - 2010.06.03 11:33:40.
