data_PCOD9105161
_publ_section_title
;
Structure prediction by ZEFSAII (Michael W. Deem and Ramdas Pophale) SiO2 
 PCOD9105161
Probable space group: P -1
;
_chemical_formula_sum "Si O2"
_cell_formula_units_Z 14
_cell_length_a 8.084370
_cell_length_b 8.079430
_cell_length_c 11.184427
_cell_angle_alpha 116.964239
_cell_angle_beta 107.356799
_cell_angle_gamma 70.224779
_cell_volume 603.505115
_symmetry_space_group_name_H-M "P -1"
_symmetry_group_IT_number 2
_symmetry_cell_setting 'triclinic'
loop_
_space_group_symop_operation_xyz
x,y,z
-x,-y,-z
loop_
_atom_site_type_symbol
_atom_site_label
_atom_site_fract_x
_atom_site_fract_y
_atom_site_fract_z
Si Si1 0.257186 0.963384 0.412623
Si Si2 0.836127 0.926662 0.823143
Si Si3 0.963667 0.330681 0.784729
Si Si4 0.740514 0.705596 0.958134
Si Si5 0.387219 0.263287 0.655748
Si Si6 0.925411 0.434798 0.336089
Si Si7 0.433912 0.728459 0.056245
O O1 0.101350 0.854686 0.331136
O O2 0.442445 0.806935 0.415227
O O3 0.268732 0.066995 0.321903
O O4 0.251863 0.127861 0.559648
O O5 0.019861 0.786987 0.767195
O O6 0.770834 0.150060 0.926680
O O7 0.779669 0.819302 0.888317
O O8 0.010553 0.449847 0.721823
O O9 0.123720 0.279862 0.898953
O O10 0.798130 0.480175 0.862231
O O11 0.536393 0.776573 0.978041
O O12 0.458741 0.225803 0.791259
O O13 0.286004 0.479665 0.680478
O O14 0.000000 0.500000 0.500000
O O15 0.500000 0.500000 0.000000
#
# Coordination Sequence:
#
# PCOD9105161 Si02
#       7
#     2   2   2   2   2   2   2
#     4  10  21  41  65  91 122 171 217 254 311 377
#     4  10  22  38  66  92 128 165 211 261 309 374
#     4  10  22  39  66  93 126 170 209 256 317 378
#     4  10  20  39  63  93 133 164 209 259 316 365
#     4  10  21  40  66  85 128 167 207 259 319 363
#     4  11  21  42  64  92 131 166 203 265 319 368
#     4  11  22  42  67  92 124 171 213 255 320 380
#
# _framework density 23.197813
#
# number of rings (size 3 to 8) (size 9 to 14) (size 15 to 20)
#    0.000    1.714    2.857    2.143    0.000    1.143 
#    2.571    0.714    9.429    0.000    0.000    0.000 
#    0.000    0.000    0.000    0.000    0.000    0.000 
#
# Total GULP energy -77969.313884 kJ/mol
# GULP energy per Si atom -5569.236706 kJ/mol
# Density = 2.314501 g / cm^3
# Si number density = 23.197813 Si / 1000 Ang^3
#
#
#
# Elastic Constant Matrix: (Units=GPa)
#
#
# Indices 1 2 3 4 5 6 
#
# 1 36.7254 32.0279 19.5948 13.1407 -9.7932 -19.2640
# 2 32.0279 126.6508 24.1786 19.1821 -16.9379 -15.3065
# 3 19.5948 24.1786 100.0741 7.8193 6.7335 10.5513
# 4 13.1407 19.1821 7.8193 50.3345 -4.2679 -20.1240
# 5 -9.7932 -16.9379 6.7335 -4.2679 35.0760 15.9301
# 6 -19.2640 -15.3065 10.5513 -20.1240 15.9301 44.6775
#
#
#
# Elastic Compliance Matrix: (Units=1/GPa)
#
#
# Indices 1 2 3 4 5 6 
#
# 1 0.051771 -0.008116 -0.010568 -0.000180 0.003067 0.020864
# 2 -0.008116 0.010716 -0.000859 -0.002311 0.003693 -0.001983
# 3 -0.010568 -0.000859 0.013511 -0.002541 -0.002501 -0.008294
# 4 -0.000180 -0.002311 -0.002541 0.025940 -0.003229 0.012566
# 5 0.003067 0.003693 -0.002501 -0.003229 0.036338 -0.011233
# 6 0.020864 -0.001983 -0.008294 0.012566 -0.011233 0.042323
#
#
# Mechanical properties :
#
#
# Convention : Reuss Voigt Hill
#
# Bulk Modulus (GPa) = 27.09085 46.11699 36.60392
# Shear Modulus (GPa) = 21.55273 38.52753 30.04013
#
# Velocity S-wave (km/s) = 3.05140 4.07974 3.60245
# Velocity P-wave (km/s) = 4.91103 6.48964 5.75472
#
# Compressibility (1/GPa) = 0.03691284
#
# Stress axis : x y z
#
# Youngs Moduli (GPa) = 19.31572 93.31539 74.01526
#
# Poissons Ratio (x) = 0.75732 0.78221
# Poissons Ratio (y) = 0.15676 0.06357
# Poissons Ratio (z) = 0.20413 0.08015
#
# Static dielectric constant tensor:
#      x y z
#    x 1.376350 1.000160 -0.179570 
#    y 1.000160 0.089310 0.358420 
#    z -0.179570 0.358420 1.839190 
# 
# From -- ./inp_files/383304.got.cif
#   From: 2010.05.17/outbox.cif.g08.bks.cpg/sg2_192_cif.got.tgz:383304.got - 2010.06.03 11:33:40.
