data_PCOD9105246
_publ_section_title
;
Structure prediction by ZEFSAII (Michael W. Deem and Ramdas Pophale) SiO2 
 PCOD9105246
Probable space group: P -1
;
_chemical_formula_sum "Si O2"
_cell_formula_units_Z 14
_cell_length_a 6.399008
_cell_length_b 19.575098
_cell_length_c 5.593793
_cell_angle_alpha 95.392505
_cell_angle_beta 105.210352
_cell_angle_gamma 53.251649
_cell_volume 539.970054
_symmetry_space_group_name_H-M "P -1"
_symmetry_group_IT_number 2
_symmetry_cell_setting 'triclinic'
loop_
_space_group_symop_operation_xyz
x,y,z
-x,-y,-z
loop_
_atom_site_type_symbol
_atom_site_label
_atom_site_fract_x
_atom_site_fract_y
_atom_site_fract_z
Si Si1 0.254029 0.179698 0.848497
Si Si2 0.689628 0.616656 0.777395
Si Si3 0.262449 0.675071 0.017247
Si Si4 0.049376 0.080743 0.787587
Si Si5 0.224757 0.888414 0.779720
Si Si6 0.785204 0.449015 0.809014
Si Si7 0.839991 0.697304 0.512343
O O1 0.306618 0.212901 0.637596
O O2 0.284350 0.092550 0.823805
O O3 0.454646 0.173357 0.101593
O O4 0.938034 0.250696 0.835050
O O5 0.496459 0.672220 0.957941
O O6 0.643058 0.544300 0.702832
O O7 0.651428 0.675642 0.569464
O O8 0.001454 0.567178 0.929135
O O9 0.052375 0.690890 0.755782
O O10 0.378997 0.583208 0.139317
O O11 0.872074 0.122657 0.505751
O O12 0.914783 0.115983 0.022637
O O13 0.145152 0.984002 0.783887
O O14 0.975592 0.379955 0.643534
#
# Coordination Sequence:
#
# PCOD9105246 Si02
#       7
#     2   2   2   2   2   2   2
#     4  11  25  43  65  98 143 179 219 287 348 411
#     4  10  20  39  64  84 125 171 222 281 333 403
#     4  10  23  38  57  95 129 168 225 269 344 414
#     4  10  24  45  75 107 136 185 235 281 347 406
#     4  10  24  46  73 107 139 180 239 283 335 423
#     4   9  20  39  60  88 120 171 222 281 336 392
#     4  10  23  38  56  94 127 168 225 268 345 412
#
# _framework density 25.927361999999999
#
# number of rings (size 3 to 8) (size 9 to 14) (size 15 to 20)
#    0.000    2.000    0.000    1.286    4.000    7.429 
#    0.000    4.286    0.000    0.000    0.000    0.000 
#    0.000    0.000    0.000    0.000    0.000    0.000 
#
# Total GULP energy -78366.631060 kJ/mol
# GULP energy per Si atom -5597.616504 kJ/mol
# Density = 2.586835 g / cm^3
# Si number density = 25.927362 Si / 1000 Ang^3
#
#
#
# Elastic Constant Matrix: (Units=GPa)
#
#
# Indices 1 2 3 4 5 6 
#
# 1 124.1527 26.8565 58.6688 -21.7426 -39.1111 12.8160
# 2 26.8565 62.3582 24.5891 -6.8015 -18.5783 17.3581
# 3 58.6688 24.5891 153.5294 -20.2306 -15.7452 17.3037
# 4 -21.7426 -6.8015 -20.2306 31.8688 2.5201 -4.9119
# 5 -39.1111 -18.5783 -15.7452 2.5201 55.5091 -9.1837
# 6 12.8160 17.3581 17.3037 -4.9119 -9.1837 44.6837
#
#
#
# Elastic Compliance Matrix: (Units=1/GPa)
#
#
# Indices 1 2 3 4 5 6 
#
# 1 0.013468 -0.001587 -0.003315 0.006178 0.007790 0.000318
# 2 -0.001587 0.020300 -0.001397 0.001118 0.004254 -0.005893
# 3 -0.003315 -0.001397 0.008453 0.002614 -0.000798 -0.001657
# 4 0.006178 0.001118 0.002614 0.037438 0.004055 0.001730
# 5 0.007790 0.004254 -0.000798 0.004055 0.024844 0.001974
# 6 0.000318 -0.005893 -0.001657 0.001730 0.001974 0.025815
#
#
# Mechanical properties :
#
#
# Convention : Reuss Voigt Hill
#
# Bulk Modulus (GPa) = 33.75722 62.25211 48.00466
# Shear Modulus (GPa) = 32.72466 41.74073 37.23269
#
# Velocity S-wave (km/s) = 3.55655 4.01672 3.79362
# Velocity P-wave (km/s) = 5.46933 6.75088 6.14361
#
# Compressibility (1/GPa) = 0.02962329
#
# Stress axis : x y z
#
# Youngs Moduli (GPa) = 74.25257 49.26007 118.29724
#
# Poissons Ratio (x) = 0.07816 0.39217
# Poissons Ratio (y) = 0.11782 0.16528
# Poissons Ratio (z) = 0.24615 0.06882
#
# Static dielectric constant tensor:
#      x y z
#    x 2.001920 0.006140 -0.018780 
#    y 0.006140 2.065450 -0.009040 
#    z -0.018780 -0.009040 2.047100 
# 
# From -- ./inp_files/7463.got.cif
#   From: 2010.05.17/outbox.cif.g08.bks.cpg/sg2_4_cif.got.tgz:7463.got - 2010.06.03 11:33:40.
