data_PCOD9105498
_publ_section_title
;
Structure prediction by ZEFSAII (Michael W. Deem and Ramdas Pophale) SiO2 
 PCOD9105498
Probable space group: P -1
;
_chemical_formula_sum "Si O2"
_cell_formula_units_Z 16
_cell_length_a 13.450391
_cell_length_b 10.874516
_cell_length_c 9.634540
_cell_angle_alpha 113.191343
_cell_angle_beta 136.679059
_cell_angle_gamma 98.625547
_cell_volume 641.463994
_symmetry_space_group_name_H-M "P -1"
_symmetry_group_IT_number 2
_symmetry_cell_setting 'triclinic'
loop_
_space_group_symop_operation_xyz
x,y,z
-x,-y,-z
loop_
_atom_site_type_symbol
_atom_site_label
_atom_site_fract_x
_atom_site_fract_y
_atom_site_fract_z
Si Si1 0.603794 0.464090 0.797255
Si Si2 0.351202 0.807181 0.621391
Si Si3 0.203708 0.242459 0.392187
Si Si4 0.679964 0.808021 0.058680
Si Si5 0.289355 0.803262 0.868815
Si Si6 0.839218 0.571525 0.349628
Si Si7 0.150512 0.418359 0.167399
Si Si8 0.946327 0.050907 0.685235
O O1 0.386935 0.271027 0.529951
O O2 0.666923 0.491080 0.715016
O O3 0.573684 0.598646 0.866426
O O4 0.778688 0.528702 0.107107
O O5 0.285509 0.826469 0.710097
O O6 0.176785 0.593017 0.299614
O O7 0.527881 0.813479 0.840936
O O8 0.495391 0.004432 0.772900
O O9 0.246220 0.354857 0.626236
O O10 0.153994 0.329026 0.269958
O O11 0.057063 0.036493 0.216195
O O12 0.868147 0.891510 0.188335
O O13 0.759273 0.907351 0.331239
O O14 0.257136 0.624379 0.774426
O O15 0.081041 0.729649 0.684300
O O16 0.971771 0.225557 0.818970
#
# Coordination Sequence:
#
# PCOD9105498 Si02
#       8
#     2   2   2   2   2   2   2   2
#     4  11  23  38  66  97 134 159 198 265 331 378
#     4  11  22  42  67  89 123 173 217 255 307 377
#     4  12  21  39  65  98 129 165 204 256 322 390
#     4  10  20  39  64  99 125 165 205 257 320 386
#     4  10  24  41  68  87 119 173 230 253 298 359
#     4  11  22  43  65  96 123 162 221 266 298 372
#     4  11  24  41  58  99 135 166 196 262 329 375
#     4  10  23  34  61 100 133 163 196 253 331 378
#
# _framework density 24.942945000000002
#
# number of rings (size 3 to 8) (size 9 to 14) (size 15 to 20)
#    0.000    1.250    3.750    1.875    7.000    0.000 
#    2.250    1.250    0.000    0.000    0.000    0.000 
#    0.000    0.000    0.000    0.000    0.000    0.000 
#
# Total GULP energy -89322.409939 kJ/mol
# GULP energy per Si atom -5582.650621 kJ/mol
# Density = 2.488617 g / cm^3
# Si number density = 24.942945 Si / 1000 Ang^3
#
#
#
# Elastic Constant Matrix: (Units=GPa)
#
#
# Indices 1 2 3 4 5 6 
#
# 1 56.3271 28.8101 12.3971 15.5493 -11.4964 16.3881
# 2 28.8101 115.1072 33.1352 36.2615 -15.6287 5.6881
# 3 12.3971 33.1352 104.1612 20.3485 -18.2642 12.7311
# 4 15.5493 36.2615 20.3485 32.4746 2.1704 3.5409
# 5 -11.4964 -15.6287 -18.2642 2.1704 40.0398 6.6657
# 6 16.3881 5.6881 12.7311 3.5409 6.6657 29.9381
#
#
#
# Elastic Compliance Matrix: (Units=1/GPa)
#
#
# Indices 1 2 3 4 5 6 
#
# 1 0.030076 -0.001350 0.004598 -0.014590 0.014262 -0.019612
# 2 -0.001350 0.015284 -0.000066 -0.016647 0.006728 -0.001666
# 3 0.004598 -0.000066 0.014002 -0.010533 0.009817 -0.009399
# 4 -0.014590 -0.016647 -0.010533 0.062971 -0.021047 0.012867
# 5 0.014262 0.006728 0.009817 -0.021047 0.040614 -0.019813
# 6 -0.019612 -0.001666 -0.009399 0.012867 -0.019813 0.051341
#
#
# Mechanical properties :
#
#
# Convention : Reuss Voigt Hill
#
# Bulk Modulus (GPa) = 15.21446 47.14227 31.17836
# Shear Modulus (GPa) = 21.75490 33.90738 27.83114
#
# Velocity S-wave (km/s) = 2.95648 3.69100 3.34397
# Velocity P-wave (km/s) = 4.21513 6.09145 5.23799
#
# Compressibility (1/GPa) = 0.06572694
#
# Stress axis : x y z
#
# Youngs Moduli (GPa) = 33.24871 65.42597 71.41813
#
# Poissons Ratio (x) = 0.08830 -0.32837
# Poissons Ratio (y) = 0.04488 0.00472
# Poissons Ratio (z) = -0.15287 0.00432
#
# Static dielectric constant tensor:
#      x y z
#    x 1.913700 -0.000690 0.033290 
#    y -0.000690 2.015730 0.050530 
#    z 0.033290 0.050530 2.094300 
# 
# From -- ./inp_files/308208.got.cif
#   From: 2010.05.17/outbox.cif.g08.bks.cpg/sg2_155_cif.got.tgz:308208.got - 2010.06.03 11:33:40.
