data_PCOD9105096
_publ_section_title
;
Structure prediction by ZEFSAII (Michael W. Deem and Ramdas Pophale) SiO2 
 PCOD9105096
Probable space group: P -1
;
_chemical_formula_sum "Si O2"
_cell_formula_units_Z 16
_cell_length_a 9.224540
_cell_length_b 14.376316
_cell_length_c 9.810244
_cell_angle_alpha 140.119192
_cell_angle_beta 119.662984
_cell_angle_gamma 59.378260
_cell_volume 704.983105
_symmetry_space_group_name_H-M "P -1"
_symmetry_group_IT_number 2
_symmetry_cell_setting 'triclinic'
loop_
_space_group_symop_operation_xyz
x,y,z
-x,-y,-z
loop_
_atom_site_type_symbol
_atom_site_label
_atom_site_fract_x
_atom_site_fract_y
_atom_site_fract_z
Si Si1 0.719884 0.915413 0.330600
Si Si2 0.161331 0.488705 0.464207
Si Si3 0.849984 0.819242 0.998054
Si Si4 0.805137 0.101424 0.832306
Si Si5 0.367854 0.970939 0.081260
Si Si6 0.361104 0.660697 0.596521
Si Si7 0.551512 0.685117 0.135935
Si Si8 0.489665 0.619073 0.327765
O O1 0.842261 0.871300 0.208919
O O2 0.536398 0.990567 0.260349
O O3 0.680896 0.771938 0.227639
O O4 0.780919 0.012679 0.584092
O O5 0.187926 0.628693 0.544660
O O6 0.327985 0.445304 0.588740
O O7 0.000000 0.500000 0.500000
O O8 0.162605 0.350838 0.209303
O O9 0.023039 0.842628 0.036614
O O10 0.695533 0.917774 0.947273
O O11 0.782739 0.009454 0.853604
O O12 0.639759 0.238934 0.918307
O O13 0.404171 0.800873 0.850775
O O14 0.500000 0.500000 0.500000
O O15 0.365104 0.695755 0.477094
O O16 0.535309 0.701247 0.308576
O O17 0.589634 0.514132 0.916874
#
# Coordination Sequence:
#
# PCOD9105096 Si02
#       8
#     2   2   2   2   2   2   2   2
#     4  11  23  40  64  90 126 164 204 257 312 367
#     4  11  22  38  64  91 126 161 208 251 322 359
#     4  12  25  40  64  96 127 161 213 261 306 370
#     4  11  24  41  61  87 133 166 197 257 322 363
#     4  11  23  41  66  94 121 165 218 255 301 375
#     4  10  20  39  63  91 125 158 210 258 309 356
#     4  10  21  40  62  87 123 160 212 246 315 370
#     4  10  21  37  64  89 116 164 208 258 294 382
#
# _framework density 22.69558
#
# number of rings (size 3 to 8) (size 9 to 14) (size 15 to 20)
#    0.000    1.250    0.000    9.375    5.250    0.000 
#    0.000    0.000    0.000    4.500    0.000    0.000 
#    0.000    0.000    0.000    0.000    0.000    0.000 
#
# Total GULP energy -89484.454097 kJ/mol
# GULP energy per Si atom -5592.778381 kJ/mol
# Density = 2.264392 g / cm^3
# Si number density = 22.695580 Si / 1000 Ang^3
#
#
#
# Elastic Constant Matrix: (Units=GPa)
#
#
# Indices 1 2 3 4 5 6 
#
# 1 99.3088 12.9196 0.5135 -11.3697 -7.5013 31.6272
# 2 12.9196 45.1270 15.2956 -16.8556 -12.0012 25.9560
# 3 0.5135 15.2956 132.3065 -0.5419 -12.5706 12.5393
# 4 -11.3697 -16.8556 -0.5419 31.4031 11.5213 -12.7951
# 5 -7.5013 -12.0012 -12.5706 11.5213 39.7208 -10.1547
# 6 31.6272 25.9560 12.5393 -12.7951 -10.1547 26.5446
#
#
#
# Elastic Compliance Matrix: (Units=1/GPa)
#
#
# Indices 1 2 3 4 5 6 
#
# 1 0.022722 0.020248 0.002033 -0.000110 -0.001283 -0.048377
# 2 0.020248 0.071067 0.000200 0.009115 -0.000132 -0.089367
# 3 0.002033 0.000200 0.008382 -0.002646 0.002058 -0.007066
# 4 -0.000110 0.009115 -0.002646 0.043931 -0.008156 0.010524
# 5 -0.001283 -0.000132 0.002058 -0.008156 0.030016 0.008237
# 6 -0.048377 -0.089367 -0.007066 0.010524 0.008237 0.194259
#
#
# Mechanical properties :
#
#
# Convention : Reuss Voigt Hill
#
# Bulk Modulus (GPa) = 6.79652 37.13329 21.96491
# Shear Modulus (GPa) = 13.35263 36.06792 24.71027
#
# Velocity S-wave (km/s) = 2.42820 3.99081 3.30323
# Velocity P-wave (km/s) = 3.29585 6.13452 4.92418
#
# Compressibility (1/GPa) = 0.14713403
#
# Stress axis : x y z
#
# Youngs Moduli (GPa) = 44.01023 14.07131 119.30984
#
# Poissons Ratio (x) = -0.28492 -0.24261
# Poissons Ratio (y) = -0.89113 -0.02389
# Poissons Ratio (z) = -0.08949 -0.00282
#
# Static dielectric constant tensor:
#      x y z
#    x 1.858660 0.017900 -0.026980 
#    y 0.017900 1.899030 0.020110 
#    z -0.026980 0.020110 1.837770 
# 
# From -- ./inp_files/209527.got.cif
#   From: 2010.05.17/outbox.cif.g08.bks.cpg/sg2_105_cif.got.tgz:209527.got - 2010.06.03 11:33:40.
