data_PCOD9105493
_publ_section_title
;
Structure prediction by ZEFSAII (Michael W. Deem and Ramdas Pophale) SiO2 
 PCOD9105493
Probable space group: P -1
;
_chemical_formula_sum "Si O2"
_cell_formula_units_Z 15
_cell_length_a 27.823267
_cell_length_b 5.018397
_cell_length_c 8.913421
_cell_angle_alpha 118.619378
_cell_angle_beta 39.137946
_cell_angle_gamma 136.282282
_cell_volume 533.319619
_symmetry_space_group_name_H-M "P -1"
_symmetry_group_IT_number 2
_symmetry_cell_setting 'triclinic'
loop_
_space_group_symop_operation_xyz
x,y,z
-x,-y,-z
loop_
_atom_site_type_symbol
_atom_site_label
_atom_site_fract_x
_atom_site_fract_y
_atom_site_fract_z
Si Si1 0.693923 0.593336 0.062088
Si Si2 0.906838 0.568127 0.060580
Si Si3 0.500000 0.500000 0.500000
Si Si4 0.224577 0.421570 0.432139
Si Si5 0.180810 0.487059 0.058440
Si Si6 0.957006 0.486012 0.439065
Si Si7 0.386044 0.606768 0.320913
Si Si8 0.519739 0.585749 0.755433
O O1 0.586905 0.459015 0.303131
O O2 0.748650 0.598504 0.077144
O O3 0.757146 0.045274 0.977385
O O4 0.709877 0.402531 0.830047
O O5 0.824369 0.389116 0.340182
O O6 0.864883 0.622239 0.026819
O O7 0.954130 0.361232 0.849598
O O8 0.000000 0.000000 0.000000
O O9 0.447001 0.253837 0.726621
O O10 0.293293 0.460756 0.408070
O O11 0.131086 0.966895 0.512863
O O12 0.099141 0.340932 0.347824
O O13 0.000000 0.500000 0.500000
O O14 0.394153 0.390316 0.375641
O O15 0.432646 0.050239 0.381236
O O16 0.462487 0.634571 0.029312
#
# Coordination Sequence:
#
# PCOD9105493 Si02
#       8
#     2   2   1   2   2   2   2   2
#     4  11  26  43  66  97 132 180 216 275 323 393
#     4   9  19  40  70 100 132 170 218 275 332 394
#     4  12  26  46  66 100 134 176 228 272 328 388
#     4  10  20  39  64  98 133 172 221 267 327 394
#     4  10  23  45  68  96 134 172 222 266 331 396
#     4   8  17  39  66  96 130 170 211 270 328 388
#     4  10  22  43  62  96 126 177 206 273 327 385
#     4  10  24  41  66  89 134 165 222 264 328 385
#
# _framework density 28.125726
#
# number of rings (size 3 to 8) (size 9 to 14) (size 15 to 20)
#    0.000    2.133    1.333    0.000    3.733    4.267 
#    0.000   29.333    0.000    0.000    0.000    0.000 
#    0.000    0.000    0.000    0.000    0.000    0.000 
#
# Total GULP energy -83785.371291 kJ/mol
# GULP energy per Si atom -5585.691419 kJ/mol
# Density = 2.806171 g / cm^3
# Si number density = 28.125726 Si / 1000 Ang^3
#
#
#
# Elastic Constant Matrix: (Units=GPa)
#
#
# Indices 1 2 3 4 5 6 
#
# 1 143.0945 50.3348 53.4705 -0.3229 -27.0943 22.6414
# 2 50.3348 68.1580 24.7286 -0.7131 -17.4197 10.2956
# 3 53.4705 24.7286 222.1749 32.4446 -25.6483 1.2633
# 4 -0.3229 -0.7131 32.4446 28.9392 7.3351 -8.3030
# 5 -27.0943 -17.4197 -25.6483 7.3351 51.2415 -5.1578
# 6 22.6414 10.2956 1.2633 -8.3030 -5.1578 50.8406
#
#
#
# Elastic Compliance Matrix: (Units=1/GPa)
#
#
# Indices 1 2 3 4 5 6 
#
# 1 0.010759 -0.006257 -0.001643 0.000288 0.002377 -0.003196
# 2 -0.006257 0.020438 -0.000309 -0.000395 0.003435 -0.001061
# 3 -0.001643 -0.000309 0.006554 -0.008362 0.003465 -0.000383
# 4 0.000288 -0.000395 -0.008362 0.048582 -0.010414 0.007037
# 5 0.002377 0.003435 0.003465 -0.010414 0.025065 -0.000998
# 6 -0.003196 -0.001061 -0.000383 0.007037 -0.000998 0.022365
#
#
# Mechanical properties :
#
#
# Convention : Reuss Voigt Hill
#
# Bulk Modulus (GPa) = 46.86946 76.72168 61.79557
# Shear Modulus (GPa) = 31.78812 46.53049 39.15931
#
# Velocity S-wave (km/s) = 3.36551 4.07181 3.73540
# Velocity P-wave (km/s) = 5.63939 7.03161 6.37363
#
# Compressibility (1/GPa) = 0.02133586
#
# Stress axis : x y z
#
# Youngs Moduli (GPa) = 92.94238 48.92749 152.57847
#
# Poissons Ratio (x) = 0.30612 0.25062
# Poissons Ratio (y) = 0.58151 0.04712
# Poissons Ratio (z) = 0.15266 0.01511
#
# Static dielectric constant tensor:
#      x y z
#    x 1.839690 -0.369360 -0.045760 
#    y -0.369360 1.758860 -0.191600 
#    z -0.045760 -0.191600 2.170300 
# 
# From -- ./inp_files/351067.got.cif
#   From: 2010.05.17/outbox.cif.g08.bks.cpg/sg2_176_cif.got.tgz:351067.got - 2010.06.03 11:33:40.
