data_PCOD9105212
_publ_section_title
;
Structure prediction by ZEFSAII (Michael W. Deem and Ramdas Pophale) SiO2 
 PCOD9105212
Probable space group: P -1
;
_chemical_formula_sum "Si O2"
_cell_formula_units_Z 16
_cell_length_a 8.459314
_cell_length_b 9.797699
_cell_length_c 8.610122
_cell_angle_alpha 90.572652
_cell_angle_beta 96.205107
_cell_angle_gamma 113.588418
_cell_volume 649.051923
_symmetry_space_group_name_H-M "P -1"
_symmetry_group_IT_number 2
_symmetry_cell_setting 'triclinic'
loop_
_space_group_symop_operation_xyz
x,y,z
-x,-y,-z
loop_
_atom_site_type_symbol
_atom_site_label
_atom_site_fract_x
_atom_site_fract_y
_atom_site_fract_z
Si Si1 0.155897 0.964991 0.583204
Si Si2 0.096515 0.482963 0.163993
Si Si3 0.648700 0.079114 0.839710
Si Si4 0.568359 0.736175 0.493583
Si Si5 0.499471 0.681162 0.147340
Si Si6 0.659256 0.778062 0.845802
Si Si7 0.045742 0.861424 0.887974
Si Si8 0.808277 0.288772 0.574366
O O1 0.127493 0.795208 0.545742
O O2 0.139533 0.977249 0.764691
O O3 0.330203 0.087536 0.529895
O O4 0.000000 0.000000 0.500000
O O5 0.301268 0.563495 0.146760
O O6 0.034199 0.309519 0.180173
O O7 0.067950 0.567502 0.314136
O O8 0.000000 0.500000 0.000000
O O9 0.518953 0.158842 0.858823
O O10 0.738948 0.157234 0.692866
O O11 0.575263 0.900938 0.820741
O O12 0.806357 0.130749 0.977508
O O13 0.589371 0.672523 0.323138
O O14 0.638424 0.709216 0.667975
O O15 0.362698 0.687229 0.493515
O O16 0.579075 0.675300 0.986805
O O17 0.863152 0.871409 0.909347
#
# Coordination Sequence:
#
# PCOD9105212 Si02
#       8
#     2   2   2   2   2   2   2   2
#     4  12  23  40  62 100 134 163 202 271 335 375
#     4  10  21  46  63  90 126 167 226 266 301 389
#     4  10  20  39  63  97 121 163 215 265 319 387
#     4  10  22  41  62  98 132 161 211 267 319 398
#     4  10  24  40  67  92 127 171 215 266 319 379
#     4  12  23  39  64  97 131 166 209 265 342 377
#     4  12  24  39  67  90 130 170 214 264 317 388
#     4  10  22  39  68  89 128 169 210 267 318 372
#
# _framework density 24.651340000000001
#
# number of rings (size 3 to 8) (size 9 to 14) (size 15 to 20)
#    0.000    1.500    5.000    1.875    3.500    2.000 
#    0.000    3.750    0.000    0.000    0.000    0.000 
#    0.000    0.000    0.000    0.000    0.000    0.000 
#
# Total GULP energy -89320.299969 kJ/mol
# GULP energy per Si atom -5582.518748 kJ/mol
# Density = 2.459523 g / cm^3
# Si number density = 24.651340 Si / 1000 Ang^3
#
#
#
# Elastic Constant Matrix: (Units=GPa)
#
#
# Indices 1 2 3 4 5 6 
#
# 1 62.0175 9.8100 43.6129 -0.8030 9.0960 5.1361
# 2 9.8100 70.0877 0.1907 7.0693 -3.9289 3.0508
# 3 43.6129 0.1907 178.8703 -8.7510 13.6212 25.2476
# 4 -0.8030 7.0693 -8.7510 35.4174 10.8722 1.1529
# 5 9.0960 -3.9289 13.6212 10.8722 41.1096 4.7425
# 6 5.1361 3.0508 25.2476 1.1529 4.7425 27.5150
#
#
#
# Elastic Compliance Matrix: (Units=1/GPa)
#
#
# Indices 1 2 3 4 5 6 
#
# 1 0.020494 -0.003229 -0.004895 0.000972 -0.003665 0.001615
# 2 -0.003229 0.015386 0.000624 -0.003922 0.003255 -0.002072
# 3 -0.004895 0.000624 0.007884 0.002335 -0.001366 -0.006252
# 4 0.000972 -0.003922 0.002335 0.032684 -0.009827 -0.001565
# 5 -0.003665 0.003255 -0.001366 -0.009827 0.028843 -0.002983
# 6 0.001615 -0.002072 -0.006252 -0.001565 -0.002983 0.042589
#
#
# Mechanical properties :
#
#
# Convention : Reuss Voigt Hill
#
# Bulk Modulus (GPa) = 34.76527 46.46696 40.61611
# Shear Modulus (GPa) = 28.99081 37.96585 33.47833
#
# Velocity S-wave (km/s) = 3.43306 3.92869 3.68920
# Velocity P-wave (km/s) = 5.46332 6.28252 5.88719
#
# Compressibility (1/GPa) = 0.02876434
#
# Stress axis : x y z
#
# Youngs Moduli (GPa) = 48.79546 64.99295 126.83525
#
# Poissons Ratio (x) = 0.20986 0.62082
# Poissons Ratio (y) = 0.15756 -0.07910
# Poissons Ratio (z) = 0.23884 -0.04053
#
# Static dielectric constant tensor:
#      x y z
#    x 1.463910 0.006220 0.160510 
#    y 0.006220 1.960220 0.058680 
#    z 0.160510 0.058680 1.915660 
# 
# From -- ./inp_files/179268.got.cif
#   From: 2010.05.17/outbox.cif.g08.bks.cpg/sg2_90_cif.got.tgz:179268.got - 2010.06.03 11:33:40.
