data_PCOD9105175
_publ_section_title
;
Structure prediction by ZEFSAII (Michael W. Deem and Ramdas Pophale) SiO2 
 PCOD9105175
Probable space group: P -1
;
_chemical_formula_sum "Si O2"
_cell_formula_units_Z 16
_cell_length_a 7.727057
_cell_length_b 13.318352
_cell_length_c 13.346295
_cell_angle_alpha 33.831830
_cell_angle_beta 83.271716
_cell_angle_gamma 86.882302
_cell_volume 757.140474
_symmetry_space_group_name_H-M "P -1"
_symmetry_group_IT_number 2
_symmetry_cell_setting 'triclinic'
loop_
_space_group_symop_operation_xyz
x,y,z
-x,-y,-z
loop_
_atom_site_type_symbol
_atom_site_label
_atom_site_fract_x
_atom_site_fract_y
_atom_site_fract_z
Si Si1 0.609157 0.892668 0.998364
Si Si2 0.444620 0.608442 0.083218
Si Si3 0.758237 0.232651 0.586754
Si Si4 0.929975 0.923822 0.409750
Si Si5 0.361212 0.281908 0.501532
Si Si6 0.718594 0.409226 0.100362
Si Si7 0.958108 0.766425 0.744248
Si Si8 0.301869 0.412910 0.606019
O O1 0.506357 0.775432 0.013784
O O2 0.698563 0.738178 0.182802
O O3 0.500000 0.000000 0.000000
O O4 0.728561 0.053316 0.805457
O O5 0.343315 0.456287 0.286684
O O6 0.590242 0.487730 0.124103
O O7 0.358630 0.669399 0.934361
O O8 0.567034 0.254133 0.529691
O O9 0.796214 0.415691 0.496158
O O10 0.925251 0.205297 0.530327
O O11 0.749656 0.891500 0.391083
O O12 0.884380 0.874598 0.568510
O O13 0.028901 0.122025 0.245999
O O14 0.263409 0.319885 0.580279
O O15 0.843057 0.275440 0.254220
O O16 0.840110 0.583715 0.913464
O O17 0.500000 0.500000 0.500000
#
# Coordination Sequence:
#
# PCOD9105175 Si02
#       8
#     2   2   2   2   2   2   2   2
#     4  12  21  38  67  96 129 167 209 263 319 375
#     4  11  21  37  63  97 120 165 222 251 314 391
#     4  11  23  41  65  91 128 168 205 262 313 372
#     4  11  24  41  61  91 123 167 211 260 317 377
#     4  11  21  41  64  90 126 169 208 257 319 374
#     4  10  22  39  62  89 124 166 209 265 312 376
#     4  10  22  42  57  85 128 161 206 267 317 362
#     4  10  20  39  63  94 127 167 210 254 319 375
#
# _framework density 21.132141000000001
#
# number of rings (size 3 to 8) (size 9 to 14) (size 15 to 20)
#    0.000    1.250    6.250    1.500    1.750    0.500 
#    0.000    2.500    0.000    0.000    0.000    0.000 
#    0.000    0.000    0.000    0.000    0.000    0.000 
#
# Total GULP energy -89150.370568 kJ/mol
# GULP energy per Si atom -5571.898160 kJ/mol
# Density = 2.108404 g / cm^3
# Si number density = 21.132141 Si / 1000 Ang^3
#
#
#
# Elastic Constant Matrix: (Units=GPa)
#
#
# Indices 1 2 3 4 5 6 
#
# 1 42.2574 29.0610 -0.9124 5.9429 6.4635 7.9126
# 2 29.0610 112.2254 21.1130 -2.3062 1.6095 24.8429
# 3 -0.9124 21.1130 96.1476 -3.0487 -0.7388 7.8214
# 4 5.9429 -2.3062 -3.0487 30.7680 -0.2975 4.6156
# 5 6.4635 1.6095 -0.7388 -0.2975 10.4731 1.3682
# 6 7.9126 24.8429 7.8214 4.6156 1.3682 28.0102
#
#
#
# Elastic Compliance Matrix: (Units=1/GPa)
#
#
# Indices 1 2 3 4 5 6 
#
# 1 0.033921 -0.009019 0.001920 -0.007232 -0.019623 0.000031
# 2 -0.009019 0.013902 -0.002150 0.004131 0.004714 -0.010093
# 3 0.001920 -0.002150 0.011072 0.000848 0.000196 -0.001876
# 4 -0.007232 0.004131 0.000848 0.035550 0.005944 -0.008006
# 5 -0.019623 0.004714 0.000196 0.005944 0.107696 -0.004932
# 6 0.000031 -0.010093 -0.001876 -0.008006 -0.004932 0.046728
#
#
# Mechanical properties :
#
#
# Convention : Reuss Voigt Hill
#
# Bulk Modulus (GPa) = 24.75470 38.79485 31.77477
# Shear Modulus (GPa) = 17.80408 27.27484 22.53946
#
# Velocity S-wave (km/s) = 2.90575 3.59650 3.26942
# Velocity P-wave (km/s) = 4.79558 5.97030 5.41489
#
# Compressibility (1/GPa) = 0.04039637
#
# Stress axis : x y z
#
# Youngs Moduli (GPa) = 29.48005 71.93097 90.31724
#
# Poissons Ratio (x) = 0.64876 -0.17339
# Poissons Ratio (y) = 0.26589 0.19419
# Poissons Ratio (z) = -0.05660 0.15466
#
# Static dielectric constant tensor:
#      x y z
#    x 1.780640 0.013730 0.016870 
#    y 0.013730 1.845680 -0.023430 
#    z 0.016870 -0.023430 1.776490 
# 
# From -- ./inp_files/388791.got.cif
#   From: 2010.05.17/outbox.cif.g08.bks.cpg/sg2_195_cif.got.tgz:388791.got - 2010.06.03 11:33:40.
