data_PCOD9105394
_publ_section_title
;
Structure prediction by ZEFSAII (Michael W. Deem and Ramdas Pophale) SiO2 
 PCOD9105394
Probable space group: P -1
;
_chemical_formula_sum "Si O2"
_cell_formula_units_Z 14
_cell_length_a 20.157503
_cell_length_b 15.960131
_cell_length_c 9.581350
_cell_angle_alpha 49.401604
_cell_angle_beta 41.604729
_cell_angle_gamma 16.698513
_cell_volume 552.401024
_symmetry_space_group_name_H-M "P -1"
_symmetry_group_IT_number 2
_symmetry_cell_setting 'triclinic'
loop_
_space_group_symop_operation_xyz
x,y,z
-x,-y,-z
loop_
_atom_site_type_symbol
_atom_site_label
_atom_site_fract_x
_atom_site_fract_y
_atom_site_fract_z
Si Si1 0.258994 0.224491 0.786120
Si Si2 0.919923 0.266538 0.349087
Si Si3 0.834941 0.326601 0.954289
Si Si4 0.577039 0.056793 0.607145
Si Si5 0.892696 0.832725 0.090241
Si Si6 0.973256 0.330387 0.474010
Si Si7 0.548421 0.426943 0.167993
O O1 0.530523 0.978463 0.717244
O O2 0.198254 0.177573 0.849042
O O3 0.231689 0.359203 0.583525
O O4 0.000000 0.500000 0.000000
O O5 0.712568 0.582921 0.294356
O O6 0.713794 0.376400 0.580083
O O7 0.050519 0.175248 0.387544
O O8 0.119147 0.057635 0.127047
O O9 0.822195 0.425771 0.994646
O O10 0.837299 0.390927 0.736254
O O11 0.605804 0.468519 0.139715
O O12 0.143802 0.951142 0.896457
O O13 0.772502 0.870129 0.634132
O O14 0.703712 0.997755 0.344385
O O15 0.500000 0.500000 0.000000
#
# Coordination Sequence:
#
# PCOD9105394 Si02
#       7
#     2   2   2   2   2   2   2
#     4  11  22  40  65  94 131 168 210 252 313 373
#     4  11  21  41  66  90 130 163 207 263 313 369
#     4  10  23  39  66  94 122 166 214 252 323 373
#     4  10  22  41  61  87 131 166 205 261 309 360
#     4  11  22  42  63  95 130 164 214 257 304 386
#     4  10  20  39  64  93 125 168 208 251 315 374
#     4  11  21  41  70  89 125 168 203 267 323 365
#
# _framework density 25.343907000000002
#
# number of rings (size 3 to 8) (size 9 to 14) (size 15 to 20)
#    0.000    1.429    7.143    0.429    0.000    3.429 
#    0.000    9.286    0.000    0.000    0.000    0.000 
#    0.000    0.000    0.000    0.000    0.000    0.000 
#
# Total GULP energy -78111.176517 kJ/mol
# GULP energy per Si atom -5579.369751 kJ/mol
# Density = 2.528622 g / cm^3
# Si number density = 25.343907 Si / 1000 Ang^3
#
#
#
# Elastic Constant Matrix: (Units=GPa)
#
#
# Indices 1 2 3 4 5 6 
#
# 1 245.3033 29.0321 78.5110 17.6397 -30.5142 -44.9578
# 2 29.0321 55.6899 15.9734 -5.3331 -8.6800 -22.4052
# 3 78.5110 15.9734 132.6351 -11.5615 -12.0571 -24.3731
# 4 17.6397 -5.3331 -11.5615 24.3310 -2.7771 -0.3244
# 5 -30.5142 -8.6800 -12.0571 -2.7771 57.5126 7.0612
# 6 -44.9578 -22.4052 -24.3731 -0.3244 7.0612 35.5260
#
#
#
# Elastic Compliance Matrix: (Units=1/GPa)
#
#
# Indices 1 2 3 4 5 6 
#
# 1 0.006992 -0.000749 -0.003423 -0.006571 0.001875 0.005595
# 2 -0.000749 0.025203 0.001018 0.006992 0.002079 0.015295
# 3 -0.003423 0.001018 0.010875 0.007984 0.000544 0.003736
# 4 -0.006571 0.006992 0.007984 0.051386 0.001510 0.001741
# 5 0.001875 0.002079 0.000544 0.001510 0.018843 0.000326
# 6 0.005595 0.015295 0.003736 0.001741 0.000326 0.047389
#
#
# Mechanical properties :
#
#
# Convention : Reuss Voigt Hill
#
# Bulk Modulus (GPa) = 27.20355 75.62903 51.41629
# Shear Modulus (GPa) = 27.89411 44.14803 36.02107
#
# Velocity S-wave (km/s) = 3.32116 4.17821 3.77409
# Velocity P-wave (km/s) = 5.04618 7.29263 6.27082
#
# Compressibility (1/GPa) = 0.03675991
#
# Stress axis : x y z
#
# Youngs Moduli (GPa) = 143.02385 39.67859 91.95496
#
# Poissons Ratio (x) = 0.02974 0.31474
# Poissons Ratio (y) = 0.10719 -0.09357
# Poissons Ratio (z) = 0.48953 -0.04038
#
# Static dielectric constant tensor:
#      x y z
#    x 2.117110 0.125190 0.067140 
#    y 0.125190 2.193710 0.105960 
#    z 0.067140 0.105960 2.065840 
# 
# From -- ./inp_files/348307.got.cif
#   From: 2010.05.17/outbox.cif.g08.bks.cpg/sg2_175_cif.got.tgz:348307.got - 2010.06.03 11:33:40.
