data_PCOD9105968
_publ_section_title
;
Structure prediction by ZEFSAII (Michael W. Deem and Ramdas Pophale) SiO2 
 PCOD9105968
Probable space group: P -1
;
_chemical_formula_sum "Si O2"
_cell_formula_units_Z 16
_cell_length_a 9.509981
_cell_length_b 8.536979
_cell_length_c 12.723817
_cell_angle_alpha 83.851932
_cell_angle_beta 134.097012
_cell_angle_gamma 91.340474
_cell_volume 735.702969
_symmetry_space_group_name_H-M "P -1"
_symmetry_group_IT_number 2
_symmetry_cell_setting 'triclinic'
loop_
_space_group_symop_operation_xyz
x,y,z
-x,-y,-z
loop_
_atom_site_type_symbol
_atom_site_label
_atom_site_fract_x
_atom_site_fract_y
_atom_site_fract_z
Si Si1 0.184313 0.428572 0.662535
Si Si2 0.434666 0.233043 0.648889
Si Si3 0.703721 0.581619 0.626841
Si Si4 0.829949 0.639201 0.916692
Si Si5 0.127751 0.754032 0.210336
Si Si6 0.717039 0.081718 0.310227
Si Si7 0.526306 0.376016 0.115342
Si Si8 0.973864 0.131773 0.633555
O O1 0.365664 0.365688 0.688265
O O2 0.256889 0.578613 0.746073
O O3 0.000000 0.500000 0.500000
O O4 0.117810 0.275582 0.698629
O O5 0.299561 0.285572 0.474080
O O6 0.663077 0.231710 0.738321
O O7 0.381201 0.068611 0.681484
O O8 0.500000 0.500000 0.500000
O O9 0.730699 0.662777 0.748457
O O10 0.856247 0.426119 0.719319
O O11 0.656884 0.590794 0.905322
O O12 0.000000 0.500000 0.000000
O O13 0.949063 0.767423 0.033134
O O14 0.105041 0.871392 0.289084
O O15 0.561327 0.187132 0.151985
O O16 0.804168 0.162033 0.454796
O O17 0.896896 0.018608 0.333784
O O18 0.500000 0.500000 0.000000
#
# Coordination Sequence:
#
# PCOD9105968 Si02
#       8
#     2   2   2   2   2   2   2   2
#     4  11  20  38  68  94 125 169 223 271 321 394
#     4  10  22  39  67  97 128 173 223 271 334 384
#     4   9  18  34  65  99 126 167 217 268 313 382
#     4  10  22  42  62  98 140 162 216 276 324 388
#     4  10  20  39  66  96 132 179 218 266 328 396
#     4  10  24  43  63  98 135 169 224 285 325 397
#     4  12  25  43  68  96 127 174 222 272 335 395
#     4  10  21  41  65  96 134 169 224 274 337 388
#
# _framework density 21.747909
#
# number of rings (size 3 to 8) (size 9 to 14) (size 15 to 20)
#    0.000    1.750    1.250    3.750    3.500    1.500 
#    0.000    6.250    2.750    0.000    0.000    0.000 
#    0.000    0.000    0.000    0.000    0.000    0.000 
#
# Total GULP energy -89101.181217 kJ/mol
# GULP energy per Si atom -5568.823826 kJ/mol
# Density = 2.169841 g / cm^3
# Si number density = 21.747909 Si / 1000 Ang^3
#
#
#
# Elastic Constant Matrix: (Units=GPa)
#
#
# Indices 1 2 3 4 5 6 
#
# 1 78.5230 19.7856 5.9899 -6.2908 8.4420 -4.6031
# 2 19.7856 59.9084 26.0475 -13.8065 -8.0683 6.3385
# 3 5.9899 26.0475 87.4447 -7.3018 0.1049 4.4333
# 4 -6.2908 -13.8065 -7.3018 37.8375 5.9403 -6.6549
# 5 8.4420 -8.0683 0.1049 5.9403 29.6015 3.5147
# 6 -4.6031 6.3385 4.4333 -6.6549 3.5147 22.7486
#
#
#
# Elastic Compliance Matrix: (Units=1/GPa)
#
#
# Indices 1 2 3 4 5 6 
#
# 1 0.015821 -0.006709 0.000804 0.002766 -0.007720 0.006916
# 2 -0.006709 0.024410 -0.006127 0.004000 0.008632 -0.007128
# 3 0.000804 -0.006127 0.013280 0.000756 -0.002077 -0.000176
# 4 0.002766 0.004000 0.000756 0.031291 -0.007115 0.009551
# 5 -0.007720 0.008632 -0.002077 -0.007115 0.041197 -0.012009
# 6 0.006916 -0.007128 -0.000176 0.009551 -0.012009 0.052028
#
#
# Mechanical properties :
#
#
# Convention : Reuss Voigt Hill
#
# Bulk Modulus (GPa) = 33.95650 36.61357 35.28504
# Shear Modulus (GPa) = 23.59532 29.64106 26.61819
#
# Velocity S-wave (km/s) = 3.29743 3.69580 3.50228
# Velocity P-wave (km/s) = 5.49044 5.92317 5.71091
#
# Compressibility (1/GPa) = 0.02944944
#
# Stress axis : x y z
#
# Youngs Moduli (GPa) = 63.20664 40.96651 75.30000
#
# Poissons Ratio (x) = 0.27483 -0.06056
# Poissons Ratio (y) = 0.42404 0.46133
# Poissons Ratio (z) = -0.05083 0.25098
#
# Static dielectric constant tensor:
#      x y z
#    x 1.795670 -0.005590 -0.018910 
#    y -0.005590 1.823990 0.069730 
#    z -0.018910 0.069730 1.801270 
# 
# From -- ./inp_files/382109.got.cif
#   From: 2010.05.17/outbox.cif.g08.bks.cpg/sg2_192_cif.got.tgz:382109.got - 2010.06.03 11:33:40.
