data_PCOD9105980
_publ_section_title
;
Structure prediction by ZEFSAII (Michael W. Deem and Ramdas Pophale) SiO2 
 PCOD9105980
Probable space group: P -1
;
_chemical_formula_sum "Si O2"
_cell_formula_units_Z 16
_cell_length_a 11.646547
_cell_length_b 15.317182
_cell_length_c 14.842362
_cell_angle_alpha 140.461376
_cell_angle_beta 30.773260
_cell_angle_gamma 119.392849
_cell_volume 732.654348
_symmetry_space_group_name_H-M "P -1"
_symmetry_group_IT_number 2
_symmetry_cell_setting 'triclinic'
loop_
_space_group_symop_operation_xyz
x,y,z
-x,-y,-z
loop_
_atom_site_type_symbol
_atom_site_label
_atom_site_fract_x
_atom_site_fract_y
_atom_site_fract_z
Si Si1 0.327402 0.187270 0.789923
Si Si2 0.047966 0.821497 0.830137
Si Si3 0.785501 0.311005 0.756915
Si Si4 0.979797 0.695193 0.091098
Si Si5 0.334405 0.649106 0.329461
Si Si6 0.613744 0.886606 0.743722
Si Si7 0.429606 0.342251 0.534814
Si Si8 0.203120 0.989101 0.428776
O O1 0.115279 0.276174 0.924424
O O2 0.506382 0.263268 0.728170
O O3 0.500000 0.000000 0.500000
O O4 0.186599 0.190447 0.979069
O O5 0.111435 0.751031 0.632062
O O6 0.303639 0.718830 0.639324
O O7 0.000000 0.000000 0.000000
O O8 0.785211 0.358655 0.691122
O O9 0.714486 0.173859 0.704724
O O10 0.072919 0.239218 0.549049
O O11 0.548444 0.475759 0.088770
O O12 0.769049 0.677949 0.280614
O O13 0.947700 0.857951 0.281951
O O14 0.264247 0.532474 0.776637
O O15 0.513381 0.772363 0.682531
O O16 0.587812 0.995725 0.761253
O O17 0.500000 0.000000 0.000000
O O18 0.000000 0.000000 0.500000
#
# Coordination Sequence:
#
# PCOD9105980 Si02
#       8
#     2   2   2   2   2   2   2   2
#     4  12  23  42  68  99 135 176 222 275 342 402
#     4  12  26  41  69 103 132 177 225 279 340 404
#     4  10  23  45  66  91 130 183 223 267 344 393
#     4  10  20  39  66  97 131 175 218 282 336 393
#     4  11  24  46  68  94 136 175 224 284 324 404
#     4  10  22  39  65  97 134 175 217 275 330 405
#     4  10  22  40  67  99 136 172 223 281 335 395
#     4   9  20  36  62  88 122 174 219 255 327 398
#
# _framework density 21.8384
#
# number of rings (size 3 to 8) (size 9 to 14) (size 15 to 20)
#    0.000    1.500    2.500    1.500    7.000    2.500 
#    4.500    1.250    0.000    0.000    0.000    0.000 
#    0.000    0.000    0.000    0.000    0.000    0.000 
#
# Total GULP energy -89425.848676 kJ/mol
# GULP energy per Si atom -5589.115542 kJ/mol
# Density = 2.178869 g / cm^3
# Si number density = 21.838400 Si / 1000 Ang^3
#
#
#
# Elastic Constant Matrix: (Units=GPa)
#
#
# Indices 1 2 3 4 5 6 
#
# 1 47.0486 -3.5162 -4.1092 -9.3036 3.9055 -12.1879
# 2 -3.5162 80.0127 32.5409 11.6316 4.6207 -7.3318
# 3 -4.1092 32.5409 82.3789 1.5242 13.9945 -16.2636
# 4 -9.3036 11.6316 1.5242 36.3948 -9.2760 0.2713
# 5 3.9055 4.6207 13.9945 -9.2760 46.4650 2.5137
# 6 -12.1879 -7.3318 -16.2636 0.2713 2.5137 31.2292
#
#
#
# Elastic Compliance Matrix: (Units=1/GPa)
#
#
# Indices 1 2 3 4 5 6 
#
# 1 0.026272 -0.000065 0.004240 0.005693 -0.003026 0.012640
# 2 -0.000065 0.015710 -0.005827 -0.005014 -0.000843 0.000740
# 3 0.004240 -0.005827 0.017502 0.000756 -0.005429 0.009832
# 4 0.005693 -0.005014 0.000756 0.032067 0.006158 0.000664
# 5 -0.003026 -0.000843 -0.005429 0.006158 0.025064 -0.006277
# 6 0.012640 0.000740 0.009832 0.000664 -0.006277 0.042748
#
#
# Mechanical properties :
#
#
# Convention : Reuss Voigt Hill
#
# Bulk Modulus (GPa) = 17.79968 28.80792 23.30380
# Shear Modulus (GPa) = 27.56462 35.11946 31.34204
#
# Velocity S-wave (km/s) = 3.55661 4.01453 3.79249
# Velocity P-wave (km/s) = 5.00343 5.89140 5.46548
#
# Compressibility (1/GPa) = 0.05618079
#
# Stress axis : x y z
#
# Youngs Moduli (GPa) = 38.06391 63.65235 57.13760
#
# Poissons Ratio (x) = 0.00411 -0.24228
# Poissons Ratio (y) = 0.00246 0.33294
# Poissons Ratio (z) = -0.16140 0.37090
#
# Static dielectric constant tensor:
#      x y z
#    x -6.239220 -13.796960 4.897080 
#    y -13.796960 -21.828570 8.369090 
#    z 4.897080 8.369090 -1.187070 
# 
# From -- ./inp_files/522466.got.cif
#   From: 2010.05.17/outbox.cif.g08.bks.cpg/sg2_262_cif.got.tgz:522466.got - 2010.06.03 11:33:40.
