data_PCOD9105711
_publ_section_title
;
Structure prediction by ZEFSAII (Michael W. Deem and Ramdas Pophale) SiO2 
 PCOD9105711
Probable space group: P -1
;
_chemical_formula_sum "Si O2"
_cell_formula_units_Z 16
_cell_length_a 10.861260
_cell_length_b 9.017696
_cell_length_c 17.658085
_cell_angle_alpha 92.609922
_cell_angle_beta 29.162760
_cell_angle_gamma 72.674693
_cell_volume 606.592796
_symmetry_space_group_name_H-M "P -1"
_symmetry_group_IT_number 2
_symmetry_cell_setting 'triclinic'
loop_
_space_group_symop_operation_xyz
x,y,z
-x,-y,-z
loop_
_atom_site_type_symbol
_atom_site_label
_atom_site_fract_x
_atom_site_fract_y
_atom_site_fract_z
Si Si1 0.623034 0.114021 0.416821
Si Si2 0.711552 0.186883 0.102373
Si Si3 0.656166 0.902167 0.060525
Si Si4 0.403491 0.543757 0.192539
Si Si5 0.597023 0.216233 0.675248
Si Si6 0.608113 0.534070 0.343369
Si Si7 0.807284 0.107011 0.777606
Si Si8 0.769548 0.587763 0.497473
O O1 0.426722 0.325034 0.572812
O O2 0.501635 0.196873 0.398991
O O3 0.500000 0.000000 0.500000
O O4 0.011406 0.964608 0.240357
O O5 0.750693 0.316596 0.031419
O O6 0.394027 0.362077 0.330891
O O7 0.593245 0.097370 0.114337
O O8 0.000000 0.000000 0.000000
O O9 0.539375 0.856323 0.197455
O O10 0.443629 0.926337 0.105274
O O11 0.063543 0.704392 0.824408
O O12 0.280631 0.701562 0.331848
O O13 0.415267 0.656686 0.120206
O O14 0.127466 0.532030 0.312969
O O15 0.327177 0.407518 0.768927
O O16 0.879517 0.041849 0.457462
O O17 0.271356 0.562071 0.517928
#
# Coordination Sequence:
#
# PCOD9105711 Si02
#       8
#     2   2   2   2   2   2   2   2
#     4  11  25  47  67  91 124 175 233 261 309 383
#     4  12  24  39  64 103 138 160 202 268 339 385
#     4  11  22  40  63  99 133 167 210 264 335 380
#     4  11  21  38  65  96 128 163 213 265 317 386
#     4  10  20  39  65  95 132 167 213 262 329 384
#     4  11  24  41  63  96 131 171 209 271 326 379
#     4  10  22  42  67  95 126 177 219 264 313 385
#     4  12  23  42  66  94 133 170 217 264 319 386
#
# _framework density 26.376839
#
# number of rings (size 3 to 8) (size 9 to 14) (size 15 to 20)
#    0.000    1.000    3.750    4.125    5.250    1.000 
#    0.000    2.500    0.000    0.000    0.000    0.000 
#    0.000    0.000    0.000    0.000    0.000    0.000 
#
# Total GULP energy -89527.736711 kJ/mol
# GULP energy per Si atom -5595.483544 kJ/mol
# Density = 2.631680 g / cm^3
# Si number density = 26.376839 Si / 1000 Ang^3
#
#
#
# Elastic Constant Matrix: (Units=GPa)
#
#
# Indices 1 2 3 4 5 6 
#
# 1 123.9206 51.4349 26.0115 -3.4974 -3.3959 1.8972
# 2 51.4349 162.7351 20.0298 18.1069 3.4107 -3.5511
# 3 26.0115 20.0298 38.0146 1.5149 -1.8949 -0.7736
# 4 -3.4974 18.1069 1.5149 39.4908 -7.2399 -12.8473
# 5 -3.3959 3.4107 -1.8949 -7.2399 36.2116 11.3744
# 6 1.8972 -3.5511 -0.7736 -12.8473 11.3744 63.6811
#
#
#
# Elastic Compliance Matrix: (Units=1/GPa)
#
#
# Indices 1 2 3 4 5 6 
#
# 1 0.010647 -0.003005 -0.005737 0.002743 0.001621 -0.000291
# 2 -0.003005 0.007844 -0.002009 -0.004139 -0.001959 0.000017
# 3 -0.005737 -0.002009 0.031371 -0.000539 0.001145 0.000127
# 4 0.002743 -0.004139 -0.000539 0.029987 0.005100 0.004820
# 5 0.001621 -0.001959 0.001145 0.005100 0.030463 -0.004556
# 6 -0.000291 0.000017 0.000127 0.004820 -0.004556 0.017500
#
#
# Mechanical properties :
#
#
# Convention : Reuss Voigt Hill
#
# Bulk Modulus (GPa) = 35.26008 57.73587 46.49797
# Shear Modulus (GPa) = 31.49273 43.02296 37.25785
#
# Velocity S-wave (km/s) = 3.45911 4.04306 3.76243
# Velocity P-wave (km/s) = 5.41764 6.61297 6.04492
#
# Compressibility (1/GPa) = 0.02836068
#
# Stress axis : x y z
#
# Youngs Moduli (GPa) = 93.92073 127.48748 31.87671
#
# Poissons Ratio (x) = 0.38306 0.18287
# Poissons Ratio (y) = 0.28220 0.06405
# Poissons Ratio (z) = 0.53879 0.25616
#
# Static dielectric constant tensor:
#      x y z
#    x 2.050110 -0.041080 -0.006230 
#    y -0.041080 2.027080 0.026250 
#    z -0.006230 0.026250 2.110290 
# 
# From -- ./inp_files/593588.got.cif
#   From: 2010.05.17/outbox.cif.g08.bks.cpg/sg2_297_cif.got.tgz:593588.got - 2010.06.03 11:33:40.
