data_PCOD9105510
_publ_section_title
;
Structure prediction by ZEFSAII (Michael W. Deem and Ramdas Pophale) SiO2 
 PCOD9105510
Probable space group: P -1
;
_chemical_formula_sum "Si O2"
_cell_formula_units_Z 16
_cell_length_a 8.243686
_cell_length_b 9.301677
_cell_length_c 18.563868
_cell_angle_alpha 65.035335
_cell_angle_beta 46.702270
_cell_angle_gamma 47.811531
_cell_volume 765.661052
_symmetry_space_group_name_H-M "P -1"
_symmetry_group_IT_number 2
_symmetry_cell_setting 'triclinic'
loop_
_space_group_symop_operation_xyz
x,y,z
-x,-y,-z
loop_
_atom_site_type_symbol
_atom_site_label
_atom_site_fract_x
_atom_site_fract_y
_atom_site_fract_z
Si Si1 0.819527 0.599920 0.604989
Si Si2 0.032134 0.124599 0.521538
Si Si3 0.043484 0.295752 0.200701
Si Si4 0.448873 0.421763 0.603795
Si Si5 0.866512 0.731773 0.296896
Si Si6 0.369086 0.457203 0.113449
Si Si7 0.574334 0.472455 0.202887
Si Si8 0.062268 0.920764 0.283498
O O1 0.533292 0.626872 0.692247
O O2 0.000000 0.500000 0.500000
O O3 0.989993 0.445204 0.650163
O O4 0.794994 0.798841 0.576064
O O5 0.272670 0.678394 0.417057
O O6 0.000000 0.000000 0.500000
O O7 0.089045 0.037284 0.602167
O O8 0.818742 0.411552 0.308139
O O9 0.869100 0.403471 0.157995
O O10 0.293747 0.309528 0.141691
O O11 0.120187 0.080176 0.219577
O O12 0.500000 0.500000 0.500000
O O13 0.405479 0.252039 0.639334
O O14 0.068649 0.647656 0.185382
O O15 0.867213 0.905979 0.291341
O O16 0.544687 0.416539 0.141997
O O17 0.500000 0.500000 0.000000
O O18 0.349342 0.705382 0.232129
#
# Coordination Sequence:
#
# PCOD9105510 Si02
#       8
#     2   2   2   2   2   2   2   2
#     4  10  16  34  52  75 117 158 192 237 285 343
#     4  12  22  31  51  83 122 162 204 242 284 344
#     4  11  22  40  64  89 121 160 204 249 301 365
#     4  11  20  34  54  83 119 165 205 242 293 352
#     4   9  20  35  57  81 118 158 197 248 298 353
#     4   9  21  42  67  92 119 154 202 255 310 366
#     4  10  22  40  63  86 123 165 195 251 308 353
#     4  10  21  38  55  86 120 156 207 249 291 358
#
# _framework density 20.896975999999999
#
# number of rings (size 3 to 8) (size 9 to 14) (size 15 to 20)
#    0.000    2.000    5.000    0.750    3.500    1.500 
#    0.000    4.375    0.000    3.750    0.000    0.000 
#    0.000    0.000    0.000    0.000    0.000    0.000 
#
# Total GULP energy -89199.873263 kJ/mol
# GULP energy per Si atom -5574.992079 kJ/mol
# Density = 2.084941 g / cm^3
# Si number density = 20.896976 Si / 1000 Ang^3
#
#
#
# Elastic Constant Matrix: (Units=GPa)
#
#
# Indices 1 2 3 4 5 6 
#
# 1 107.0325 43.5041 41.3699 -3.9012 5.2501 36.2616
# 2 43.5041 119.0403 27.9344 -9.6240 -4.4380 42.6796
# 3 41.3699 27.9344 116.7837 -14.2657 5.1506 18.3055
# 4 -3.9012 -9.6240 -14.2657 12.5651 3.8764 -5.3638
# 5 5.2501 -4.4380 5.1506 3.8764 22.5601 1.1260
# 6 36.2616 42.6796 18.3055 -5.3638 1.1260 44.9090
#
#
#
# Elastic Compliance Matrix: (Units=1/GPa)
#
#
# Indices 1 2 3 4 5 6 
#
# 1 0.014445 -0.001521 -0.003785 -0.004399 -0.001584 -0.009161
# 2 -0.001521 0.013424 -0.000680 0.003416 0.003108 -0.010922
# 3 -0.003785 -0.000680 0.011778 0.013238 -0.004246 0.000589
# 4 -0.004399 0.003416 0.013238 0.105397 -0.019835 0.007995
# 5 -0.001584 0.003108 -0.004246 -0.019835 0.049861 -0.003564
# 6 -0.009161 -0.010922 0.000589 0.007995 -0.003564 0.040848
#
#
# Mechanical properties :
#
#
# Convention : Reuss Voigt Hill
#
# Bulk Modulus (GPa) = 36.13280 63.16370 49.64825
# Shear Modulus (GPa) = 19.45894 31.34339 25.40116
#
# Velocity S-wave (km/s) = 3.05484 3.87706 3.49025
# Velocity P-wave (km/s) = 5.45630 7.09464 6.32871
#
# Compressibility (1/GPa) = 0.02767568
#
# Stress axis : x y z
#
# Youngs Moduli (GPa) = 69.22754 74.49386 84.90239
#
# Poissons Ratio (x) = 0.11331 0.32134
# Poissons Ratio (y) = 0.10530 0.05772
# Poissons Ratio (z) = 0.26201 0.05065
#
# Static dielectric constant tensor:
#      x y z
#    x 1.856010 -0.044920 0.042520 
#    y -0.044920 2.049470 -0.145450 
#    z 0.042520 -0.145450 1.837800 
# 
# From -- ./inp_files/557093.got.cif
#   From: 2010.05.17/outbox.cif.g08.bks.cpg/sg2_279_cif.got.tgz:557093.got - 2010.06.03 11:33:40.
