data_PCOD9105840
_publ_section_title
;
Structure prediction by ZEFSAII (Michael W. Deem and Ramdas Pophale) SiO2 
 PCOD9105840
Probable space group: P -1
;
_chemical_formula_sum "Si O2"
_cell_formula_units_Z 16
_cell_length_a 7.623418
_cell_length_b 11.893524
_cell_length_c 13.897284
_cell_angle_alpha 147.143654
_cell_angle_beta 72.294306
_cell_angle_gamma 98.110284
_cell_volume 635.088527
_symmetry_space_group_name_H-M "P -1"
_symmetry_group_IT_number 2
_symmetry_cell_setting 'triclinic'
loop_
_space_group_symop_operation_xyz
x,y,z
-x,-y,-z
loop_
_atom_site_type_symbol
_atom_site_label
_atom_site_fract_x
_atom_site_fract_y
_atom_site_fract_z
Si Si1 0.796184 0.470124 0.275557
Si Si2 0.475415 0.128039 0.333374
Si Si3 0.919506 0.330626 0.497203
Si Si4 0.732797 0.741085 0.737837
Si Si5 0.508273 0.749385 0.181471
Si Si6 0.777102 0.077377 0.111934
Si Si7 0.076292 0.414866 0.028472
Si Si8 0.156631 0.835887 0.416299
O O1 0.634385 0.685122 0.443497
O O2 0.715965 0.296032 0.221031
O O3 0.953516 0.533446 0.364935
O O4 0.907241 0.367789 0.088245
O O5 0.385641 0.202179 0.297972
O O6 0.696578 0.100299 0.250274
O O7 0.435155 0.904770 0.215249
O O8 0.748923 0.506458 0.608523
O O9 0.877605 0.169110 0.467881
O O10 0.058897 0.244851 0.325462
O O11 0.687270 0.899654 0.947749
O O12 0.368118 0.847888 0.361478
O O13 0.500000 0.500000 0.000000
O O14 0.729036 0.749585 0.145578
O O15 0.000000 0.000000 0.000000
O O16 0.133191 0.607390 0.216316
O O17 0.000000 0.500000 0.000000
O O18 0.000000 0.000000 0.500000
#
# Coordination Sequence:
#
# PCOD9105840 Si02
#       8
#     2   2   2   2   2   2   2   2
#     4  10  21  41  63  88 130 168 204 259 323 374
#     4  11  24  43  63  91 127 166 213 261 319 373
#     4   9  19  38  63  91 130 161 206 258 311 364
#     4  10  21  38  63  92 126 164 208 258 305 375
#     4  10  22  39  65  92 119 164 215 262 313 377
#     4  12  23  38  62  91 127 167 209 255 318 374
#     4  10  22  41  63  89 125 161 208 265 316 374
#     4  10  20  39  66  90 124 169 206 259 314 372
#
# _framework density 25.193339000000002
#
# number of rings (size 3 to 8) (size 9 to 14) (size 15 to 20)
#    0.000    1.750    1.250    3.750    3.500    3.000 
#    2.250    2.500    0.000    0.000    0.000    0.000 
#    0.000    0.000    0.000    0.000    0.000    0.000 
#
# Total GULP energy -89401.698117 kJ/mol
# GULP energy per Si atom -5587.606132 kJ/mol
# Density = 2.513600 g / cm^3
# Si number density = 25.193339 Si / 1000 Ang^3
#
#
#
# Elastic Constant Matrix: (Units=GPa)
#
#
# Indices 1 2 3 4 5 6 
#
# 1 53.4798 30.3263 27.5421 -2.3321 -19.2194 -1.1176
# 2 30.3263 200.2407 60.4359 -6.2884 -24.5446 5.2903
# 3 27.5421 60.4359 109.3388 -11.9453 -27.6488 7.4246
# 4 -2.3321 -6.2884 -11.9453 45.3455 1.5143 -1.5581
# 5 -19.2194 -24.5446 -27.6488 1.5143 47.5054 0.3268
# 6 -1.1176 5.2903 7.4246 -1.5581 0.3268 38.3256
#
#
#
# Elastic Compliance Matrix: (Units=1/GPa)
#
#
# Indices 1 2 3 4 5 6 
#
# 1 0.023948 -0.001804 -0.003446 -0.000098 0.006743 0.001553
# 2 -0.001804 0.006210 -0.002724 0.000007 0.000895 -0.000389
# 3 -0.003446 -0.002724 0.013175 0.002680 0.004796 -0.002209
# 4 -0.000098 0.000007 0.002680 0.022742 0.000796 0.000395
# 5 0.006743 0.000895 0.004796 0.000796 0.027014 -0.001054
# 6 0.001553 -0.000389 -0.002209 0.000395 -0.001054 0.026644
#
#
# Mechanical properties :
#
#
# Convention : Reuss Voigt Hill
#
# Bulk Modulus (GPa) = 36.51802 66.62975 51.57388
# Shear Modulus (GPa) = 34.52781 42.55232 38.54006
#
# Velocity S-wave (km/s) = 3.70606 4.11424 3.91547
# Velocity P-wave (km/s) = 5.73060 7.00529 6.39976
#
# Compressibility (1/GPa) = 0.02738374
#
# Stress axis : x y z
#
# Youngs Moduli (GPa) = 41.75690 161.03751 75.89951
#
# Poissons Ratio (x) = 0.29058 0.26156
# Poissons Ratio (y) = 0.07535 0.20677
# Poissons Ratio (z) = 0.14390 0.43870
#
# Static dielectric constant tensor:
#      x y z
#    x 2.064110 0.041500 -0.108640 
#    y 0.041500 1.971010 0.020650 
#    z -0.108640 0.020650 2.000550 
# 
# From -- ./inp_files/494831.got.cif
#   From: 2010.05.17/outbox.cif.g08.bks.cpg/sg2_248_cif.got.tgz:494831.got - 2010.06.03 11:33:40.
