data_PCOD9105125
_publ_section_title
;
Structure prediction by ZEFSAII (Michael W. Deem and Ramdas Pophale) SiO2 
 PCOD9105125
Probable space group: P -1
;
_chemical_formula_sum "Si O2"
_cell_formula_units_Z 13
_cell_length_a 5.503704
_cell_length_b 22.505085
_cell_length_c 4.875399
_cell_angle_alpha 88.857093
_cell_angle_beta 93.037190
_cell_angle_gamma 123.484472
_cell_volume 502.913053
_symmetry_space_group_name_H-M "P -1"
_symmetry_group_IT_number 2
_symmetry_cell_setting 'triclinic'
loop_
_space_group_symop_operation_xyz
x,y,z
-x,-y,-z
loop_
_atom_site_type_symbol
_atom_site_label
_atom_site_fract_x
_atom_site_fract_y
_atom_site_fract_z
Si Si1 0.469970 0.881761 0.800194
Si Si2 0.000000 0.000000 0.000000
Si Si3 0.285109 0.929788 0.317741
Si Si4 0.170654 0.350446 0.568323
Si Si5 0.188641 0.484769 0.715856
Si Si6 0.369753 0.618186 0.992301
Si Si7 0.780815 0.277573 0.067800
O O1 0.249675 0.872424 0.545561
O O2 0.398682 0.806019 0.893144
O O3 0.807993 0.939153 0.751517
O O4 0.450356 0.922333 0.065938
O O5 0.049004 0.941189 0.168640
O O6 0.500000 0.000000 0.500000
O O7 0.254232 0.431428 0.580309
O O8 0.443095 0.355007 0.723154
O O9 0.064299 0.313039 0.275123
O O10 0.899634 0.301793 0.764675
O O11 0.000000 0.500000 0.500000
O O12 0.971839 0.434398 0.948389
O O13 0.419387 0.561731 0.851200
O O14 0.387313 0.685273 0.855122
#
# Coordination Sequence:
#
# PCOD9105125 Si02
#       7
#     2   1   2   2   2   2   2
#     4  11  24  41  64  94 130 162 207 260 310 373
#     4  10  22  42  70  94 120 164 202 254 316 366
#     4  10  22  41  64  95 124 153 203 256 304 372
#     4  11  24  41  64  88 127 173 211 259 319 368
#     4  10  20  39  63  92 125 159 218 274 303 363
#     4  10  23  40  61  92 125 168 214 260 317 369
#     4  11  25  42  59  92 130 166 211 259 307 381
#
# _framework density 25.849398000000001
#
# number of rings (size 3 to 8) (size 9 to 14) (size 15 to 20)
#    0.000    1.538    1.538    3.231    2.154    8.615 
#    0.000    0.000    0.000    0.000    0.000    0.000 
#    0.000    0.000    0.000    0.000    0.000    0.000 
#
# Total GULP energy -72442.151065 kJ/mol
# GULP energy per Si atom -5572.473159 kJ/mol
# Density = 2.579056 g / cm^3
# Si number density = 25.849398 Si / 1000 Ang^3
#
#
#
# Elastic Constant Matrix: (Units=GPa)
#
#
# Indices 1 2 3 4 5 6 
#
# 1 58.6133 12.9530 27.4175 -3.5600 9.0718 -17.9250
# 2 12.9530 167.7608 11.0629 -21.2902 10.2483 -17.3373
# 3 27.4175 11.0629 125.5808 -5.9387 19.6779 -19.4305
# 4 -3.5600 -21.2902 -5.9387 44.8645 -7.0043 10.8731
# 5 9.0718 10.2483 19.6779 -7.0043 64.3074 -0.1963
# 6 -17.9250 -17.3373 -19.4305 10.8731 -0.1963 29.7777
#
#
#
# Elastic Compliance Matrix: (Units=1/GPa)
#
#
# Indices 1 2 3 4 5 6 
#
# 1 0.022405 -0.000405 -0.002671 -0.002127 -0.002473 0.012269
# 2 -0.000405 0.006620 0.000185 0.002311 -0.000794 0.002882
# 3 -0.002671 0.000185 0.009694 -0.000461 -0.002654 0.004976
# 4 -0.002127 0.002311 -0.000461 0.025954 0.002870 -0.009694
# 5 -0.002473 -0.000794 -0.002654 0.002870 0.017136 -0.004618
# 6 0.012269 0.002882 0.004976 -0.009694 -0.004618 0.049402
#
#
# Mechanical properties :
#
#
# Convention : Reuss Voigt Hill
#
# Bulk Modulus (GPa) = 30.36053 50.53575 40.44814
# Shear Modulus (GPa) = 33.79032 47.82468 40.80750
#
# Velocity S-wave (km/s) = 3.61944 4.30598 3.97755
# Velocity P-wave (km/s) = 5.40720 6.65691 6.06433
#
# Compressibility (1/GPa) = 0.03293750
#
# Stress axis : x y z
#
# Youngs Moduli (GPa) = 44.63205 151.06722 103.15852
#
# Poissons Ratio (x) = 0.06114 0.27551
# Poissons Ratio (y) = 0.01806 -0.01906
# Poissons Ratio (z) = 0.11920 -0.02792
#
# Static dielectric constant tensor:
#      x y z
#    x -0.765330 -1.204050 0.466270 
#    y -1.204050 1.527500 0.166790 
#    z 0.466270 0.166790 1.980770 
# 
# From -- ./inp_files/6929.got.cif
#   From: 2010.05.17/outbox.cif.g08.bks.cpg/sg2_4_cif.got.tgz:6929.got - 2010.06.03 11:33:40.
