data_PCOD9105693
_publ_section_title
;
Structure prediction by ZEFSAII (Michael W. Deem and Ramdas Pophale) SiO2 
 PCOD9105693
Probable space group: P -1
;
_chemical_formula_sum "Si O2"
_cell_formula_units_Z 16
_cell_length_a 9.328185
_cell_length_b 13.152796
_cell_length_c 16.131270
_cell_angle_alpha 59.955139
_cell_angle_beta 24.849134
_cell_angle_gamma 60.471644
_cell_volume 715.904994
_symmetry_space_group_name_H-M "P -1"
_symmetry_group_IT_number 2
_symmetry_cell_setting 'triclinic'
loop_
_space_group_symop_operation_xyz
x,y,z
-x,-y,-z
loop_
_atom_site_type_symbol
_atom_site_label
_atom_site_fract_x
_atom_site_fract_y
_atom_site_fract_z
Si Si1 0.315004 0.882612 0.156705
Si Si2 0.855720 0.250365 0.853864
Si Si3 0.031020 0.532048 0.860764
Si Si4 0.924640 0.875189 0.050423
Si Si5 0.074989 0.294499 0.016778
Si Si6 0.894335 0.663590 0.715751
Si Si7 0.847498 0.109435 0.588108
Si Si8 0.789582 0.483837 0.700083
O O1 0.144292 0.850753 0.173666
O O2 0.050581 0.894245 0.367487
O O3 0.605843 0.776084 0.073093
O O4 0.500000 0.000000 0.000000
O O5 0.948773 0.365952 0.711428
O O6 0.068715 0.210479 0.839066
O O7 0.465750 0.280657 0.078699
O O8 0.134272 0.629613 0.832495
O O9 0.075370 0.578725 0.726081
O O10 0.617836 0.526773 0.092241
O O11 0.190061 0.399742 0.854289
O O12 0.553010 0.900824 0.196626
O O13 0.105002 0.796486 0.911423
O O14 0.000000 0.000000 0.000000
O O15 0.817132 0.589192 0.706506
O O16 0.087307 0.771394 0.540164
O O17 0.000000 0.000000 0.500000
O O18 0.000000 0.500000 0.500000
#
# Coordination Sequence:
#
# PCOD9105693 Si02
#       8
#     2   2   2   2   2   2   2   2
#     4  11  21  39  67  90 124 166 210 262 311 380
#     4  11  21  42  62  92 121 168 214 250 323 373
#     4  10  21  39  66  93 126 170 210 265 319 381
#     4  11  23  41  65  90 125 168 213 265 317 380
#     4  10  20  39  65  95 121 164 223 254 319 380
#     4  11  21  39  66  90 128 164 212 262 316 379
#     4  11  25  42  63  96 125 164 215 264 318 378
#     4  11  22  37  60  94 130 166 205 259 317 379
#
# _framework density 22.349333999999999
#
# number of rings (size 3 to 8) (size 9 to 14) (size 15 to 20)
#    0.000    1.250    2.500    6.750    1.750    0.000 
#    4.500    3.750    0.000    0.000    0.000    0.000 
#    0.000    0.000    0.000    0.000    0.000    0.000 
#
# Total GULP energy -89361.390139 kJ/mol
# GULP energy per Si atom -5585.086884 kJ/mol
# Density = 2.229847 g / cm^3
# Si number density = 22.349334 Si / 1000 Ang^3
#
#
#
# Elastic Constant Matrix: (Units=GPa)
#
#
# Indices 1 2 3 4 5 6 
#
# 1 109.5088 33.2354 15.6069 5.3360 30.0170 20.5727
# 2 33.2354 117.9770 22.5082 -12.0650 6.4797 18.4306
# 3 15.6069 22.5082 59.4093 -10.5814 27.7710 9.3573
# 4 5.3360 -12.0650 -10.5814 27.1685 -0.0827 5.0321
# 5 30.0170 6.4797 27.7710 -0.0827 28.9005 -0.6393
# 6 20.5727 18.4306 9.3573 5.0321 -0.6393 53.5530
#
#
#
# Elastic Compliance Matrix: (Units=1/GPa)
#
#
# Indices 1 2 3 4 5 6 
#
# 1 0.018616 -0.004620 0.012503 0.000581 -0.030492 -0.008165
# 2 -0.004620 0.011036 -0.005736 0.003837 0.007818 -0.001288
# 3 0.012503 -0.005736 0.047612 0.015833 -0.057701 -0.013325
# 4 0.000581 0.003837 0.015833 0.046151 -0.016742 -0.008847
# 5 -0.030492 0.007818 -0.057701 -0.016742 0.120406 0.022116
# 6 -0.008165 -0.001288 -0.013325 -0.008847 0.022116 0.025676
#
#
# Mechanical properties :
#
#
# Convention : Reuss Voigt Hill
#
# Bulk Modulus (GPa) = 12.26113 47.73288 29.99700
# Shear Modulus (GPa) = 17.10051 36.29406 26.69729
#
# Velocity S-wave (km/s) = 2.76913 4.03419 3.45997
# Velocity P-wave (km/s) = 3.96512 6.56533 5.42336
#
# Compressibility (1/GPa) = 0.08155857
#
# Stress axis : x y z
#
# Youngs Moduli (GPa) = 53.71856 90.61017 21.00308
#
# Poissons Ratio (x) = 0.41861 -0.26261
# Poissons Ratio (y) = 0.24818 0.12047
# Poissons Ratio (z) = -0.67166 0.51974
#
# Static dielectric constant tensor:
#      x y z
#    x 1.858100 0.058070 0.032370 
#    y 0.058070 1.953550 0.082050 
#    z 0.032370 0.082050 1.865130 
# 
# From -- ./inp_files/270899.got.cif
#   From: 2010.05.17/outbox.cif.g08.bks.cpg/sg2_136_cif.got.tgz:270899.got - 2010.06.03 11:33:40.
