data_PCOD9105712
_publ_section_title
;
Structure prediction by ZEFSAII (Michael W. Deem and Ramdas Pophale) SiO2 
 PCOD9105712
Probable space group: P -1
;
_chemical_formula_sum "Si O2"
_cell_formula_units_Z 16
_cell_length_a 7.685101
_cell_length_b 16.279491
_cell_length_c 5.479123
_cell_angle_alpha 72.922564
_cell_angle_beta 102.739915
_cell_angle_gamma 96.998956
_cell_volume 637.935192
_symmetry_space_group_name_H-M "P -1"
_symmetry_group_IT_number 2
_symmetry_cell_setting 'triclinic'
loop_
_space_group_symop_operation_xyz
x,y,z
-x,-y,-z
loop_
_atom_site_type_symbol
_atom_site_label
_atom_site_fract_x
_atom_site_fract_y
_atom_site_fract_z
Si Si1 0.061366 0.339557 0.068627
Si Si2 0.005508 0.150993 0.445982
Si Si3 0.392052 0.623696 0.343534
Si Si4 0.639990 0.537794 0.815946
Si Si5 0.390603 0.824327 0.139704
Si Si6 0.932852 0.405792 0.474015
Si Si7 0.421195 0.902433 0.585123
Si Si8 0.004114 0.098272 0.996643
O O1 0.255493 0.386619 0.067758
O O2 0.026659 0.246012 0.255982
O O3 0.997091 0.395031 0.230575
O O4 0.988567 0.343641 0.767224
O O5 0.797600 0.114993 0.452448
O O6 0.088698 0.147721 0.744232
O O7 0.087092 0.099309 0.292745
O O8 0.579174 0.588171 0.509820
O O9 0.296843 0.551788 0.200755
O O10 0.390367 0.722190 0.182096
O O11 0.278889 0.613449 0.567170
O O12 0.500000 0.500000 0.000000
O O13 0.473031 0.849384 0.406995
O O14 0.190938 0.861679 0.061110
O O15 0.483505 0.868812 0.895208
O O16 0.000000 0.500000 0.500000
O O17 0.500000 0.000000 0.500000
O O18 0.000000 0.000000 0.000000
#
# Coordination Sequence:
#
# PCOD9105712 Si02
#       8
#     2   2   2   2   2   2   2   2
#     4  12  25  45  70 104 142 182 240 289 349 412
#     4  10  21  39  64  96 128 173 218 276 332 411
#     4  11  25  45  69 101 144 187 239 288 352 413
#     4  11  27  46  69  97 149 196 231 293 350 415
#     4  10  22  39  66  99 125 177 224 277 330 418
#     4  12  23  40  69 105 131 185 238 285 345 409
#     4  10  20  39  65  95 132 168 218 282 347 406
#     4  10  20  40  66  94 133 170 213 283 352 405
#
# _framework density 25.080915000000001
#
# number of rings (size 3 to 8) (size 9 to 14) (size 15 to 20)
#    0.000    1.250    1.250    5.625    5.250    0.000 
#    0.000    7.500    0.000    0.000    0.000    0.000 
#    0.000    0.000    0.000    0.000    0.000    0.000 
#
# Total GULP energy -89254.374234 kJ/mol
# GULP energy per Si atom -5578.398390 kJ/mol
# Density = 2.502383 g / cm^3
# Si number density = 25.080915 Si / 1000 Ang^3
#
#
#
# Elastic Constant Matrix: (Units=GPa)
#
#
# Indices 1 2 3 4 5 6 
#
# 1 28.7250 25.7823 27.6131 -16.1812 -0.6081 16.2465
# 2 25.7823 164.2118 42.5925 -29.4439 -3.5523 0.3403
# 3 27.6131 42.5925 193.3231 -12.3712 -18.0304 0.5355
# 4 -16.1812 -29.4439 -12.3712 58.7009 2.0637 -7.7262
# 5 -0.6081 -3.5523 -18.0304 2.0637 34.7295 -5.8303
# 6 16.2465 0.3403 0.5355 -7.7262 -5.8303 33.1668
#
#
#
# Elastic Compliance Matrix: (Units=1/GPa)
#
#
# Indices 1 2 3 4 5 6 
#
# 1 0.078715 -0.008021 -0.009736 0.011057 -0.011493 -0.037763
# 2 -0.008021 0.007852 -0.000351 0.002215 0.001115 0.004566
# 3 -0.009736 -0.000351 0.006977 -0.000855 0.004343 0.005224
# 4 0.011057 0.002215 -0.000855 0.020960 -0.001401 -0.000789
# 5 -0.011493 0.001115 0.004343 -0.001401 0.032892 0.011004
# 6 -0.037763 0.004566 0.005224 -0.000789 0.011004 0.050268
#
#
# Mechanical properties :
#
#
# Convention : Reuss Voigt Hill
#
# Bulk Modulus (GPa) = 17.44380 64.24839 40.84610
# Shear Modulus (GPa) = 19.76376 44.67090 32.21733
#
# Velocity S-wave (km/s) = 2.81018 4.22485 3.58793
# Velocity P-wave (km/s) = 4.18325 7.03358 5.78666
#
# Compressibility (1/GPa) = 0.05732695
#
# Stress axis : x y z
#
# Youngs Moduli (GPa) = 12.70414 127.35582 143.33705
#
# Poissons Ratio (x) = 1.02156 1.39548
# Poissons Ratio (y) = 0.10190 0.05032
# Poissons Ratio (z) = 0.12368 0.04471
#
# Static dielectric constant tensor:
#      x y z
#    x 2.068100 -0.136310 0.131480 
#    y -0.136310 1.804990 0.071990 
#    z 0.131480 0.071990 2.070120 
# 
# From -- ./inp_files/37475.got.cif
#   From: 2010.05.17/outbox.cif.g08.bks.cpg/sg2_19_cif.got.tgz:37475.got - 2010.06.03 11:33:40.
