data_PCOD9105639
_publ_section_title
;
Structure prediction by ZEFSAII (Michael W. Deem and Ramdas Pophale) SiO2 
 PCOD9105639
Probable space group: P -1
;
_chemical_formula_sum "Si O2"
_cell_formula_units_Z 14
_cell_length_a 6.588812
_cell_length_b 16.682106
_cell_length_c 7.342826
_cell_angle_alpha 126.592328
_cell_angle_beta 114.293876
_cell_angle_gamma 70.616634
_cell_volume 586.472814
_symmetry_space_group_name_H-M "P -1"
_symmetry_group_IT_number 2
_symmetry_cell_setting 'triclinic'
loop_
_space_group_symop_operation_xyz
x,y,z
-x,-y,-z
loop_
_atom_site_type_symbol
_atom_site_label
_atom_site_fract_x
_atom_site_fract_y
_atom_site_fract_z
Si Si1 0.263477 0.190080 0.979975
Si Si2 0.499752 0.022617 0.316988
Si Si3 0.700385 0.258239 0.136649
Si Si4 0.403425 0.530905 0.703346
Si Si5 0.781817 0.197919 0.680999
Si Si6 0.396338 0.364775 0.750436
Si Si7 0.126701 0.190114 0.342890
O O1 0.050723 0.190232 0.766475
O O2 0.412232 0.081533 0.886199
O O3 0.440754 0.266256 0.103537
O O4 0.170294 0.210779 0.174273
O O5 0.670736 0.103091 0.437285
O O6 0.252560 0.079903 0.270863
O O7 0.500000 0.000000 0.500000
O O8 0.763943 0.368633 0.262377
O O9 0.859918 0.206301 0.281171
O O10 0.724739 0.196182 0.874765
O O11 0.500000 0.500000 0.500000
O O12 0.317890 0.439293 0.657697
O O13 0.574538 0.570667 0.969583
O O14 0.640429 0.302540 0.708734
O O15 0.242704 0.276171 0.604110
#
# Coordination Sequence:
#
# PCOD9105639 Si02
#       7
#     2   2   2   2   2   2   2
#     4  11  21  39  63  88 121 166 207 248 303 366
#     4  11  21  40  60  88 123 161 205 255 302 360
#     4  10  21  39  61  89 123 161 201 254 304 364
#     4  10  20  39  65  93 122 158 208 250 311 373
#     4   9  20  40  61  88 125 161 202 255 308 352
#     4   9  20  41  63  89 128 160 198 263 305 363
#     4  10  23  41  60  87 124 161 203 252 307 361
#
# _framework density 23.871523
#
# number of rings (size 3 to 8) (size 9 to 14) (size 15 to 20)
#    0.000    2.000    1.429    1.714    0.000    1.143 
#   10.286    4.286    0.000    0.000    0.000    0.000 
#    0.000    0.000    0.000    0.000    0.000    0.000 
#
# Total GULP energy -78224.610917 kJ/mol
# GULP energy per Si atom -5587.472208 kJ/mol
# Density = 2.381719 g / cm^3
# Si number density = 23.871523 Si / 1000 Ang^3
#
#
#
# Elastic Constant Matrix: (Units=GPa)
#
#
# Indices 1 2 3 4 5 6 
#
# 1 76.4537 35.2289 12.7566 -7.1679 7.4495 -5.4058
# 2 35.2289 137.4239 16.7219 5.5463 13.3255 -11.7101
# 3 12.7566 16.7219 86.2835 16.1833 -13.4951 0.0025
# 4 -7.1679 5.5463 16.1833 33.2257 -1.9769 2.7313
# 5 7.4495 13.3255 -13.4951 -1.9769 29.4454 -15.3323
# 6 -5.4058 -11.7101 0.0025 2.7313 -15.3323 30.4311
#
#
#
# Elastic Compliance Matrix: (Units=1/GPa)
#
#
# Indices 1 2 3 4 5 6 
#
# 1 0.016183 -0.003650 -0.003397 0.005599 -0.004229 -0.001163
# 2 -0.003650 0.008866 -0.001301 -0.001931 -0.003099 0.001376
# 3 -0.003397 -0.001301 0.015465 -0.007824 0.010575 0.004925
# 4 0.005599 -0.001931 -0.007824 0.035600 -0.004434 -0.005177
# 5 -0.004229 -0.003099 0.010575 -0.004434 0.054466 0.025896
# 6 -0.001163 0.001376 0.004925 -0.005177 0.025896 0.046695
#
#
# Mechanical properties :
#
#
# Convention : Reuss Voigt Hill
#
# Bulk Modulus (GPa) = 41.98331 47.73066 44.85699
# Shear Modulus (GPa) = 24.76318 34.31735 29.54027
#
# Velocity S-wave (km/s) = 3.22429 3.79566 3.52158
# Velocity P-wave (km/s) = 5.61131 6.26479 5.94703
#
# Compressibility (1/GPa) = 0.02381899
#
# Stress axis : x y z
#
# Youngs Moduli (GPa) = 61.79187 112.78430 64.66048
#
# Poissons Ratio (x) = 0.41170 0.21963
# Poissons Ratio (y) = 0.22556 0.08413
# Poissons Ratio (z) = 0.20989 0.14674
#
# Static dielectric constant tensor:
#      x y z
#    x 1.956540 -0.012540 0.007640 
#    y -0.012540 1.936130 -0.028550 
#    z 0.007640 -0.028550 1.947820 
# 
# From -- ./inp_files/52136.got.cif
#   From: 2010.05.17/outbox.cif.g08.bks.cpg/sg2_27_cif.got.tgz:52136.got - 2010.06.03 11:33:40.
