data_PCOD9105387
_publ_section_title
;
Structure prediction by ZEFSAII (Michael W. Deem and Ramdas Pophale) SiO2 
 PCOD9105387
Probable space group: P -1
;
_chemical_formula_sum "Si O2"
_cell_formula_units_Z 12
_cell_length_a 8.767059
_cell_length_b 11.493759
_cell_length_c 8.275875
_cell_angle_alpha 117.838299
_cell_angle_beta 127.740641
_cell_angle_gamma 52.275027
_cell_volume 515.877134
_symmetry_space_group_name_H-M "P -1"
_symmetry_group_IT_number 2
_symmetry_cell_setting 'triclinic'
loop_
_space_group_symop_operation_xyz
x,y,z
-x,-y,-z
loop_
_atom_site_type_symbol
_atom_site_label
_atom_site_fract_x
_atom_site_fract_y
_atom_site_fract_z
Si Si1 0.921334 0.550576 0.663775
Si Si2 0.292791 0.917978 0.891523
Si Si3 0.441740 0.114336 0.277568
Si Si4 0.807024 0.148002 0.657345
Si Si5 0.304997 0.652277 0.604372
Si Si6 0.331822 0.558322 0.076498
O O1 0.737293 0.722461 0.674622
O O2 0.829347 0.436531 0.568987
O O3 0.000000 0.500000 0.500000
O O4 0.125933 0.532467 0.889662
O O5 0.484516 0.873811 0.852490
O O6 0.249725 0.776150 0.790620
O O7 0.063458 0.044165 0.757288
O O8 0.356559 0.992134 0.129146
O O9 0.656803 0.066422 0.495482
O O10 0.736257 0.248195 0.515388
O O11 0.743431 0.268019 0.834743
O O12 0.541137 0.530180 0.738413
O O13 0.500000 0.500000 0.000000
#
# Coordination Sequence:
#
# PCOD9105387 Si02
#       6
#     2   2   2   2   2   2
#     4  12  24  42  66  92 130 175 218 264 322 384
#     4  10  23  40  66  98 135 165 207 272 322 378
#     4  10  20  39  64  92 133 165 211 256 326 374
#     4  11  22  42  67  98 134 167 210 269 320 384
#     4  11  24  40  67 101 127 165 224 263 318 381
#     4  12  24  42  65  92 132 173 213 266 322 379
#
# _framework density 23.261354999999998
#
# number of rings (size 3 to 8) (size 9 to 14) (size 15 to 20)
#    0.000    1.000    5.000    2.500    2.333    6.000 
#    0.000    3.333    0.000    7.000    0.000    0.000 
#    0.000    0.000    0.000    0.000    0.000    0.000 
#
# Total GULP energy -67015.701783 kJ/mol
# GULP energy per Si atom -5584.641815 kJ/mol
# Density = 2.320841 g / cm^3
# Si number density = 23.261355 Si / 1000 Ang^3
#
#
#
# Elastic Constant Matrix: (Units=GPa)
#
#
# Indices 1 2 3 4 5 6 
#
# 1 64.3380 31.2716 48.2930 7.4931 4.6578 -24.9261
# 2 31.2716 103.0534 42.8121 33.0673 3.4869 -28.7268
# 3 48.2930 42.8121 168.7700 29.4199 51.7402 1.6352
# 4 7.4931 33.0673 29.4199 63.6977 3.1188 4.1210
# 5 4.6578 3.4869 51.7402 3.1188 48.9675 6.2625
# 6 -24.9261 -28.7268 1.6352 4.1210 6.2625 28.9900
#
#
#
# Elastic Compliance Matrix: (Units=1/GPa)
#
#
# Indices 1 2 3 4 5 6 
#
# 1 0.038258 0.006248 -0.014040 -0.004087 0.006002 0.039163
# 2 0.006248 0.021886 -0.006058 -0.011220 0.001290 0.028718
# 3 -0.014040 -0.006058 0.015651 -0.000770 -0.012661 -0.016112
# 4 -0.004087 -0.011220 -0.000770 0.023419 0.002881 -0.018540
# 5 0.006002 0.001290 -0.012661 0.002881 0.033003 -0.000386
# 6 0.039163 0.028718 -0.016112 -0.018540 -0.000386 0.100252
#
#
# Mechanical properties :
#
#
# Convention : Reuss Voigt Hill
#
# Bulk Modulus (GPa) = 20.79088 64.54611 42.66849
# Shear Modulus (GPa) = 18.10287 42.58336 30.34311
#
# Velocity S-wave (km/s) = 2.79272 4.28325 3.61563
# Velocity P-wave (km/s) = 4.39959 7.22981 5.98442
#
# Compressibility (1/GPa) = 0.04809802
#
# Stress axis : x y z
#
# Youngs Moduli (GPa) = 26.13803 45.69143 63.89328
#
# Poissons Ratio (x) = -0.28550 0.89704
# Poissons Ratio (y) = -0.16332 0.38704
# Poissons Ratio (z) = 0.36697 0.27678
#
# Static dielectric constant tensor:
#      x y z
#    x 2.042860 0.011650 0.001860 
#    y 0.011650 1.887390 0.077050 
#    z 0.001860 0.077050 1.931210 
# 
# From -- ./inp_files/174348.got.cif
#   From: 2010.05.17/outbox.cif.g08.bks.cpg/sg2_88_cif.got.tgz:174348.got - 2010.06.03 11:33:40.
