data_PCOD9105145
_publ_section_title
;
Structure prediction by ZEFSAII (Michael W. Deem and Ramdas Pophale) SiO2 
 PCOD9105145
Probable space group: P -1
;
_chemical_formula_sum "Si O2"
_cell_formula_units_Z 16
_cell_length_a 15.881123
_cell_length_b 12.161409
_cell_length_c 9.413883
_cell_angle_alpha 49.179199
_cell_angle_beta 49.051318
_cell_angle_gamma 39.955006
_cell_volume 837.876049
_symmetry_space_group_name_H-M "P -1"
_symmetry_group_IT_number 2
_symmetry_cell_setting 'triclinic'
loop_
_space_group_symop_operation_xyz
x,y,z
-x,-y,-z
loop_
_atom_site_type_symbol
_atom_site_label
_atom_site_fract_x
_atom_site_fract_y
_atom_site_fract_z
Si Si1 0.357559 0.693603 0.010669
Si Si2 0.895231 0.049018 0.362968
Si Si3 0.814466 0.137231 0.672221
Si Si4 0.645364 0.958382 0.333052
Si Si5 0.887370 0.543660 0.884566
Si Si6 0.880401 0.778897 0.450791
Si Si7 0.173067 0.216866 0.987302
Si Si8 0.137306 0.699670 0.052630
O O1 0.306171 0.727780 0.201605
O O2 0.245451 0.697613 0.034162
O O3 0.500000 0.500000 0.000000
O O4 0.364233 0.858189 0.820074
O O5 0.804808 0.182280 0.479176
O O6 0.830115 0.955744 0.448239
O O7 0.920771 0.139565 0.130776
O O8 0.044435 0.900702 0.392117
O O9 0.832344 0.948264 0.822375
O O10 0.760606 0.828052 0.432805
O O11 0.705332 0.861275 0.196439
O O12 0.500000 0.000000 0.500000
O O13 0.919968 0.626758 0.648865
O O14 0.804242 0.476246 0.960256
O O15 0.028621 0.369162 0.941217
O O16 0.815375 0.688840 0.967865
O O17 0.012857 0.730712 0.256778
#
# Coordination Sequence:
#
# PCOD9105145 Si02
#       8
#     2   2   2   2   2   2   2   2
#     4  11  25  43  64  90 124 164 208 259 306 365
#     4  11  20  37  65  94 122 160 204 257 314 363
#     4  10  20  39  63  93 126 162 201 252 317 362
#     4  11  25  44  63  88 127 167 206 251 312 370
#     4  11  23  37  63  97 129 158 203 258 306 365
#     4  12  22  39  65  96 123 163 210 252 305 369
#     4  10  21  40  60  92 131 161 200 251 313 364
#     4  12  22  40  63  97 124 157 210 261 303 360
#
# _framework density 19.095903
#
# number of rings (size 3 to 8) (size 9 to 14) (size 15 to 20)
#    0.000    1.000    6.250    1.500    1.750    0.000 
#    2.250    2.500    0.000    0.000    0.000    0.000 
#    0.000    0.000    0.000    0.000    0.000    0.000 
#
# Total GULP energy -89375.627333 kJ/mol
# GULP energy per Si atom -5585.976708 kJ/mol
# Density = 1.905244 g / cm^3
# Si number density = 19.095903 Si / 1000 Ang^3
#
#
#
# Elastic Constant Matrix: (Units=GPa)
#
#
# Indices 1 2 3 4 5 6 
#
# 1 103.6650 41.8758 43.1091 21.3648 -0.8472 15.7091
# 2 41.8758 97.3277 36.2565 22.9424 5.5755 14.7037
# 3 43.1091 36.2565 88.5946 17.2084 8.6931 6.0273
# 4 21.3648 22.9424 17.2084 32.8292 -0.4508 -0.1117
# 5 -0.8472 5.5755 8.6931 -0.4508 31.8626 4.0913
# 6 15.7091 14.7037 6.0273 -0.1117 4.0913 28.5840
#
#
#
# Elastic Compliance Matrix: (Units=1/GPa)
#
#
# Indices 1 2 3 4 5 6 
#
# 1 0.014785 -0.002482 -0.005025 -0.005234 0.002924 -0.006228
# 2 -0.002482 0.015147 -0.003044 -0.007411 -0.001268 -0.005633
# 3 -0.005025 -0.003044 0.015857 -0.002966 -0.004171 0.001569
# 4 -0.005234 -0.007411 -0.002966 0.040648 0.001612 0.007242
# 5 0.002924 -0.001268 -0.004171 0.001612 0.033469 -0.004860
# 6 -0.006228 -0.005633 0.001569 0.007242 -0.004860 0.041698
#
#
# Mechanical properties :
#
#
# Convention : Reuss Voigt Hill
#
# Bulk Modulus (GPa) = 40.50723 59.11891 49.81307
# Shear Modulus (GPa) = 26.18684 29.87821 28.03252
#
# Velocity S-wave (km/s) = 3.70717 3.95984 3.83559
# Velocity P-wave (km/s) = 6.29148 7.20648 6.76447
#
# Compressibility (1/GPa) = 0.02468695
#
# Stress axis : x y z
#
# Youngs Moduli (GPa) = 67.63480 66.01937 63.06437
#
# Poissons Ratio (x) = 0.16388 0.31690
# Poissons Ratio (y) = 0.16789 0.19196
# Poissons Ratio (z) = 0.33987 0.20095
#
# Static dielectric constant tensor:
#      x y z
#    x 1.669330 0.039680 0.010370 
#    y 0.039680 1.686850 -0.008250 
#    z 0.010370 -0.008250 1.674730 
# 
# From -- ./inp_files/175305.got.cif
#   From: 2010.05.17/outbox.cif.g08.bks.cpg/sg2_88_cif.got.tgz:175305.got - 2010.06.03 11:33:40.
