data_PCOD9105092
_publ_section_title
;
Structure prediction by ZEFSAII (Michael W. Deem and Ramdas Pophale) SiO2 
 PCOD9105092
Probable space group: P -1
;
_chemical_formula_sum "Si O2"
_cell_formula_units_Z 14
_cell_length_a 10.923976
_cell_length_b 10.764169
_cell_length_c 10.681803
_cell_angle_alpha 123.192866
_cell_angle_beta 54.263785
_cell_angle_gamma 141.972359
_cell_volume 618.419859
_symmetry_space_group_name_H-M "P -1"
_symmetry_group_IT_number 2
_symmetry_cell_setting 'triclinic'
loop_
_space_group_symop_operation_xyz
x,y,z
-x,-y,-z
loop_
_atom_site_type_symbol
_atom_site_label
_atom_site_fract_x
_atom_site_fract_y
_atom_site_fract_z
Si Si1 0.072897 0.873492 0.014801
Si Si2 0.425516 0.502556 0.179096
Si Si3 0.172486 0.490246 0.888745
Si Si4 0.041065 0.359623 0.434735
Si Si5 0.365951 0.174780 0.207235
Si Si6 0.749175 0.661205 0.468552
Si Si7 0.212134 0.032482 0.750651
O O1 0.883637 0.631323 0.014928
O O2 0.966947 0.963258 0.141067
O O3 0.237931 0.978125 0.087483
O O4 0.194439 0.948601 0.852947
O O5 0.193579 0.405342 0.260101
O O6 0.418461 0.357265 0.194028
O O7 0.575062 0.734438 0.265199
O O8 0.500000 0.500000 0.000000
O O9 0.397789 0.714779 0.847319
O O10 0.155536 0.344592 0.717030
O O11 0.000000 0.500000 0.000000
O O12 0.163627 0.393400 0.506380
O O13 0.000000 0.500000 0.500000
O O14 0.835169 0.120572 0.411065
O O15 0.227856 0.154204 0.389980
O O16 0.500000 0.500000 0.500000
#
# Coordination Sequence:
#
# PCOD9105092 Si02
#       7
#     2   2   2   2   2   2   2
#     4  11  21  37  64  97 122 164 221 267 318 395
#     4  11  19  37  66  96 127 168 211 264 321 394
#     4  11  25  39  64  91 126 171 219 269 327 378
#     4  11  25  41  66 100 137 167 214 283 334 371
#     4  10  20  39  63  91 122 166 219 262 317 383
#     4   9  21  44  63  90 127 177 217 256 322 396
#     4  11  21  37  66  98 127 167 221 266 326 393
#
# _framework density 22.638342000000002
#
# number of rings (size 3 to 8) (size 9 to 14) (size 15 to 20)
#    0.000    1.429    5.714    0.857    2.000    1.714 
#    0.000    0.000    0.000    0.000    0.000    0.000 
#    0.000    0.000    0.000    0.000    0.000    0.000 
#
# Total GULP energy -78051.028292 kJ/mol
# GULP energy per Si atom -5575.073449 kJ/mol
# Density = 2.258682 g / cm^3
# Si number density = 22.638342 Si / 1000 Ang^3
#
#
#
# Elastic Constant Matrix: (Units=GPa)
#
#
# Indices 1 2 3 4 5 6 
#
# 1 75.5297 12.7716 31.5233 9.4052 -7.2287 5.5083
# 2 12.7716 91.4640 4.4122 5.7078 1.2364 12.9528
# 3 31.5233 4.4122 57.8788 -14.6842 -7.8290 2.6106
# 4 9.4052 5.7078 -14.6842 33.7549 2.7844 3.2689
# 5 -7.2287 1.2364 -7.8290 2.7844 38.8381 1.6233
# 6 5.5083 12.9528 2.6106 3.2689 1.6233 32.4230
#
#
#
# Elastic Compliance Matrix: (Units=1/GPa)
#
#
# Indices 1 2 3 4 5 6 
#
# 1 0.021078 -0.001443 -0.014066 -0.011839 0.002015 -0.000779
# 2 -0.001443 0.011846 -0.000307 -0.001281 -0.000435 -0.004312
# 3 -0.014066 -0.000307 0.029609 0.016831 0.002224 -0.001680
# 4 -0.011839 -0.001281 0.016831 0.040871 -0.001580 -0.002874
# 5 0.002015 -0.000435 0.002224 -0.001580 0.026762 -0.001528
# 6 -0.000779 -0.004312 -0.001680 -0.002874 -0.001528 0.033199
#
#
# Mechanical properties :
#
#
# Convention : Reuss Voigt Hill
#
# Bulk Modulus (GPa) = 32.36067 35.80964 34.08515
# Shear Modulus (GPa) = 24.35496 32.74757 28.55126
#
# Velocity S-wave (km/s) = 3.28354 3.80748 3.55518
# Velocity P-wave (km/s) = 5.35735 5.93142 5.65168
#
# Compressibility (1/GPa) = 0.03090171
#
# Stress axis : x y z
#
# Youngs Moduli (GPa) = 47.44184 84.41711 33.77392
#
# Poissons Ratio (x) = 0.12180 0.47507
# Poissons Ratio (y) = 0.06845 0.01036
# Poissons Ratio (z) = 0.66733 0.02589
#
# Static dielectric constant tensor:
#      x y z
#    x 1.916270 0.044490 0.031920 
#    y 0.044490 1.927860 0.015950 
#    z 0.031920 0.015950 1.929900 
# 
# From -- ./inp_files/346243.got.cif
#   From: 2010.05.17/outbox.cif.g08.bks.cpg/sg2_174_cif.got.tgz:346243.got - 2010.06.03 11:33:40.
