data_PCOD9105770
_publ_section_title
;
Structure prediction by ZEFSAII (Michael W. Deem and Ramdas Pophale) SiO2 
 PCOD9105770
Probable space group: P -1
;
_chemical_formula_sum "Si O2"
_cell_formula_units_Z 14
_cell_length_a 8.534039
_cell_length_b 15.949897
_cell_length_c 9.174686
_cell_angle_alpha 67.711459
_cell_angle_beta 115.025396
_cell_angle_gamma 141.092470
_cell_volume 707.954662
_symmetry_space_group_name_H-M "P -1"
_symmetry_group_IT_number 2
_symmetry_cell_setting 'triclinic'
loop_
_space_group_symop_operation_xyz
x,y,z
-x,-y,-z
loop_
_atom_site_type_symbol
_atom_site_label
_atom_site_fract_x
_atom_site_fract_y
_atom_site_fract_z
Si Si1 0.350714 0.394500 0.376086
Si Si2 0.110801 0.447997 0.034483
Si Si3 0.971329 0.085264 0.518119
Si Si4 0.871230 0.204269 0.966500
Si Si5 0.546295 0.025931 0.232517
Si Si6 0.211459 0.061017 0.166925
Si Si7 0.425014 0.337839 0.141852
O O1 0.500000 0.500000 0.500000
O O2 0.180069 0.407416 0.222583
O O3 0.495279 0.406318 0.283490
O O4 0.183582 0.243853 0.463715
O O5 0.358085 0.557722 0.958691
O O6 0.000000 0.500000 0.000000
O O7 0.889048 0.314873 0.941956
O O8 0.705917 0.032673 0.408026
O O9 0.952268 0.052494 0.699822
O O10 0.000000 0.000000 0.500000
O O11 0.710867 0.124978 0.813244
O O12 0.730687 0.099749 0.114395
O O13 0.161434 0.283573 0.023966
O O14 0.442325 0.085330 0.189438
O O15 0.343248 0.201070 0.195202
O O16 0.000000 0.000000 0.000000
#
# Coordination Sequence:
#
# PCOD9105770 Si02
#       7
#     2   2   2   2   2   2   2
#     4  11  25  45  69 101 137 188 235 287 353 412
#     4  11  24  44  71 100 139 181 234 289 347 430
#     4  12  25  46  68  99 148 182 234 301 346 412
#     4  10  20  39  66 100 132 179 226 282 343 414
#     4  11  22  40  68 100 139 174 235 287 345 416
#     4  12  25  41  69 103 137 186 236 283 362 417
#     4  11  22  45  69 100 138 184 233 284 347 428
#
# _framework density 19.775278
#
# number of rings (size 3 to 8) (size 9 to 14) (size 15 to 20)
#    0.000    0.857    5.714    3.000    4.000    2.286 
#    0.000    0.714    0.000    0.000    0.000    0.000 
#    0.000    0.000    0.000    0.000    0.000    0.000 
#
# Total GULP energy -78100.919292 kJ/mol
# GULP energy per Si atom -5578.637092 kJ/mol
# Density = 1.973027 g / cm^3
# Si number density = 19.775278 Si / 1000 Ang^3
#
#
#
# Elastic Constant Matrix: (Units=GPa)
#
#
# Indices 1 2 3 4 5 6 
#
# 1 101.1233 43.2057 49.9029 10.5479 10.5351 -17.4178
# 2 43.2057 131.7291 48.4885 4.5516 -3.0184 -26.1955
# 3 49.9029 48.4885 126.6338 -5.0222 -0.5296 2.5824
# 4 10.5479 4.5516 -5.0222 40.9697 -1.1098 -6.6632
# 5 10.5351 -3.0184 -0.5296 -1.1098 20.9920 -11.2350
# 6 -17.4178 -26.1955 2.5824 -6.6632 -11.2350 40.7342
#
#
#
# Elastic Compliance Matrix: (Units=1/GPa)
#
#
# Indices 1 2 3 4 5 6 
#
# 1 0.015150 -0.002541 -0.005239 -0.004023 -0.006916 0.002610
# 2 -0.002541 0.011656 -0.003588 0.000562 0.007616 0.008829
# 3 -0.005239 -0.003588 0.011528 0.002357 -0.000105 -0.004922
# 4 -0.004023 0.000562 0.002357 0.026561 0.005961 0.004481
# 5 -0.006916 0.007616 -0.000105 0.005961 0.063445 0.020421
# 6 0.002610 0.008829 -0.004922 0.004481 0.020421 0.038021
#
#
# Mechanical properties :
#
#
# Convention : Reuss Voigt Hill
#
# Bulk Modulus (GPa) = 64.10589 71.40893 67.75741
# Shear Modulus (GPa) = 25.73391 35.06512 30.39952
#
# Velocity S-wave (km/s) = 3.61129 4.21548 3.92503
# Velocity P-wave (km/s) = 7.06230 7.73837 7.40805
#
# Compressibility (1/GPa) = 0.01559919
#
# Stress axis : x y z
#
# Youngs Moduli (GPa) = 66.00824 85.79046 86.74166
#
# Poissons Ratio (x) = 0.21799 0.45443
# Poissons Ratio (y) = 0.16772 0.31122
# Poissons Ratio (z) = 0.34581 0.30780
#
# Static dielectric constant tensor:
#      x y z
#    x 1.755320 -0.045940 -0.007420 
#    y -0.045940 1.735440 0.003180 
#    z -0.007420 0.003180 1.734950 
# 
# From -- ./inp_files/190392.got.cif
#   From: 2010.05.17/outbox.cif.g08.bks.cpg/sg2_96_cif.got.tgz:190392.got - 2010.06.03 11:33:40.
