data_PCOD9105211
_publ_section_title
;
Structure prediction by ZEFSAII (Michael W. Deem and Ramdas Pophale) SiO2 
 PCOD9105211
Probable space group: P -1
;
_chemical_formula_sum "Si O2"
_cell_formula_units_Z 16
_cell_length_a 8.444677
_cell_length_b 17.133223
_cell_length_c 8.362050
_cell_angle_alpha 137.834898
_cell_angle_beta 128.256509
_cell_angle_gamma 70.120064
_cell_volume 621.296057
_symmetry_space_group_name_H-M "P -1"
_symmetry_group_IT_number 2
_symmetry_cell_setting 'triclinic'
loop_
_space_group_symop_operation_xyz
x,y,z
-x,-y,-z
loop_
_atom_site_type_symbol
_atom_site_label
_atom_site_fract_x
_atom_site_fract_y
_atom_site_fract_z
Si Si1 0.202523 0.868063 0.184553
Si Si2 0.204408 0.477794 0.186641
Si Si3 0.884971 0.760796 0.356646
Si Si4 0.605643 0.834939 0.785770
Si Si5 0.401506 0.441520 0.681260
Si Si6 0.201617 0.921203 0.593901
Si Si7 0.961104 0.373662 0.445701
Si Si8 0.675112 0.922881 0.629336
O O1 0.084614 0.886415 0.300013
O O2 0.435044 0.923466 0.475031
O O3 0.190671 0.952455 0.156670
O O4 0.162250 0.731916 0.902862
O O5 0.416493 0.506999 0.259551
O O6 0.189866 0.551185 0.450571
O O7 0.156920 0.335571 0.957438
O O8 0.000000 0.500000 0.000000
O O9 0.689652 0.811489 0.358672
O O10 0.044600 0.876880 0.571420
O O11 0.955255 0.695786 0.457567
O O12 0.621861 0.699124 0.588441
O O13 0.367550 0.839749 0.611061
O O14 0.728413 0.889235 0.787193
O O15 0.680776 0.939773 0.120085
O O16 0.161270 0.444426 0.579475
O O17 0.500000 0.500000 0.000000
#
# Coordination Sequence:
#
# PCOD9105211 Si02
#       8
#     2   2   2   2   2   2   2   2
#     4  10  24  43  59  95 135 171 201 269 342 377
#     4  10  21  39  64  98 128 166 216 272 318 369
#     4  11  21  40  67  92 120 169 220 266 306 387
#     4  10  20  39  63  97 117 169 218 262 314 384
#     4  12  21  37  68  99 127 166 221 269 312 380
#     4  10  23  38  64  91 131 162 211 271 323 379
#     4  11  23  41  68  98 128 171 215 271 322 378
#     4  10  21  40  65  85 134 167 211 258 329 388
#
# _framework density 25.75262
#
# number of rings (size 3 to 8) (size 9 to 14) (size 15 to 20)
#    0.000    1.500    3.750    2.250    1.750    5.500 
#    2.250    1.250    0.000    0.000    0.000    0.000 
#    0.000    0.000    0.000    0.000    0.000    0.000 
#
# Total GULP energy -89298.928128 kJ/mol
# GULP energy per Si atom -5581.183008 kJ/mol
# Density = 2.569401 g / cm^3
# Si number density = 25.752620 Si / 1000 Ang^3
#
#
#
# Elastic Constant Matrix: (Units=GPa)
#
#
# Indices 1 2 3 4 5 6 
#
# 1 141.5594 28.3491 40.5234 -1.4396 3.9315 -5.7133
# 2 28.3491 31.4102 17.5846 1.4237 3.8108 17.2255
# 3 40.5234 17.5846 145.9946 18.8489 -25.8496 11.9999
# 4 -1.4396 1.4237 18.8489 25.4918 -3.5818 -5.5109
# 5 3.9315 3.8108 -25.8496 -3.5818 54.8776 5.6411
# 6 -5.7133 17.2255 11.9999 -5.5109 5.6411 45.7544
#
#
#
# Elastic Compliance Matrix: (Units=1/GPa)
#
#
# Indices 1 2 3 4 5 6 
#
# 1 0.010801 -0.012149 -0.003128 0.004977 -0.001857 0.007571
# 2 -0.012149 0.056657 -0.000671 -0.008654 -0.001527 -0.023525
# 3 -0.003128 -0.000671 0.010034 -0.007798 0.004932 -0.004317
# 4 0.004977 -0.008654 -0.007798 0.048121 -0.001512 0.011907
# 5 -0.001857 -0.001527 0.004932 -0.001512 0.021069 -0.003730
# 6 0.007571 -0.023525 -0.004317 0.011907 -0.003730 0.034684
#
#
# Mechanical properties :
#
#
# Convention : Reuss Voigt Hill
#
# Bulk Modulus (GPa) = 21.93307 54.65316 38.29311
# Shear Modulus (GPa) = 21.88567 40.72523 31.30545
#
# Velocity S-wave (km/s) = 2.91837 3.98100 3.49036
# Velocity P-wave (km/s) = 4.45995 6.51150 5.58080
#
# Compressibility (1/GPa) = 0.04559325
#
# Stress axis : x y z
#
# Youngs Moduli (GPa) = 92.58826 17.65018 99.66541
#
# Poissons Ratio (x) = 0.21443 0.31179
# Poissons Ratio (y) = 1.12487 0.06690
# Poissons Ratio (z) = 0.28965 0.01185
#
# Static dielectric constant tensor:
#      x y z
#    x 2.126290 0.011600 -0.029330 
#    y 0.011600 2.110900 -0.082510 
#    z -0.029330 -0.082510 2.036100 
# 
# From -- ./inp_files/218986.got.cif
#   From: 2010.05.17/outbox.cif.g08.bks.cpg/sg2_110_cif.got.tgz:218986.got - 2010.06.03 11:33:40.
