data_PCOD9105426
_publ_section_title
;
Structure prediction by ZEFSAII (Michael W. Deem and Ramdas Pophale) SiO2 
 PCOD9105426
Probable space group: P -1
;
_chemical_formula_sum "Si O2"
_cell_formula_units_Z 16
_cell_length_a 11.571456
_cell_length_b 15.850137
_cell_length_c 5.089173
_cell_angle_alpha 90.156096
_cell_angle_beta 90.286203
_cell_angle_gamma 136.899253
_cell_volume 637.741595
_symmetry_space_group_name_H-M "P -1"
_symmetry_group_IT_number 2
_symmetry_cell_setting 'triclinic'
loop_
_space_group_symop_operation_xyz
x,y,z
-x,-y,-z
loop_
_atom_site_type_symbol
_atom_site_label
_atom_site_fract_x
_atom_site_fract_y
_atom_site_fract_z
Si Si1 0.441943 0.355397 0.258871
Si Si2 0.833858 0.368960 0.115985
Si Si3 0.673876 0.429994 0.889648
Si Si4 0.869954 0.006446 0.076699
Si Si5 0.773791 0.612230 0.543835
Si Si6 0.891168 0.136691 0.579946
Si Si7 0.713417 0.213055 0.598140
Si Si8 0.445770 0.196573 0.569968
O O1 0.613124 0.485120 0.394390
O O2 0.294195 0.339458 0.324437
O O3 0.388589 0.233370 0.351125
O O4 0.501980 0.387688 0.959001
O O5 0.837665 0.327368 0.396153
O O6 0.720645 0.393844 0.127840
O O7 0.758380 0.263193 0.899407
O O8 0.000000 0.500000 0.000000
O O9 0.811202 0.565536 0.776793
O O10 0.615066 0.331092 0.679415
O O11 0.921611 0.098558 0.314422
O O12 0.695119 0.880920 0.205320
O O13 0.848974 0.050390 0.813658
O O14 0.000000 0.000000 0.000000
O O15 0.932830 0.719286 0.369820
O O16 0.751327 0.135051 0.557124
O O17 0.525279 0.146903 0.516836
#
# Coordination Sequence:
#
# PCOD9105426 Si02
#       8
#     2   2   2   2   2   2   2   2
#     4  10  20  39  64  94 132 178 222 272 343 390
#     4  11  22  37  65  98 141 181 222 269 333 410
#     4  10  21  36  65  95 131 179 216 275 338 394
#     4  12  29  49  74  99 131 182 230 285 344 398
#     4  10  23  37  61  99 135 173 222 278 333 412
#     4  12  28  46  71 102 138 178 224 284 345 400
#     4  11  24  43  65 100 135 178 226 278 338 398
#     4  10  24  43  67  97 133 178 236 278 330 412
#
# _framework density 25.088533999999999
#
# number of rings (size 3 to 8) (size 9 to 14) (size 15 to 20)
#    0.000    1.250    1.250    3.375    7.000    1.000 
#    0.000    0.000    0.000    0.000    0.000    0.000 
#    0.000    0.000    0.000    0.000    0.000    0.000 
#
# Total GULP energy -89358.668270 kJ/mol
# GULP energy per Si atom -5584.916767 kJ/mol
# Density = 2.503143 g / cm^3
# Si number density = 25.088534 Si / 1000 Ang^3
#
#
#
# Elastic Constant Matrix: (Units=GPa)
#
#
# Indices 1 2 3 4 5 6 
#
# 1 151.0662 55.3757 45.3755 -18.3171 -22.2166 -36.6410
# 2 55.3757 99.7249 38.7469 -22.2598 -10.2232 -15.4315
# 3 45.3755 38.7469 109.5885 -15.7455 -15.9629 -15.0112
# 4 -18.3171 -22.2598 -15.7455 47.1736 -3.8376 0.8637
# 5 -22.2166 -10.2232 -15.9629 -3.8376 38.3668 -5.8610
# 6 -36.6410 -15.4315 -15.0112 0.8637 -5.8610 24.7811
#
#
#
# Elastic Compliance Matrix: (Units=1/GPa)
#
#
# Indices 1 2 3 4 5 6 
#
# 1 0.016463 -0.002573 0.000510 0.005981 0.013640 0.026066
# 2 -0.002573 0.014425 -0.002356 0.005151 0.002526 0.004169
# 3 0.000510 -0.002356 0.012301 0.003563 0.006383 0.008124
# 4 0.005981 0.005151 0.003563 0.027786 0.011537 0.015969
# 5 0.013640 0.002526 0.006383 0.011537 0.043880 0.035583
# 6 0.026066 0.004169 0.008124 0.015969 0.035583 0.094270
#
#
# Mechanical properties :
#
#
# Convention : Reuss Voigt Hill
#
# Bulk Modulus (GPa) = 29.11099 71.04177 50.07638
# Shear Modulus (GPa) = 21.79448 36.78973 29.29211
#
# Velocity S-wave (km/s) = 2.95057 3.83351 3.42065
# Velocity P-wave (km/s) = 4.82041 6.92620 5.96694
#
# Compressibility (1/GPa) = 0.03435129
#
# Stress axis : x y z
#
# Youngs Moduli (GPa) = 60.74188 69.32179 81.29185
#
# Poissons Ratio (x) = 0.17837 -0.04143
# Poissons Ratio (y) = 0.15629 0.19152
# Poissons Ratio (z) = -0.03096 0.16332
#
# Static dielectric constant tensor:
#      x y z
#    x 2.126580 0.008000 0.005860 
#    y 0.008000 2.019660 0.061400 
#    z 0.005860 0.061400 1.989200 
# 
# From -- ./inp_files/77603.got.cif
#   From: 2010.05.17/outbox.cif.g08.bks.cpg/sg2_39_cif.got.tgz:77603.got - 2010.06.03 11:33:40.
