data_PCOD9105976
_publ_section_title
;
Structure prediction by ZEFSAII (Michael W. Deem and Ramdas Pophale) SiO2 
 PCOD9105976
Probable space group: P -1
;
_chemical_formula_sum "Si O2"
_cell_formula_units_Z 14
_cell_length_a 10.898301
_cell_length_b 12.360046
_cell_length_c 5.124242
_cell_angle_alpha 73.739933
_cell_angle_beta 118.117242
_cell_angle_gamma 71.774784
_cell_volume 497.339361
_symmetry_space_group_name_H-M "P -1"
_symmetry_group_IT_number 2
_symmetry_cell_setting 'triclinic'
loop_
_space_group_symop_operation_xyz
x,y,z
-x,-y,-z
loop_
_atom_site_type_symbol
_atom_site_label
_atom_site_fract_x
_atom_site_fract_y
_atom_site_fract_z
Si Si1 0.665461 0.789622 0.389185
Si Si2 0.620137 0.047174 0.698623
Si Si3 0.477648 0.304802 0.057318
Si Si4 0.796780 0.197627 0.240251
Si Si5 0.114139 0.094592 0.318705
Si Si6 0.222166 0.585224 0.579212
Si Si7 0.841619 0.511396 0.949794
O O1 0.473721 0.902493 0.156248
O O2 0.661653 0.721070 0.168128
O O3 0.786738 0.842946 0.497192
O O4 0.718305 0.670131 0.726524
O O5 0.500000 0.000000 0.500000
O O6 0.806416 0.939615 0.873814
O O7 0.586208 0.182261 0.439174
O O8 0.388839 0.456795 0.948963
O O9 0.600584 0.286582 0.953782
O O10 0.809594 0.274389 0.454376
O O11 0.925700 0.181996 0.160181
O O12 0.838968 0.048835 0.430155
O O13 0.216514 0.550870 0.295392
O O14 0.105354 0.566759 0.672321
O O15 0.000000 0.500000 0.000000
#
# Coordination Sequence:
#
# PCOD9105976 Si02
#       7
#     2   2   2   2   2   2   2
#     4  10  20  39  66  97 126 170 229 286 334 394
#     4   9  18  35  60  89 126 164 217 275 330 391
#     4  10  21  39  65  96 127 174 225 280 337 401
#     4  10  21  41  62  94 136 180 220 274 341 410
#     4   9  20  38  66  87 135 173 226 279 335 402
#     4  11  23  43  68 101 137 179 223 279 341 412
#     4  11  23  41  71 103 137 175 224 285 344 398
#
# _framework density 28.149795000000001
#
# number of rings (size 3 to 8) (size 9 to 14) (size 15 to 20)
#    0.000    2.000    1.429    1.714    0.000    6.286 
#    5.143    2.857    9.429    0.000    0.000    0.000 
#    0.000    0.000    0.000    0.000    0.000    0.000 
#
# Total GULP energy -78056.421911 kJ/mol
# GULP energy per Si atom -5575.458708 kJ/mol
# Density = 2.808572 g / cm^3
# Si number density = 28.149795 Si / 1000 Ang^3
#
#
#
# Elastic Constant Matrix: (Units=GPa)
#
#
# Indices 1 2 3 4 5 6 
#
# 1 149.5816 70.0653 19.3763 -2.9208 6.9747 5.1018
# 2 70.0653 194.2340 44.3600 1.5995 2.0090 14.1245
# 3 19.3763 44.3600 53.2492 -7.5783 -11.2232 2.7039
# 4 -2.9208 1.5995 -7.5783 47.3856 -8.5258 -0.8206
# 5 6.9747 2.0090 -11.2232 -8.5258 24.5833 -4.5184
# 6 5.1018 14.1245 2.7039 -0.8206 -4.5184 58.1496
#
#
#
# Elastic Compliance Matrix: (Units=1/GPa)
#
#
# Indices 1 2 3 4 5 6 
#
# 1 0.008225 -0.002584 -0.001461 -0.000164 -0.002893 -0.000253
# 2 -0.002584 0.007773 -0.006611 -0.002229 -0.004005 -0.001697
# 3 -0.001461 -0.006611 0.029580 0.008061 0.017593 0.001839
# 4 -0.000164 -0.002229 0.008061 0.024784 0.012785 0.001524
# 5 -0.002893 -0.004005 0.017593 0.012785 0.055188 0.004877
# 6 -0.000253 -0.001697 0.001839 0.001524 0.004877 0.017946
#
#
# Mechanical properties :
#
#
# Convention : Reuss Voigt Hill
#
# Bulk Modulus (GPa) = 41.20631 73.85203 57.52917
# Shear Modulus (GPa) = 28.91883 43.57458 36.24671
#
# Velocity S-wave (km/s) = 3.20866 3.93867 3.59226
# Velocity P-wave (km/s) = 5.32892 6.85394 6.13897
#
# Compressibility (1/GPa) = 0.02426813
#
# Stress axis : x y z
#
# Youngs Moduli (GPa) = 121.57933 128.64372 33.80631
#
# Poissons Ratio (x) = 0.33238 0.04938
# Poissons Ratio (y) = 0.31412 0.22349
# Poissons Ratio (z) = 0.17761 0.85044
#
# Static dielectric constant tensor:
#      x y z
#    x 2.463830 -0.184410 -0.051350 
#    y -0.184410 2.389120 -0.001030 
#    z -0.051350 -0.001030 2.295350 
# 
# From -- ./inp_files/70121.got.cif
#   From: 2010.05.17/outbox.cif.g08.bks.cpg/sg2_36_cif.got.tgz:70121.got - 2010.06.03 11:33:40.
