data_PCOD9105785
_publ_section_title
;
Structure prediction by ZEFSAII (Michael W. Deem and Ramdas Pophale) SiO2 
 PCOD9105785
Probable space group: P -1
;
_chemical_formula_sum "Si O2"
_cell_formula_units_Z 14
_cell_length_a 9.745029
_cell_length_b 12.251934
_cell_length_c 19.617118
_cell_angle_alpha 154.462345
_cell_angle_beta 132.156848
_cell_angle_gamma 37.449376
_cell_volume 604.793981
_symmetry_space_group_name_H-M "P -1"
_symmetry_group_IT_number 2
_symmetry_cell_setting 'triclinic'
loop_
_space_group_symop_operation_xyz
x,y,z
-x,-y,-z
loop_
_atom_site_type_symbol
_atom_site_label
_atom_site_fract_x
_atom_site_fract_y
_atom_site_fract_z
Si Si1 0.715200 0.490855 0.749755
Si Si2 0.040918 0.735188 0.813768
Si Si3 0.843216 0.338604 0.931921
Si Si4 0.848410 0.651535 0.238337
Si Si5 0.584902 0.695636 0.401169
Si Si6 0.318161 0.067882 0.312554
Si Si7 0.688711 0.889770 0.094934
O O1 0.621909 0.298612 0.634434
O O2 0.973470 0.286318 0.694323
O O3 0.536902 0.758086 0.786970
O O4 0.697455 0.690585 0.921588
O O5 0.094307 0.464756 0.730887
O O6 0.259207 0.603505 0.763659
O O7 0.838352 0.823800 0.744998
O O8 0.000000 0.000000 0.000000
O O9 0.704353 0.190557 0.804663
O O10 0.079125 0.133074 0.851566
O O11 0.895698 0.374097 0.047293
O O12 0.710826 0.686116 0.051791
O O13 0.579197 0.911912 0.291020
O O14 0.500000 0.000000 0.500000
O O15 0.733289 0.683051 0.506528
#
# Coordination Sequence:
#
# PCOD9105785 Si02
#       7
#     2   2   2   2   2   2   2
#     4  10  23  41  67 101 143 189 238 289 356 431
#     4  12  27  46  76 108 143 187 246 301 350 421
#     4  10  20  39  66 107 136 185 241 300 349 417
#     4  11  25  42  68 110 140 186 238 304 345 415
#     4  12  26  49  74 105 147 196 233 293 365 436
#     4  12  25  44  73 105 150 188 238 287 370 429
#     4   9  20  37  67  99 141 184 241 296 350 411
#
# _framework density 23.148378000000001
#
# number of rings (size 3 to 8) (size 9 to 14) (size 15 to 20)
#    0.000    1.143    2.857    2.571    6.000    0.571 
#    0.000    0.714    0.000    0.000    0.000    0.000 
#    0.000    0.000    0.000    0.000    0.000    0.000 
#
# Total GULP energy -78337.186650 kJ/mol
# GULP energy per Si atom -5595.513332 kJ/mol
# Density = 2.309569 g / cm^3
# Si number density = 23.148378 Si / 1000 Ang^3
#
#
#
# Elastic Constant Matrix: (Units=GPa)
#
#
# Indices 1 2 3 4 5 6 
#
# 1 142.9186 42.5057 33.3699 -14.9533 9.9050 -18.3423
# 2 42.5057 114.5802 3.0972 -17.6714 -1.5762 0.7113
# 3 33.3699 3.0972 86.8786 -14.5381 -9.7670 -8.7673
# 4 -14.9533 -17.6714 -14.5381 22.4554 4.0958 -2.2041
# 5 9.9050 -1.5762 -9.7670 4.0958 30.9911 -7.1538
# 6 -18.3423 0.7113 -8.7673 -2.2041 -7.1538 42.1566
#
#
#
# Elastic Compliance Matrix: (Units=1/GPa)
#
#
# Indices 1 2 3 4 5 6 
#
# 1 0.009651 -0.003120 -0.003247 0.002888 -0.003942 0.003059
# 2 -0.003120 0.011043 0.002180 0.007774 0.001104 -0.000497
# 3 -0.003247 0.002180 0.015040 0.008594 0.005458 0.003054
# 4 0.002888 0.007774 0.008594 0.059469 -0.004463 0.005265
# 5 -0.003942 0.001104 0.005458 -0.004463 0.037157 0.005473
# 6 0.003059 -0.000497 0.003054 0.005265 0.005473 0.026899
#
#
# Mechanical properties :
#
#
# Convention : Reuss Voigt Hill
#
# Bulk Modulus (GPa) = 36.55119 55.81368 46.18244
# Shear Modulus (GPa) = 28.28795 36.81425 32.55110
#
# Velocity S-wave (km/s) = 3.49954 3.99226 3.75399
# Velocity P-wave (km/s) = 5.67039 6.73902 6.22767
#
# Compressibility (1/GPa) = 0.02735889
#
# Stress axis : x y z
#
# Youngs Moduli (GPa) = 103.61536 90.55258 66.49093
#
# Poissons Ratio (x) = 0.28254 0.21589
# Poissons Ratio (y) = 0.32330 -0.14492
# Poissons Ratio (z) = 0.33643 -0.19737
#
# Static dielectric constant tensor:
#      x y z
#    x 1.862940 0.006170 -0.013830 
#    y 0.006170 1.912030 0.009200 
#    z -0.013830 0.009200 1.874270 
# 
# From -- ./inp_files/560182.got.cif
#   From: 2010.05.17/outbox.cif.g08.bks.cpg/sg2_281_cif.got.tgz:560182.got - 2010.06.03 11:33:40.
