data_PCOD9105689
_publ_section_title
;
Structure prediction by ZEFSAII (Michael W. Deem and Ramdas Pophale) SiO2 
 PCOD9105689
Probable space group: P -1
;
_chemical_formula_sum "Si O2"
_cell_formula_units_Z 14
_cell_length_a 17.417789
_cell_length_b 9.427693
_cell_length_c 10.966107
_cell_angle_alpha 62.269335
_cell_angle_beta 153.940238
_cell_angle_gamma 103.149969
_cell_volume 610.425861
_symmetry_space_group_name_H-M "P -1"
_symmetry_group_IT_number 2
_symmetry_cell_setting 'triclinic'
loop_
_space_group_symop_operation_xyz
x,y,z
-x,-y,-z
loop_
_atom_site_type_symbol
_atom_site_label
_atom_site_fract_x
_atom_site_fract_y
_atom_site_fract_z
Si Si1 0.607206 0.595424 0.540721
Si Si2 0.063761 0.912112 0.461208
Si Si3 0.412465 0.893652 0.336595
Si Si4 0.007545 0.722587 0.673920
Si Si5 0.122484 0.501219 0.556851
Si Si6 0.460822 0.569833 0.713824
Si Si7 0.114294 0.808615 0.310314
O O1 0.500000 0.500000 0.500000
O O2 0.528375 0.791648 0.417360
O O3 0.562609 0.580682 0.340563
O O4 0.839207 0.449065 0.957586
O O5 0.124954 0.755778 0.714296
O O6 0.163371 0.857746 0.493540
O O7 0.328507 0.485155 0.901194
O O8 0.082732 0.084039 0.465939
O O9 0.428503 0.730634 0.509972
O O10 0.500000 0.000000 0.500000
O O11 0.175442 0.016636 0.922648
O O12 0.850841 0.667170 0.419210
O O13 0.000000 0.500000 0.500000
O O14 0.292252 0.665558 0.537219
O O15 0.997151 0.306325 0.763378
O O16 0.000000 0.000000 0.000000
#
# Coordination Sequence:
#
# PCOD9105689 Si02
#       7
#     2   2   2   2   2   2   2
#     4  10  20  39  65  94 136 173 230 275 340 408
#     4  11  23  40  66  97 143 181 219 288 353 398
#     4  11  22  37  66 102 133 173 235 283 331 406
#     4  11  22  41  66 103 129 182 237 287 331 400
#     4  12  25  43  72 102 133 179 247 279 328 419
#     4  11  24  44  66  99 138 185 220 280 357 408
#     4  12  25  45  67 101 148 184 220 282 362 411
#
# _framework density 22.934811
#
# number of rings (size 3 to 8) (size 9 to 14) (size 15 to 20)
#    0.000    0.857    5.714    3.000    2.000    0.000 
#    0.000    5.000    0.000    0.000    0.000    0.000 
#    0.000    0.000    0.000    0.000    0.000    0.000 
#
# Total GULP energy -78199.647649 kJ/mol
# GULP energy per Si atom -5585.689118 kJ/mol
# Density = 2.288261 g / cm^3
# Si number density = 22.934811 Si / 1000 Ang^3
#
#
#
# Elastic Constant Matrix: (Units=GPa)
#
#
# Indices 1 2 3 4 5 6 
#
# 1 107.8516 60.8951 28.9162 -10.5394 -7.6210 -27.4405
# 2 60.8951 224.8427 43.3410 0.7089 6.1652 -39.7871
# 3 28.9162 43.3410 101.1938 9.2417 -8.6955 -6.2925
# 4 -10.5394 0.7089 9.2417 29.8502 -3.8505 -5.2034
# 5 -7.6210 6.1652 -8.6955 -3.8505 25.4525 -12.7765
# 6 -27.4405 -39.7871 -6.2925 -5.2034 -12.7765 47.2469
#
#
#
# Elastic Compliance Matrix: (Units=1/GPa)
#
#
# Indices 1 2 3 4 5 6 
#
# 1 0.015877 -0.002099 -0.002865 0.009984 0.011450 0.011268
# 2 -0.002099 0.005989 -0.001860 0.000137 -0.001031 0.003312
# 3 -0.002865 -0.001860 0.012018 -0.004672 0.002216 -0.001545
# 4 0.009984 0.000137 -0.004672 0.042835 0.014885 0.014034
# 5 0.011450 -0.001031 0.002216 0.014885 0.057679 0.023314
# 6 0.011268 0.003312 -0.001545 0.014034 0.023314 0.038143
#
#
# Mechanical properties :
#
#
# Convention : Reuss Voigt Hill
#
# Bulk Modulus (GPa) = 49.41909 77.79916 63.60913
# Shear Modulus (GPa) = 25.91540 40.55897 33.23719
#
# Velocity S-wave (km/s) = 3.36513 4.20985 3.81097
# Velocity P-wave (km/s) = 6.05749 7.59118 6.86729
#
# Compressibility (1/GPa) = 0.02023509
#
# Stress axis : x y z
#
# Youngs Moduli (GPa) = 62.98445 166.98187 83.20539
#
# Poissons Ratio (x) = 0.35055 0.23838
# Poissons Ratio (y) = 0.13223 0.15478
# Poissons Ratio (z) = 0.18045 0.31062
#
# Static dielectric constant tensor:
#      x y z
#    x 1.877780 -0.041020 -0.030760 
#    y -0.041020 1.917610 -0.020410 
#    z -0.030760 -0.020410 1.991250 
# 
# From -- ./inp_files/309223.got.cif
#   From: 2010.05.17/outbox.cif.g08.bks.cpg/sg2_155_cif.got.tgz:309223.got - 2010.06.03 11:33:40.
