data_PCOD9105743
_publ_section_title
;
Structure prediction by ZEFSAII (Michael W. Deem and Ramdas Pophale) SiO2 
 PCOD9105743
Probable space group: P -1
;
_chemical_formula_sum "Si O2"
_cell_formula_units_Z 14
_cell_length_a 20.645331
_cell_length_b 23.889017
_cell_length_c 9.111146
_cell_angle_alpha 150.300791
_cell_angle_beta 31.331095
_cell_angle_gamma 162.317889
_cell_volume 665.587855
_symmetry_space_group_name_H-M "P -1"
_symmetry_group_IT_number 2
_symmetry_cell_setting 'triclinic'
loop_
_space_group_symop_operation_xyz
x,y,z
-x,-y,-z
loop_
_atom_site_type_symbol
_atom_site_label
_atom_site_fract_x
_atom_site_fract_y
_atom_site_fract_z
Si Si1 0.008032 0.123828 0.853004
Si Si2 0.504330 0.530994 0.890683
Si Si3 0.092548 0.750511 0.867628
Si Si4 0.308615 0.779810 0.296548
Si Si5 0.503879 0.977802 0.771761
Si Si6 0.346557 0.164736 0.894102
Si Si7 0.650704 0.442573 0.198117
O O1 0.254306 0.347401 0.903433
O O2 0.879179 0.118166 0.989707
O O3 0.000000 0.000000 0.500000
O O4 0.893561 0.030051 0.019913
O O5 0.622687 0.519736 0.545646
O O6 0.500000 0.500000 0.000000
O O7 0.621376 0.734063 0.079652
O O8 0.100223 0.655224 0.515186
O O9 0.283519 0.863457 0.868062
O O10 0.876203 0.609446 0.055432
O O11 0.500000 0.000000 0.500000
O O12 0.304871 0.817452 0.222456
O O13 0.365384 0.691906 0.002015
O O14 0.538592 0.870812 0.431400
O O15 0.500000 0.000000 0.000000
O O16 0.468077 0.316738 0.140054
#
# Coordination Sequence:
#
# PCOD9105743 Si02
#       7
#     2   2   2   2   2   2   2
#     4  12  24  42  77  97 132 189 235 275 335 412
#     4  12  30  46  66 106 142 178 230 294 345 396
#     4  11  22  41  68 102 127 175 234 273 336 408
#     4  10  20  39  65  97 126 173 225 273 331 407
#     4  11  25  41  67 103 139 175 221 288 354 402
#     4  12  23  46  71  99 135 184 235 275 336 424
#     4  12  22  43  69  96 134 177 234 279 330 412
#
# _framework density 21.034037000000001
#
# number of rings (size 3 to 8) (size 9 to 14) (size 15 to 20)
#    0.000    0.571    7.143    2.571    2.000    1.714 
#    0.000    0.714    0.000    0.000    0.000    0.000 
#    0.000    0.000    0.000    0.000    0.000    0.000 
#
# Total GULP energy -78255.965868 kJ/mol
# GULP energy per Si atom -5589.711848 kJ/mol
# Density = 2.098616 g / cm^3
# Si number density = 21.034037 Si / 1000 Ang^3
#
#
#
# Elastic Constant Matrix: (Units=GPa)
#
#
# Indices 1 2 3 4 5 6 
#
# 1 131.3524 29.7188 46.4456 -6.4221 -1.4821 -40.6962
# 2 29.7188 99.8851 31.1647 -30.4417 -3.2450 -26.0123
# 3 46.4456 31.1647 79.1900 -23.4902 -8.8076 -9.0180
# 4 -6.4221 -30.4417 -23.4902 35.4164 -12.2361 -1.8371
# 5 -1.4821 -3.2450 -8.8076 -12.2361 44.2485 -2.0491
# 6 -40.6962 -26.0123 -9.0180 -1.8371 -2.0491 36.0150
#
#
#
# Elastic Compliance Matrix: (Units=1/GPa)
#
#
# Indices 1 2 3 4 5 6 
#
# 1 0.015040 0.002608 -0.007631 0.000861 0.000202 0.017023
# 2 0.002608 0.022217 0.000290 0.024090 0.009401 0.020830
# 3 -0.007631 0.000290 0.022918 0.017109 0.008999 -0.001290
# 4 0.000861 0.024090 0.017109 0.070900 0.026092 0.027757
# 5 0.000202 0.009401 0.008999 0.026092 0.032880 0.012473
# 6 0.017023 0.020830 -0.001290 0.027757 0.012473 0.063849
#
#
# Mechanical properties :
#
#
# Convention : Reuss Voigt Hill
#
# Bulk Modulus (GPa) = 19.72005 58.34287 39.03146
# Shear Modulus (GPa) = 19.67177 36.67589 28.17383
#
# Velocity S-wave (km/s) = 3.06148 4.18023 3.66381
# Velocity P-wave (km/s) = 4.67895 7.14819 6.04107
#
# Compressibility (1/GPa) = 0.05070981
#
# Stress axis : x y z
#
# Youngs Moduli (GPa) = 66.49001 45.01130 43.63353
#
# Poissons Ratio (x) = -0.11740 0.33297
# Poissons Ratio (y) = -0.17342 -0.01268
# Poissons Ratio (z) = 0.50739 -0.01308
#
# Static dielectric constant tensor:
#      x y z
#    x 1.761820 -0.030890 -0.011790 
#    y -0.030890 1.841820 -0.018200 
#    z -0.011790 -0.018200 1.747050 
# 
# From -- ./inp_files/343900.got.cif
#   From: 2010.05.17/outbox.cif.g08.bks.cpg/sg2_172_cif.got.tgz:343900.got - 2010.06.03 11:33:40.
