data_PCOD9105441
_publ_section_title
;
Structure prediction by ZEFSAII (Michael W. Deem and Ramdas Pophale) SiO2 
 PCOD9105441
Probable space group: P -1
;
_chemical_formula_sum "Si O2"
_cell_formula_units_Z 16
_cell_length_a 11.011756
_cell_length_b 20.289504
_cell_length_c 8.443690
_cell_angle_alpha 73.135979
_cell_angle_beta 44.249592
_cell_angle_gamma 41.457837
_cell_volume 736.832219
_symmetry_space_group_name_H-M "P -1"
_symmetry_group_IT_number 2
_symmetry_cell_setting 'triclinic'
loop_
_space_group_symop_operation_xyz
x,y,z
-x,-y,-z
loop_
_atom_site_type_symbol
_atom_site_label
_atom_site_fract_x
_atom_site_fract_y
_atom_site_fract_z
Si Si1 0.625195 0.763799 0.603930
Si Si2 0.650214 0.661839 0.181969
Si Si3 0.671869 0.008088 0.172994
Si Si4 0.235176 0.893779 0.562745
Si Si5 0.711591 0.494914 0.367028
Si Si6 0.726421 0.483302 0.734599
Si Si7 0.191668 0.063375 0.538502
Si Si8 0.561140 0.299445 0.979238
O O1 0.474311 0.810719 0.540999
O O2 0.959448 0.629664 0.394595
O O3 0.581797 0.854232 0.647461
O O4 0.440355 0.774059 0.885614
O O5 0.387924 0.801187 0.347231
O O6 0.590365 0.612626 0.377186
O O7 0.646420 0.635087 0.025405
O O8 0.966630 0.598778 0.954687
O O9 0.799274 0.947670 0.269661
O O10 0.503503 0.999499 0.254160
O O11 0.932905 0.956575 0.862490
O O12 0.183133 0.991161 0.518016
O O13 0.500000 0.500000 0.500000
O O14 0.764166 0.464667 0.524470
O O15 0.500000 0.500000 0.000000
O O16 0.577562 0.603271 0.835426
O O17 0.900755 0.201956 0.677391
#
# Coordination Sequence:
#
# PCOD9105441 Si02
#       8
#     2   2   2   2   2   2   2   2
#     4  11  21  40  66  93 130 167 225 274 317 388
#     4  11  27  43  66  94 138 180 214 270 332 396
#     4  10  20  39  64  95 127 166 217 275 324 378
#     4  11  22  41  65  94 129 175 217 266 330 385
#     4  11  26  47  65  96 139 175 217 268 332 396
#     4  12  26  41  70 102 128 172 225 276 327 390
#     4  10  21  39  65  94 128 168 220 273 319 383
#     4  12  22  43  66  96 130 173 223 271 323 389
#
# _framework density 21.714576999999998
#
# number of rings (size 3 to 8) (size 9 to 14) (size 15 to 20)
#    0.000    1.000    3.750    3.375    5.250    1.500 
#    0.000    0.625    0.000    0.000    0.000    0.000 
#    0.000    0.000    0.000    0.000    0.000    0.000 
#
# Total GULP energy -89414.230953 kJ/mol
# GULP energy per Si atom -5588.389435 kJ/mol
# Density = 2.166515 g / cm^3
# Si number density = 21.714577 Si / 1000 Ang^3
#
#
#
# Elastic Constant Matrix: (Units=GPa)
#
#
# Indices 1 2 3 4 5 6 
#
# 1 66.4132 26.1790 50.5849 0.2240 -27.5633 10.4277
# 2 26.1790 71.0634 30.9845 11.1656 -15.3611 -0.2134
# 3 50.5849 30.9845 81.9122 7.2559 -27.5650 21.2337
# 4 0.2240 11.1656 7.2559 37.3258 0.5414 -0.6572
# 5 -27.5633 -15.3611 -27.5650 0.5414 40.1840 -5.6656
# 6 10.4277 -0.2134 21.2337 -0.6572 -5.6656 30.5556
#
#
#
# Elastic Compliance Matrix: (Units=1/GPa)
#
#
# Indices 1 2 3 4 5 6 
#
# 1 0.032776 -0.003287 -0.016495 0.003885 0.010171 0.002224
# 2 -0.003287 0.018780 -0.005344 -0.004497 0.002060 0.005252
# 3 -0.016495 -0.005344 0.030491 -0.004568 0.005552 -0.014666
# 4 0.003885 -0.004497 -0.004568 0.029070 -0.002295 0.002017
# 5 0.010171 0.002060 0.005552 -0.002295 0.036403 -0.000615
# 6 0.002224 0.005252 -0.014666 0.002017 -0.000615 0.042126
#
#
# Mechanical properties :
#
#
# Convention : Reuss Voigt Hill
#
# Bulk Modulus (GPa) = 31.45154 48.32061 39.88608
# Shear Modulus (GPa) = 19.96034 29.05578 24.50806
#
# Velocity S-wave (km/s) = 3.03514 3.66194 3.36318
# Velocity P-wave (km/s) = 5.17671 6.33882 5.78701
#
# Compressibility (1/GPa) = 0.03179494
#
# Stress axis : x y z
#
# Youngs Moduli (GPa) = 30.51012 53.24679 32.79649
#
# Poissons Ratio (x) = 0.17504 0.54098
# Poissons Ratio (y) = 0.10030 0.17526
# Poissons Ratio (z) = 0.50327 0.28454
#
# Static dielectric constant tensor:
#      x y z
#    x 1.741320 -0.048280 -0.021500 
#    y -0.048280 1.784300 0.006770 
#    z -0.021500 0.006770 1.774590 
# 
# From -- ./inp_files/283008.got.cif
#   From: 2010.05.17/outbox.cif.g08.bks.cpg/sg2_142_cif.got.tgz:283008.got - 2010.06.03 11:33:40.
