data_PCOD9105757
_publ_section_title
;
Structure prediction by ZEFSAII (Michael W. Deem and Ramdas Pophale) SiO2 
 PCOD9105757
Probable space group: P -1
;
_chemical_formula_sum "Si O2"
_cell_formula_units_Z 16
_cell_length_a 13.817325
_cell_length_b 8.359329
_cell_length_c 8.272513
_cell_angle_alpha 86.923181
_cell_angle_beta 59.445316
_cell_angle_gamma 61.742611
_cell_volume 702.400582
_symmetry_space_group_name_H-M "P -1"
_symmetry_group_IT_number 2
_symmetry_cell_setting 'triclinic'
loop_
_space_group_symop_operation_xyz
x,y,z
-x,-y,-z
loop_
_atom_site_type_symbol
_atom_site_label
_atom_site_fract_x
_atom_site_fract_y
_atom_site_fract_z
Si Si1 0.827038 0.993298 0.539753
Si Si2 0.211594 0.428748 0.286722
Si Si3 0.964573 0.668617 0.707196
Si Si4 0.346814 0.132885 0.434030
Si Si5 0.550056 0.732505 0.390839
Si Si6 0.652831 0.335162 0.885213
Si Si7 0.071622 0.852960 0.806673
Si Si8 0.342525 0.669896 0.765127
O O1 0.703222 0.178078 0.712887
O O2 0.922040 0.046848 0.367520
O O3 0.898146 0.840385 0.626627
O O4 0.770539 0.909467 0.461764
O O5 0.139376 0.399858 0.197712
O O6 0.329002 0.237468 0.273849
O O7 0.260057 0.570398 0.211869
O O8 0.099763 0.512587 0.516812
O O9 0.002436 0.737087 0.830523
O O10 0.349407 0.258365 0.570387
O O11 0.478287 0.930040 0.349401
O O12 0.445879 0.712113 0.591749
O O13 0.603529 0.550909 0.244063
O O14 0.500000 0.500000 0.000000
O O15 0.686377 0.240340 0.038420
O O16 0.221324 0.732319 0.745560
O O17 0.000000 0.000000 0.000000
#
# Coordination Sequence:
#
# PCOD9105757 Si02
#       8
#     2   2   2   2   2   2   2   2
#     4  11  23  43  67  94 131 169 222 268 321 385
#     4  10  22  41  68  95 130 170 223 260 326 382
#     4  10  22  43  69  90 129 175 218 271 322 373
#     4  10  20  39  65  98 123 178 203 265 327 386
#     4  10  21  41  66  92 135 167 211 264 330 380
#     4  12  25  42  68 101 129 173 218 265 325 390
#     4  12  24  40  65  97 127 171 217 269 324 380
#     4  11  24  41  66  97 129 169 219 264 322 386
#
# _framework density 22.779025000000001
#
# number of rings (size 3 to 8) (size 9 to 14) (size 15 to 20)
#    0.000    1.250    2.500    3.375    3.500    0.000 
#    2.250   14.375    0.000    0.000    0.000    0.000 
#    0.000    0.000    0.000    0.000    0.000    0.000 
#
# Total GULP energy -89455.391520 kJ/mol
# GULP energy per Si atom -5590.961970 kJ/mol
# Density = 2.272718 g / cm^3
# Si number density = 22.779025 Si / 1000 Ang^3
#
#
#
# Elastic Constant Matrix: (Units=GPa)
#
#
# Indices 1 2 3 4 5 6 
#
# 1 165.2172 15.6284 14.9041 10.9305 15.3284 24.6582
# 2 15.6284 67.0081 14.1113 14.2169 -3.3374 3.3163
# 3 14.9041 14.1113 52.5950 17.4283 12.1760 11.0464
# 4 10.9305 14.2169 17.4283 20.3656 4.0365 9.7715
# 5 15.3284 -3.3374 12.1760 4.0365 24.6694 5.4751
# 6 24.6582 3.3163 11.0464 9.7715 5.4751 28.9986
#
#
#
# Elastic Compliance Matrix: (Units=1/GPa)
#
#
# Indices 1 2 3 4 5 6 
#
# 1 0.007352 -0.001793 0.000286 0.000503 -0.003789 -0.005610
# 2 -0.001793 0.018731 -0.002380 -0.012977 0.006170 0.003497
# 3 0.000286 -0.002380 0.029362 -0.020355 -0.011176 -0.002187
# 4 0.000503 -0.012977 -0.020355 0.084998 -0.001595 -0.019530
# 5 -0.003789 0.006170 -0.011176 -0.001595 0.049974 -0.002124
# 6 -0.005610 0.003497 -0.002187 -0.019530 -0.002124 0.046670
#
#
# Mechanical properties :
#
#
# Convention : Reuss Voigt Hill
#
# Bulk Modulus (GPa) = 20.97672 41.56755 31.27213
# Shear Modulus (GPa) = 19.17550 30.81848 24.99699
#
# Velocity S-wave (km/s) = 2.90454 3.68221 3.31625
# Velocity P-wave (km/s) = 4.52518 6.03043 5.33119
#
# Compressibility (1/GPa) = 0.04767190
#
# Stress axis : x y z
#
# Youngs Moduli (GPa) = 136.01927 53.38886 34.05722
#
# Poissons Ratio (x) = 0.09572 -0.00975
# Poissons Ratio (y) = 0.24387 0.08105
# Poissons Ratio (z) = -0.03895 0.12706
#
# Static dielectric constant tensor:
#      x y z
#    x 1.877930 -0.031300 -0.000990 
#    y -0.031300 1.879410 0.004370 
#    z -0.000990 0.004370 1.857320 
# 
# From -- ./inp_files/298504.got.cif
#   From: 2010.05.17/outbox.cif.g08.bks.cpg/sg2_150_cif.got.tgz:298504.got - 2010.06.03 11:33:40.
