data_PCOD9105659
_publ_section_title
;
Structure prediction by ZEFSAII (Michael W. Deem and Ramdas Pophale) SiO2 
 PCOD9105659
Probable space group: P -1
;
_chemical_formula_sum "Si O2"
_cell_formula_units_Z 16
_cell_length_a 9.295782
_cell_length_b 17.098648
_cell_length_c 16.693105
_cell_angle_alpha 18.843462
_cell_angle_beta 51.648846
_cell_angle_gamma 51.982657
_cell_volume 667.734341
_symmetry_space_group_name_H-M "P -1"
_symmetry_group_IT_number 2
_symmetry_cell_setting 'triclinic'
loop_
_space_group_symop_operation_xyz
x,y,z
-x,-y,-z
loop_
_atom_site_type_symbol
_atom_site_label
_atom_site_fract_x
_atom_site_fract_y
_atom_site_fract_z
Si Si1 0.538498 0.950628 0.201666
Si Si2 0.325700 0.685436 0.850498
Si Si3 0.096195 0.543480 0.211365
Si Si4 0.821507 0.245079 0.508354
Si Si5 0.982062 0.847262 0.732921
Si Si6 0.379918 0.395608 0.891942
Si Si7 0.560700 0.771111 0.552906
Si Si8 0.942546 0.747993 0.228857
O O1 0.360742 0.877657 0.284902
O O2 0.546437 0.897705 0.348020
O O3 0.721429 0.804262 0.246308
O O4 0.516147 0.244267 0.928498
O O5 0.152295 0.643628 0.890949
O O6 0.428395 0.867906 0.579007
O O7 0.500000 0.500000 0.000000
O O8 0.209301 0.695911 0.963308
O O9 0.230396 0.298445 0.425227
O O10 0.914833 0.441910 0.335892
O O11 0.037749 0.699269 0.157955
O O12 0.737034 0.381606 0.326800
O O13 0.973040 0.034534 0.628935
O O14 0.000000 0.000000 0.500000
O O15 0.780873 0.763676 0.876587
O O16 0.493241 0.504935 0.816078
O O17 0.000000 0.500000 0.500000
O O18 0.000000 0.000000 0.000000
#
# Coordination Sequence:
#
# PCOD9105659 Si02
#       8
#     2   2   2   2   2   2   2   2
#     4  10  22  43  69 105 136 185 248 292 360 443
#     4  10  22  40  63 101 145 185 235 300 376 434
#     4  11  23  45  68 103 145 184 236 309 373 439
#     4  10  23  40  67  98 142 181 234 302 362 430
#     4  11  22  38  66  98 137 196 248 287 364 450
#     4  10  20  39  65  93 135 183 233 294 349 442
#     4  10  21  41  66  97 140 185 237 288 363 442
#     4  12  27  49  80 109 142 197 251 311 375 459
#
# _framework density 23.961625000000002
#
# number of rings (size 3 to 8) (size 9 to 14) (size 15 to 20)
#    0.000    1.500    2.500    3.000    3.500    2.500 
#    4.500    1.875    0.000    0.000    0.000    0.000 
#    0.000    0.000    0.000    0.000    0.000    0.000 
#
# Total GULP energy -89164.734423 kJ/mol
# GULP energy per Si atom -5572.795901 kJ/mol
# Density = 2.390709 g / cm^3
# Si number density = 23.961625 Si / 1000 Ang^3
#
#
#
# Elastic Constant Matrix: (Units=GPa)
#
#
# Indices 1 2 3 4 5 6 
#
# 1 119.7468 40.8786 12.8694 -4.3495 10.2106 -10.0431
# 2 40.8786 153.1418 30.4861 1.0094 -6.6473 -3.1578
# 3 12.8694 30.4861 52.7655 -13.1946 2.9764 3.3591
# 4 -4.3495 1.0094 -13.1946 24.6026 4.7058 5.6627
# 5 10.2106 -6.6473 2.9764 4.7058 35.6672 -12.8060
# 6 -10.0431 -3.1578 3.3591 5.6627 -12.8060 39.1880
#
#
#
# Elastic Compliance Matrix: (Units=1/GPa)
#
#
# Indices 1 2 3 4 5 6 
#
# 1 0.009719 -0.002700 -0.000148 0.002155 -0.003227 0.000920
# 2 -0.002700 0.008825 -0.006364 -0.005853 0.004789 0.002976
# 3 -0.000148 -0.006364 0.028592 0.019370 -0.009254 -0.008825
# 4 0.002155 -0.005853 0.019370 0.058375 -0.016566 -0.015428
# 5 -0.003227 0.004789 -0.009254 -0.016566 0.038290 0.015258
# 6 0.000920 0.002976 -0.008825 -0.015428 0.015258 0.033966
#
#
# Mechanical properties :
#
#
# Convention : Reuss Voigt Hill
#
# Bulk Modulus (GPa) = 34.82750 54.90248 44.86499
# Shear Modulus (GPa) = 24.29992 35.98623 30.14307
#
# Velocity S-wave (km/s) = 3.18798 3.87955 3.55064
# Velocity P-wave (km/s) = 5.30256 6.55974 5.96437
#
# Compressibility (1/GPa) = 0.02871294
#
# Stress axis : x y z
#
# Youngs Moduli (GPa) = 102.88824 113.31002 34.97470
#
# Poissons Ratio (x) = 0.30597 0.00517
# Poissons Ratio (y) = 0.27783 0.22257
# Poissons Ratio (z) = 0.01522 0.72107
#
# Static dielectric constant tensor:
#      x y z
#    x 2.009170 -0.107890 -0.167510 
#    y -0.107890 2.050150 0.120820 
#    z -0.167510 0.120820 2.188790 
# 
# From -- ./inp_files/562013.got.cif
#   From: 2010.05.17/outbox.cif.g08.bks.cpg/sg2_282_cif.got.tgz:562013.got - 2010.06.03 11:33:40.
