data_PCOD9105599
_publ_section_title
;
Structure prediction by ZEFSAII (Michael W. Deem and Ramdas Pophale) SiO2 
 PCOD9105599
Probable space group: P -1
;
_chemical_formula_sum "Si O2"
_cell_formula_units_Z 16
_cell_length_a 17.289603
_cell_length_b 5.266195
_cell_length_c 10.865329
_cell_angle_alpha 126.860293
_cell_angle_beta 50.766624
_cell_angle_gamma 117.340065
_cell_volume 607.990606
_symmetry_space_group_name_H-M "P -1"
_symmetry_group_IT_number 2
_symmetry_cell_setting 'triclinic'
loop_
_space_group_symop_operation_xyz
x,y,z
-x,-y,-z
loop_
_atom_site_type_symbol
_atom_site_label
_atom_site_fract_x
_atom_site_fract_y
_atom_site_fract_z
Si Si1 0.452403 0.770896 0.872159
Si Si2 0.909483 0.040765 0.014762
Si Si3 0.048883 0.546968 0.291173
Si Si4 0.705687 0.807513 0.836688
Si Si5 0.743387 0.873329 0.342564
Si Si6 0.134828 0.125370 0.523254
Si Si7 0.435833 0.763787 0.296028
Si Si8 0.211207 0.714064 0.964208
O O1 0.491404 0.432656 0.754770
O O2 0.499359 0.948409 0.755818
O O3 0.500000 0.000000 0.000000
O O4 0.338723 0.847777 0.024926
O O5 0.946971 0.825139 0.802671
O O6 0.815172 0.969042 0.182519
O O7 0.878460 0.344214 0.065181
O O8 0.000000 0.000000 0.000000
O O9 0.948869 0.638228 0.350973
O O10 0.078419 0.774487 0.442667
O O11 0.143483 0.622979 0.125330
O O12 0.781464 0.783011 0.641841
O O13 0.621698 0.501898 0.819429
O O14 0.754052 0.900107 0.947817
O O15 0.803729 0.893477 0.417434
O O16 0.708920 0.501439 0.234283
O O17 0.653250 0.086931 0.502631
#
# Coordination Sequence:
#
# PCOD9105599 Si02
#       8
#     2   2   2   2   2   2   2   2
#     4  10  21  43  67 102 132 169 217 279 346 401
#     4  11  23  38  62  86 134 176 216 259 336 393
#     4   9  21  40  58  93 125 176 215 277 322 391
#     4  10  22  41  70  96 125 174 214 283 329 397
#     4  11  24  39  63  94 126 176 215 275 326 397
#     4  10  20  39  65  91 131 161 232 272 327 381
#     4  11  24  41  72 100 131 169 226 279 337 399
#     4  10  23  43  60  92 136 171 223 262 337 396
#
# _framework density 26.316196999999999
#
# number of rings (size 3 to 8) (size 9 to 14) (size 15 to 20)
#    0.000    1.750    0.000    4.500    7.000    2.000 
#    9.000    3.750    0.000    0.000    0.000    0.000 
#    0.000    0.000    0.000    0.000    0.000    0.000 
#
# Total GULP energy -89283.454850 kJ/mol
# GULP energy per Si atom -5580.215928 kJ/mol
# Density = 2.625630 g / cm^3
# Si number density = 26.316197 Si / 1000 Ang^3
#
#
#
# Elastic Constant Matrix: (Units=GPa)
#
#
# Indices 1 2 3 4 5 6 
#
# 1 50.0875 21.1678 59.6076 -1.1784 -11.8964 -8.3671
# 2 21.1678 75.9360 53.2468 -6.7863 -10.9142 -14.8821
# 3 59.6076 53.2468 202.6910 4.4505 -41.7396 -15.6653
# 4 -1.1784 -6.7863 4.4505 47.3156 -0.3678 -8.2578
# 5 -11.8964 -10.9142 -41.7396 -0.3678 53.1819 5.7139
# 6 -8.3671 -14.8821 -15.6653 -8.2578 5.7139 34.4325
#
#
#
# Elastic Compliance Matrix: (Units=1/GPa)
#
#
# Indices 1 2 3 4 5 6 
#
# 1 0.031595 -0.001967 -0.008651 0.001913 -0.000481 0.003430
# 2 -0.001967 0.017983 -0.003811 0.004037 -0.000422 0.006599
# 3 -0.008651 -0.003811 0.009445 -0.001728 0.004754 -0.000656
# 4 0.001913 0.004037 -0.001728 0.023156 -0.000702 0.007094
# 5 -0.000481 -0.000422 0.004754 -0.000702 0.022556 -0.002047
# 6 0.003430 0.006599 -0.000656 0.007094 -0.002047 0.034471
#
#
# Mechanical properties :
#
#
# Convention : Reuss Voigt Hill
#
# Bulk Modulus (GPa) = 33.15076 66.30655 49.72866
# Shear Modulus (GPa) = 28.07104 39.96551 34.01827
#
# Velocity S-wave (km/s) = 3.26955 3.90123 3.59928
# Velocity P-wave (km/s) = 5.18438 6.74860 6.01753
#
# Compressibility (1/GPa) = 0.03016522
#
# Stress axis : x y z
#
# Youngs Moduli (GPa) = 31.65043 55.60750 105.87550
#
# Poissons Ratio (x) = 0.10940 0.91589
# Poissons Ratio (y) = 0.06227 0.40350
# Poissons Ratio (z) = 0.27380 0.21192
#
# Static dielectric constant tensor:
#      x y z
#    x 1.498500 0.414870 0.046620 
#    y 0.414870 2.416530 0.106210 
#    z 0.046620 0.106210 2.022810 
# 
# From -- ./inp_files/53520.got.cif
#   From: 2010.05.17/outbox.cif.g08.bks.cpg/sg2_27_cif.got.tgz:53520.got - 2010.06.03 11:33:40.
