data_PCOD9105134
_publ_section_title
;
Structure prediction by ZEFSAII (Michael W. Deem and Ramdas Pophale) SiO2 
 PCOD9105134
Probable space group: P -1
;
_chemical_formula_sum "Si O2"
_cell_formula_units_Z 14
_cell_length_a 11.549954
_cell_length_b 8.444731
_cell_length_c 8.295292
_cell_angle_alpha 71.350537
_cell_angle_beta 50.722215
_cell_angle_gamma 81.366504
_cell_volume 591.908233
_symmetry_space_group_name_H-M "P -1"
_symmetry_group_IT_number 2
_symmetry_cell_setting 'triclinic'
loop_
_space_group_symop_operation_xyz
x,y,z
-x,-y,-z
loop_
_atom_site_type_symbol
_atom_site_label
_atom_site_fract_x
_atom_site_fract_y
_atom_site_fract_z
Si Si1 0.054347 0.372845 0.285686
Si Si2 0.411899 0.231403 0.454833
Si Si3 0.716895 0.428355 0.566534
Si Si4 0.018002 0.790092 0.928128
Si Si5 0.309278 0.652099 0.047627
Si Si6 0.978154 0.158798 0.729571
Si Si7 0.339190 0.876189 0.523692
O O1 0.199456 0.497765 0.133428
O O2 0.894753 0.447959 0.441175
O O3 0.038666 0.336484 0.119971
O O4 0.055606 0.230301 0.472309
O O5 0.334660 0.399417 0.518574
O O6 0.490904 0.148778 0.564186
O O7 0.325636 0.077412 0.482582
O O8 0.555413 0.289550 0.202854
O O9 0.629349 0.406897 0.817191
O O10 0.688583 0.250072 0.560253
O O11 0.198948 0.801308 0.779504
O O12 0.963262 0.778322 0.163885
O O13 0.981711 0.962114 0.816758
O O14 0.194118 0.793629 0.143069
#
# Coordination Sequence:
#
# PCOD9105134 Si02
#       7
#     2   2   2   2   2   2   2
#     4  10  23  41  64  99 128 166 219 270 324 396
#     4  11  23  43  64  91 133 167 217 269 322 395
#     4  10  22  43  66  91 126 173 213 264 335 379
#     4  10  21  40  66  98 124 175 213 270 336 379
#     4  11  23  42  59  97 128 163 217 272 321 392
#     4  10  20  39  63  92 133 163 212 271 325 386
#     4  10  23  42  65  93 127 171 220 268 321 391
#
# _framework density 23.652315999999999
#
# number of rings (size 3 to 8) (size 9 to 14) (size 15 to 20)
#    0.000    1.714    1.429    3.000    4.000    1.143 
#    5.143    0.000    0.000    0.000    0.000    0.000 
#    0.000    0.000    0.000    0.000    0.000    0.000 
#
# Total GULP energy -78048.381024 kJ/mol
# GULP energy per Si atom -5574.884359 kJ/mol
# Density = 2.359848 g / cm^3
# Si number density = 23.652316 Si / 1000 Ang^3
#
#
#
# Elastic Constant Matrix: (Units=GPa)
#
#
# Indices 1 2 3 4 5 6 
#
# 1 66.6046 39.5283 19.7566 -9.6672 9.2312 8.6036
# 2 39.5283 71.7478 27.4013 -5.4014 16.2606 12.2065
# 3 19.7566 27.4013 73.0411 -6.4351 0.4563 25.5762
# 4 -9.6672 -5.4014 -6.4351 28.2238 0.1455 4.3504
# 5 9.2312 16.2606 0.4563 0.1455 29.7085 -8.4414
# 6 8.6036 12.2065 25.5762 4.3504 -8.4414 44.6205
#
#
#
# Elastic Compliance Matrix: (Units=1/GPa)
#
#
# Indices 1 2 3 4 5 6 
#
# 1 0.023359 -0.011457 -0.000894 0.005876 -0.001489 -0.001712
# 2 -0.011457 0.025470 -0.004866 0.000547 -0.011502 -0.004199
# 3 -0.000894 -0.004866 0.019836 0.004891 -0.000345 -0.010409
# 4 0.005876 0.000547 0.004891 0.040065 -0.004933 -0.008926
# 5 -0.001489 -0.011502 -0.000345 -0.004933 0.043981 0.012433
# 6 -0.001712 -0.004199 -0.010409 -0.008926 0.012433 0.033078
#
#
# Mechanical properties :
#
#
# Convention : Reuss Voigt Hill
#
# Bulk Modulus (GPa) = 29.21211 42.75175 35.98193
# Shear Modulus (GPa) = 21.58593 28.82438 25.20516
#
# Velocity S-wave (km/s) = 3.02426 3.49473 3.26798
# Velocity P-wave (km/s) = 4.95705 5.86503 5.43005
#
# Compressibility (1/GPa) = 0.03423238
#
# Stress axis : x y z
#
# Youngs Moduli (GPa) = 42.81047 39.26157 50.41378
#
# Poissons Ratio (x) = 0.44981 0.04506
# Poissons Ratio (y) = 0.49046 0.24531
# Poissons Ratio (z) = 0.03826 0.19104
#
# Static dielectric constant tensor:
#      x y z
#    x 1.964750 -0.053600 0.030580 
#    y -0.053600 2.012860 -0.014100 
#    z 0.030580 -0.014100 1.882630 
# 
# From -- ./inp_files/208444.got.cif
#   From: 2010.05.17/outbox.cif.g08.bks.cpg/sg2_105_cif.got.tgz:208444.got - 2010.06.03 11:33:40.
