data_PCOD9105699
_publ_section_title
;
Structure prediction by ZEFSAII (Michael W. Deem and Ramdas Pophale) SiO2 
 PCOD9105699
Probable space group: P -1
;
_chemical_formula_sum "Si O2"
_cell_formula_units_Z 16
_cell_length_a 14.306238
_cell_length_b 12.058970
_cell_length_c 14.615958
_cell_angle_alpha 115.920667
_cell_angle_beta 42.927914
_cell_angle_gamma 148.178482
_cell_volume 776.071058
_symmetry_space_group_name_H-M "P -1"
_symmetry_group_IT_number 2
_symmetry_cell_setting 'triclinic'
loop_
_space_group_symop_operation_xyz
x,y,z
-x,-y,-z
loop_
_atom_site_type_symbol
_atom_site_label
_atom_site_fract_x
_atom_site_fract_y
_atom_site_fract_z
Si Si1 0.562204 0.811673 0.758098
Si Si2 0.903235 0.635342 0.436523
Si Si3 0.014049 0.408154 0.108579
Si Si4 0.936963 0.813074 0.947788
Si Si5 0.675322 0.378982 0.325425
Si Si6 0.099879 0.886094 0.649270
Si Si7 0.194272 0.714268 0.588765
Si Si8 0.315282 0.325157 0.272811
O O1 0.417756 0.637915 0.710283
O O2 0.728116 0.839095 0.706402
O O3 0.310714 0.662870 0.945802
O O4 0.783590 0.083801 0.666047
O O5 0.876314 0.601166 0.333067
O O6 0.813817 0.437232 0.475741
O O7 0.711151 0.591726 0.599979
O O8 0.948715 0.210870 0.079657
O O9 0.800627 0.341447 0.198420
O O10 0.997306 0.419895 0.233100
O O11 0.039582 0.873230 0.792762
O O12 0.611334 0.547147 0.094694
O O13 0.000000 0.000000 0.000000
O O14 0.404784 0.155389 0.498959
O O15 0.083793 0.724427 0.597359
O O16 0.899376 0.801591 0.695420
O O17 0.500000 0.000000 0.500000
#
# Coordination Sequence:
#
# PCOD9105699 Si02
#       8
#     2   2   2   2   2   2   2   2
#     4  11  24  45  60  93 133 166 219 259 309 377
#     4  11  23  40  67  94 124 174 210 257 323 374
#     4   9  21  40  65  88 131 163 204 278 306 362
#     4  10  22  39  64  92 126 165 212 257 319 386
#     4  11  22  40  67  92 122 170 209 267 312 371
#     4  11  21  40  64  91 131 161 205 266 322 365
#     4  10  20  39  65  95 127 161 210 266 312 375
#     4  11  24  42  62  92 131 169 207 268 309 379
#
# _framework density 20.616668000000001
#
# number of rings (size 3 to 8) (size 9 to 14) (size 15 to 20)
#    0.000    1.500    3.750    1.875    1.750    3.000 
#    6.750    0.000    0.000    0.000    0.000    0.000 
#    0.000    0.000    0.000    0.000    0.000    0.000 
#
# Total GULP energy -89238.095292 kJ/mol
# GULP energy per Si atom -5577.380956 kJ/mol
# Density = 2.056974 g / cm^3
# Si number density = 20.616668 Si / 1000 Ang^3
#
#
#
# Elastic Constant Matrix: (Units=GPa)
#
#
# Indices 1 2 3 4 5 6 
#
# 1 101.7341 17.2095 16.4799 2.8425 -10.8179 -2.4924
# 2 17.2095 66.5282 22.8886 4.2569 -6.7945 -11.9175
# 3 16.4799 22.8886 130.3313 -0.9590 -1.7996 -7.9671
# 4 2.8425 4.2569 -0.9590 13.8252 -2.0775 0.3222
# 5 -10.8179 -6.7945 -1.7996 -2.0775 25.7544 6.4590
# 6 -2.4924 -11.9175 -7.9671 0.3222 6.4590 28.3269
#
#
#
# Elastic Compliance Matrix: (Units=1/GPa)
#
#
# Indices 1 2 3 4 5 6 
#
# 1 0.010795 -0.002175 -0.001005 -0.000975 0.004106 -0.001173
# 2 -0.002175 0.018113 -0.002530 -0.005205 0.001664 0.006397
# 3 -0.001005 -0.002530 0.008326 0.001423 -0.000729 0.001339
# 4 -0.000975 -0.005205 0.001423 0.075132 0.005369 -0.003954
# 5 0.004106 0.001664 -0.000729 0.005369 0.043672 -0.009163
# 6 -0.001173 0.006397 0.001339 -0.003954 -0.009163 0.040401
#
#
# Mechanical properties :
#
#
# Convention : Reuss Voigt Hill
#
# Bulk Modulus (GPa) = 38.73868 45.74996 42.24432
# Shear Modulus (GPa) = 23.09825 29.71568 26.40697
#
# Velocity S-wave (km/s) = 3.35082 3.80062 3.58279
# Velocity P-wave (km/s) = 5.81390 6.44194 6.13596
#
# Compressibility (1/GPa) = 0.02581399
#
# Stress axis : x y z
#
# Youngs Moduli (GPa) = 92.63163 55.20797 120.09882
#
# Poissons Ratio (x) = 0.12008 0.12073
# Poissons Ratio (y) = 0.20148 0.30388
# Poissons Ratio (z) = 0.09312 0.13969
#
# Static dielectric constant tensor:
#      x y z
#    x 1.795930 -0.014930 -0.007690 
#    y -0.014930 1.759660 0.022350 
#    z -0.007690 0.022350 1.725370 
# 
# From -- ./inp_files/457545.got.cif
#   From: 2010.05.17/outbox.cif.g08.bks.cpg/sg2_229_cif.got.tgz:457545.got - 2010.06.03 11:33:40.
