data_PCOD9105836
_publ_section_title
;
Structure prediction by ZEFSAII (Michael W. Deem and Ramdas Pophale) SiO2 
 PCOD9105836
Probable space group: P -1
;
_chemical_formula_sum "Si O2"
_cell_formula_units_Z 14
_cell_length_a 7.000057
_cell_length_b 13.094833
_cell_length_c 17.539161
_cell_angle_alpha 156.159155
_cell_angle_beta 67.813161
_cell_angle_gamma 117.907084
_cell_volume 568.502997
_symmetry_space_group_name_H-M "P -1"
_symmetry_group_IT_number 2
_symmetry_cell_setting 'triclinic'
loop_
_space_group_symop_operation_xyz
x,y,z
-x,-y,-z
loop_
_atom_site_type_symbol
_atom_site_label
_atom_site_fract_x
_atom_site_fract_y
_atom_site_fract_z
Si Si1 0.176951 0.325854 0.136182
Si Si2 0.943199 0.732797 0.714670
Si Si3 0.067004 0.773553 0.128892
Si Si4 0.668866 0.449052 0.880596
Si Si5 0.587504 0.933613 0.826577
Si Si6 0.292886 0.607306 0.759916
Si Si7 0.825164 0.960920 0.564953
O O1 0.187114 0.359015 0.248687
O O2 0.359880 0.510136 0.177171
O O3 0.956189 0.399701 0.203594
O O4 0.130209 0.011935 0.904865
O O5 0.783543 0.826498 0.748083
O O6 0.000000 0.500000 0.500000
O O7 0.318695 0.908900 0.157632
O O8 0.036121 0.974593 0.333116
O O9 0.000000 0.500000 0.000000
O O10 0.897829 0.684157 0.025230
O O11 0.698511 0.167374 0.705402
O O12 0.500000 0.500000 0.000000
O O13 0.378210 0.686971 0.715232
O O14 0.582989 0.167145 0.044249
O O15 0.319958 0.338816 0.603369
O O16 0.000000 0.000000 0.500000
#
# Coordination Sequence:
#
# PCOD9105836 Si02
#       7
#     2   2   2   2   2   2   2
#     4  10  21  43  61  89 132 171 214 276 332 384
#     4  10  22  39  63  89 131 174 208 268 340 395
#     4  10  21  42  64  91 127 172 208 270 332 388
#     4  11  23  44  66  94 132 175 220 273 334 398
#     4  10  21  41  62  92 127 162 215 267 325 389
#     4  10  20  39  66  90 123 163 218 266 320 385
#     4  11  22  41  68  93 128 172 222 269 329 398
#
# _framework density 24.626079000000001
#
# number of rings (size 3 to 8) (size 9 to 14) (size 15 to 20)
#    0.000    1.714    4.286    0.857    2.000    1.714 
#   23.143    0.714    0.000    0.000    0.000    0.000 
#    0.000    0.000    0.000    0.000    0.000    0.000 
#
# Total GULP energy -78102.467789 kJ/mol
# GULP energy per Si atom -5578.747699 kJ/mol
# Density = 2.457003 g / cm^3
# Si number density = 24.626079 Si / 1000 Ang^3
#
#
#
# Elastic Constant Matrix: (Units=GPa)
#
#
# Indices 1 2 3 4 5 6 
#
# 1 23.3194 18.3439 29.0260 4.6685 -14.5211 -1.0743
# 2 18.3439 226.3053 69.6641 8.7735 -17.8098 4.3878
# 3 29.0260 69.6641 179.6002 4.7360 -21.9255 -0.2035
# 4 4.6685 8.7735 4.7360 37.1066 -3.7358 -2.6064
# 5 -14.5211 -17.8098 -21.9255 -3.7358 37.0427 -6.3409
# 6 -1.0743 4.3878 -0.2035 -2.6064 -6.3409 34.0076
#
#
#
# Elastic Compliance Matrix: (Units=1/GPa)
#
#
# Indices 1 2 3 4 5 6 
#
# 1 0.068634 -0.001376 -0.007712 -0.004657 0.022252 0.006092
# 2 -0.001376 0.005145 -0.001660 -0.000799 0.000762 -0.000636
# 3 -0.007712 -0.001660 0.007533 0.000487 0.000719 0.000187
# 4 -0.004657 -0.000799 0.000487 0.027958 0.001299 0.002344
# 5 0.022252 0.000762 0.000719 0.001299 0.037975 0.007789
# 6 0.006092 -0.000636 0.000187 0.002344 0.007789 0.031313
#
#
# Mechanical properties :
#
#
# Convention : Reuss Voigt Hill
#
# Bulk Modulus (GPa) = 16.71788 73.69921 45.20854
# Shear Modulus (GPa) = 22.72814 42.44409 32.58612
#
# Velocity S-wave (km/s) = 3.04127 4.15606 3.64158
# Velocity P-wave (km/s) = 4.37446 7.28167 6.00660
#
# Compressibility (1/GPa) = 0.05981621
#
# Stress axis : x y z
#
# Youngs Moduli (GPa) = 14.57004 194.38009 132.74432
#
# Poissons Ratio (x) = 0.26738 1.02379
# Poissons Ratio (y) = 0.02004 0.22032
# Poissons Ratio (z) = 0.11237 0.32263
#
# Static dielectric constant tensor:
#      x y z
#    x 4.184350 1.518950 2.607420 
#    y 1.518950 3.382430 1.982280 
#    z 2.607420 1.982280 5.115930 
# 
# From -- ./inp_files/590502.got.cif
#   From: 2010.05.17/outbox.cif.g08.bks.cpg/sg2_296_cif.got.tgz:590502.got - 2010.06.03 11:33:40.
