data_PCOD9105346
_publ_section_title
;
Structure prediction by ZEFSAII (Michael W. Deem and Ramdas Pophale) SiO2 
 PCOD9105346
Probable space group: P -1
;
_chemical_formula_sum "Si O2"
_cell_formula_units_Z 12
_cell_length_a 15.914390
_cell_length_b 9.072627
_cell_length_c 9.200706
_cell_angle_alpha 103.163765
_cell_angle_beta 29.732476
_cell_angle_gamma 103.192058
_cell_volume 640.254538
_symmetry_space_group_name_H-M "P -1"
_symmetry_group_IT_number 2
_symmetry_cell_setting 'triclinic'
loop_
_space_group_symop_operation_xyz
x,y,z
-x,-y,-z
loop_
_atom_site_type_symbol
_atom_site_label
_atom_site_fract_x
_atom_site_fract_y
_atom_site_fract_z
Si Si1 0.532223 0.447335 0.100801
Si Si2 0.667474 0.459745 0.327181
Si Si3 0.360180 0.894349 0.103422
Si Si4 0.341995 0.898367 0.779702
Si Si5 0.981686 0.939775 0.679311
Si Si6 0.146086 0.408767 0.187268
O O1 0.362746 0.465311 0.455061
O O2 0.500000 0.500000 0.000000
O O3 0.598080 0.279131 0.969579
O O4 0.681583 0.554538 0.973325
O O5 0.500000 0.500000 0.500000
O O6 0.662949 0.277944 0.296890
O O7 0.819262 0.530955 0.015305
O O8 0.173971 0.936684 0.446537
O O9 0.359637 0.909820 0.931757
O O10 0.500000 0.000000 0.000000
O O11 0.500000 0.000000 0.500000
O O12 0.162486 0.960840 0.015133
O O13 0.906194 0.767533 0.763311
O O14 0.000000 0.000000 0.500000
O O15 0.000000 0.500000 0.500000
#
# Coordination Sequence:
#
# PCOD9105346 Si02
#       6
#     2   2   2   2   2   2
#     4  11  24  40  64  93 124 169 212 259 322 367
#     4  10  20  39  64  91 121 166 218 255 305 380
#     4  11  24  42  61  92 132 161 208 265 324 375
#     4  11  21  39  68  94 123 165 211 261 315 382
#     4  10  22  38  63  96 120 166 214 253 317 385
#     4  11  19  40  68  87 125 165 214 266 304 376
#
# _framework density 18.742545
#
# number of rings (size 3 to 8) (size 9 to 14) (size 15 to 20)
#    0.000    1.333    5.000    3.000    7.000    0.000 
#    0.000    1.667    0.000    0.000    0.000    0.000 
#    0.000    0.000    0.000    0.000    0.000    0.000 
#
# Total GULP energy -66945.554714 kJ/mol
# GULP energy per Si atom -5578.796226 kJ/mol
# Density = 1.869989 g / cm^3
# Si number density = 18.742545 Si / 1000 Ang^3
#
#
#
# Elastic Constant Matrix: (Units=GPa)
#
#
# Indices 1 2 3 4 5 6 
#
# 1 87.1869 35.8280 48.6226 -1.7912 1.6161 -6.9597
# 2 35.8280 141.9893 61.3114 3.2581 -23.8984 -25.4008
# 3 48.6226 61.3114 156.6354 7.6306 -5.7409 -22.1560
# 4 -1.7912 3.2581 7.6306 40.9278 -5.5083 -4.1608
# 5 1.6161 -23.8984 -5.7409 -5.5083 35.4622 -9.1904
# 6 -6.9597 -25.4008 -22.1560 -4.1608 -9.1904 28.8538
#
#
#
# Elastic Compliance Matrix: (Units=1/GPa)
#
#
# Indices 1 2 3 4 5 6 
#
# 1 0.014951 -0.003551 -0.004019 0.000653 -0.004659 -0.003996
# 2 -0.003551 0.013284 -0.001778 0.002246 0.012768 0.013863
# 3 -0.004019 -0.001778 0.009115 -0.001037 0.001545 0.004807
# 4 0.000653 0.002246 -0.001037 0.026219 0.007320 0.007451
# 5 -0.004659 0.012768 0.001545 0.007320 0.045349 0.026803
# 6 -0.003996 0.013863 0.004807 0.007451 0.026803 0.059201
#
#
# Mechanical properties :
#
#
# Convention : Reuss Voigt Hill
#
# Bulk Modulus (GPa) = 53.60778 75.25949 64.43364
# Shear Modulus (GPa) = 25.90235 37.05208 31.47721
#
# Velocity S-wave (km/s) = 3.72157 4.45105 4.10256
# Velocity P-wave (km/s) = 6.86521 8.16440 7.54283
#
# Compressibility (1/GPa) = 0.01865401
#
# Stress axis : x y z
#
# Youngs Moduli (GPa) = 66.88535 75.27825 109.71159
#
# Poissons Ratio (x) = 0.26733 0.44091
# Poissons Ratio (y) = 0.23753 0.19505
# Poissons Ratio (z) = 0.26880 0.13384
#
# Static dielectric constant tensor:
#      x y z
#    x 1.635300 -0.019980 0.026890 
#    y -0.019980 1.655890 -0.007020 
#    z 0.026890 -0.007020 1.726570 
# 
# From -- ./inp_files/145897.got.cif
#   From: 2010.05.17/outbox.cif.g08.bks.cpg/sg2_73_cif.got.tgz:145897.got - 2010.06.03 11:33:40.
