data_PCOD9105682
_publ_section_title
;
Structure prediction by ZEFSAII (Michael W. Deem and Ramdas Pophale) SiO2 
 PCOD9105682
Probable space group: P -1
;
_chemical_formula_sum "Si O2"
_cell_formula_units_Z 15
_cell_length_a 8.185742
_cell_length_b 14.416495
_cell_length_c 8.287577
_cell_angle_alpha 66.763040
_cell_angle_beta 98.403146
_cell_angle_gamma 133.598199
_cell_volume 639.057216
_symmetry_space_group_name_H-M "P -1"
_symmetry_group_IT_number 2
_symmetry_cell_setting 'triclinic'
loop_
_space_group_symop_operation_xyz
x,y,z
-x,-y,-z
loop_
_atom_site_type_symbol
_atom_site_label
_atom_site_fract_x
_atom_site_fract_y
_atom_site_fract_z
Si Si1 0.979549 0.082764 0.820249
Si Si2 0.528008 0.875032 0.722871
Si Si3 0.331197 0.305650 0.481736
Si Si4 0.178820 0.769277 0.204725
Si Si5 0.797748 0.529696 0.550441
Si Si6 0.000000 0.000000 0.500000
Si Si7 0.595395 0.947809 0.334296
Si Si8 0.187224 0.623992 0.058753
O O1 0.864399 0.130422 0.854105
O O2 0.223355 0.220916 0.694101
O O3 0.809449 0.989317 0.703329
O O4 0.000000 0.000000 0.000000
O O5 0.470791 0.849412 0.544199
O O6 0.435084 0.944849 0.718878
O O7 0.416602 0.743315 0.908086
O O8 0.603577 0.422361 0.462376
O O9 0.259387 0.392473 0.411301
O O10 0.202914 0.178457 0.426265
O O11 0.445910 0.859412 0.217127
O O12 0.110765 0.698079 0.071945
O O13 0.028461 0.652166 0.402232
O O14 0.797248 0.441020 0.740208
O O15 0.845274 0.007623 0.346581
O O16 0.000000 0.500000 0.000000
#
# Coordination Sequence:
#
# PCOD9105682 Si02
#       8
#     2   2   2   2   2   1   2   2
#     4  10  20  39  65  94 133 166 212 271 341 391
#     4  10  22  41  63  96 133 171 214 275 330 388
#     4  10  22  39  65  96 126 171 217 278 324 396
#     4  10  23  43  67  93 128 182 222 269 326 404
#     4  10  22  44  67  89 133 177 226 262 335 401
#     4  12  22  36  68 102 122 164 226 272 326 382
#     4  10  22  41  69  95 132 168 224 274 331 396
#     4  12  25  38  62  94 129 173 222 270 326 391
#
# _framework density 23.472075
#
# number of rings (size 3 to 8) (size 9 to 14) (size 15 to 20)
#    0.000    1.600    1.333    2.800    3.733    4.267 
#    0.000    0.000    0.000    4.000    0.000    0.000 
#    0.000    0.000    0.000    0.000    0.000    0.000 
#
# Total GULP energy -83662.418878 kJ/mol
# GULP energy per Si atom -5577.494592 kJ/mol
# Density = 2.341865 g / cm^3
# Si number density = 23.472075 Si / 1000 Ang^3
#
#
#
# Elastic Constant Matrix: (Units=GPa)
#
#
# Indices 1 2 3 4 5 6 
#
# 1 88.4462 48.8620 13.2886 -4.1678 19.7831 11.8715
# 2 48.8620 146.6716 11.6948 19.4239 6.2644 1.9413
# 3 13.2886 11.6948 89.3009 -22.9485 13.9564 1.2264
# 4 -4.1678 19.4239 -22.9485 46.2533 -4.5513 -6.4713
# 5 19.7831 6.2644 13.9564 -4.5513 21.8434 -2.2365
# 6 11.8715 1.9413 1.2264 -6.4713 -2.2365 42.2345
#
#
#
# Elastic Compliance Matrix: (Units=1/GPa)
#
#
# Indices 1 2 3 4 5 6 
#
# 1 0.018908 -0.005948 0.001204 0.002421 -0.016253 -0.005566
# 2 -0.005948 0.009529 -0.002191 -0.005235 0.003030 0.000656
# 3 0.001204 -0.002191 0.014488 0.007419 -0.008169 0.000046
# 4 0.002421 -0.005235 0.007419 0.028323 0.000852 0.003730
# 5 -0.016253 0.003030 -0.008169 0.000852 0.065877 0.008285
# 6 -0.005566 0.000656 0.000046 0.003730 0.008285 0.026221
#
#
# Mechanical properties :
#
#
# Convention : Reuss Voigt Hill
#
# Bulk Modulus (GPa) = 34.41530 52.45660 43.43595
# Shear Modulus (GPa) = 26.75227 38.77113 32.76170
#
# Velocity S-wave (km/s) = 3.37968 4.06864 3.74006
# Velocity P-wave (km/s) = 5.47026 6.66849 6.09887
#
# Compressibility (1/GPa) = 0.02905685
#
# Stress axis : x y z
#
# Youngs Moduli (GPa) = 52.88833 104.94128 69.02033
#
# Poissons Ratio (x) = 0.62415 -0.08310
# Poissons Ratio (y) = 0.31456 0.15120
# Poissons Ratio (z) = -0.06368 0.22988
#
# Static dielectric constant tensor:
#      x y z
#    x 1.864180 -0.015680 0.027320 
#    y -0.015680 1.877670 -0.025090 
#    z 0.027320 -0.025090 1.804600 
# 
# From -- ./inp_files/206446.got.cif
#   From: 2010.05.17/outbox.cif.g08.bks.cpg/sg2_104_cif.got.tgz:206446.got - 2010.06.03 11:33:40.
