data_PCOD9105016
_publ_section_title
;
Structure prediction by ZEFSAII (Michael W. Deem and Ramdas Pophale) SiO2 
 PCOD9105016
Probable space group: P -1
;
_chemical_formula_sum "Si O2"
_cell_formula_units_Z 14
_cell_length_a 12.889021
_cell_length_b 11.977011
_cell_length_c 8.684327
_cell_angle_alpha 126.477489
_cell_angle_beta 115.575468
_cell_angle_gamma 33.406164
_cell_volume 587.152125
_symmetry_space_group_name_H-M "P -1"
_symmetry_group_IT_number 2
_symmetry_cell_setting 'triclinic'
loop_
_space_group_symop_operation_xyz
x,y,z
-x,-y,-z
loop_
_atom_site_type_symbol
_atom_site_label
_atom_site_fract_x
_atom_site_fract_y
_atom_site_fract_z
Si Si1 0.499530 0.465931 0.194020
Si Si2 0.879371 0.220956 0.274978
Si Si3 0.142627 0.468621 0.991990
Si Si4 0.384909 0.376994 0.314776
Si Si5 0.794969 0.699422 0.448343
Si Si6 0.447685 0.845429 0.468774
Si Si7 0.135216 0.733777 0.040048
O O1 0.726729 0.245458 0.152711
O O2 0.443358 0.451853 0.309354
O O3 0.462423 0.665555 0.312675
O O4 0.364106 0.515200 0.030181
O O5 0.782665 0.406910 0.498007
O O6 0.910754 0.260029 0.160467
O O7 0.062122 0.956809 0.219815
O O8 0.200685 0.360172 0.772527
O O9 0.306320 0.341166 0.115365
O O10 0.054255 0.703816 0.086451
O O11 0.000000 0.500000 0.000000
O O12 0.552061 0.151623 0.341749
O O13 0.633737 0.760982 0.478396
O O14 0.000000 0.500000 0.500000
O O15 0.716905 0.930598 0.557659
#
# Coordination Sequence:
#
# PCOD9105016 Si02
#       7
#     2   2   2   2   2   2   2
#     4  10  21  38  63  95 124 154 200 258 312 366
#     4  10  20  39  63  88 123 159 202 255 307 365
#     4  11  24  39  60  91 127 165 207 252 304 370
#     4  10  22  41  63  93 128 160 202 258 315 368
#     4  11  25  44  65  90 125 167 212 254 297 367
#     4  10  22  42  68  92 120 166 207 251 312 362
#     4  10  23  38  60  91 120 163 207 251 306 358
#
# _framework density 23.843906
#
# number of rings (size 3 to 8) (size 9 to 14) (size 15 to 20)
#    0.000    1.714    0.000    4.714    0.000   12.000 
#    0.000    4.286    0.000    0.857    0.000    0.000 
#    0.000    0.000    0.000    0.000    0.000    0.000 
#
# Total GULP energy -78125.825996 kJ/mol
# GULP energy per Si atom -5580.416143 kJ/mol
# Density = 2.378964 g / cm^3
# Si number density = 23.843906 Si / 1000 Ang^3
#
#
#
# Elastic Constant Matrix: (Units=GPa)
#
#
# Indices 1 2 3 4 5 6 
#
# 1 146.2488 54.9882 27.6604 -23.0562 1.9604 29.7994
# 2 54.9882 111.1741 16.5521 -20.6906 -9.0745 9.7098
# 3 27.6604 16.5521 70.7132 -26.4288 -8.7172 -1.7306
# 4 -23.0562 -20.6906 -26.4288 28.3281 3.1748 -2.1135
# 5 1.9604 -9.0745 -8.7172 3.1748 31.4030 -10.5247
# 6 29.7994 9.7098 -1.7306 -2.1135 -10.5247 39.2385
#
#
#
# Elastic Compliance Matrix: (Units=1/GPa)
#
#
# Indices 1 2 3 4 5 6 
#
# 1 0.011619 -0.004358 -0.003371 0.003141 -0.006403 -0.009442
# 2 -0.004358 0.012342 0.002010 0.006999 0.004319 0.001880
# 3 -0.003371 0.002010 0.023702 0.020472 0.007375 0.006189
# 4 0.003141 0.006999 0.020472 0.061948 0.001414 0.000501
# 5 -0.006403 0.004319 0.007375 0.001414 0.040437 0.015041
# 6 -0.009442 0.001880 0.006189 0.000501 0.015041 0.036525
#
#
# Mechanical properties :
#
#
# Convention : Reuss Voigt Hill
#
# Bulk Modulus (GPa) = 27.60550 58.50416 43.05483
# Shear Modulus (GPa) = 23.79967 35.05629 29.42798
#
# Velocity S-wave (km/s) = 3.16277 3.83853 3.51692
# Velocity P-wave (km/s) = 4.99402 6.65097 5.88114
#
# Compressibility (1/GPa) = 0.03622466
#
# Stress axis : x y z
#
# Youngs Moduli (GPa) = 86.06650 81.02260 42.19076
#
# Poissons Ratio (x) = 0.35312 0.14223
# Poissons Ratio (y) = 0.37510 -0.08481
# Poissons Ratio (z) = 0.29013 -0.16286
#
# Static dielectric constant tensor:
#      x y z
#    x 1.929180 0.023230 0.022660 
#    y 0.023230 1.997290 0.002330 
#    z 0.022660 0.002330 1.994830 
# 
# From -- ./inp_files/260166.got.cif
#   From: 2010.05.17/outbox.cif.g08.bks.cpg/sg2_131_cif.got.tgz:260166.got - 2010.06.03 11:33:40.
