data_PCOD9105135
_publ_section_title
;
Structure prediction by ZEFSAII (Michael W. Deem and Ramdas Pophale) SiO2 
 PCOD9105135
Probable space group: P -1
;
_chemical_formula_sum "Si O2"
_cell_formula_units_Z 16
_cell_length_a 8.161997
_cell_length_b 28.301525
_cell_length_c 12.186332
_cell_angle_alpha 160.436808
_cell_angle_beta 55.038921
_cell_angle_gamma 128.908722
_cell_volume 731.564813
_symmetry_space_group_name_H-M "P -1"
_symmetry_group_IT_number 2
_symmetry_cell_setting 'triclinic'
loop_
_space_group_symop_operation_xyz
x,y,z
-x,-y,-z
loop_
_atom_site_type_symbol
_atom_site_label
_atom_site_fract_x
_atom_site_fract_y
_atom_site_fract_z
Si Si1 0.979106 0.346744 0.327388
Si Si2 0.095606 0.983703 0.310958
Si Si3 0.247548 0.051899 0.005114
Si Si4 0.421896 0.334826 0.716399
Si Si5 0.463627 0.869033 0.637456
Si Si6 0.737562 0.559796 0.794152
Si Si7 0.367547 0.415816 0.468048
Si Si8 0.666491 0.920429 0.219032
O O1 0.123978 0.361947 0.193883
O O2 0.133941 0.416006 0.523178
O O3 0.818922 0.429121 0.526321
O O4 0.874221 0.178596 0.042011
O O5 0.911734 0.992539 0.318369
O O6 0.319923 0.096733 0.438946
O O7 0.000000 0.000000 0.500000
O O8 0.340047 0.202348 0.370650
O O9 0.336399 0.085959 0.924181
O O10 0.299848 0.904624 0.699863
O O11 0.000000 0.000000 0.000000
O O12 0.591970 0.284437 0.612057
O O13 0.500000 0.500000 0.000000
O O14 0.250357 0.337097 0.879555
O O15 0.500000 0.000000 0.000000
O O16 0.496564 0.491688 0.692685
O O17 0.500000 0.500000 0.500000
O O18 0.379404 0.248509 0.091952
O O19 0.500000 0.000000 0.500000
#
# Coordination Sequence:
#
# PCOD9105135 Si02
#       8
#     2   2   2   2   2   2   2   2
#     4   9  21  36  61  95 129 173 217 282 335 405
#     4  11  22  38  66  95 131 170 226 273 338 408
#     4  11  25  48  67  98 140 178 225 285 342 410
#     4  11  24  43  69  96 128 181 227 272 340 420
#     4  10  23  42  66  90 130 176 219 273 333 401
#     4  10  20  39  63  92 133 172 220 274 347 395
#     4   9  20  39  58  93 136 166 216 281 339 399
#     4  11  23  39  66 100 127 172 223 282 337 399
#
# _framework density 21.870923999999999
#
# number of rings (size 3 to 8) (size 9 to 14) (size 15 to 20)
#    0.000    1.750    0.000    3.750    7.000    2.000 
#    9.000    0.625    0.000    0.000    0.000    0.000 
#    0.000    0.000    0.000    0.000    0.000    0.000 
#
# Total GULP energy -89210.526436 kJ/mol
# GULP energy per Si atom -5575.657902 kJ/mol
# Density = 2.182115 g / cm^3
# Si number density = 21.870924 Si / 1000 Ang^3
#
#
#
# Elastic Constant Matrix: (Units=GPa)
#
#
# Indices 1 2 3 4 5 6 
#
# 1 129.9605 52.5038 50.0112 6.2467 -21.6850 -21.0816
# 2 52.5038 93.1304 56.1365 5.4682 -14.5290 -11.9455
# 3 50.0112 56.1365 89.5650 3.8309 -13.0726 -16.8210
# 4 6.2467 5.4682 3.8309 57.1502 -15.5220 -3.0206
# 5 -21.6850 -14.5290 -13.0726 -15.5220 35.4294 3.5372
# 6 -21.0816 -11.9455 -16.8210 -3.0206 3.5372 29.8889
#
#
#
# Elastic Compliance Matrix: (Units=1/GPa)
#
#
# Indices 1 2 3 4 5 6 
#
# 1 0.011727 -0.003712 -0.002692 0.000731 0.004502 0.004814
# 2 -0.003712 0.018813 -0.009574 -0.000287 0.001859 -0.000736
# 3 -0.002692 -0.009574 0.019861 0.000559 0.001467 0.005335
# 4 0.000731 -0.000287 0.000559 0.019973 0.009121 0.001655
# 5 0.004502 0.001859 0.001467 0.009121 0.036141 0.001388
# 6 0.004814 -0.000736 0.005335 0.001655 0.001388 0.039564
#
#
# Mechanical properties :
#
#
# Convention : Reuss Voigt Hill
#
# Bulk Modulus (GPa) = 54.21025 69.99544 62.10285
# Shear Modulus (GPa) = 27.14689 34.76065 30.95377
#
# Velocity S-wave (km/s) = 3.52693 3.99100 3.76612
# Velocity P-wave (km/s) = 6.43630 7.30142 6.88247
#
# Compressibility (1/GPa) = 0.01844670
#
# Stress axis : x y z
#
# Youngs Moduli (GPa) = 85.27294 53.15348 50.35055
#
# Poissons Ratio (x) = 0.19730 0.13552
# Poissons Ratio (y) = 0.31653 0.48204
# Poissons Ratio (z) = 0.22952 0.50887
#
# Static dielectric constant tensor:
#      x y z
#    x 1.837340 0.011640 -0.002540 
#    y 0.011640 1.781850 0.009690 
#    z -0.002540 0.009690 1.856030 
# 
# From -- ./inp_files/407374.got.cif
#   From: 2010.05.17/outbox.cif.g08.bks.cpg/sg2_204_cif.got.tgz:407374.got - 2010.06.03 11:33:40.
