data_PCOD9105742
_publ_section_title
;
Structure prediction by ZEFSAII (Michael W. Deem and Ramdas Pophale) SiO2 
 PCOD9105742
Probable space group: P -1
;
_chemical_formula_sum "Si O2"
_cell_formula_units_Z 16
_cell_length_a 10.452222
_cell_length_b 8.613345
_cell_length_c 14.926326
_cell_angle_alpha 139.075108
_cell_angle_beta 123.561063
_cell_angle_gamma 80.102538
_cell_volume 654.950539
_symmetry_space_group_name_H-M "P -1"
_symmetry_group_IT_number 2
_symmetry_cell_setting 'triclinic'
loop_
_space_group_symop_operation_xyz
x,y,z
-x,-y,-z
loop_
_atom_site_type_symbol
_atom_site_label
_atom_site_fract_x
_atom_site_fract_y
_atom_site_fract_z
Si Si1 0.976417 0.703681 0.371716
Si Si2 0.612727 0.809580 0.649761
Si Si3 0.178940 0.092500 0.056482
Si Si4 0.271005 0.689139 0.372353
Si Si5 0.163129 0.793317 0.195472
Si Si6 0.752706 0.275411 0.215038
Si Si7 0.421471 0.149417 0.912070
Si Si8 0.314456 0.572249 0.010867
O O1 0.896938 0.568944 0.376957
O O2 0.834823 0.535293 0.168090
O O3 0.145394 0.673701 0.398136
O O4 0.000000 0.000000 0.500000
O O5 0.500000 0.500000 0.500000
O O6 0.686935 0.923358 0.826906
O O7 0.464444 0.824993 0.538353
O O8 0.789104 0.916176 0.703012
O O9 0.231595 0.399808 0.191724
O O10 0.187090 0.920633 0.901095
O O11 0.000000 0.000000 0.000000
O O12 0.224994 0.836419 0.339359
O O13 0.278520 0.735793 0.143343
O O14 0.000000 0.500000 0.000000
O O15 0.698020 0.153646 0.239511
O O16 0.578085 0.248486 0.087139
O O17 0.318728 0.322643 0.952565
O O18 0.507251 0.239841 0.887391
#
# Coordination Sequence:
#
# PCOD9105742 Si02
#       8
#     2   2   2   2   2   2   2   2
#     4  11  23  40  60  90 136 185 215 269 337 411
#     4  10  24  40  59  99 142 169 210 275 354 397
#     4  11  20  39  70  97 131 175 225 283 335 400
#     4  11  23  41  62 102 139 175 215 284 349 395
#     4  12  22  41  73  97 131 178 236 282 324 412
#     4  10  20  39  65  97 125 173 235 269 332 396
#     4   9  20  37  63  93 126 158 218 288 316 386
#     4  10  21  41  65  96 126 173 237 275 329 389
#
# _framework density 24.429324999999999
#
# number of rings (size 3 to 8) (size 9 to 14) (size 15 to 20)
#    0.000    1.500    2.500    3.375    0.000    4.000 
#    0.000    9.375    0.000    0.000    0.000    0.000 
#    0.000    0.000    0.000    0.000    0.000    0.000 
#
# Total GULP energy -89233.627025 kJ/mol
# GULP energy per Si atom -5577.101689 kJ/mol
# Density = 2.437372 g / cm^3
# Si number density = 24.429325 Si / 1000 Ang^3
#
#
#
# Elastic Constant Matrix: (Units=GPa)
#
#
# Indices 1 2 3 4 5 6 
#
# 1 47.2413 15.3972 17.6255 -0.1665 22.9596 19.0065
# 2 15.3972 109.9554 10.3272 13.3226 20.2030 36.9664
# 3 17.6255 10.3272 81.2828 13.6605 25.5992 11.2701
# 4 -0.1665 13.3226 13.6605 37.1123 5.7564 9.7825
# 5 22.9596 20.2030 25.5992 5.7564 26.3258 11.8581
# 6 19.0065 36.9664 11.2701 9.7825 11.8581 54.1946
#
#
#
# Elastic Compliance Matrix: (Units=1/GPa)
#
#
# Indices 1 2 3 4 5 6 
#
# 1 0.042234 0.003819 0.003161 0.006580 -0.039493 -0.010620
# 2 0.003819 0.013512 0.002771 -0.001802 -0.012350 -0.008105
# 3 0.003161 0.002771 0.019054 -0.004232 -0.021848 -0.001417
# 4 0.006580 -0.001802 -0.004232 0.031195 -0.004922 -0.004753
# 5 -0.039493 -0.012350 -0.021848 -0.004922 0.101779 0.005436
# 6 -0.010620 -0.008105 -0.001417 -0.004753 0.005436 0.027668
#
#
# Mechanical properties :
#
#
# Convention : Reuss Voigt Hill
#
# Bulk Modulus (GPa) = 10.60428 36.13105 23.36766
# Shear Modulus (GPa) = 20.21244 36.53518 28.37381
#
# Velocity S-wave (km/s) = 2.87955 3.87142 3.41172
# Velocity P-wave (km/s) = 3.92504 5.89966 5.01059
#
# Compressibility (1/GPa) = 0.09430156
#
# Stress axis : x y z
#
# Youngs Moduli (GPa) = 23.67766 74.01010 52.48364
#
# Poissons Ratio (x) = -0.28262 -0.16592
# Poissons Ratio (y) = -0.09042 -0.14544
# Poissons Ratio (z) = -0.07486 -0.20509
#
# Static dielectric constant tensor:
#      x y z
#    x 2.028720 0.203150 0.208620 
#    y 0.203150 3.162300 0.977030 
#    z 0.208620 0.977030 2.621420 
# 
# From -- ./inp_files/516422.got.cif
#   From: 2010.05.17/outbox.cif.g08.bks.cpg/sg2_259_cif.got.tgz:516422.got - 2010.06.03 11:33:40.
