data_PCOD9105149
_publ_section_title
;
Structure prediction by ZEFSAII (Michael W. Deem and Ramdas Pophale) SiO2 
 PCOD9105149
Probable space group: P -1
;
_chemical_formula_sum "Si O2"
_cell_formula_units_Z 16
_cell_length_a 12.211928
_cell_length_b 12.235596
_cell_length_c 9.261033
_cell_angle_alpha 128.608395
_cell_angle_beta 45.808458
_cell_angle_gamma 126.322467
_cell_volume 744.118929
_symmetry_space_group_name_H-M "P -1"
_symmetry_group_IT_number 2
_symmetry_cell_setting 'triclinic'
loop_
_space_group_symop_operation_xyz
x,y,z
-x,-y,-z
loop_
_atom_site_type_symbol
_atom_site_label
_atom_site_fract_x
_atom_site_fract_y
_atom_site_fract_z
Si Si1 0.401890 0.096132 0.088520
Si Si2 0.865151 0.886550 0.441165
Si Si3 0.313637 0.642703 0.983065
Si Si4 0.310677 0.080120 0.647956
Si Si5 0.677263 0.109021 0.257154
Si Si6 0.696295 0.419509 0.399489
Si Si7 0.588313 0.584342 0.128077
Si Si8 0.983224 0.636124 0.220506
O O1 0.294359 0.149193 0.345365
O O2 0.530213 0.232040 0.011768
O O3 0.500000 0.000000 0.000000
O O4 0.296467 0.989808 0.980184
O O5 0.816969 0.939621 0.377687
O O6 0.927271 0.745238 0.259377
O O7 0.000000 0.000000 0.500000
O O8 0.338202 0.607537 0.762494
O O9 0.294964 0.502761 0.985235
O O10 0.157437 0.700172 0.179855
O O11 0.485059 0.081642 0.426624
O O12 0.336088 0.243191 0.823403
O O13 0.267134 0.953094 0.700938
O O14 0.743421 0.278659 0.300041
O O15 0.542968 0.428032 0.635284
O O16 0.840658 0.565436 0.402633
O O17 0.500000 0.500000 0.000000
O O18 0.000000 0.500000 0.000000
#
# Coordination Sequence:
#
# PCOD9105149 Si02
#       8
#     2   2   2   2   2   2   2   2
#     4  12  20  38  64  99 125 163 227 274 321 390
#     4  12  25  41  67  99 136 171 223 274 332 393
#     4  11  21  38  68  88 124 169 220 273 325 387
#     4  10  21  40  61  95 133 168 213 268 333 390
#     4  10  21  37  66  94 126 170 210 271 330 391
#     4  10  20  39  63  93 127 166 220 264 336 390
#     4  11  22  39  64  98 128 169 219 277 331 396
#     4  10  23  40  64  93 129 172 218 271 331 385
#
# _framework density 21.501939
#
# number of rings (size 3 to 8) (size 9 to 14) (size 15 to 20)
#    0.000    1.250    2.500    4.875    1.750    0.000 
#    0.000    1.250    2.750    0.000    0.000    0.000 
#    0.000    0.000    0.000    0.000    0.000    0.000 
#
# Total GULP energy -89448.333160 kJ/mol
# GULP energy per Si atom -5590.520823 kJ/mol
# Density = 2.145300 g / cm^3
# Si number density = 21.501939 Si / 1000 Ang^3
#
#
#
# Elastic Constant Matrix: (Units=GPa)
#
#
# Indices 1 2 3 4 5 6 
#
# 1 139.5642 46.5585 25.0584 9.9057 1.7451 -32.0049
# 2 46.5585 64.8261 -6.2228 8.4913 4.8173 -20.7193
# 3 25.0584 -6.2228 40.5020 16.1133 -3.3418 -16.0741
# 4 9.9057 8.4913 16.1133 25.4889 -0.8704 -6.2603
# 5 1.7451 4.8173 -3.3418 -0.8704 31.7384 1.5066
# 6 -32.0049 -20.7193 -16.0741 -6.2603 1.5066 45.1178
#
#
#
# Elastic Compliance Matrix: (Units=1/GPa)
#
#
# Indices 1 2 3 4 5 6 
#
# 1 0.012538 -0.010684 -0.011584 0.006182 -0.000152 0.000724
# 2 -0.010684 0.032336 0.024053 -0.018647 -0.002933 0.013351
# 3 -0.011584 0.024053 0.056729 -0.034874 0.001141 0.018163
# 4 0.006182 -0.018647 -0.034874 0.063188 0.000925 -0.007866
# 5 -0.000152 -0.002933 0.001141 0.000925 0.032201 -0.001996
# 6 0.000724 0.013351 0.018163 -0.007866 -0.001996 0.034255
#
#
# Mechanical properties :
#
#
# Convention : Reuss Voigt Hill
#
# Bulk Modulus (GPa) = 9.50804 41.74227 25.62516
# Shear Modulus (GPa) = 19.03065 32.43559 25.73312
#
# Velocity S-wave (km/s) = 2.97823 3.88815 3.46321
# Velocity P-wave (km/s) = 4.03213 6.29383 5.28538
#
# Compressibility (1/GPa) = 0.10517410
#
# Stress axis : x y z
#
# Youngs Moduli (GPa) = 79.75568 30.92559 17.62762
#
# Poissons Ratio (x) = 0.33041 0.20419
# Poissons Ratio (y) = 0.85212 -0.42400
# Poissons Ratio (z) = 0.92387 -0.74386
#
# Static dielectric constant tensor:
#      x y z
#    x 1.802210 0.035310 -0.012700 
#    y 0.035310 1.833150 0.004770 
#    z -0.012700 0.004770 1.802910 
# 
# From -- ./inp_files/243345.got.cif
#   From: 2010.05.17/outbox.cif.g08.bks.cpg/sg2_122_cif.got.tgz:243345.got - 2010.06.03 11:33:40.
