data_PCOD9105581
_publ_section_title
;
Structure prediction by ZEFSAII (Michael W. Deem and Ramdas Pophale) SiO2 
 PCOD9105581
Probable space group: P -1
;
_chemical_formula_sum "Si O2"
_cell_formula_units_Z 16
_cell_length_a 8.221277
_cell_length_b 16.549157
_cell_length_c 10.979701
_cell_angle_alpha 53.194880
_cell_angle_beta 35.982211
_cell_angle_gamma 55.788553
_cell_volume 693.150588
_symmetry_space_group_name_H-M "P -1"
_symmetry_group_IT_number 2
_symmetry_cell_setting 'triclinic'
loop_
_space_group_symop_operation_xyz
x,y,z
-x,-y,-z
loop_
_atom_site_type_symbol
_atom_site_label
_atom_site_fract_x
_atom_site_fract_y
_atom_site_fract_z
Si Si1 0.727053 0.085056 0.088331
Si Si2 0.252100 0.391734 0.631396
Si Si3 0.696900 0.511011 0.235942
Si Si4 0.672168 0.817422 0.080439
Si Si5 0.680839 0.053137 0.643109
Si Si6 0.708982 0.173729 0.276647
Si Si7 0.483485 0.715965 0.067131
Si Si8 0.371249 0.616824 0.995251
O O1 0.617839 0.118189 0.260901
O O2 0.501479 0.033179 0.200409
O O3 0.765196 0.191560 0.901901
O O4 0.000000 0.000000 0.000000
O O5 0.529537 0.421657 0.375502
O O6 0.224345 0.474968 0.683295
O O7 0.325297 0.281847 0.747734
O O8 0.947677 0.389684 0.758613
O O9 0.481208 0.614790 0.239040
O O10 0.000000 0.500000 0.000000
O O11 0.410453 0.895912 0.217588
O O12 0.680107 0.774685 0.977142
O O13 0.954805 0.859662 0.897171
O O14 0.614356 0.135107 0.498043
O O15 0.000000 0.000000 0.500000
O O16 0.656218 0.296206 0.171862
O O17 0.559359 0.663432 0.939181
O O18 0.500000 0.500000 0.000000
#
# Coordination Sequence:
#
# PCOD9105581 Si02
#       8
#     2   2   2   2   2   2   2   2
#     4  11  23  44  68  91 136 177 217 276 332 385
#     4   9  21  38  61  93 126 168 213 259 333 392
#     4  10  20  39  65  90 127 167 214 273 325 390
#     4  10  22  43  65  95 136 170 219 278 325 398
#     4  12  26  41  69 100 127 177 230 277 332 392
#     4  10  23  45  68  98 132 173 223 267 338 397
#     4  10  23  39  65  95 128 179 219 267 335 395
#     4  10  21  42  66  99 136 171 216 275 330 404
#
# _framework density 23.083009000000001
#
# number of rings (size 3 to 8) (size 9 to 14) (size 15 to 20)
#    0.000    1.750    1.250    1.875    1.750    6.500 
#    2.250    3.750    0.000    0.000    0.000    0.000 
#    0.000    0.000    0.000    0.000    0.000    0.000 
#
# Total GULP energy -89126.092773 kJ/mol
# GULP energy per Si atom -5570.380798 kJ/mol
# Density = 2.303047 g / cm^3
# Si number density = 23.083009 Si / 1000 Ang^3
#
#
#
# Elastic Constant Matrix: (Units=GPa)
#
#
# Indices 1 2 3 4 5 6 
#
# 1 86.5484 36.6923 12.0975 8.1086 -1.4387 15.6577
# 2 36.6923 130.0714 36.4806 -2.8986 -0.4869 -5.2536
# 3 12.0975 36.4806 71.1466 -16.3825 -5.6318 0.2068
# 4 8.1086 -2.8986 -16.3825 36.6854 -2.5382 10.7262
# 5 -1.4387 -0.4869 -5.6318 -2.5382 31.6568 -2.8128
# 6 15.6577 -5.2536 0.2068 10.7262 -2.8128 46.1852
#
#
#
# Elastic Compliance Matrix: (Units=1/GPa)
#
#
# Indices 1 2 3 4 5 6 
#
# 1 0.014525 -0.004075 -0.000977 -0.002581 -0.000209 -0.004797
# 2 -0.004075 0.010318 -0.004990 -0.001401 -0.000773 0.002856
# 3 -0.000977 -0.004990 0.019242 0.009341 0.003851 -0.002257
# 4 -0.002581 -0.001401 0.009341 0.034202 0.003639 -0.007048
# 5 -0.000209 -0.000773 0.003851 0.003639 0.032643 0.001109
# 6 -0.004797 0.002856 -0.002257 -0.007048 0.001109 0.025318
#
#
# Mechanical properties :
#
#
# Convention : Reuss Voigt Hill
#
# Bulk Modulus (GPa) = 41.66453 50.92301 46.29377
# Shear Modulus (GPa) = 30.42603 36.40520 33.41561
#
# Velocity S-wave (km/s) = 3.63452 3.97563 3.80890
# Velocity P-wave (km/s) = 5.97512 6.57137 6.28033
#
# Compressibility (1/GPa) = 0.02400123
#
# Stress axis : x y z
#
# Youngs Moduli (GPa) = 68.84864 96.91376 51.96838
#
# Poissons Ratio (x) = 0.39496 0.05077
# Poissons Ratio (y) = 0.28058 0.25932
# Poissons Ratio (z) = 0.06726 0.48359
#
# Static dielectric constant tensor:
#      x y z
#    x 1.928200 -0.038310 0.060240 
#    y -0.038310 1.878400 -0.016680 
#    z 0.060240 -0.016680 1.957320 
# 
# From -- ./inp_files/402932.got.cif
#   From: 2010.05.17/outbox.cif.g08.bks.cpg/sg2_202_cif.got.tgz:402932.got - 2010.06.03 11:33:40.
