data_PCOD9105823
_publ_section_title
;
Structure prediction by ZEFSAII (Michael W. Deem and Ramdas Pophale) SiO2 
 PCOD9105823
Probable space group: P -1
;
_chemical_formula_sum "Si O2"
_cell_formula_units_Z 16
_cell_length_a 12.846248
_cell_length_b 9.265275
_cell_length_c 9.737618
_cell_angle_alpha 80.233227
_cell_angle_beta 56.230215
_cell_angle_gamma 57.287213
_cell_volume 796.352250
_symmetry_space_group_name_H-M "P -1"
_symmetry_group_IT_number 2
_symmetry_cell_setting 'triclinic'
loop_
_space_group_symop_operation_xyz
x,y,z
-x,-y,-z
loop_
_atom_site_type_symbol
_atom_site_label
_atom_site_fract_x
_atom_site_fract_y
_atom_site_fract_z
Si Si1 0.228137 0.396335 0.904349
Si Si2 0.159670 0.320887 0.446607
Si Si3 0.322480 0.131679 0.632634
Si Si4 0.089029 0.085967 0.376788
Si Si5 0.343103 0.415742 0.104359
Si Si6 0.308243 0.764730 0.080046
Si Si7 0.012772 0.670077 0.830000
Si Si8 0.150020 0.995892 0.914607
O O1 0.305351 0.229865 0.773982
O O2 0.165835 0.554919 0.817501
O O3 0.322446 0.395537 0.961405
O O4 0.079368 0.423318 0.083707
O O5 0.231256 0.275066 0.555088
O O6 0.144657 0.159875 0.441393
O O7 0.272948 0.331758 0.259807
O O8 0.000000 0.500000 0.500000
O O9 0.500000 0.000000 0.500000
O O10 0.238981 0.027437 0.727556
O O11 0.985234 0.255340 0.329915
O O12 0.223786 0.933218 0.212590
O O13 0.000000 0.000000 0.500000
O O14 0.269458 0.619852 0.162219
O O15 0.516995 0.321931 0.020891
O O16 0.260214 0.826549 0.949554
O O17 0.910039 0.839001 0.969370
O O18 0.000000 0.000000 0.000000
#
# Coordination Sequence:
#
# PCOD9105823 Si02
#       8
#     2   2   2   2   2   2   2   2
#     4  10  20  39  66  89 126 167 220 264 320 387
#     4  12  26  41  70  99 131 175 218 274 333 392
#     4  11  26  42  62  99 136 168 218 275 334 395
#     4  11  23  40  62  95 134 164 214 276 328 382
#     4  11  23  43  68  92 131 175 220 266 333 397
#     4  10  24  41  65  97 128 172 222 271 321 400
#     4   9  19  36  60  94 115 163 219 270 304 385
#     4  10  21  38  66  89 126 168 217 266 324 385
#
# _framework density 20.091611
#
# number of rings (size 3 to 8) (size 9 to 14) (size 15 to 20)
#    0.000    1.500    1.250    3.000   10.500    0.500 
#    0.000    0.000    0.000    3.750    0.000    0.000 
#    0.000    0.000    0.000    0.000    0.000    0.000 
#
# Total GULP energy -89224.400405 kJ/mol
# GULP energy per Si atom -5576.525025 kJ/mol
# Density = 2.004588 g / cm^3
# Si number density = 20.091611 Si / 1000 Ang^3
#
#
#
# Elastic Constant Matrix: (Units=GPa)
#
#
# Indices 1 2 3 4 5 6 
#
# 1 134.5132 45.0323 45.8768 -8.9927 7.7791 -12.4575
# 2 45.0323 76.8733 24.1307 -3.6835 -3.1201 -6.0154
# 3 45.8768 24.1307 72.5869 -3.1434 -5.4905 -4.0853
# 4 -8.9927 -3.6835 -3.1434 26.9416 4.2653 3.7363
# 5 7.7791 -3.1201 -5.4905 4.2653 29.1593 -1.5935
# 6 -12.4575 -6.0154 -4.0853 3.7363 -1.5935 37.5692
#
#
#
# Elastic Compliance Matrix: (Units=1/GPa)
#
#
# Indices 1 2 3 4 5 6 
#
# 1 0.011815 -0.004956 -0.005965 0.003116 -0.005155 0.001947
# 2 -0.004956 0.016777 -0.002189 -0.000187 0.002784 0.000941
# 3 -0.005965 -0.002189 0.018613 -0.000909 0.004995 -0.000002
# 4 0.003116 -0.000187 -0.000909 0.039595 -0.006996 -0.003330
# 5 -0.005155 0.002784 0.004995 -0.006996 0.038018 0.001588
# 6 0.001947 0.000941 -0.000002 -0.003330 0.001588 0.027812
#
#
# Mechanical properties :
#
#
# Convention : Reuss Voigt Hill
#
# Bulk Modulus (GPa) = 47.65734 57.11700 52.38717
# Shear Modulus (GPa) = 26.90425 29.99626 28.45025
#
# Velocity S-wave (km/s) = 3.66331 3.86809 3.76710
# Velocity P-wave (km/s) = 6.45482 6.95985 6.71209
#
# Compressibility (1/GPa) = 0.02098313
#
# Stress axis : x y z
#
# Youngs Moduli (GPa) = 84.64174 59.60675 53.72683
#
# Poissons Ratio (x) = 0.29542 0.32047
# Poissons Ratio (y) = 0.41949 0.11763
# Poissons Ratio (z) = 0.50488 0.13050
#
# Static dielectric constant tensor:
#      x y z
#    x 1.729340 0.016870 0.000560 
#    y 0.016870 1.749580 -0.019110 
#    z 0.000560 -0.019110 1.732290 
# 
# From -- ./inp_files/243398.got.cif
#   From: 2010.05.17/outbox.cif.g08.bks.cpg/sg2_122_cif.got.tgz:243398.got - 2010.06.03 11:33:40.
