data_PCOD9105171
_publ_section_title
;
Structure prediction by ZEFSAII (Michael W. Deem and Ramdas Pophale) SiO2 
 PCOD9105171
Probable space group: P -1
;
_chemical_formula_sum "Si O2"
_cell_formula_units_Z 15
_cell_length_a 13.660811
_cell_length_b 24.869591
_cell_length_c 17.559206
_cell_angle_alpha 158.937594
_cell_angle_beta 156.060378
_cell_angle_gamma 21.348882
_cell_volume 733.263089
_symmetry_space_group_name_H-M "P -1"
_symmetry_group_IT_number 2
_symmetry_cell_setting 'triclinic'
loop_
_space_group_symop_operation_xyz
x,y,z
-x,-y,-z
loop_
_atom_site_type_symbol
_atom_site_label
_atom_site_fract_x
_atom_site_fract_y
_atom_site_fract_z
Si Si1 0.078258 0.275926 0.692672
Si Si2 0.998512 0.635820 0.074551
Si Si3 0.997876 0.965254 0.041396
Si Si4 0.799429 0.181079 0.642866
Si Si5 0.500000 0.000000 0.500000
Si Si6 0.802531 0.911148 0.055473
Si Si7 0.621692 0.238243 0.253684
Si Si8 0.162557 0.289252 0.331952
O O1 0.081102 0.254258 0.757373
O O2 0.756997 0.346952 0.525006
O O3 0.297559 0.109162 0.576980
O O4 0.134961 0.432516 0.925803
O O5 0.203678 0.670169 0.215258
O O6 0.712688 0.690611 0.895208
O O7 0.289485 0.929652 0.237654
O O8 0.748844 0.151525 0.147548
O O9 0.944092 0.810593 0.821734
O O10 0.000000 0.000000 0.000000
O O11 0.494645 0.210225 0.478655
O O12 0.950765 0.166849 0.810604
O O13 0.000000 0.000000 0.500000
O O14 0.773694 0.071291 0.198315
O O15 0.853156 0.765052 0.837329
O O16 0.500000 0.000000 0.000000
O O17 0.000000 0.500000 0.500000
#
# Coordination Sequence:
#
# PCOD9105171 Si02
#       8
#     2   2   2   2   1   2   2   2
#     4  10  23  38  61  95 127 171 217 279 329 394
#     4  11  22  38  63  95 131 163 223 275 331 391
#     4  10  22  42  66  91 128 177 222 265 334 409
#     4  12  23  41  73  97 133 185 226 272 351 412
#     4  10  22  42  66  88 130 176 220 268 338 400
#     4  11  21  42  68  94 129 177 226 270 333 417
#     4  10  20  39  63  94 125 164 219 276 320 391
#     4  11  27  45  65 105 143 174 227 293 345 406
#
# _framework density 20.456505
#
# number of rings (size 3 to 8) (size 9 to 14) (size 15 to 20)
#    0.000    1.333    2.667    2.800    1.867    3.733 
#    4.800    0.000    0.000    0.000    0.000    0.000 
#    0.000    0.000    0.000    0.000    0.000    0.000 
#
# Total GULP energy -83512.571958 kJ/mol
# GULP energy per Si atom -5567.504797 kJ/mol
# Density = 2.040995 g / cm^3
# Si number density = 20.456505 Si / 1000 Ang^3
#
#
#
# Elastic Constant Matrix: (Units=GPa)
#
#
# Indices 1 2 3 4 5 6 
#
# 1 144.9161 35.4062 79.7433 -3.0240 -3.9432 8.0736
# 2 35.4062 50.7383 46.2710 -7.8952 0.1521 -0.8128
# 3 79.7433 46.2710 154.6187 -8.9683 7.6079 4.7059
# 4 -3.0240 -7.8952 -8.9683 36.6471 -8.2216 2.2484
# 5 -3.9432 0.1521 7.6079 -8.2216 47.6214 -7.0261
# 6 8.0736 -0.8128 4.7059 2.2484 -7.0261 26.4683
#
#
#
# Elastic Compliance Matrix: (Units=1/GPa)
#
#
# Indices 1 2 3 4 5 6 
#
# 1 0.010215 -0.003334 -0.004294 -0.000542 0.001138 -0.002107
# 2 -0.003334 0.029106 -0.006926 0.004549 0.002008 0.003289
# 3 -0.004294 -0.006926 0.010933 0.000420 -0.002225 -0.001473
# 4 -0.000542 0.004549 0.000420 0.029467 0.004814 -0.000995
# 5 0.001138 0.002008 -0.002225 0.004814 0.023135 0.005842
# 6 -0.002107 0.003289 -0.001473 -0.000995 0.005842 0.040422
#
#
# Mechanical properties :
#
#
# Convention : Reuss Voigt Hill
#
# Bulk Modulus (GPa) = 47.28756 74.79044 61.03900
# Shear Modulus (GPa) = 27.86534 34.73752 31.30143
#
# Velocity S-wave (km/s) = 3.69477 4.12529 3.91595
# Velocity P-wave (km/s) = 6.43180 7.70265 7.09573
#
# Compressibility (1/GPa) = 0.02114721
#
# Stress axis : x y z
#
# Youngs Moduli (GPa) = 97.89621 34.35717 91.46307
#
# Poissons Ratio (x) = 0.11454 0.39273
# Poissons Ratio (y) = 0.32636 0.63346
# Poissons Ratio (z) = 0.42035 0.23795
#
# Static dielectric constant tensor:
#      x y z
#    x 2.214510 0.013740 -0.064790 
#    y 0.013740 1.759010 0.012720 
#    z -0.064790 0.012720 1.778830 
# 
# From -- ./inp_files/574557.got.cif
#   From: 2010.05.17/outbox.cif.g08.bks.cpg/sg2_288_cif.got.tgz:574557.got - 2010.06.03 11:33:40.
