data_PCOD9105261
_publ_section_title
;
Structure prediction by ZEFSAII (Michael W. Deem and Ramdas Pophale) SiO2 
 PCOD9105261
Probable space group: P -1
;
_chemical_formula_sum "Si O2"
_cell_formula_units_Z 16
_cell_length_a 7.024056
_cell_length_b 11.062201
_cell_length_c 13.023053
_cell_angle_alpha 140.557855
_cell_angle_beta 88.195188
_cell_angle_gamma 81.647650
_cell_volume 619.208432
_symmetry_space_group_name_H-M "P -1"
_symmetry_group_IT_number 2
_symmetry_cell_setting 'triclinic'
loop_
_space_group_symop_operation_xyz
x,y,z
-x,-y,-z
loop_
_atom_site_type_symbol
_atom_site_label
_atom_site_fract_x
_atom_site_fract_y
_atom_site_fract_z
Si Si1 0.844666 0.663671 0.677931
Si Si2 0.517850 0.449421 0.348686
Si Si3 0.287910 0.555151 0.090897
Si Si4 0.924655 0.255484 0.984745
Si Si5 0.661620 0.813548 0.567048
Si Si6 0.039340 0.310375 0.684428
Si Si7 0.744558 0.864895 0.223810
Si Si8 0.709652 0.052721 0.009257
O O1 0.701916 0.565939 0.683365
O O2 0.714352 0.789878 0.670667
O O3 0.000000 0.500000 0.500000
O O4 0.874423 0.841395 0.867209
O O5 0.500000 0.500000 0.500000
O O6 0.588304 0.622667 0.408185
O O7 0.678957 0.240235 0.206335
O O8 0.153584 0.665697 0.074059
O O9 0.188445 0.675411 0.271929
O O10 0.500000 0.500000 0.000000
O O11 0.260552 0.339297 0.963058
O O12 0.115030 0.077365 0.828184
O O13 0.942250 0.461934 0.172161
O O14 0.762700 0.164734 0.981254
O O15 0.859392 0.802394 0.492002
O O16 0.474726 0.996532 0.673373
O O17 0.169639 0.195011 0.702582
O O18 0.500000 0.000000 0.000000
#
# Coordination Sequence:
#
# PCOD9105261 Si02
#       8
#     2   2   2   2   2   2   2   2
#     4  10  24  41  57  86 129 158 205 261 312 360
#     4   9  20  40  62  84 115 160 207 256 298 365
#     4   9  19  36  57  86 129 155 198 250 298 374
#     4   9  18  36  61  85 119 161 200 244 309 358
#     4  11  20  38  63  86 124 158 208 250 304 370
#     4   9  18  38  59  90 121 156 206 248 296 369
#     4   9  20  34  60  92 118 160 202 253 299 362
#     4  10  20  39  64  87 120 161 204 255 314 362
#
# _framework density 25.839444
#
# number of rings (size 3 to 8) (size 9 to 14) (size 15 to 20)
#    0.000    2.500    1.250    1.875    3.500    0.000 
#    4.500    5.625    0.000    0.000    0.000    0.000 
#    0.000    0.000    0.000    0.000    0.000    0.000 
#
# Total GULP energy -89100.957718 kJ/mol
# GULP energy per Si atom -5568.809857 kJ/mol
# Density = 2.578063 g / cm^3
# Si number density = 25.839444 Si / 1000 Ang^3
#
#
#
# Elastic Constant Matrix: (Units=GPa)
#
#
# Indices 1 2 3 4 5 6 
#
# 1 58.0182 26.0599 23.4227 -12.7777 -39.8159 17.2080
# 2 26.0599 80.2514 45.3791 7.8013 -26.3070 2.7575
# 3 23.4227 45.3791 143.1389 -8.1467 -39.4775 16.9590
# 4 -12.7777 7.8013 -8.1467 34.1402 16.7090 -11.4876
# 5 -39.8159 -26.3070 -39.4775 16.7090 50.9663 -6.3410
# 6 17.2080 2.7575 16.9590 -11.4876 -6.3410 32.8577
#
#
#
# Elastic Compliance Matrix: (Units=1/GPa)
#
#
# Indices 1 2 3 4 5 6 
#
# 1 0.051692 -0.005681 0.007585 -0.006596 0.042424 -0.024629
# 2 -0.005681 0.019615 -0.004432 -0.010050 0.005699 0.001202
# 3 0.007585 -0.004432 0.011287 -0.001979 0.012060 -0.007790
# 4 -0.006596 -0.010050 -0.001979 0.046544 -0.025047 0.016758
# 5 0.042424 0.005699 0.012060 -0.025047 0.070257 -0.024119
# 6 -0.024629 0.001202 -0.007790 0.016758 -0.024119 0.048457
#
#
# Mechanical properties :
#
#
# Convention : Reuss Voigt Hill
#
# Bulk Modulus (GPa) = 12.89668 52.34800 32.62234
# Shear Modulus (GPa) = 17.93707 36.02928 26.98318
#
# Velocity S-wave (km/s) = 2.63758 3.73815 3.23501
# Velocity P-wave (km/s) = 3.77858 6.23976 5.15812
#
# Compressibility (1/GPa) = 0.07753931
#
# Stress axis : x y z
#
# Youngs Moduli (GPa) = 19.34550 50.98072 88.60120
#
# Poissons Ratio (x) = 0.28960 -0.67207
# Poissons Ratio (y) = 0.10989 0.39266
# Poissons Ratio (z) = -0.14674 0.22594
#
# Static dielectric constant tensor:
#      x y z
#    x 2.847660 0.237160 -0.083440 
#    y 0.237160 1.932770 -0.011440 
#    z -0.083440 -0.011440 2.107150 
# 
# From -- ./inp_files/500968.got.cif
#   From: 2010.05.17/outbox.cif.g08.bks.cpg/sg2_251_cif.got.tgz:500968.got - 2010.06.03 11:33:40.
