data_PCOD9105086
_publ_section_title
;
Structure prediction by ZEFSAII (Michael W. Deem and Ramdas Pophale) SiO2 
 PCOD9105086
Probable space group: P -1
;
_chemical_formula_sum "Si O2"
_cell_formula_units_Z 16
_cell_length_a 13.961029
_cell_length_b 9.779004
_cell_length_c 8.115184
_cell_angle_alpha 100.099797
_cell_angle_beta 109.654112
_cell_angle_gamma 125.877417
_cell_volume 737.857537
_symmetry_space_group_name_H-M "P -1"
_symmetry_group_IT_number 2
_symmetry_cell_setting 'triclinic'
loop_
_space_group_symop_operation_xyz
x,y,z
-x,-y,-z
loop_
_atom_site_type_symbol
_atom_site_label
_atom_site_fract_x
_atom_site_fract_y
_atom_site_fract_z
Si Si1 0.294063 0.682166 0.431142
Si Si2 0.350396 0.047909 0.564121
Si Si3 0.865230 0.457352 0.989285
Si Si4 0.970528 0.383856 0.296244
Si Si5 0.510321 0.667341 0.609621
Si Si6 0.611591 0.722477 0.053133
Si Si7 0.963773 0.133660 0.697852
Si Si8 0.064285 0.955257 0.706791
O O1 0.128831 0.525993 0.346603
O O2 0.363016 0.610367 0.528419
O O3 0.363041 0.894607 0.561440
O O4 0.278572 0.670388 0.221552
O O5 0.420039 0.176087 0.465566
O O6 0.184674 0.927865 0.410379
O O7 0.395444 0.166546 0.784438
O O8 0.852165 0.359850 0.128432
O O9 0.925073 0.666001 0.102873
O O10 0.000000 0.500000 0.000000
O O11 0.000000 0.500000 0.500000
O O12 0.919937 0.177856 0.227817
O O13 0.500000 0.500000 0.500000
O O14 0.579394 0.731352 0.845538
O O15 0.500000 0.500000 0.000000
O O16 0.777002 0.833865 0.177358
O O17 0.966513 0.979973 0.736790
O O18 0.001233 0.146851 0.530275
#
# Coordination Sequence:
#
# PCOD9105086 Si02
#       8
#     2   2   2   2   2   2   2   2
#     4  11  26  44  66 102 140 178 229 283 344 412
#     4  11  23  49  70  96 144 177 231 288 340 407
#     4  10  20  39  63  90 138 170 206 276 344 394
#     4  11  20  42  67 104 133 171 223 284 347 411
#     4  12  28  46  69  98 136 192 235 278 336 408
#     4  11  25  48  69  98 139 184 232 286 337 404
#     4  10  20  40  64 100 136 173 215 288 341 404
#     4  10  23  36  68 103 130 172 229 276 346 406
#
# _framework density 21.684401999999999
#
# number of rings (size 3 to 8) (size 9 to 14) (size 15 to 20)
#    0.000    1.250    5.000    1.125    5.250    1.500 
#    2.250    3.125    0.000    0.000    0.000    0.000 
#    0.000    0.000    0.000    0.000    0.000    0.000 
#
# Total GULP energy -89189.464274 kJ/mol
# GULP energy per Si atom -5574.341517 kJ/mol
# Density = 2.163505 g / cm^3
# Si number density = 21.684402 Si / 1000 Ang^3
#
#
#
# Elastic Constant Matrix: (Units=GPa)
#
#
# Indices 1 2 3 4 5 6 
#
# 1 59.4513 21.6747 30.4539 2.2289 2.0890 -20.8674
# 2 21.6747 79.3751 22.4113 16.4138 -2.8121 -16.3881
# 3 30.4539 22.4113 142.6316 -2.6582 -7.6085 -19.3036
# 4 2.2289 16.4138 -2.6582 37.5854 -6.8886 -5.1732
# 5 2.0890 -2.8121 -7.6085 -6.8886 24.5432 -1.2047
# 6 -20.8674 -16.3881 -19.3036 -5.1732 -1.2047 34.0723
#
#
#
# Elastic Compliance Matrix: (Units=1/GPa)
#
#
# Indices 1 2 3 4 5 6 
#
# 1 0.023658 -0.003597 -0.003108 0.001000 -0.002566 0.011060
# 2 -0.003597 0.016065 -0.001354 -0.006351 0.000131 0.003797
# 3 -0.003108 -0.001354 0.008494 0.002406 0.003553 0.002749
# 4 0.001000 -0.006351 0.002406 0.031704 0.009030 0.004053
# 5 -0.002566 0.000131 0.003553 0.009030 0.044783 0.003459
# 6 0.011060 0.003797 0.002749 0.004053 0.003459 0.040244
#
#
# Mechanical properties :
#
#
# Convention : Reuss Voigt Hill
#
# Bulk Modulus (GPa) = 31.15254 47.83753 39.49504
# Shear Modulus (GPa) = 26.07356 33.03473 29.55414
#
# Velocity S-wave (km/s) = 3.47134 3.90735 3.69578
# Velocity P-wave (km/s) = 5.51946 6.51654 6.03861
#
# Compressibility (1/GPa) = 0.03210011
#
# Stress axis : x y z
#
# Youngs Moduli (GPa) = 42.26815 62.24744 117.73565
#
# Poissons Ratio (x) = 0.22392 0.36587
# Poissons Ratio (y) = 0.15205 0.15937
# Poissons Ratio (z) = 0.13135 0.08426
#
# Static dielectric constant tensor:
#      x y z
#    x 1.873310 0.035680 -0.024220 
#    y 0.035680 1.916890 -0.096240 
#    z -0.024220 -0.096240 1.793520 
# 
# From -- ./inp_files/298932.got.cif
#   From: 2010.05.17/outbox.cif.g08.bks.cpg/sg2_150_cif.got.tgz:298932.got - 2010.06.03 11:33:40.
