data_PCOD9105017
_publ_section_title
;
Structure prediction by ZEFSAII (Michael W. Deem and Ramdas Pophale) SiO2 
 PCOD9105017
Probable space group: P -1
;
_chemical_formula_sum "Si O2"
_cell_formula_units_Z 16
_cell_length_a 7.910595
_cell_length_b 19.311874
_cell_length_c 16.802130
_cell_angle_alpha 19.920123
_cell_angle_beta 69.449664
_cell_angle_gamma 61.211607
_cell_volume 720.600339
_symmetry_space_group_name_H-M "P -1"
_symmetry_group_IT_number 2
_symmetry_cell_setting 'triclinic'
loop_
_space_group_symop_operation_xyz
x,y,z
-x,-y,-z
loop_
_atom_site_type_symbol
_atom_site_label
_atom_site_fract_x
_atom_site_fract_y
_atom_site_fract_z
Si Si1 0.698207 0.003433 0.425406
Si Si2 0.933067 0.301868 0.210252
Si Si3 0.863403 0.922356 0.159158
Si Si4 0.015288 0.464907 0.702865
Si Si5 0.165543 0.452171 0.199555
Si Si6 0.355165 0.595846 0.252057
Si Si7 0.332331 0.259859 0.737091
Si Si8 0.482114 0.501344 0.837478
O O1 0.811406 0.784694 0.584021
O O2 0.868153 0.936499 0.540161
O O3 0.500000 0.000000 0.500000
O O4 0.605188 0.242625 0.133968
O O5 0.738960 0.363383 0.232091
O O6 0.860202 0.369805 0.058335
O O7 0.000000 0.500000 0.000000
O O8 0.816179 0.768624 0.270865
O O9 0.953416 0.736284 0.415294
O O10 0.691837 0.157799 0.971042
O O11 0.000000 0.000000 0.000000
O O12 0.219454 0.347747 0.743887
O O13 0.013491 0.418642 0.846317
O O14 0.851218 0.394409 0.765272
O O15 0.378150 0.383121 0.284732
O O16 0.408286 0.422011 0.505546
O O17 0.515735 0.513811 0.242022
O O18 0.500000 0.000000 0.000000
#
# Coordination Sequence:
#
# PCOD9105017 Si02
#       8
#     2   2   2   2   2   2   2   2
#     4  11  22  41  66  89 125 167 204 258 318 365
#     4  10  21  41  62  90 126 158 204 258 307 373
#     4  11  18  38  68  83 115 169 208 241 310 371
#     4  10  20  39  63  88 123 161 208 255 300 372
#     4  10  22  40  62  93 123 163 212 255 311 372
#     4  10  21  40  64  91 117 164 210 249 309 373
#     4  11  23  40  58  91 132 156 201 265 305 359
#     4  11  22  42  65  91 127 161 210 261 306 377
#
# _framework density 22.203707000000001
#
# number of rings (size 3 to 8) (size 9 to 14) (size 15 to 20)
#    0.000    1.500    5.000    1.875    0.000    1.000 
#    9.000    1.250    0.000    0.000    0.000    0.000 
#    0.000    0.000    0.000    0.000    0.000    0.000 
#
# Total GULP energy -89280.818145 kJ/mol
# GULP energy per Si atom -5580.051134 kJ/mol
# Density = 2.215317 g / cm^3
# Si number density = 22.203707 Si / 1000 Ang^3
#
#
#
# Elastic Constant Matrix: (Units=GPa)
#
#
# Indices 1 2 3 4 5 6 
#
# 1 32.7900 22.0630 -5.7637 -3.0100 3.5681 -5.3245
# 2 22.0630 206.4810 40.1340 12.4475 16.6500 -6.9957
# 3 -5.7637 40.1340 80.2452 -23.9616 -3.7090 -16.9843
# 4 -3.0100 12.4475 -23.9616 13.8906 -7.0772 -12.7000
# 5 3.5681 16.6500 -3.7090 -7.0772 27.0335 -10.3029
# 6 -5.3245 -6.9957 -16.9843 -12.7000 -10.3029 17.8111
#
#
#
# Elastic Compliance Matrix: (Units=1/GPa)
#
#
# Indices 1 2 3 4 5 6 
#
# 1 0.029262 -0.001256 -0.003294 -0.011968 -0.010233 -0.009340
# 2 -0.001256 0.004507 0.001133 0.005807 0.002036 0.007793
# 3 -0.003294 0.001133 0.002750 -0.016897 -0.010400 -0.015982
# 4 -0.011968 0.005807 -0.016897 -0.012530 -0.022623 -0.039431
# 5 -0.010233 0.002036 -0.010400 -0.022623 0.024309 -0.014247
# 6 -0.009340 0.007793 -0.015982 -0.039431 -0.014247 0.004817
#
#
# Mechanical properties :
#
#
# Convention : Reuss Voigt Hill
#
# Bulk Modulus (GPa) = 33.68708 48.04253 40.86480
# Shear Modulus (GPa) = 71.59005 29.28592 50.43798
#
# Velocity S-wave (km/s) = 5.68440 3.63570 4.77130
# Velocity P-wave (km/s) = 7.63465 6.26965 6.98557
#
# Compressibility (1/GPa) = 0.02968497
#
# Stress axis : x y z
#
# Youngs Moduli (GPa) = 34.17438 221.88537 363.68201
#
# Poissons Ratio (x) = 0.27874 1.19783
# Poissons Ratio (y) = 0.04293 -0.41215
# Poissons Ratio (z) = 0.11256 -0.25146
#
# Static dielectric constant tensor:
#      x y z
#    x 1.858010 0.029620 0.000140 
#    y 0.029620 1.858410 -0.003940 
#    z 0.000140 -0.003940 1.838850 
# 
# From -- ./inp_files/562539.got.cif
#   From: 2010.05.17/outbox.cif.g08.bks.cpg/sg2_282_cif.got.tgz:562539.got - 2010.06.03 11:33:40.
