data_PCOD9105522
_publ_section_title
;
Structure prediction by ZEFSAII (Michael W. Deem and Ramdas Pophale) SiO2 
 PCOD9105522
Probable space group: P -1
;
_chemical_formula_sum "Si O2"
_cell_formula_units_Z 15
_cell_length_a 9.051210
_cell_length_b 7.540898
_cell_length_c 14.965421
_cell_angle_alpha 65.627490
_cell_angle_beta 35.419265
_cell_angle_gamma 80.260822
_cell_volume 511.493962
_symmetry_space_group_name_H-M "P -1"
_symmetry_group_IT_number 2
_symmetry_cell_setting 'triclinic'
loop_
_space_group_symop_operation_xyz
x,y,z
-x,-y,-z
loop_
_atom_site_type_symbol
_atom_site_label
_atom_site_fract_x
_atom_site_fract_y
_atom_site_fract_z
Si Si1 0.000000 0.500000 0.000000
Si Si2 0.305536 0.567313 0.145957
Si Si3 0.370826 0.349075 0.327752
Si Si4 0.333283 0.688771 0.601130
Si Si5 0.957609 0.728032 0.144769
Si Si6 0.186582 0.840267 0.278164
Si Si7 0.241214 0.916763 0.429722
Si Si8 0.906270 0.036249 0.241448
O O1 0.327587 0.500636 0.845313
O O2 0.940971 0.314131 0.991714
O O3 0.245927 0.394003 0.286774
O O4 0.371649 0.761573 0.138537
O O5 0.111653 0.630753 0.160698
O O6 0.500000 0.500000 0.000000
O O7 0.113038 0.329190 0.523810
O O8 0.406618 0.124529 0.355150
O O9 0.328608 0.456171 0.666608
O O10 0.229626 0.747583 0.545335
O O11 0.622910 0.856028 0.435725
O O12 0.140314 0.741698 0.765104
O O13 0.980224 0.947846 0.129832
O O14 0.334288 0.879322 0.292875
O O15 0.098929 0.014914 0.232835
O O16 0.000000 0.000000 0.500000
#
# Coordination Sequence:
#
# PCOD9105522 Si02
#       8
#     1   2   2   2   2   2   2   2
#     4  12  26  42  66  92 148 188 224 282 338 414
#     4  11  23  43  64  99 135 178 226 280 347 406
#     4  11  22  42  67 100 138 175 229 277 339 411
#     4  11  21  40  68  98 138 172 226 286 345 403
#     4  11  24  42  64  93 135 184 225 281 342 409
#     4  10  21  41  70  99 133 174 230 287 335 407
#     4  10  20  39  65 104 131 169 227 289 338 396
#     4  10  22  38  63 103 131 168 226 282 345 401
#
# _framework density 29.325859000000001
#
# number of rings (size 3 to 8) (size 9 to 14) (size 15 to 20)
#    0.000    1.333    4.000    3.200    1.867    3.200 
#    0.000    2.667    0.000    0.000    0.000    0.000 
#    0.000    0.000    0.000    0.000    0.000    0.000 
#
# Total GULP energy -83554.683092 kJ/mol
# GULP energy per Si atom -5570.312206 kJ/mol
# Density = 2.925911 g / cm^3
# Si number density = 29.325859 Si / 1000 Ang^3
#
#
#
# Elastic Constant Matrix: (Units=GPa)
#
#
# Indices 1 2 3 4 5 6 
#
# 1 189.7545 40.7494 38.0671 12.7077 37.2528 4.7406
# 2 40.7494 157.2388 16.1858 11.3478 20.1234 -10.9405
# 3 38.0671 16.1858 122.2084 27.5045 -14.9165 8.7899
# 4 12.7077 11.3478 27.5045 45.4186 17.3646 17.0993
# 5 37.2528 20.1234 -14.9165 17.3646 41.3535 13.8960
# 6 4.7406 -10.9405 8.7899 17.0993 13.8960 47.4198
#
#
#
# Elastic Compliance Matrix: (Units=1/GPa)
#
#
# Indices 1 2 3 4 5 6 
#
# 1 0.008341 -0.000330 -0.005193 0.004731 -0.011822 0.001811
# 2 -0.000330 0.007558 -0.001772 -0.000116 -0.005205 0.003672
# 3 -0.005193 -0.001772 0.015305 -0.012866 0.017548 -0.003230
# 4 0.004731 -0.000116 -0.012866 0.039612 -0.023642 -0.005471
# 5 -0.011822 -0.005205 0.017548 -0.023642 0.057520 -0.011602
# 6 0.001811 0.003672 -0.003230 -0.005471 -0.011602 0.027726
#
#
# Mechanical properties :
#
#
# Convention : Reuss Voigt Hill
#
# Bulk Modulus (GPa) = 60.18466 73.24513 66.71490
# Shear Modulus (GPa) = 28.37887 51.78501 40.08194
#
# Velocity S-wave (km/s) = 3.11418 4.20676 3.70101
# Velocity P-wave (km/s) = 5.78775 6.97325 6.40798
#
# Compressibility (1/GPa) = 0.01661553
#
# Stress axis : x y z
#
# Youngs Moduli (GPa) = 119.88620 132.31823 65.33984
#
# Poissons Ratio (x) = 0.04362 0.33928
# Poissons Ratio (y) = 0.03952 0.11576
# Poissons Ratio (z) = 0.62252 0.23443
#
# Static dielectric constant tensor:
#      x y z
#    x 2.056140 0.031660 -0.312010 
#    y 0.031660 2.123960 -0.029610 
#    z -0.312010 -0.029610 2.215300 
# 
# From -- ./inp_files/494586.got.cif
#   From: 2010.05.17/outbox.cif.g08.bks.cpg/sg2_248_cif.got.tgz:494586.got - 2010.06.03 11:33:40.
