data_PCOD9105613
_publ_section_title
;
Structure prediction by ZEFSAII (Michael W. Deem and Ramdas Pophale) SiO2 
 PCOD9105613
Probable space group: P -1
;
_chemical_formula_sum "Si O2"
_cell_formula_units_Z 16
_cell_length_a 25.480038
_cell_length_b 8.573439
_cell_length_c 22.226339
_cell_angle_alpha 32.272162
_cell_angle_beta 163.854626
_cell_angle_gamma 153.113562
_cell_volume 608.145838
_symmetry_space_group_name_H-M "P -1"
_symmetry_group_IT_number 2
_symmetry_cell_setting 'triclinic'
loop_
_space_group_symop_operation_xyz
x,y,z
-x,-y,-z
loop_
_atom_site_type_symbol
_atom_site_label
_atom_site_fract_x
_atom_site_fract_y
_atom_site_fract_z
Si Si1 0.192242 0.803673 0.573015
Si Si2 0.149216 0.048152 0.922268
Si Si3 0.184596 0.468802 0.320497
Si Si4 0.811063 0.462002 0.555169
Si Si5 0.446288 0.224913 0.825815
Si Si6 0.486823 0.903130 0.763645
Si Si7 0.360073 0.317870 0.294984
Si Si8 0.981672 0.901467 0.111416
O O1 0.288062 0.684980 0.664192
O O2 0.000000 0.500000 0.500000
O O3 0.091126 0.030688 0.360736
O O4 0.388981 0.066596 0.747912
O O5 0.987221 0.951717 0.836706
O O6 0.346262 0.384984 0.067799
O O7 0.320732 0.175159 0.008092
O O8 0.046669 0.628519 0.931252
O O9 0.220334 0.569118 0.396562
O O10 0.407823 0.659756 0.466534
O O11 0.775290 0.775006 0.399635
O O12 0.627046 0.168171 0.403980
O O13 0.033906 0.469529 0.782915
O O14 0.500000 0.000000 0.000000
O O15 0.574445 0.289654 0.755379
O O16 0.217486 0.140686 0.135257
O O17 0.201640 0.116541 0.241645
#
# Coordination Sequence:
#
# PCOD9105613 Si02
#       8
#     2   2   2   2   2   2   2   2
#     4  10  20  39  65  92 125 161 206 262 318 376
#     4  11  22  39  63  89 128 169 208 260 314 373
#     4  10  21  39  61  90 125 165 211 261 312 372
#     4  10  22  39  62  90 122 163 205 257 314 373
#     4  10  22  42  65  93 125 160 206 257 316 384
#     4  10  21  40  62  91 127 165 209 256 317 379
#     4  10  22  39  63  93 125 166 214 262 315 375
#     4  11  22  39  63  92 127 166 210 262 318 376
#
# _framework density 26.309477999999999
#
# number of rings (size 3 to 8) (size 9 to 14) (size 15 to 20)
#    0.000    1.750    0.000    6.000    0.000    3.000 
#    0.000   18.125    0.000    0.000    0.000    0.875 
#    0.000    0.000    0.000    0.000    0.000    0.000 
#
# Total GULP energy -89124.008025 kJ/mol
# GULP energy per Si atom -5570.250502 kJ/mol
# Density = 2.624960 g / cm^3
# Si number density = 26.309478 Si / 1000 Ang^3
#
#
#
# Elastic Constant Matrix: (Units=GPa)
#
#
# Indices 1 2 3 4 5 6 
#
# 1 211.9700 56.7761 71.8778 15.6692 -0.4601 -10.0626
# 2 56.7761 62.3323 27.3205 19.3843 -7.9541 1.2668
# 3 71.8778 27.3205 133.9944 12.3720 -1.5904 4.4997
# 4 15.6692 19.3843 12.3720 59.8311 -9.2328 -6.8229
# 5 -0.4601 -7.9541 -1.5904 -9.2328 61.1265 6.7729
# 6 -10.0626 1.2668 4.4997 -6.8229 6.7729 30.6490
#
#
#
# Elastic Compliance Matrix: (Units=1/GPa)
#
#
# Indices 1 2 3 4 5 6 
#
# 1 0.007417 -0.005914 -0.002981 0.000830 -0.001058 0.003536
# 2 -0.005914 0.024246 -0.001004 -0.006231 0.002672 -0.004774
# 3 -0.002981 -0.001004 0.009460 -0.001116 0.000215 -0.002622
# 4 0.000830 -0.006231 -0.001116 0.019527 0.001596 0.004688
# 5 -0.001058 0.002672 0.000215 0.001596 0.017387 -0.003976
# 6 0.003536 -0.004774 -0.002622 0.004688 -0.003976 0.036293
#
#
# Mechanical properties :
#
#
# Convention : Reuss Voigt Hill
#
# Bulk Modulus (GPa) = 46.89175 80.02729 63.45952
# Shear Modulus (GPa) = 35.40234 47.14280 41.27257
#
# Velocity S-wave (km/s) = 3.67224 4.23762 3.96502
# Velocity P-wave (km/s) = 5.98684 7.37746 6.71823
#
# Compressibility (1/GPa) = 0.02132571
#
# Stress axis : x y z
#
# Youngs Moduli (GPa) = 134.83291 41.24465 105.70671
#
# Poissons Ratio (x) = 0.24392 0.31506
# Poissons Ratio (y) = 0.79741 0.10610
# Poissons Ratio (z) = 0.40187 0.04140
#
# Static dielectric constant tensor:
#      x y z
#    x 2.038600 0.087660 0.048970 
#    y 0.087660 2.385370 -0.076950 
#    z 0.048970 -0.076950 2.124910 
# 
# From -- ./inp_files/601937.got.cif
#   From: 2010.05.17/outbox.cif.g08.bks.cpg/sg2_301_cif.got.tgz:601937.got - 2010.06.03 11:33:40.
