data_PCOD9105453
_publ_section_title
;
Structure prediction by ZEFSAII (Michael W. Deem and Ramdas Pophale) SiO2 
 PCOD9105453
Probable space group: P -1
;
_chemical_formula_sum "Si O2"
_cell_formula_units_Z 14
_cell_length_a 6.619647
_cell_length_b 10.264680
_cell_length_c 11.419586
_cell_angle_alpha 65.671895
_cell_angle_beta 125.240334
_cell_angle_gamma 106.010267
_cell_volume 576.710910
_symmetry_space_group_name_H-M "P -1"
_symmetry_group_IT_number 2
_symmetry_cell_setting 'triclinic'
loop_
_space_group_symop_operation_xyz
x,y,z
-x,-y,-z
loop_
_atom_site_type_symbol
_atom_site_label
_atom_site_fract_x
_atom_site_fract_y
_atom_site_fract_z
Si Si1 0.536510 0.188925 0.977528
Si Si2 0.141427 0.642510 0.549813
Si Si3 0.429464 0.973021 0.188639
Si Si4 0.092578 0.625958 0.094268
Si Si5 0.281759 0.330239 0.232098
Si Si6 0.153781 0.150028 0.472833
Si Si7 0.950318 0.186406 0.767401
O O1 0.622782 0.090209 0.935160
O O2 0.699625 0.329822 0.950284
O O3 0.245163 0.199703 0.857965
O O4 0.567087 0.122294 0.141253
O O5 0.426503 0.625463 0.686062
O O6 0.772741 0.807726 0.651557
O O7 0.148153 0.763022 0.406657
O O8 0.000000 0.500000 0.500000
O O9 0.604659 0.874805 0.357765
O O10 0.174891 0.965894 0.177943
O O11 0.129126 0.459914 0.185709
O O12 0.131119 0.704280 0.200813
O O13 0.837442 0.676783 0.934556
O O14 0.013717 0.283341 0.429065
O O15 0.000000 0.000000 0.500000
#
# Coordination Sequence:
#
# PCOD9105453 Si02
#       7
#     2   2   2   2   2   2   2
#     4  10  20  39  64  95 134 172 229 278 337 409
#     4  12  26  44  74 104 135 185 234 285 340 412
#     4  10  21  38  62  97 135 177 222 280 339 401
#     4  10  24  42  68  97 133 181 226 290 341 401
#     4  11  25  46  66 100 142 178 232 284 345 412
#     4  12  26  45  68 102 145 184 223 283 354 408
#     4  11  21  40  68 100 131 174 235 283 336 405
#
# _framework density 24.275594999999999
#
# number of rings (size 3 to 8) (size 9 to 14) (size 15 to 20)
#    0.000    1.143    2.857    3.000    2.000    4.000 
#    2.571    3.571    0.000    0.000    0.000    0.000 
#    0.000    0.000    0.000    0.000    0.000    0.000 
#
# Total GULP energy -78216.557468 kJ/mol
# GULP energy per Si atom -5586.896962 kJ/mol
# Density = 2.422034 g / cm^3
# Si number density = 24.275595 Si / 1000 Ang^3
#
#
#
# Elastic Constant Matrix: (Units=GPa)
#
#
# Indices 1 2 3 4 5 6 
#
# 1 82.1227 27.1080 32.6946 3.5519 14.2287 22.4604
# 2 27.1080 90.1919 16.6920 -7.1059 3.7036 18.2251
# 3 32.6946 16.6920 142.0868 -12.1327 17.8108 21.6047
# 4 3.5519 -7.1059 -12.1327 40.4668 10.8846 -4.2749
# 5 14.2287 3.7036 17.8108 10.8846 43.0096 1.7778
# 6 22.4604 18.2251 21.6047 -4.2749 1.7778 45.0280
#
#
#
# Elastic Compliance Matrix: (Units=1/GPa)
#
#
# Indices 1 2 3 4 5 6 
#
# 1 0.016503 -0.003408 -0.002296 -0.002452 -0.003353 -0.005851
# 2 -0.003408 0.012984 0.000023 0.002359 -0.000460 -0.003324
# 3 -0.002296 0.000023 0.008710 0.003524 -0.003635 -0.002565
# 4 -0.002452 0.002359 0.003524 0.028776 -0.008201 0.001633
# 5 -0.003353 -0.000460 -0.003635 -0.008201 0.027909 0.001722
# 6 -0.005851 -0.003324 -0.002565 0.001633 0.001722 0.027790
#
#
# Mechanical properties :
#
#
# Convention : Reuss Voigt Hill
#
# Bulk Modulus (GPa) = 37.26499 51.93231 44.59865
# Shear Modulus (GPa) = 34.96966 41.56133 38.26549
#
# Velocity S-wave (km/s) = 3.79955 4.14220 3.97457
# Velocity P-wave (km/s) = 5.88497 6.65705 6.28288
#
# Compressibility (1/GPa) = 0.02683484
#
# Stress axis : x y z
#
# Youngs Moduli (GPa) = 60.59325 77.01785 114.80742
#
# Poissons Ratio (x) = 0.26251 0.26365
# Poissons Ratio (y) = 0.20653 -0.00269
# Poissons Ratio (z) = 0.13915 -0.00181
#
# Static dielectric constant tensor:
#      x y z
#    x 1.927080 0.060720 0.016240 
#    y 0.060720 2.091490 -0.003570 
#    z 0.016240 -0.003570 1.916000 
# 
# From -- ./inp_files/366845.got.cif
#   From: 2010.05.17/outbox.cif.g08.bks.cpg/sg2_184_cif.got.tgz:366845.got - 2010.06.03 11:33:40.
