data_PCOD9105882
_publ_section_title
;
Structure prediction by ZEFSAII (Michael W. Deem and Ramdas Pophale) SiO2 
 PCOD9105882
Probable space group: P -1
;
_chemical_formula_sum "Si O2"
_cell_formula_units_Z 16
_cell_length_a 14.971479
_cell_length_b 19.889690
_cell_length_c 8.737054
_cell_angle_alpha 78.590969
_cell_angle_beta 66.563851
_cell_angle_gamma 20.372140
_cell_volume 695.082791
_symmetry_space_group_name_H-M "P -1"
_symmetry_group_IT_number 2
_symmetry_cell_setting 'triclinic'
loop_
_space_group_symop_operation_xyz
x,y,z
-x,-y,-z
loop_
_atom_site_type_symbol
_atom_site_label
_atom_site_fract_x
_atom_site_fract_y
_atom_site_fract_z
Si Si1 0.740717 0.896938 0.459167
Si Si2 0.864348 0.016223 0.132808
Si Si3 0.722245 0.546347 0.865002
Si Si4 0.779746 0.297530 0.210446
Si Si5 0.143792 0.654802 0.590849
Si Si6 0.463166 0.291162 0.574732
Si Si7 0.207613 0.904215 0.284667
Si Si8 0.847003 0.619305 0.387575
O O1 0.082436 0.645932 0.261511
O O2 0.844384 0.837988 0.594998
O O3 0.500000 0.000000 0.500000
O O4 0.532702 0.102964 0.462395
O O5 0.509597 0.257689 0.184664
O O6 0.773042 0.077453 0.345010
O O7 0.000000 0.000000 0.000000
O O8 0.091180 0.803401 0.004376
O O9 0.971866 0.438901 0.791025
O O10 0.479772 0.682733 0.098941
O O11 0.395376 0.538987 0.386959
O O12 0.893807 0.285961 0.240189
O O13 0.972616 0.106086 0.249486
O O14 0.332161 0.456610 0.579406
O O15 0.583222 0.188099 0.705430
O O16 0.164331 0.443573 0.665551
O O17 0.000000 0.000000 0.500000
O O18 0.000000 0.500000 0.500000
#
# Coordination Sequence:
#
# PCOD9105882 Si02
#       8
#     2   2   2   2   2   2   2   2
#     4  10  20  39  66  92 130 171 225 273 330 384
#     4  11  18  37  64  92 120 177 220 265 320 395
#     4  10  21  40  64  91 135 169 216 273 333 385
#     4  10  22  37  64  91 138 171 216 264 343 390
#     4  11  20  39  62  96 129 180 209 277 334 387
#     4  12  21  37  64  91 131 169 229 261 322 390
#     4  11  22  40  62  99 129 172 212 273 323 389
#     4  11  22  40  65  95 124 170 221 275 323 393
#
# _framework density 23.018840999999998
#
# number of rings (size 3 to 8) (size 9 to 14) (size 15 to 20)
#    0.000    1.250    5.000    2.250    0.000    0.500 
#    2.250    1.250    0.000   11.250    0.000    0.000 
#    0.000    0.000    0.000    0.000    0.000    0.000 
#
# Total GULP energy -89188.769854 kJ/mol
# GULP energy per Si atom -5574.298116 kJ/mol
# Density = 2.296645 g / cm^3
# Si number density = 23.018841 Si / 1000 Ang^3
#
#
#
# Elastic Constant Matrix: (Units=GPa)
#
#
# Indices 1 2 3 4 5 6 
#
# 1 132.8877 10.5311 17.3544 7.5381 15.9268 -8.4571
# 2 10.5311 60.2799 3.2205 0.6232 6.3660 -13.7189
# 3 17.3544 3.2205 81.1993 14.9933 20.9023 11.0773
# 4 7.5381 0.6232 14.9933 25.5567 -0.9277 9.4378
# 5 15.9268 6.3660 20.9023 -0.9277 39.2851 -0.4529
# 6 -8.4571 -13.7189 11.0773 9.4378 -0.4529 41.1593
#
#
#
# Elastic Compliance Matrix: (Units=1/GPa)
#
#
# Indices 1 2 3 4 5 6 
#
# 1 0.008342 -0.000530 -0.000788 -0.002978 -0.002919 0.002400
# 2 -0.000530 0.018539 -0.000394 -0.002653 -0.002565 0.006756
# 3 -0.000788 -0.000394 0.016793 -0.008867 -0.008794 -0.002876
# 4 -0.002978 -0.002653 -0.008867 0.049363 0.007401 -0.010347
# 5 -0.002919 -0.002565 -0.008794 0.007401 0.031903 -0.000434
# 6 0.002400 0.006756 -0.002876 -0.010347 -0.000434 0.030183
#
#
# Mechanical properties :
#
#
# Convention : Reuss Voigt Hill
#
# Bulk Modulus (GPa) = 24.84457 37.39766 31.12111
# Shear Modulus (GPa) = 29.07612 37.41760 33.24686
#
# Velocity S-wave (km/s) = 3.55793 4.03615 3.80456
# Velocity P-wave (km/s) = 5.26261 6.16461 5.73138
#
# Compressibility (1/GPa) = 0.04025025
#
# Stress axis : x y z
#
# Youngs Moduli (GPa) = 119.88151 53.94083 59.54915
#
# Poissons Ratio (x) = 0.02858 0.04692
# Poissons Ratio (y) = 0.06353 0.02344
# Poissons Ratio (z) = 0.09446 0.02124
#
# Static dielectric constant tensor:
#      x y z
#    x 2.085130 -0.086000 0.033410 
#    y -0.086000 1.878560 0.002090 
#    z 0.033410 0.002090 1.933260 
# 
# From -- ./inp_files/318981.got.cif
#   From: 2010.05.17/outbox.cif.g08.bks.cpg/sg2_160_cif.got.tgz:318981.got - 2010.06.03 11:33:40.
