data_PCOD9105205
_publ_section_title
;
Structure prediction by ZEFSAII (Michael W. Deem and Ramdas Pophale) SiO2 
 PCOD9105205
Probable space group: P -1
;
_chemical_formula_sum "Si O2"
_cell_formula_units_Z 16
_cell_length_a 9.409490
_cell_length_b 22.068379
_cell_length_c 12.877988
_cell_angle_alpha 26.892006
_cell_angle_beta 111.672482
_cell_angle_gamma 131.246978
_cell_volume 696.414161
_symmetry_space_group_name_H-M "P -1"
_symmetry_group_IT_number 2
_symmetry_cell_setting 'triclinic'
loop_
_space_group_symop_operation_xyz
x,y,z
-x,-y,-z
loop_
_atom_site_type_symbol
_atom_site_label
_atom_site_fract_x
_atom_site_fract_y
_atom_site_fract_z
Si Si1 0.329250 0.267953 0.760247
Si Si2 0.096203 0.978719 0.842489
Si Si3 0.324782 0.860571 0.049635
Si Si4 0.238362 0.378684 0.266896
Si Si5 0.656582 0.567104 0.208465
Si Si6 0.158281 0.578635 0.821332
Si Si7 0.270009 0.931964 0.278369
Si Si8 0.960305 0.530312 0.276376
O O1 0.500000 0.500000 0.500000
O O2 0.443450 0.346872 0.555787
O O3 0.045614 0.112600 0.944216
O O4 0.360255 0.142951 0.011869
O O5 0.867939 0.778745 0.012029
O O6 0.194127 0.192371 0.512704
O O7 0.292362 0.995917 0.852738
O O8 0.397213 0.003272 0.091232
O O9 0.168604 0.674338 0.378226
O O10 0.198564 0.730949 0.103407
O O11 0.504495 0.570795 0.098028
O O12 0.018427 0.259193 0.474016
O O13 0.235876 0.479688 0.016264
O O14 0.787977 0.542710 0.215811
O O15 0.344315 0.833165 0.488180
O O16 0.021151 0.494043 0.802395
O O17 0.000000 0.500000 0.000000
#
# Coordination Sequence:
#
# PCOD9105205 Si02
#       8
#     2   2   2   2   2   2   2   2
#     4   9  18  36  62  91 129 159 203 265 322 387
#     4   9  21  38  63  94 129 169 212 264 325 386
#     4  10  21  41  66 101 127 159 213 272 338 380
#     4  10  23  43  62  87 133 175 220 263 307 384
#     4  10  20  39  63  96 125 168 216 264 328 382
#     4  10  24  45  59  90 131 174 223 258 313 384
#     4  10  21  41  63  94 127 163 217 265 322 384
#     4  10  22  40  66  92 134 166 205 275 328 383
#
# _framework density 22.974836
#
# number of rings (size 3 to 8) (size 9 to 14) (size 15 to 20)
#    0.000    2.250    1.250    0.000    3.500    6.000 
#   11.250    2.500    0.000    0.000    0.000    0.000 
#    0.000    0.000    0.000    0.000    0.000    0.000 
#
# Total GULP energy -89116.028636 kJ/mol
# GULP energy per Si atom -5569.751790 kJ/mol
# Density = 2.292254 g / cm^3
# Si number density = 22.974836 Si / 1000 Ang^3
#
#
#
# Elastic Constant Matrix: (Units=GPa)
#
#
# Indices 1 2 3 4 5 6 
#
# 1 121.4850 32.5234 31.2579 -6.2716 16.6411 -11.7499
# 2 32.5234 115.5006 47.1787 9.1133 0.7047 -8.8961
# 3 31.2579 47.1787 120.2425 -5.4615 32.1287 -4.2761
# 4 -6.2716 9.1133 -5.4615 29.7558 1.1935 0.6199
# 5 16.6411 0.7047 32.1287 1.1935 36.6536 -1.9498
# 6 -11.7499 -8.8961 -4.2761 0.6199 -1.9498 31.5491
#
#
#
# Elastic Compliance Matrix: (Units=1/GPa)
#
#
# Indices 1 2 3 4 5 6 
#
# 1 0.010013 -0.002788 -0.000114 0.003064 -0.004354 0.002598
# 2 -0.002788 0.012572 -0.006208 -0.005895 0.006774 0.002200
# 3 -0.000114 -0.006208 0.014355 0.005033 -0.012614 -0.000726
# 4 0.003064 -0.005895 0.005033 0.037282 -0.006957 -0.001001
# 5 -0.004354 0.006774 -0.012614 -0.006957 0.040477 0.001217
# 6 0.002598 0.002200 -0.000726 -0.001001 0.001217 0.033281
#
#
# Mechanical properties :
#
#
# Convention : Reuss Voigt Hill
#
# Bulk Modulus (GPa) = 53.41679 64.34978 58.88328
# Shear Modulus (GPa) = 28.99563 36.00957 32.50260
#
# Velocity S-wave (km/s) = 3.55640 3.96327 3.76534
# Velocity P-wave (km/s) = 6.33755 7.00093 6.67748
#
# Compressibility (1/GPa) = 0.01872071
#
# Stress axis : x y z
#
# Youngs Moduli (GPa) = 99.86914 79.54284 69.66150
#
# Poissons Ratio (x) = 0.22176 0.00795
# Poissons Ratio (y) = 0.27843 0.43243
# Poissons Ratio (z) = 0.01140 0.49377
#
# Static dielectric constant tensor:
#      x y z
#    x 1.952250 -0.011760 -0.028960 
#    y -0.011760 1.972060 0.023800 
#    z -0.028960 0.023800 1.941770 
# 
# From -- ./inp_files/437978.got.cif
#   From: 2010.05.17/outbox.cif.g08.bks.cpg/sg2_219_cif.got.tgz:437978.got - 2010.06.03 11:33:40.
