data_PCOD9105509
_publ_section_title
;
Structure prediction by ZEFSAII (Michael W. Deem and Ramdas Pophale) SiO2 
 PCOD9105509
Probable space group: P -1
;
_chemical_formula_sum "Si O2"
_cell_formula_units_Z 16
_cell_length_a 9.304367
_cell_length_b 24.503526
_cell_length_c 5.399952
_cell_angle_alpha 90.814562
_cell_angle_beta 83.803786
_cell_angle_gamma 147.554940
_cell_volume 649.777820
_symmetry_space_group_name_H-M "P -1"
_symmetry_group_IT_number 2
_symmetry_cell_setting 'triclinic'
loop_
_space_group_symop_operation_xyz
x,y,z
-x,-y,-z
loop_
_atom_site_type_symbol
_atom_site_label
_atom_site_fract_x
_atom_site_fract_y
_atom_site_fract_z
Si Si1 0.073696 0.858588 0.921598
Si Si2 0.195453 0.017590 0.842607
Si Si3 0.231626 0.169849 0.372748
Si Si4 0.811646 0.472310 0.724220
Si Si5 0.939208 0.255717 0.243667
Si Si6 0.779332 0.684130 0.290585
Si Si7 0.372937 0.765994 0.394136
Si Si8 0.236489 0.653654 0.006070
O O1 0.873101 0.807006 0.721841
O O2 0.227165 0.853624 0.795517
O O3 0.205446 0.959698 0.952445
O O4 0.914193 0.785392 0.186179
O O5 0.036771 0.952956 0.611302
O O6 0.484838 0.137570 0.761298
O O7 0.000000 0.000000 0.000000
O O8 0.396684 0.205987 0.586430
O O9 0.467969 0.232494 0.132241
O O10 0.543900 0.411844 0.650161
O O11 0.722490 0.396396 0.926594
O O12 0.000000 0.500000 0.500000
O O13 0.001699 0.575170 0.841078
O O14 0.103925 0.300080 0.472481
O O15 0.748043 0.244775 0.340558
O O16 0.129344 0.321684 0.970026
O O17 0.162636 0.667359 0.253813
#
# Coordination Sequence:
#
# PCOD9105509 Si02
#       8
#     2   2   2   2   2   2   2   2
#     4   8  21  40  65  93 132 182 225 265 343 383
#     4  10  20  39  65 100 132 178 226 289 334 388
#     4  10  21  41  63  97 135 171 222 283 340 381
#     4  11  24  40  70 100 130 166 228 286 342 408
#     4  10  25  43  70  94 144 189 219 276 334 414
#     4  10  23  47  67  96 139 178 230 270 349 404
#     4  12  24  40  67  98 139 176 233 272 337 406
#     4  11  23  38  64  99 132 163 224 282 349 386
#
# _framework density 24.623799000000002
#
# number of rings (size 3 to 8) (size 9 to 14) (size 15 to 20)
#    1.500    0.250    2.500    1.125    8.750    0.500 
#    0.000    1.875    0.000    0.000    0.000    0.000 
#    0.000    0.000    0.000    0.000    0.000    0.000 
#
# Total GULP energy -89195.777638 kJ/mol
# GULP energy per Si atom -5574.736102 kJ/mol
# Density = 2.456775 g / cm^3
# Si number density = 24.623799 Si / 1000 Ang^3
#
#
#
# Elastic Constant Matrix: (Units=GPa)
#
#
# Indices 1 2 3 4 5 6 
#
# 1 95.3738 31.7367 19.5362 13.6991 -1.8073 -6.1120
# 2 31.7367 95.8611 33.0058 11.4719 -7.1151 -5.6757
# 3 19.5362 33.0058 83.6666 23.2641 -9.1279 -1.6227
# 4 13.6991 11.4719 23.2641 24.0606 4.6579 4.4917
# 5 -1.8073 -7.1151 -9.1279 4.6579 44.4725 10.5424
# 6 -6.1120 -5.6757 -1.6227 4.4917 10.5424 26.5220
#
#
#
# Elastic Compliance Matrix: (Units=1/GPa)
#
#
# Indices 1 2 3 4 5 6 
#
# 1 0.012683 -0.003301 0.000184 -0.006433 -0.000097 0.003356
# 2 -0.003301 0.013192 -0.004034 -0.000983 0.000863 0.001639
# 3 0.000184 -0.004034 0.018978 -0.017724 0.004771 0.001446
# 4 -0.006433 -0.000983 -0.017724 0.066464 -0.008491 -0.010658
# 5 -0.000097 0.000863 0.004771 -0.008491 0.026541 -0.008658
# 6 0.003356 0.001639 0.001446 -0.010658 -0.008658 0.044163
#
#
# Mechanical properties :
#
#
# Convention : Reuss Voigt Hill
#
# Bulk Modulus (GPa) = 32.73283 49.27320 41.00301
# Shear Modulus (GPa) = 24.21227 31.71921 27.96574
#
# Velocity S-wave (km/s) = 3.13914 3.59298 3.37370
# Velocity P-wave (km/s) = 5.14402 6.10463 5.64480
#
# Compressibility (1/GPa) = 0.03055037
#
# Stress axis : x y z
#
# Youngs Moduli (GPa) = 78.84564 75.80152 52.69385
#
# Poissons Ratio (x) = 0.25022 -0.00969
# Poissons Ratio (y) = 0.26027 0.21258
# Poissons Ratio (z) = -0.01450 0.30580
#
# Static dielectric constant tensor:
#      x y z
#    x 1.990160 -0.043650 0.028720 
#    y -0.043650 1.944230 -0.005410 
#    z 0.028720 -0.005410 2.030000 
# 
# From -- ./inp_files/85324.got.cif
#   From: 2010.05.17/outbox.cif.g08.bks.cpg/sg2_43_cif.got.tgz:85324.got - 2010.06.03 11:33:40.
