data_PCOD9105019
_publ_section_title
;
Structure prediction by ZEFSAII (Michael W. Deem and Ramdas Pophale) SiO2 
 PCOD9105019
Probable space group: P -1
;
_chemical_formula_sum "Si O2"
_cell_formula_units_Z 16
_cell_length_a 18.302162
_cell_length_b 6.824801
_cell_length_c 12.573438
_cell_angle_alpha 106.928096
_cell_angle_beta 47.708813
_cell_angle_gamma 133.574361
_cell_volume 796.808803
_symmetry_space_group_name_H-M "P -1"
_symmetry_group_IT_number 2
_symmetry_cell_setting 'triclinic'
loop_
_space_group_symop_operation_xyz
x,y,z
-x,-y,-z
loop_
_atom_site_type_symbol
_atom_site_label
_atom_site_fract_x
_atom_site_fract_y
_atom_site_fract_z
Si Si1 0.040005 0.327281 0.401978
Si Si2 0.909990 0.175108 0.074431
Si Si3 0.399993 0.682275 0.863593
Si Si4 0.492160 0.774393 0.259014
Si Si5 0.209366 0.273945 0.349874
Si Si6 0.373453 0.357523 0.023384
Si Si7 0.088855 0.252152 0.101319
Si Si8 0.583725 0.699862 0.347193
O O1 0.166081 0.430175 0.368213
O O2 0.066846 0.313496 0.249849
O O3 0.000000 0.500000 0.500000
O O4 0.913452 0.000014 0.507709
O O5 0.983350 0.192279 0.110641
O O6 0.749009 0.979681 0.232701
O O7 0.000000 0.500000 0.000000
O O8 0.916243 0.003562 0.950840
O O9 0.433437 0.522097 0.746131
O O10 0.499194 0.998122 0.772900
O O11 0.396453 0.604186 0.977250
O O12 0.246088 0.529165 0.960339
O O13 0.345230 0.472790 0.320207
O O14 0.513673 0.787344 0.366057
O O15 0.616378 0.817284 0.093998
O O16 0.240968 0.183766 0.199617
O O17 0.500000 0.500000 0.000000
O O18 0.500000 0.500000 0.500000
#
# Coordination Sequence:
#
# PCOD9105019 Si02
#       8
#     2   2   2   2   2   2   2   2
#     4  11  25  41  62  89 132 174 206 263 318 371
#     4  10  22  42  70  94 123 170 215 267 321 375
#     4  10  20  39  63  88 124 163 207 264 312 378
#     4  10  22  38  65  89 121 165 203 259 323 378
#     4  10  23  40  56  93 123 162 216 254 310 384
#     4   9  19  35  58  87 119 156 202 253 296 374
#     4  10  22  41  64  93 124 164 222 260 306 391
#     4  10  23  41  61  97 129 155 208 269 328 388
#
# _framework density 20.080099000000001
#
# number of rings (size 3 to 8) (size 9 to 14) (size 15 to 20)
#    0.000    2.000    1.250    0.750    3.500    7.500 
#    2.250    0.000    0.000    0.000    0.000    0.000 
#    0.000    0.000    0.000    0.000    0.000    0.000 
#
# Total GULP energy -89124.732729 kJ/mol
# GULP energy per Si atom -5570.295796 kJ/mol
# Density = 2.003440 g / cm^3
# Si number density = 20.080099 Si / 1000 Ang^3
#
#
#
# Elastic Constant Matrix: (Units=GPa)
#
#
# Indices 1 2 3 4 5 6 
#
# 1 96.3975 8.4951 6.3827 -1.3374 -1.3852 4.1696
# 2 8.4951 68.1815 16.7426 -7.2178 2.6801 -4.8891
# 3 6.3827 16.7426 73.8751 1.3456 8.0338 4.5052
# 4 -1.3374 -7.2178 1.3456 30.9853 -1.5235 -2.3769
# 5 -1.3852 2.6801 8.0338 -1.5235 27.6642 -0.3049
# 6 4.1696 -4.8891 4.5052 -2.3769 -0.3049 19.4032
#
#
#
# Elastic Compliance Matrix: (Units=1/GPa)
#
#
# Indices 1 2 3 4 5 6 
#
# 1 0.010653 -0.001407 -0.000536 0.000002 0.000798 -0.002507
# 2 -0.001407 0.016764 -0.004106 0.004475 -0.000189 0.006025
# 3 -0.000536 -0.004106 0.015309 -0.002223 -0.004250 -0.004813
# 4 0.000002 0.004475 -0.002223 0.033966 0.002147 0.005838
# 5 0.000798 -0.000189 -0.004250 0.002147 0.037576 0.001621
# 6 -0.002507 0.006025 -0.004813 0.005838 0.001621 0.055453
#
#
# Mechanical properties :
#
#
# Convention : Reuss Voigt Hill
#
# Bulk Modulus (GPa) = 32.64819 33.52166 33.08492
# Shear Modulus (GPa) = 26.03792 29.39945 27.71868
#
# Velocity S-wave (km/s) = 3.60488 3.83052 3.71941
# Velocity P-wave (km/s) = 5.79838 6.02445 5.91250
#
# Compressibility (1/GPa) = 0.03062957
#
# Stress axis : x y z
#
# Youngs Moduli (GPa) = 93.86984 59.65339 65.31918
#
# Poissons Ratio (x) = 0.08391 0.03498
# Poissons Ratio (y) = 0.13204 0.26820
# Poissons Ratio (z) = 0.05027 0.24494
#
# Static dielectric constant tensor:
#      x y z
#    x 1.759590 -0.031520 0.032160 
#    y -0.031520 1.734710 0.017910 
#    z 0.032160 0.017910 1.769710 
# 
# From -- ./inp_files/75824.got.cif
#   From: 2010.05.17/outbox.cif.g08.bks.cpg/sg2_38_cif.got.tgz:75824.got - 2010.06.03 11:33:40.
