data_PCOD9105883
_publ_section_title
;
Structure prediction by ZEFSAII (Michael W. Deem and Ramdas Pophale) SiO2 
 PCOD9105883
Probable space group: P -1
;
_chemical_formula_sum "Si O2"
_cell_formula_units_Z 11
_cell_length_a 8.223107
_cell_length_b 9.041200
_cell_length_c 8.936652
_cell_angle_alpha 137.353356
_cell_angle_beta 93.139594
_cell_angle_gamma 104.936677
_cell_volume 403.473147
_symmetry_space_group_name_H-M "P -1"
_symmetry_group_IT_number 2
_symmetry_cell_setting 'triclinic'
loop_
_space_group_symop_operation_xyz
x,y,z
-x,-y,-z
loop_
_atom_site_type_symbol
_atom_site_label
_atom_site_fract_x
_atom_site_fract_y
_atom_site_fract_z
Si Si1 0.670619 0.842431 0.459916
Si Si2 0.399659 0.932327 0.680256
Si Si3 0.718256 0.396742 0.194960
Si Si4 0.014283 0.699652 0.030575
Si Si5 0.500000 0.500000 0.500000
Si Si6 0.187400 0.095308 0.989428
O O1 0.637599 0.966716 0.404072
O O2 0.669048 0.458119 0.399176
O O3 0.494193 0.756021 0.501590
O O4 0.841713 0.043791 0.704514
O O5 0.566769 0.151641 0.932802
O O6 0.232498 0.902258 0.755112
O O7 0.709795 0.615307 0.260693
O O8 0.902767 0.375761 0.164633
O O9 0.000000 0.500000 0.000000
O O10 0.835292 0.724107 0.998870
O O11 0.352829 0.253111 0.220280
O O12 0.000000 0.000000 0.000000
#
# Coordination Sequence:
#
# PCOD9105883 Si02
#       6
#     2   2   2   2   1   2
#     4  10  20  39  66  92 130 179 218 274 341 388
#     4   9  21  38  63  96 127 170 226 274 324 400
#     4  10  21  40  62  93 132 174 222 271 332 401
#     4  11  25  41  64 101 136 170 223 281 334 399
#     4  10  24  42  64  92 130 180 222 270 324 388
#     4  11  24  44  68  98 135 178 225 272 332 404
#
# _framework density 27.263278
#
# number of rings (size 3 to 8) (size 9 to 14) (size 15 to 20)
#    0.000    1.818    0.000    2.727    0.000   13.818 
#    0.000    5.455    0.000    0.000    0.000    0.000 
#    0.000    0.000    0.000    0.000    0.000    0.000 
#
# Total GULP energy -61463.231375 kJ/mol
# GULP energy per Si atom -5587.566489 kJ/mol
# Density = 2.720123 g / cm^3
# Si number density = 27.263278 Si / 1000 Ang^3
#
#
#
# Elastic Constant Matrix: (Units=GPa)
#
#
# Indices 1 2 3 4 5 6 
#
# 1 167.7660 38.8337 46.2831 -3.0577 -44.2338 -26.7719
# 2 38.8337 86.8490 23.9393 -12.6811 1.0721 3.3389
# 3 46.2831 23.9393 115.7888 -6.7180 -20.2883 6.3195
# 4 -3.0577 -12.6811 -6.7180 51.7842 -0.5633 -7.8397
# 5 -44.2338 1.0721 -20.2883 -0.5633 50.4884 -0.4890
# 6 -26.7719 3.3389 6.3195 -7.8397 -0.4890 51.0217
#
#
#
# Elastic Compliance Matrix: (Units=1/GPa)
#
#
# Indices 1 2 3 4 5 6 
#
# 1 0.011058 -0.004646 -0.002228 0.000310 0.008958 0.006516
# 2 -0.004646 0.014625 -0.001752 0.002596 -0.005084 -0.002828
# 3 -0.002228 -0.001752 0.010436 0.000477 0.002263 -0.002252
# 4 0.000310 0.002596 0.000477 0.020502 0.000667 0.003090
# 5 0.008958 -0.005084 0.002263 0.000667 0.028730 0.005131
# 6 0.006516 -0.002828 -0.002252 0.003090 0.005131 0.024006
#
#
# Mechanical properties :
#
#
# Convention : Reuss Voigt Hill
#
# Bulk Modulus (GPa) = 53.00185 65.39068 59.19627
# Shear Modulus (GPa) = 37.62246 48.08204 42.85225
#
# Velocity S-wave (km/s) = 3.71882 4.20410 3.96889
# Velocity P-wave (km/s) = 6.15812 6.89949 6.53932
#
# Compressibility (1/GPa) = 0.01886726
#
# Stress axis : x y z
#
# Youngs Moduli (GPa) = 90.43079 68.37399 95.82074
#
# Poissons Ratio (x) = 0.31769 0.21344
# Poissons Ratio (y) = 0.42018 0.16791
# Poissons Ratio (z) = 0.20144 0.11982
#
# Static dielectric constant tensor:
#      x y z
#    x 2.100560 -0.032550 -0.076080 
#    y -0.032550 2.395730 0.019150 
#    z -0.076080 0.019150 1.944510 
# 
# From -- ./inp_files/173567.got.cif
#   From: 2010.05.17/outbox.cif.g08.bks.cpg/sg2_87_cif.got.tgz:173567.got - 2010.06.03 11:33:40.
