data_PCOD9105997
_publ_section_title
;
Structure prediction by ZEFSAII (Michael W. Deem and Ramdas Pophale) SiO2 
 PCOD9105997
Probable space group: P -1
;
_chemical_formula_sum "Si O2"
_cell_formula_units_Z 16
_cell_length_a 10.805317
_cell_length_b 13.246589
_cell_length_c 12.798672
_cell_angle_alpha 44.359926
_cell_angle_beta 144.158172
_cell_angle_gamma 113.337966
_cell_volume 670.495710
_symmetry_space_group_name_H-M "P -1"
_symmetry_group_IT_number 2
_symmetry_cell_setting 'triclinic'
loop_
_space_group_symop_operation_xyz
x,y,z
-x,-y,-z
loop_
_atom_site_type_symbol
_atom_site_label
_atom_site_fract_x
_atom_site_fract_y
_atom_site_fract_z
Si Si1 0.974240 0.092629 0.678148
Si Si2 0.338876 0.278931 0.405871
Si Si3 0.672450 0.023733 0.680299
Si Si4 0.663526 0.249176 0.837569
Si Si5 0.187435 0.526920 0.366425
Si Si6 0.894517 0.399340 0.109712
Si Si7 0.559370 0.348849 0.074933
Si Si8 0.871939 0.726221 0.192266
O O1 0.057109 0.221747 0.687448
O O2 0.894260 0.025253 0.774247
O O3 0.739651 0.190017 0.378418
O O4 0.165297 0.930575 0.872726
O O5 0.500491 0.195286 0.481630
O O6 0.511282 0.220903 0.663469
O O7 0.109027 0.258085 0.297851
O O8 0.234596 0.465494 0.165908
O O9 0.500000 0.000000 0.500000
O O10 0.749653 0.891204 0.920410
O O11 0.451119 0.379851 0.665132
O O12 0.792313 0.340973 0.795644
O O13 0.019088 0.464680 0.234736
O O14 0.079084 0.607623 0.343577
O O15 0.710265 0.359114 0.073435
O O16 0.500000 0.500000 0.000000
O O17 0.321674 0.340471 0.884818
#
# Coordination Sequence:
#
# PCOD9105997 Si02
#       8
#     2   2   2   2   2   2   2   2
#     4  12  25  42  71 106 141 179 229 290 344 411
#     4  10  21  40  69  97 131 172 228 290 341 400
#     4  12  21  38  70 104 136 170 231 290 341 395
#     4  10  21  39  67 105 134 169 230 287 348 404
#     4  10  20  39  66  98 138 173 223 284 344 403
#     4  10  22  43  65  94 137 179 227 281 338 411
#     4  12  26  46  68 100 143 187 233 277 348 421
#     4  12  23  42  71 102 137 183 229 287 345 405
#
# _framework density 23.862942
#
# number of rings (size 3 to 8) (size 9 to 14) (size 15 to 20)
#    0.000    1.000    5.000    2.625    0.000    0.500 
#    2.250    3.125    0.000    0.000    0.000    0.000 
#    0.000    0.000    0.000    0.000    0.000    0.000 
#
# Total GULP energy -89491.016959 kJ/mol
# GULP energy per Si atom -5593.188560 kJ/mol
# Density = 2.380863 g / cm^3
# Si number density = 23.862942 Si / 1000 Ang^3
#
#
#
# Elastic Constant Matrix: (Units=GPa)
#
#
# Indices 1 2 3 4 5 6 
#
# 1 77.0815 21.0612 21.8628 5.6573 23.2983 23.8050
# 2 21.0612 94.1654 36.7689 8.3599 28.1243 2.4463
# 3 21.8628 36.7689 97.5792 -14.0868 19.1510 -12.5568
# 4 5.6573 8.3599 -14.0868 25.8611 1.2366 2.8619
# 5 23.2983 28.1243 19.1510 1.2366 38.2390 4.8579
# 6 23.8050 2.4463 -12.5568 2.8619 4.8579 34.9409
#
#
#
# Elastic Compliance Matrix: (Units=1/GPa)
#
#
# Indices 1 2 3 4 5 6 
#
# 1 0.022916 0.001388 -0.006972 -0.007010 -0.009186 -0.016364
# 2 0.001388 0.016212 -0.006104 -0.008173 -0.009152 -0.002332
# 3 -0.006972 -0.006104 0.017582 0.011971 -0.001823 0.010769
# 4 -0.007010 -0.008173 0.011971 0.048672 0.002029 0.005381
# 5 -0.009186 -0.009152 -0.001823 0.002029 0.039248 0.000621
# 6 -0.016364 -0.002332 0.010769 0.005381 0.000621 0.043275
#
#
# Mechanical properties :
#
#
# Convention : Reuss Voigt Hill
#
# Bulk Modulus (GPa) = 29.99933 47.57910 38.78921
# Shear Modulus (GPa) = 22.48272 32.41707 27.44990
#
# Velocity S-wave (km/s) = 3.07279 3.68974 3.39531
# Velocity P-wave (km/s) = 5.01879 6.17527 5.62682
#
# Compressibility (1/GPa) = 0.03333408
#
# Stress axis : x y z
#
# Youngs Moduli (GPa) = 43.63705 61.68211 56.87621
#
# Poissons Ratio (x) = -0.08561 0.39656
# Poissons Ratio (y) = -0.06057 0.34716
# Poissons Ratio (z) = 0.30425 0.37649
#
# Static dielectric constant tensor:
#      x y z
#    x 1.905470 -0.014340 0.019830 
#    y -0.014340 1.956580 0.002490 
#    z 0.019830 0.002490 1.896170 
# 
# From -- ./inp_files/522304.got.cif
#   From: 2010.05.17/outbox.cif.g08.bks.cpg/sg2_262_cif.got.tgz:522304.got - 2010.06.03 11:33:40.
