data_PCOD9105251
_publ_section_title
;
Structure prediction by ZEFSAII (Michael W. Deem and Ramdas Pophale) SiO2 
 PCOD9105251
Probable space group: P -1
;
_chemical_formula_sum "Si O2"
_cell_formula_units_Z 16
_cell_length_a 10.216654
_cell_length_b 14.541446
_cell_length_c 13.324891
_cell_angle_alpha 32.436572
_cell_angle_beta 112.470614
_cell_angle_gamma 93.387671
_cell_volume 831.049211
_symmetry_space_group_name_H-M "P -1"
_symmetry_group_IT_number 2
_symmetry_cell_setting 'triclinic'
loop_
_space_group_symop_operation_xyz
x,y,z
-x,-y,-z
loop_
_atom_site_type_symbol
_atom_site_label
_atom_site_fract_x
_atom_site_fract_y
_atom_site_fract_z
Si Si1 0.543717 0.772637 0.214865
Si Si2 0.289062 0.777591 0.996545
Si Si3 0.970641 0.104783 0.502622
Si Si4 0.279593 0.021528 0.394681
Si Si5 0.875973 0.524563 0.153906
Si Si6 0.616510 0.681092 0.106972
Si Si7 0.767189 0.565154 0.660417
Si Si8 0.436623 0.087564 0.566717
O O1 0.373775 0.787201 0.115977
O O2 0.663986 0.661066 0.256525
O O3 0.628718 0.658287 0.446750
O O4 0.500000 0.000000 0.000000
O O5 0.451303 0.667053 0.072748
O O6 0.206890 0.646984 0.105110
O O7 0.149124 0.994280 0.713422
O O8 0.895629 0.344027 0.256660
O O9 0.847490 0.053836 0.571513
O O10 0.000000 0.000000 0.500000
O O11 0.351519 0.007230 0.540151
O O12 0.433473 0.892368 0.482994
O O13 0.201023 0.256578 0.123062
O O14 0.758858 0.549616 0.190352
O O15 0.060814 0.461176 0.300231
O O16 0.542255 0.913707 0.839348
O O17 0.697084 0.712606 0.599500
#
# Coordination Sequence:
#
# PCOD9105251 Si02
#       8
#     2   2   2   2   2   2   2   2
#     4  10  20  39  64  86 118 165 206 251 307 360
#     4  10  23  39  58  93 120 158 210 246 302 376
#     4  12  24  40  64  91 126 165 208 248 307 362
#     4  10  23  41  59  94 127 161 200 259 300 373
#     4  11  24  40  63  93 127 160 204 255 308 357
#     4   9  21  41  60  89 123 156 207 248 301 370
#     4  12  21  38  66  88 122 165 203 259 306 360
#     4  10  21  40  63  87 126 162 204 246 317 360
#
# _framework density 19.252770999999999
#
# number of rings (size 3 to 8) (size 9 to 14) (size 15 to 20)
#    0.750    0.750    2.500    3.375    3.500    1.500 
#    0.000    2.500    0.000    2.250    0.000    0.000 
#    0.000    0.000    0.000    0.000    0.000    0.000 
#
# Total GULP energy -89226.523210 kJ/mol
# GULP energy per Si atom -5576.657701 kJ/mol
# Density = 1.920895 g / cm^3
# Si number density = 19.252771 Si / 1000 Ang^3
#
#
#
# Elastic Constant Matrix: (Units=GPa)
#
#
# Indices 1 2 3 4 5 6 
#
# 1 104.3111 26.1836 8.3910 -5.2802 12.0438 10.4243
# 2 26.1836 42.7783 -1.6987 -1.3949 4.7791 -4.5680
# 3 8.3910 -1.6987 41.9986 -5.9125 2.1748 -1.9897
# 4 -5.2802 -1.3949 -5.9125 31.8239 3.3627 -3.1590
# 5 12.0438 4.7791 2.1748 3.3627 29.3471 -0.0437
# 6 10.4243 -4.5680 -1.9897 -3.1590 -0.0437 23.6540
#
#
#
# Elastic Compliance Matrix: (Units=1/GPa)
#
#
# Indices 1 2 3 4 5 6 
#
# 1 0.013245 -0.008572 -0.003022 0.000918 -0.003932 -0.007631
# 2 -0.008572 0.030123 0.003761 0.001800 -0.001857 0.010148
# 3 -0.003022 0.003761 0.025612 0.005103 -0.001848 0.004890
# 4 0.000918 0.001800 0.005103 0.033601 -0.004891 0.004850
# 5 -0.003932 -0.001857 -0.001848 -0.004891 0.036689 0.000633
# 6 -0.007631 0.010148 0.004890 0.004850 0.000633 0.048659
#
#
# Mechanical properties :
#
#
# Convention : Reuss Voigt Hill
#
# Bulk Modulus (GPa) = 18.75671 28.31554 23.53613
# Shear Modulus (GPa) = 22.58718 27.37916 24.98317
#
# Velocity S-wave (km/s) = 3.42890 3.77515 3.60619
# Velocity P-wave (km/s) = 5.04381 5.80875 5.43974
#
# Compressibility (1/GPa) = 0.05331425
#
# Stress axis : x y z
#
# Youngs Moduli (GPa) = 75.50209 33.19775 39.04439
#
# Poissons Ratio (x) = 0.28458 0.11797
# Poissons Ratio (y) = 0.64723 -0.14686
# Poissons Ratio (z) = 0.22813 -0.12487
#
# Static dielectric constant tensor:
#      x y z
#    x 1.693610 0.001440 -0.001550 
#    y 0.001440 1.652380 0.006340 
#    z -0.001550 0.006340 1.677640 
# 
# From -- ./inp_files/520646.got.cif
#   From: 2010.05.17/outbox.cif.g08.bks.cpg/sg2_261_cif.got.tgz:520646.got - 2010.06.03 11:33:40.
