data_PCOD9105302
_publ_section_title
;
Structure prediction by ZEFSAII (Michael W. Deem and Ramdas Pophale) SiO2 
 PCOD9105302
Probable space group: P -1
;
_chemical_formula_sum "Si O2"
_cell_formula_units_Z 14
_cell_length_a 21.636779
_cell_length_b 9.537290
_cell_length_c 11.432870
_cell_angle_alpha 48.868193
_cell_angle_beta 21.012703
_cell_angle_gamma 40.147165
_cell_volume 529.333654
_symmetry_space_group_name_H-M "P -1"
_symmetry_group_IT_number 2
_symmetry_cell_setting 'triclinic'
loop_
_space_group_symop_operation_xyz
x,y,z
-x,-y,-z
loop_
_atom_site_type_symbol
_atom_site_label
_atom_site_fract_x
_atom_site_fract_y
_atom_site_fract_z
Si Si1 0.576298 0.807226 0.872833
Si Si2 0.603012 0.146942 0.071603
Si Si3 0.584124 0.717838 0.357428
Si Si4 0.775710 0.295954 0.863630
Si Si5 0.167551 0.536524 0.733397
Si Si6 0.071043 0.996564 0.681250
Si Si7 0.700775 0.103883 0.435658
O O1 0.404494 0.853340 0.055433
O O2 0.725919 0.864878 0.507188
O O3 0.692258 0.553472 0.847695
O O4 0.500000 0.000000 0.000000
O O5 0.772127 0.178631 0.814603
O O6 0.384025 0.367427 0.377876
O O7 0.601808 0.930072 0.229426
O O8 0.390002 0.731355 0.755723
O O9 0.779506 0.519393 0.191116
O O10 0.523288 0.723683 0.324924
O O11 0.987563 0.183406 0.624936
O O12 0.079525 0.790218 0.723218
O O13 0.000000 0.500000 0.000000
O O14 0.874243 0.112631 0.055283
O O15 0.258453 0.880749 0.508691
#
# Coordination Sequence:
#
# PCOD9105302 Si02
#       7
#     2   2   2   2   2   2   2
#     4  11  24  40  63  87 126 168 208 247 300 379
#     4  10  21  41  62  92 122 157 212 257 298 367
#     4   9  19  37  64  89 121 155 210 256 298 363
#     4  10  20  39  64  89 122 164 202 255 310 358
#     4  11  19  32  64  94 120 151 200 262 312 349
#     4  10  21  39  65  90 124 156 204 263 305 362
#     4   9  21  42  58  89 126 156 207 247 310 355
#
# _framework density 26.448346000000001
#
# number of rings (size 3 to 8) (size 9 to 14) (size 15 to 20)
#    0.000    2.000    0.000    5.571    4.000    1.143 
#   12.857    0.714    6.286    0.000    0.000    0.000 
#    0.000    0.000    0.000    0.000    0.000    0.000 
#
# Total GULP energy -78206.784122 kJ/mol
# GULP energy per Si atom -5586.198866 kJ/mol
# Density = 2.638815 g / cm^3
# Si number density = 26.448346 Si / 1000 Ang^3
#
#
#
# Elastic Constant Matrix: (Units=GPa)
#
#
# Indices 1 2 3 4 5 6 
#
# 1 225.3238 54.9297 32.7185 3.7287 -19.6298 -27.2415
# 2 54.9297 163.3928 12.9415 -13.4191 -6.2488 -22.2095
# 3 32.7185 12.9415 25.2546 14.6389 -15.3961 -3.5888
# 4 3.7287 -13.4191 14.6389 31.8087 -12.3015 -13.1836
# 5 -19.6298 -6.2488 -15.3961 -12.3015 39.1789 1.4863
# 6 -27.2415 -22.2095 -3.5888 -13.1836 1.4863 50.0524
#
#
#
# Elastic Compliance Matrix: (Units=1/GPa)
#
#
# Indices 1 2 3 4 5 6 
#
# 1 0.006565 -0.000207 -0.010959 0.006271 0.000754 0.004324
# 2 -0.000207 0.008560 -0.008818 0.010413 0.000847 0.005771
# 3 -0.010959 -0.008818 0.091740 -0.045113 0.015583 -0.015645
# 4 0.006271 0.010413 -0.045113 0.068136 0.007614 0.022519
# 5 0.000754 0.000847 0.015583 0.007614 0.034441 0.002886
# 6 0.004324 0.005771 -0.015645 0.022519 0.002886 0.029618
#
#
# Mechanical properties :
#
#
# Convention : Reuss Voigt Hill
#
# Bulk Modulus (GPa) = 14.94842 68.35008 41.64925
# Shear Modulus (GPa) = 16.59332 45.10008 30.84670
#
# Velocity S-wave (km/s) = 2.50748 4.13390 3.41882
# Velocity P-wave (km/s) = 3.74800 6.97743 5.60054
#
# Compressibility (1/GPa) = 0.06689669
#
# Stress axis : x y z
#
# Youngs Moduli (GPa) = 152.33056 116.81766 10.90042
#
# Poissons Ratio (x) = 0.02421 0.11946
# Poissons Ratio (y) = 0.03157 0.09612
# Poissons Ratio (z) = 1.66939 1.03006
#
# Static dielectric constant tensor:
#      x y z
#    x 2.167440 -0.031050 0.120380 
#    y -0.031050 1.962180 -0.047590 
#    z 0.120380 -0.047590 2.406140 
# 
# From -- ./inp_files/469194.got.cif
#   From: 2010.05.17/outbox.cif.g08.bks.cpg/sg2_235_cif.got.tgz:469194.got - 2010.06.03 11:33:40.
