data_PCOD9105802
_publ_section_title
;
Structure prediction by ZEFSAII (Michael W. Deem and Ramdas Pophale) SiO2 
 PCOD9105802
Probable space group: P -1
;
_chemical_formula_sum "Si O2"
_cell_formula_units_Z 16
_cell_length_a 8.484263
_cell_length_b 11.719684
_cell_length_c 25.595547
_cell_angle_alpha 30.398684
_cell_angle_beta 133.870013
_cell_angle_gamma 142.599560
_cell_volume 781.948173
_symmetry_space_group_name_H-M "P -1"
_symmetry_group_IT_number 2
_symmetry_cell_setting 'triclinic'
loop_
_space_group_symop_operation_xyz
x,y,z
-x,-y,-z
loop_
_atom_site_type_symbol
_atom_site_label
_atom_site_fract_x
_atom_site_fract_y
_atom_site_fract_z
Si Si1 0.699256 0.405191 0.096108
Si Si2 0.301797 0.693041 0.979294
Si Si3 0.212173 0.281407 0.360960
Si Si4 0.362084 0.882267 0.696629
Si Si5 0.685342 0.287518 0.867084
Si Si6 0.402034 0.377117 0.200986
Si Si7 0.878706 0.090648 0.607185
Si Si8 0.372132 0.638179 0.498321
O O1 0.679177 0.250467 0.099763
O O2 0.617604 0.220313 0.201431
O O3 0.014319 0.627267 0.086773
O O4 0.500000 0.500000 0.000000
O O5 0.477003 0.973676 0.937892
O O6 0.396541 0.500111 0.095872
O O7 0.000000 0.500000 0.000000
O O8 0.304384 0.562476 0.243048
O O9 0.368814 0.310996 0.436589
O O10 0.912666 0.151072 0.355575
O O11 0.238538 0.102563 0.393224
O O12 0.386391 0.700435 0.729441
O O13 0.576015 0.187357 0.610430
O O14 0.586354 0.411765 0.838632
O O15 0.156850 0.098696 0.276893
O O16 0.739176 0.243795 0.531540
O O17 0.170149 0.324711 0.569479
#
# Coordination Sequence:
#
# PCOD9105802 Si02
#       8
#     2   2   2   2   2   2   2   2
#     4  11  23  43  63  91 132 165 204 262 317 375
#     4  12  24  40  70  91 123 170 214 260 320 369
#     4  10  21  38  62  88 130 159 202 256 314 366
#     4  10  22  40  62  96 126 167 204 255 311 381
#     4  10  24  41  64  97 123 164 218 264 306 375
#     4  10  20  41  64  88 130 158 211 262 301 371
#     4   9  21  38  63  93 121 158 213 258 296 370
#     4  10  20  39  66  87 124 165 205 252 312 362
#
# _framework density 20.461715000000002
#
# number of rings (size 3 to 8) (size 9 to 14) (size 15 to 20)
#    0.000    1.750    2.500    1.125    1.750    1.000 
#    0.000    2.500    5.500    0.000    0.000    0.000 
#    0.000    0.000    0.000    0.000    0.000    0.000 
#
# Total GULP energy -89132.234405 kJ/mol
# GULP energy per Si atom -5570.764650 kJ/mol
# Density = 2.041514 g / cm^3
# Si number density = 20.461715 Si / 1000 Ang^3
#
#
#
# Elastic Constant Matrix: (Units=GPa)
#
#
# Indices 1 2 3 4 5 6 
#
# 1 79.5458 24.8895 30.7593 -1.5228 -18.8039 3.2486
# 2 24.8895 87.8065 62.0660 -12.9609 -12.7923 -1.5236
# 3 30.7593 62.0660 95.9704 -6.6708 -17.1185 1.7457
# 4 -1.5228 -12.9609 -6.6708 32.3034 3.6306 -3.2572
# 5 -18.8039 -12.7923 -17.1185 3.6306 32.7392 -0.1141
# 6 3.2486 -1.5236 1.7457 -3.2572 -0.1141 7.6704
#
#
#
# Elastic Compliance Matrix: (Units=1/GPa)
#
#
# Indices 1 2 3 4 5 6 
#
# 1 0.016238 -0.002267 -0.002438 -0.002246 0.007388 -0.007616
# 2 -0.002267 0.023242 -0.014063 0.007564 -0.000371 0.011984
# 3 -0.002438 -0.014063 0.021028 -0.002674 0.004370 -0.007617
# 4 -0.002246 0.007564 -0.002674 0.035566 -0.003613 0.018111
# 5 0.007388 -0.000371 0.004370 -0.003613 0.037311 -0.005177
# 6 -0.007616 0.011984 -0.007617 0.018111 -0.005177 0.145324
#
#
# Mechanical properties :
#
#
# Convention : Reuss Voigt Hill
#
# Bulk Modulus (GPa) = 43.52977 55.41692 49.47334
# Shear Modulus (GPa) = 15.43677 24.24979 19.84328
#
# Velocity S-wave (km/s) = 2.74965 3.44631 3.11750
# Velocity P-wave (km/s) = 5.60364 6.55576 6.09831
#
# Compressibility (1/GPa) = 0.02297278
#
# Stress axis : x y z
#
# Youngs Moduli (GPa) = 61.58395 43.02540 47.55493
#
# Poissons Ratio (x) = 0.09752 0.11595
# Poissons Ratio (y) = 0.13959 0.66876
# Poissons Ratio (z) = 0.15016 0.60507
#
# Static dielectric constant tensor:
#      x y z
#    x 1.807820 0.010990 0.034990 
#    y 0.010990 1.702110 0.008020 
#    z 0.034990 0.008020 1.805610 
# 
# From -- ./inp_files/109459.got.cif
#   From: 2010.05.17/outbox.cif.g08.bks.cpg/sg2_55_cif.got.tgz:109459.got - 2010.06.03 11:33:40.
