data_PCOD9105843
_publ_section_title
;
Structure prediction by ZEFSAII (Michael W. Deem and Ramdas Pophale) SiO2 
 PCOD9105843
Probable space group: P -1
;
_chemical_formula_sum "Si O2"
_cell_formula_units_Z 14
_cell_length_a 9.424961
_cell_length_b 15.499755
_cell_length_c 10.680341
_cell_angle_alpha 55.670598
_cell_angle_beta 125.163943
_cell_angle_gamma 78.516555
_cell_volume 664.379493
_symmetry_space_group_name_H-M "P -1"
_symmetry_group_IT_number 2
_symmetry_cell_setting 'triclinic'
loop_
_space_group_symop_operation_xyz
x,y,z
-x,-y,-z
loop_
_atom_site_type_symbol
_atom_site_label
_atom_site_fract_x
_atom_site_fract_y
_atom_site_fract_z
Si Si1 0.164035 0.814125 0.234382
Si Si2 0.863755 0.149834 0.090140
Si Si3 0.685211 0.677467 0.340813
Si Si4 0.288333 0.651110 0.908620
Si Si5 0.891709 0.380695 0.545326
Si Si6 0.381644 0.769228 0.641784
Si Si7 0.042617 0.534575 0.860955
O O1 0.018140 0.774210 0.231945
O O2 0.374340 0.734791 0.521064
O O3 0.236985 0.760974 0.169605
O O4 0.000000 0.000000 0.000000
O O5 0.836947 0.238815 0.120205
O O6 0.636032 0.165652 0.983356
O O7 0.170805 0.963184 0.387254
O O8 0.788473 0.513873 0.485591
O O9 0.866650 0.676285 0.359962
O O10 0.762890 0.656922 0.540857
O O11 0.268342 0.736165 0.708926
O O12 0.616335 0.491981 0.231657
O O13 0.855894 0.392924 0.144268
O O14 0.701554 0.641724 0.935937
O O15 0.000000 0.500000 0.000000
#
# Coordination Sequence:
#
# PCOD9105843 Si02
#       7
#     2   2   2   2   2   2   2
#     4  10  21  38  63  90 125 174 207 253 320 384
#     4  10  24  41  66  94 131 167 211 259 324 385
#     4  10  22  38  62 100 120 163 215 269 306 372
#     4  11  22  41  69  92 122 176 213 257 321 381
#     4  10  20  39  66  90 125 166 218 256 314 384
#     4  11  21  43  66  91 128 170 207 259 323 383
#     4  12  24  38  65  94 126 160 219 265 311 374
#
# _framework density 21.072293999999999
#
# number of rings (size 3 to 8) (size 9 to 14) (size 15 to 20)
#    0.000    1.429    2.857    2.571    2.000    1.143 
#    0.000   10.000    0.000    0.000    0.000    0.000 
#    0.000    0.000    0.000    0.000    0.000    0.000 
#
# Total GULP energy -78088.094010 kJ/mol
# GULP energy per Si atom -5577.721001 kJ/mol
# Density = 2.102433 g / cm^3
# Si number density = 21.072294 Si / 1000 Ang^3
#
#
#
# Elastic Constant Matrix: (Units=GPa)
#
#
# Indices 1 2 3 4 5 6 
#
# 1 79.9715 24.4192 8.5116 -5.2316 -18.1295 2.4098
# 2 24.4192 77.5870 19.4634 8.7210 -4.8603 -12.3131
# 3 8.5116 19.4634 59.0967 -2.1258 2.2787 6.5829
# 4 -5.2316 8.7210 -2.1258 28.6901 -4.6343 1.1398
# 5 -18.1295 -4.8603 2.2787 -4.6343 36.2046 4.8749
# 6 2.4098 -12.3131 6.5829 1.1398 4.8749 40.2502
#
#
#
# Elastic Compliance Matrix: (Units=1/GPa)
#
#
# Indices 1 2 3 4 5 6 
#
# 1 0.017022 -0.006180 -0.000063 0.006616 0.009109 -0.004190
# 2 -0.006180 0.018302 -0.006164 -0.007808 -0.002255 0.007471
# 3 -0.000063 -0.006164 0.019685 0.003364 -0.000984 -0.005077
# 4 0.006616 -0.007808 0.003364 0.040181 0.007928 -0.005433
# 5 0.009109 -0.002255 -0.000984 0.007928 0.033680 -0.005378
# 6 -0.004190 0.007471 -0.005077 -0.005433 -0.005378 0.029017
#
#
# Mechanical properties :
#
#
# Convention : Reuss Voigt Hill
#
# Bulk Modulus (GPa) = 33.11653 35.71597 34.41625
# Shear Modulus (GPa) = 25.93834 31.97972 28.95903
#
# Velocity S-wave (km/s) = 3.51226 3.89989 3.71114
# Velocity P-wave (km/s) = 5.67430 6.10450 5.89333
#
# Compressibility (1/GPa) = 0.03019640
#
# Stress axis : x y z
#
# Youngs Moduli (GPa) = 58.74697 54.63901 50.79995
#
# Poissons Ratio (x) = 0.33764 0.00320
# Poissons Ratio (y) = 0.36303 0.31312
# Poissons Ratio (z) = 0.00370 0.33679
#
# Static dielectric constant tensor:
#      x y z
#    x 1.764430 -0.034730 -0.008440 
#    y -0.034730 1.787720 0.005630 
#    z -0.008440 0.005630 1.779860 
# 
# From -- ./inp_files/401954.got.cif
#   From: 2010.05.17/outbox.cif.g08.bks.cpg/sg2_201_cif.got.tgz:401954.got - 2010.06.03 11:33:40.
