data_PCOD9105642
_publ_section_title
;
Structure prediction by ZEFSAII (Michael W. Deem and Ramdas Pophale) SiO2 
 PCOD9105642
Probable space group: P -1
;
_chemical_formula_sum "Si O2"
_cell_formula_units_Z 16
_cell_length_a 16.912101
_cell_length_b 18.931162
_cell_length_c 9.501898
_cell_angle_alpha 39.652197
_cell_angle_beta 61.335208
_cell_angle_gamma 30.278761
_cell_volume 800.370345
_symmetry_space_group_name_H-M "P -1"
_symmetry_group_IT_number 2
_symmetry_cell_setting 'triclinic'
loop_
_space_group_symop_operation_xyz
x,y,z
-x,-y,-z
loop_
_atom_site_type_symbol
_atom_site_label
_atom_site_fract_x
_atom_site_fract_y
_atom_site_fract_z
Si Si1 0.887837 0.707105 0.995099
Si Si2 0.040229 0.735369 0.982737
Si Si3 0.634260 0.904515 0.327386
Si Si4 0.482038 0.812390 0.241582
Si Si5 0.546244 0.607000 0.894228
Si Si6 0.359401 0.728730 0.576374
Si Si7 0.675693 0.934270 0.556503
Si Si8 0.852075 0.535733 0.468404
O O1 0.038301 0.637908 0.019295
O O2 0.691137 0.961892 0.851683
O O3 0.853927 0.749097 0.793716
O O4 0.913495 0.556085 0.266164
O O5 0.245462 0.573020 0.057450
O O6 0.009975 0.702775 0.207192
O O7 0.863173 0.006518 0.677539
O O8 0.465369 0.999470 0.347894
O O9 0.779899 0.691060 0.420429
O O10 0.705671 0.857321 0.493133
O O11 0.557222 0.094882 0.019384
O O12 0.479282 0.683167 0.446982
O O13 0.672986 0.661108 0.369974
O O14 0.418894 0.704082 0.721151
O O15 0.432570 0.831244 0.716060
O O16 0.585892 0.458750 0.186472
#
# Coordination Sequence:
#
# PCOD9105642 Si02
#       8
#     2   2   2   2   2   2   2   2
#     4  10  18  30  51  79 113 137 173 216 263 322
#     4  11  19  32  53  84 108 138 175 223 268 309
#     4  10  19  29  58  77 110 146 173 211 273 320
#     4  10  16  34  53  80 105 142 176 222 258 313
#     4  11  20  36  54  79 108 141 176 229 262 306
#     4  10  21  34  57  79 104 138 187 221 264 306
#     4  11  18  34  52  81 110 143 175 215 266 322
#     4  11  17  32  52  82 113 140 170 217 265 320
#
# _framework density 19.990743999999999
#
# number of rings (size 3 to 8) (size 9 to 14) (size 15 to 20)
#    0.000    1.500    7.500    1.500    0.000    0.000 
#    0.000    1.250    0.000    0.000    0.000    1.750 
#    0.000    0.000    0.000    0.000    0.000    0.000 
#
# Total GULP energy -89321.489577 kJ/mol
# GULP energy per Si atom -5582.593099 kJ/mol
# Density = 1.994524 g / cm^3
# Si number density = 19.990744 Si / 1000 Ang^3
#
#
#
# Elastic Constant Matrix: (Units=GPa)
#
#
# Indices 1 2 3 4 5 6 
#
# 1 42.4119 19.5659 19.0560 15.9574 -10.3240 -15.2336
# 2 19.5659 32.5787 25.4352 -4.9752 -7.9031 -2.0189
# 3 19.0560 25.4352 133.0481 17.6097 -20.5357 -9.7463
# 4 15.9574 -4.9752 17.6097 23.2513 -3.9245 8.6729
# 5 -10.3240 -7.9031 -20.5357 -3.9245 52.6257 5.8054
# 6 -15.2336 -2.0189 -9.7463 8.6729 5.8054 17.1218
#
#
#
# Elastic Compliance Matrix: (Units=1/GPa)
#
#
# Indices 1 2 3 4 5 6 
#
# 1 -0.025299 0.031827 -0.013239 0.056099 0.005059 -0.056424
# 2 0.031827 0.004668 0.004267 -0.044314 -0.000648 0.053963
# 3 -0.013239 0.004267 0.006621 0.010675 0.002959 -0.013917
# 4 0.056099 -0.044314 0.010675 -0.040336 -0.002437 0.072022
# 5 0.005059 -0.000648 0.002959 -0.002437 0.020839 0.000277
# 6 -0.056424 0.053963 -0.013917 0.072022 0.000277 -0.029932
#
#
# Mechanical properties :
#
#
# Convention : Reuss Voigt Hill
#
# Bulk Modulus (GPa) = 31.54351 37.35032 34.44692
# Shear Modulus (GPa) = -50.71902 28.19854 -11.26024
#
# Velocity S-wave (km/s) = -5.04245 3.75984 -2.37591
# Velocity P-wave (km/s) = 4.25305 6.12968 3.12126
#
# Compressibility (1/GPa) = 0.03170224
#
# Stress axis : x y z
#
# Youngs Moduli (GPa) = -39.52795 214.21083 151.04330
#
# Poissons Ratio (x) = -6.81772 1.99960
# Poissons Ratio (y) = 1.25806 -0.64456
# Poissons Ratio (z) = -0.52329 -0.91412
#
# Static dielectric constant tensor:
#      x y z
#    x 1.710290 -0.032280 0.012920 
#    y -0.032280 1.714490 -0.032830 
#    z 0.012920 -0.032830 1.779060 
# 
# From -- ./inp_files/308838.got.cif
#   From: 2010.05.17/outbox.cif.g08.bks.cpg/sg2_155_cif.got.tgz:308838.got - 2010.06.03 11:33:40.
