data_PCOD9105870
_publ_section_title
;
Structure prediction by ZEFSAII (Michael W. Deem and Ramdas Pophale) SiO2 
 PCOD9105870
Probable space group: P -1
;
_chemical_formula_sum "Si O2"
_cell_formula_units_Z 16
_cell_length_a 7.871014
_cell_length_b 10.180269
_cell_length_c 15.882112
_cell_angle_alpha 147.413833
_cell_angle_beta 69.696710
_cell_angle_gamma 112.020148
_cell_volume 634.160800
_symmetry_space_group_name_H-M "P -1"
_symmetry_group_IT_number 2
_symmetry_cell_setting 'triclinic'
loop_
_space_group_symop_operation_xyz
x,y,z
-x,-y,-z
loop_
_atom_site_type_symbol
_atom_site_label
_atom_site_fract_x
_atom_site_fract_y
_atom_site_fract_z
Si Si1 0.327553 0.794482 0.698018
Si Si2 0.812075 0.541263 0.598991
Si Si3 0.978973 0.635522 0.220049
Si Si4 0.397838 0.235174 0.130769
Si Si5 0.713576 0.988869 0.684102
Si Si6 0.616889 0.796092 0.404965
Si Si7 0.053599 0.371342 0.587846
Si Si8 0.885943 0.845708 0.010566
O O1 0.334353 0.615053 0.520596
O O2 0.216959 0.612568 0.689120
O O3 0.533468 0.938043 0.744409
O O4 0.187979 0.987618 0.815535
O O5 0.751035 0.783900 0.777508
O O6 0.000000 0.500000 0.500000
O O7 0.860454 0.418746 0.612282
O O8 0.794744 0.749402 0.292200
O O9 0.992823 0.720811 0.361151
O O10 0.160708 0.745832 0.196968
O O11 0.996986 0.348352 0.075198
O O12 0.516421 0.508308 0.272045
O O13 0.300430 0.244670 0.061424
O O14 0.500000 0.000000 0.000000
O O15 0.665020 0.900408 0.547981
O O16 0.859732 0.812510 0.586341
O O17 0.500000 0.000000 0.500000
O O18 0.000000 0.000000 0.000000
#
# Coordination Sequence:
#
# PCOD9105870 Si02
#       8
#     2   2   2   2   2   2   2   2
#     4  11  23  39  68  98 136 180 225 285 340 405
#     4  10  21  41  64  99 132 178 230 285 339 402
#     4  11  23  42  68  99 133 182 231 279 344 410
#     4  12  25  40  68 104 138 175 234 289 342 402
#     4  11  24  38  66 100 134 175 231 282 337 408
#     4  11  24  42  69  97 137 180 230 281 342 421
#     4  10  20  39  66  91 129 176 233 275 335 402
#     4  12  23  44  68  96 142 183 223 283 350 412
#
# _framework density 25.230191999999999
#
# number of rings (size 3 to 8) (size 9 to 14) (size 15 to 20)
#    0.000    1.000    3.750    4.125    3.500    2.500 
#    0.000    0.000    0.000    2.250    0.000    0.000 
#    0.000    0.000    0.000    0.000    0.000    0.000 
#
# Total GULP energy -89124.939898 kJ/mol
# GULP energy per Si atom -5570.308744 kJ/mol
# Density = 2.517277 g / cm^3
# Si number density = 25.230192 Si / 1000 Ang^3
#
#
#
# Elastic Constant Matrix: (Units=GPa)
#
#
# Indices 1 2 3 4 5 6 
#
# 1 81.4205 26.3338 23.6311 14.6769 -20.6800 -5.3138
# 2 26.3338 75.2950 22.5364 21.4642 -5.8562 27.8809
# 3 23.6311 22.5364 136.2127 9.9233 -38.6946 -5.0035
# 4 14.6769 21.4642 9.9233 47.1583 -3.2830 1.6944
# 5 -20.6800 -5.8562 -38.6946 -3.2830 43.2357 8.8773
# 6 -5.3138 27.8809 -5.0035 1.6944 8.8773 40.1671
#
#
#
# Elastic Compliance Matrix: (Units=1/GPa)
#
#
# Indices 1 2 3 4 5 6 
#
# 1 0.016748 -0.007209 0.000332 -0.001803 0.005959 0.006020
# 2 -0.007209 0.026336 -0.002983 -0.008362 0.000804 -0.019431
# 3 0.000332 -0.002983 0.010317 -0.000368 0.008652 0.001503
# 4 -0.001803 -0.008362 -0.000368 0.025383 -0.001373 0.004752
# 5 0.005959 0.000804 0.008652 -0.001373 0.035037 -0.006378
# 6 0.006020 -0.019431 0.001503 0.004752 -0.006378 0.040576
#
#
# Mechanical properties :
#
#
# Convention : Reuss Voigt Hill
#
# Bulk Modulus (GPa) = 29.68822 48.65898 39.17360
# Shear Modulus (GPa) = 26.97683 40.80736 33.89209
#
# Velocity S-wave (km/s) = 3.27345 4.02606 3.66910
# Velocity P-wave (km/s) = 5.10684 6.39844 5.78878
#
# Compressibility (1/GPa) = 0.03368339
#
# Stress axis : x y z
#
# Youngs Moduli (GPa) = 59.70726 37.97033 96.92607
#
# Poissons Ratio (x) = 0.27372 -0.03221
# Poissons Ratio (y) = 0.43042 0.28911
# Poissons Ratio (z) = -0.01984 0.11326
#
# Static dielectric constant tensor:
#      x y z
#    x 2.354560 0.002310 0.029410 
#    y 0.002310 2.243800 0.055940 
#    z 0.029410 0.055940 2.038530 
# 
# From -- ./inp_files/589202.got.cif
#   From: 2010.05.17/outbox.cif.g08.bks.cpg/sg2_295_cif.got.tgz:589202.got - 2010.06.03 11:33:40.
