data_PCOD9105361
_publ_section_title
;
Structure prediction by ZEFSAII (Michael W. Deem and Ramdas Pophale) SiO2 
 PCOD9105361
Probable space group: P -1
;
_chemical_formula_sum "Si O2"
_cell_formula_units_Z 16
_cell_length_a 13.694512
_cell_length_b 8.337362
_cell_length_c 15.015975
_cell_angle_alpha 131.312953
_cell_angle_beta 43.910165
_cell_angle_gamma 100.553876
_cell_volume 739.078670
_symmetry_space_group_name_H-M "P -1"
_symmetry_group_IT_number 2
_symmetry_cell_setting 'triclinic'
loop_
_space_group_symop_operation_xyz
x,y,z
-x,-y,-z
loop_
_atom_site_type_symbol
_atom_site_label
_atom_site_fract_x
_atom_site_fract_y
_atom_site_fract_z
Si Si1 0.543441 0.161786 0.905414
Si Si2 0.066528 0.147335 0.261887
Si Si3 0.727431 0.648273 0.707936
Si Si4 0.544362 0.713458 0.356609
Si Si5 0.856027 0.241208 0.078136
Si Si6 0.658599 0.726962 0.099788
Si Si7 0.764271 0.076444 0.249070
Si Si8 0.863854 0.179285 0.728169
O O1 0.464735 0.177250 0.867790
O O2 0.688577 0.215905 0.827254
O O3 0.624139 0.876642 0.788659
O O4 0.400821 0.354828 0.141121
O O5 0.172737 0.263743 0.264132
O O6 0.870290 0.382069 0.471557
O O7 0.085758 0.962322 0.261789
O O8 0.138773 0.980394 0.064617
O O9 0.714415 0.509838 0.224576
O O10 0.583485 0.653501 0.204881
O O11 0.500000 0.000000 0.500000
O O12 0.380387 0.738988 0.516769
O O13 0.803532 0.230210 0.209334
O O14 0.052953 0.147437 0.912389
O O15 0.693425 0.934066 0.188278
O O16 0.831072 0.458590 0.859933
O O17 0.000000 0.000000 0.500000
#
# Coordination Sequence:
#
# PCOD9105361 Si02
#       8
#     2   2   2   2   2   2   2   2
#     4  10  21  38  62  91 127 168 210 258 313 381
#     4  10  20  39  64  91 129 166 209 261 318 377
#     4   9  20  39  63  95 128 165 211 262 313 376
#     4  10  23  44  65  93 129 166 213 271 323 379
#     4  11  22  45  67  96 126 169 219 268 321 379
#     4  11  22  43  62  92 130 167 207 262 320 383
#     4  10  25  43  69  94 125 169 219 273 317 378
#     4  11  23  38  60  92 128 168 207 255 316 389
#
# _framework density 21.648574
#
# number of rings (size 3 to 8) (size 9 to 14) (size 15 to 20)
#    0.000    1.750    1.250    2.250    0.000    6.000 
#   18.000    0.000    0.000    0.000    0.000    0.000 
#    0.000    0.000    0.000    0.000    0.000    0.000 
#
# Total GULP energy -89463.636955 kJ/mol
# GULP energy per Si atom -5591.477310 kJ/mol
# Density = 2.159930 g / cm^3
# Si number density = 21.648574 Si / 1000 Ang^3
#
#
#
# Elastic Constant Matrix: (Units=GPa)
#
#
# Indices 1 2 3 4 5 6 
#
# 1 68.2855 29.6022 29.3970 -0.0962 -13.9993 -20.0287
# 2 29.6022 36.2020 23.9484 0.1375 -13.5860 -13.5049
# 3 29.3970 23.9484 123.2034 -1.4804 -17.3747 -21.9389
# 4 -0.0962 0.1375 -1.4804 38.9626 0.2447 0.8786
# 5 -13.9993 -13.5860 -17.3747 0.2447 30.4475 8.4122
# 6 -20.0287 -13.5049 -21.9389 0.8786 8.4122 16.3233
#
#
#
# Elastic Compliance Matrix: (Units=1/GPa)
#
#
# Indices 1 2 3 4 5 6 
#
# 1 0.027091 -0.014057 0.000171 -0.000368 0.000285 0.021713
# 2 -0.014057 0.050521 -0.002086 -0.000728 0.010350 0.016453
# 3 0.000171 -0.002086 0.010927 0.000137 0.002035 0.012114
# 4 -0.000368 -0.000728 0.000137 0.025723 0.000000 -0.002255
# 5 0.000285 0.010350 0.002035 0.000000 0.041436 -0.009705
# 6 0.021713 0.016453 0.012114 -0.002255 -0.009705 0.122921
#
#
# Mechanical properties :
#
#
# Convention : Reuss Voigt Hill
#
# Bulk Modulus (GPa) = 17.66917 43.73177 30.70047
# Shear Modulus (GPa) = 15.17778 26.79622 20.98700
#
# Velocity S-wave (km/s) = 2.65070 3.52203 3.11696
# Velocity P-wave (km/s) = 4.18901 6.06500 5.21210
#
# Compressibility (1/GPa) = 0.05659576
#
# Stress axis : x y z
#
# Youngs Moduli (GPa) = 36.91213 19.79366 91.51485
#
# Poissons Ratio (x) = 0.27824 -0.01561
# Poissons Ratio (y) = 0.51887 0.19088
# Poissons Ratio (z) = -0.00629 0.04128
#
# Static dielectric constant tensor:
#      x y z
#    x 1.503650 -0.038610 -0.221230 
#    y -0.038610 1.795800 -0.053620 
#    z -0.221230 -0.053620 1.628800 
# 
# From -- ./inp_files/417371.got.cif
#   From: 2010.05.17/outbox.cif.g08.bks.cpg/sg2_209_cif.got.tgz:417371.got - 2010.06.03 11:33:40.
