data_PCOD9105295
_publ_section_title
;
Structure prediction by ZEFSAII (Michael W. Deem and Ramdas Pophale) SiO2 
 PCOD9105295
Probable space group: P -1
;
_chemical_formula_sum "Si O2"
_cell_formula_units_Z 16
_cell_length_a 18.923113
_cell_length_b 9.395408
_cell_length_c 22.405513
_cell_angle_alpha 27.800624
_cell_angle_beta 26.681397
_cell_angle_gamma 31.316393
_cell_volume 794.427285
_symmetry_space_group_name_H-M "P -1"
_symmetry_group_IT_number 2
_symmetry_cell_setting 'triclinic'
loop_
_space_group_symop_operation_xyz
x,y,z
-x,-y,-z
loop_
_atom_site_type_symbol
_atom_site_label
_atom_site_fract_x
_atom_site_fract_y
_atom_site_fract_z
Si Si1 0.176481 0.289049 0.969815
Si Si2 0.690201 0.339127 0.682516
Si Si3 0.001811 0.839098 0.303157
Si Si4 0.311201 0.684422 0.812300
Si Si5 0.224146 0.414778 0.098350
Si Si6 0.753434 0.711027 0.611813
Si Si7 0.426767 0.742576 0.910465
Si Si8 0.886833 0.657165 0.333030
O O1 0.271027 0.497912 0.854945
O O2 0.293256 0.060268 0.918106
O O3 0.000000 0.500000 0.000000
O O4 0.122265 0.050382 0.143680
O O5 0.504530 0.554307 0.728595
O O6 0.741187 0.469608 0.657511
O O7 0.805566 0.409629 0.517070
O O8 0.701675 0.969312 0.817414
O O9 0.837622 0.946620 0.427510
O O10 0.951375 0.824097 0.278243
O O11 0.111514 0.482775 0.370699
O O12 0.244320 0.060550 0.708829
O O13 0.220702 0.582809 0.974745
O O14 0.043150 0.497027 0.233240
O O15 0.338142 0.559799 0.000525
O O16 0.577050 0.826839 0.733138
O O17 0.500000 0.500000 0.000000
#
# Coordination Sequence:
#
# PCOD9105295 Si02
#       8
#     2   2   2   2   2   2   2   2
#     4  12  23  41  63  92 126 170 208 254 316 385
#     4  11  24  40  66  94 131 164 216 265 324 374
#     4  10  20  39  64  88 126 169 207 256 318 377
#     4  12  24  41  66  95 132 167 212 263 328 379
#     4  12  23  40  65 101 124 167 220 267 309 380
#     4  10  21  39  64  93 124 166 211 264 316 371
#     4  12  22  39  66  93 127 162 217 264 309 374
#     4  11  23  43  63  93 131 173 208 261 326 385
#
# _framework density 20.140297
#
# number of rings (size 3 to 8) (size 9 to 14) (size 15 to 20)
#    0.000    0.750    5.000    3.000    0.000    0.000 
#    0.000    4.375    0.000    0.000    0.000    0.000 
#    0.000    0.000    0.000    0.000    0.000    0.000 
#
# Total GULP energy -89407.673081 kJ/mol
# GULP energy per Si atom -5587.979568 kJ/mol
# Density = 2.009446 g / cm^3
# Si number density = 20.140297 Si / 1000 Ang^3
#
#
#
# Elastic Constant Matrix: (Units=GPa)
#
#
# Indices 1 2 3 4 5 6 
#
# 1 73.2363 28.1654 2.4476 -1.6843 3.6387 -9.8867
# 2 28.1654 95.2027 29.5935 21.9244 8.2686 -12.6934
# 3 2.4476 29.5935 86.0644 33.5807 8.2771 7.3198
# 4 -1.6843 21.9244 33.5807 42.0023 -2.0429 -0.0980
# 5 3.6387 8.2686 8.2771 -2.0429 27.1286 -3.1397
# 6 -9.8867 -12.6934 7.3198 -0.0980 -3.1397 23.4500
#
#
#
# Elastic Compliance Matrix: (Units=1/GPa)
#
#
# Indices 1 2 3 4 5 6 
#
# 1 0.016232 -0.004898 -0.000651 0.003753 0.000312 0.004453
# 2 -0.004898 0.015451 -0.003249 -0.005779 -0.002695 0.006928
# 3 -0.000651 -0.003249 0.019954 -0.014655 -0.007189 -0.009285
# 4 0.003753 -0.005779 -0.014655 0.039149 0.009189 0.004422
# 5 0.000312 -0.002695 -0.007189 0.009189 0.041276 0.006482
# 6 0.004453 0.006928 -0.009285 0.004422 0.006482 0.052056
#
#
# Mechanical properties :
#
#
# Convention : Reuss Voigt Hill
#
# Bulk Modulus (GPa) = 29.37495 41.65738 35.51616
# Shear Modulus (GPa) = 23.46759 31.46931 27.46845
#
# Velocity S-wave (km/s) = 3.41721 3.95714 3.69705
# Velocity P-wave (km/s) = 5.49424 6.45036 5.99140
#
# Compressibility (1/GPa) = 0.03404261
#
# Stress axis : x y z
#
# Youngs Moduli (GPa) = 61.60816 64.71915 50.11569
#
# Poissons Ratio (x) = 0.31696 0.03261
# Poissons Ratio (y) = 0.30173 0.16282
# Poissons Ratio (z) = 0.04009 0.21027
#
# Static dielectric constant tensor:
#      x y z
#    x 1.690620 -0.005030 0.019290 
#    y -0.005030 1.725700 -0.030160 
#    z 0.019290 -0.030160 1.786200 
# 
# From -- ./inp_files/205158.got.cif
#   From: 2010.05.17/outbox.cif.g08.bks.cpg/sg2_103_cif.got.tgz:205158.got - 2010.06.03 11:33:40.
