data_PCOD9105534
_publ_section_title
;
Structure prediction by ZEFSAII (Michael W. Deem and Ramdas Pophale) SiO2 
 PCOD9105534
Probable space group: P -1
;
_chemical_formula_sum "Si O2"
_cell_formula_units_Z 16
_cell_length_a 16.986795
_cell_length_b 10.103292
_cell_length_c 9.895175
_cell_angle_alpha 112.356859
_cell_angle_beta 100.276542
_cell_angle_gamma 34.315294
_cell_volume 854.862843
_symmetry_space_group_name_H-M "P -1"
_symmetry_group_IT_number 2
_symmetry_cell_setting 'triclinic'
loop_
_space_group_symop_operation_xyz
x,y,z
-x,-y,-z
loop_
_atom_site_type_symbol
_atom_site_label
_atom_site_fract_x
_atom_site_fract_y
_atom_site_fract_z
Si Si1 0.845841 0.786125 0.905390
Si Si2 0.864783 0.617151 0.564510
Si Si3 0.637075 0.355009 0.064974
Si Si4 0.945405 0.169807 0.420448
Si Si5 0.124740 0.814408 0.080733
Si Si6 0.629309 0.594933 0.376513
Si Si7 0.363902 0.105636 0.631499
Si Si8 0.842224 0.569587 0.060827
O O1 0.811814 0.778173 0.743480
O O2 0.007013 0.612710 0.890796
O O3 0.737033 0.072501 0.025522
O O4 0.838045 0.668403 0.962738
O O5 0.916447 0.379606 0.524582
O O6 0.741857 0.788686 0.479895
O O7 0.000000 0.500000 0.500000
O O8 0.738261 0.305138 0.982702
O O9 0.500000 0.500000 0.000000
O O10 0.593716 0.511271 0.243075
O O11 0.791553 0.341229 0.384335
O O12 0.000000 0.000000 0.500000
O O13 0.058775 0.984846 0.260469
O O14 0.159726 0.596237 0.033310
O O15 0.000000 0.000000 0.000000
O O16 0.619940 0.748835 0.336418
O O17 0.515231 0.800136 0.538856
O O18 0.286633 0.200730 0.787177
#
# Coordination Sequence:
#
# PCOD9105534 Si02
#       8
#     2   2   2   2   2   2   2   2
#     4  11  23  37  61  95 129 154 207 266 311 360
#     4  11  20  36  59  89 120 159 205 250 300 369
#     4  12  24  41  65  96 126 164 212 263 308 370
#     4  11  23  39  63  94 120 159 209 260 307 369
#     4  12  20  42  71  88 119 171 218 250 303 380
#     4  10  21  40  65  89 122 164 214 256 305 375
#     4  10  20  39  65  86 119 168 208 248 311 375
#     4  11  21  39  64  92 121 167 204 258 316 365
#
# _framework density 18.716452
#
# number of rings (size 3 to 8) (size 9 to 14) (size 15 to 20)
#    0.000    1.000    5.000    3.000    0.000    1.000 
#    2.250    1.250    0.000    0.000    0.000    0.000 
#    0.000    0.000    0.000    0.000    0.000    0.000 
#
# Total GULP energy -89439.519941 kJ/mol
# GULP energy per Si atom -5589.969996 kJ/mol
# Density = 1.867385 g / cm^3
# Si number density = 18.716452 Si / 1000 Ang^3
#
#
#
# Elastic Constant Matrix: (Units=GPa)
#
#
# Indices 1 2 3 4 5 6 
#
# 1 83.2999 27.6768 -1.6475 4.0378 11.9892 -4.3627
# 2 27.6768 53.9752 11.1704 13.0081 1.8721 0.2555
# 3 -1.6475 11.1704 66.0849 15.9352 9.8398 -4.4192
# 4 4.0378 13.0081 15.9352 24.2410 -1.1794 -4.3373
# 5 11.9892 1.8721 9.8398 -1.1794 33.4806 8.6433
# 6 -4.3627 0.2555 -4.4192 -4.3373 8.6433 25.3847
#
#
#
# Elastic Compliance Matrix: (Units=1/GPa)
#
#
# Indices 1 2 3 4 5 6 
#
# 1 0.016560 -0.009102 0.003427 0.000623 -0.008054 0.006383
# 2 -0.009102 0.026487 -0.002799 -0.011673 0.003621 -0.005546
# 3 0.003427 -0.002799 0.020190 -0.011857 -0.008733 0.005080
# 4 0.000623 -0.011673 -0.011857 0.056554 0.004261 0.006373
# 5 -0.008054 0.003621 -0.008733 0.004261 0.039292 -0.015591
# 6 0.006383 -0.005546 0.005080 0.006373 -0.015591 0.047829
#
#
# Mechanical properties :
#
#
# Convention : Reuss Voigt Hill
#
# Bulk Modulus (GPa) = 21.60323 30.86216 26.23270
# Shear Modulus (GPa) = 20.89518 27.69860 24.29689
#
# Velocity S-wave (km/s) = 3.34489 3.85113 3.60690
# Velocity P-wave (km/s) = 5.14637 6.02495 5.60291
#
# Compressibility (1/GPa) = 0.04628938
#
# Stress axis : x y z
#
# Youngs Moduli (GPa) = 60.38627 37.75382 49.52991
#
# Poissons Ratio (x) = 0.34363 -0.16975
# Poissons Ratio (y) = 0.54962 0.13865
# Poissons Ratio (z) = -0.20695 0.10569
#
# Static dielectric constant tensor:
#      x y z
#    x 1.646720 -0.009450 -0.004990 
#    y -0.009450 1.632250 0.016430 
#    z -0.004990 0.016430 1.639480 
# 
# From -- ./inp_files/256981.got.cif
#   From: 2010.05.17/outbox.cif.g08.bks.cpg/sg2_129_cif.got.tgz:256981.got - 2010.06.03 11:33:40.
