data_PCOD9105122
_publ_section_title
;
Structure prediction by ZEFSAII (Michael W. Deem and Ramdas Pophale) SiO2 
 PCOD9105122
Probable space group: P -1
;
_chemical_formula_sum "Si O2"
_cell_formula_units_Z 16
_cell_length_a 17.201576
_cell_length_b 6.037000
_cell_length_c 14.211569
_cell_angle_alpha 67.007521
_cell_angle_beta 149.342769
_cell_angle_gamma 116.672868
_cell_volume 672.406493
_symmetry_space_group_name_H-M "P -1"
_symmetry_group_IT_number 2
_symmetry_cell_setting 'triclinic'
loop_
_space_group_symop_operation_xyz
x,y,z
-x,-y,-z
loop_
_atom_site_type_symbol
_atom_site_label
_atom_site_fract_x
_atom_site_fract_y
_atom_site_fract_z
Si Si1 0.397130 0.849525 0.054170
Si Si2 0.884710 0.177519 0.357562
Si Si3 0.234165 0.990625 0.228319
Si Si4 0.630020 0.464752 0.761169
Si Si5 0.967387 0.864852 0.835833
Si Si6 0.579433 0.611393 0.967898
Si Si7 0.686293 0.460749 0.598625
Si Si8 0.953472 0.704035 0.305184
O O1 0.302217 0.699876 0.068856
O O2 0.462770 0.622468 0.112066
O O3 0.469811 0.121596 0.131881
O O4 0.290829 0.916227 0.847360
O O5 0.948552 0.422031 0.320232
O O6 0.909642 0.245613 0.481700
O O7 0.000000 0.000000 0.500000
O O8 0.342200 0.824899 0.411502
O O9 0.310760 0.241448 0.211734
O O10 0.139221 0.056791 0.206640
O O11 0.115073 0.831684 0.054983
O O12 0.661147 0.438010 0.688739
O O13 0.442923 0.399907 0.592373
O O14 0.858184 0.613767 0.723174
O O15 0.012314 0.083340 0.771509
O O16 0.500000 0.500000 0.000000
O O17 0.772655 0.679957 0.156942
#
# Coordination Sequence:
#
# PCOD9105122 Si02
#       8
#     2   2   2   2   2   2   2   2
#     4  11  24  44  71 100 130 180 225 273 339 410
#     4  10  20  39  63  92 123 170 219 277 331 393
#     4  10  20  39  66  94 136 170 218 275 327 399
#     4  10  23  41  65  96 131 176 222 267 336 401
#     4  10  22  39  61 100 128 172 222 269 334 401
#     4  11  24  46  69  97 134 173 228 282 338 399
#     4  10  22  41  63  96 135 169 217 278 329 394
#     4  10  22  40  64  93 132 174 219 276 340 405
#
# _framework density 23.795131999999999
#
# number of rings (size 3 to 8) (size 9 to 14) (size 15 to 20)
#    0.000    1.750    1.250    2.625    3.500    1.000 
#    9.000    0.000    0.000    0.000    0.000    0.000 
#    0.000    0.000    0.000    0.000    0.000    0.000 
#
# Total GULP energy -89093.923233 kJ/mol
# GULP energy per Si atom -5568.370202 kJ/mol
# Density = 2.374097 g / cm^3
# Si number density = 23.795132 Si / 1000 Ang^3
#
#
#
# Elastic Constant Matrix: (Units=GPa)
#
#
# Indices 1 2 3 4 5 6 
#
# 1 65.8134 39.7271 23.1978 -10.8722 -11.7248 13.5632
# 2 39.7271 133.9867 16.2305 -32.3125 9.5362 6.1893
# 3 23.1978 16.2305 57.7244 -14.3543 -13.2135 0.1874
# 4 -10.8722 -32.3125 -14.3543 29.8476 1.7468 -0.9531
# 5 -11.7248 9.5362 -13.2135 1.7468 27.6057 -8.0357
# 6 13.5632 6.1893 0.1874 -0.9531 -8.0357 48.4730
#
#
#
# Elastic Compliance Matrix: (Units=1/GPa)
#
#
# Indices 1 2 3 4 5 6 
#
# 1 0.023822 -0.007456 -0.006240 -0.003039 0.008642 -0.004317
# 2 -0.007456 0.013233 0.000366 0.012262 -0.008566 -0.000784
# 3 -0.006240 0.000366 0.024122 0.009295 0.009143 0.003304
# 4 -0.003039 0.012262 0.009295 0.050384 -0.004409 -0.000492
# 5 0.008642 -0.008566 0.009143 -0.004409 0.049476 0.006756
# 6 -0.004317 -0.000784 0.003304 -0.000492 0.006756 0.023035
#
#
# Mechanical properties :
#
#
# Convention : Reuss Voigt Hill
#
# Bulk Modulus (GPa) = 28.97117 46.20389 37.58753
# Shear Modulus (GPa) = 22.49852 33.07652 27.78752
#
# Velocity S-wave (km/s) = 3.07825 3.73239 3.42099
# Velocity P-wave (km/s) = 4.98356 6.16716 5.60668
#
# Compressibility (1/GPa) = 0.03451707
#
# Stress axis : x y z
#
# Youngs Moduli (GPa) = 41.97841 75.56980 41.45604
#
# Poissons Ratio (x) = 0.56343 0.25870
# Poissons Ratio (y) = 0.31298 -0.01519
# Poissons Ratio (z) = 0.26196 -0.02769
#
# Static dielectric constant tensor:
#      x y z
#    x 1.961350 -0.101240 -0.026420 
#    y -0.101240 2.038670 0.064690 
#    z -0.026420 0.064690 1.966440 
# 
# From -- ./inp_files/576763.got.cif
#   From: 2010.05.17/outbox.cif.g08.bks.cpg/sg2_289_cif.got.tgz:576763.got - 2010.06.03 11:33:40.
