data_PCOD9105767
_publ_section_title
;
Structure prediction by ZEFSAII (Michael W. Deem and Ramdas Pophale) SiO2 
 PCOD9105767
Probable space group: P -1
;
_chemical_formula_sum "Si O2"
_cell_formula_units_Z 16
_cell_length_a 12.170481
_cell_length_b 9.809234
_cell_length_c 11.545863
_cell_angle_alpha 53.424532
_cell_angle_beta 88.084266
_cell_angle_gamma 49.671679
_cell_volume 690.246449
_symmetry_space_group_name_H-M "P -1"
_symmetry_group_IT_number 2
_symmetry_cell_setting 'triclinic'
loop_
_space_group_symop_operation_xyz
x,y,z
-x,-y,-z
loop_
_atom_site_type_symbol
_atom_site_label
_atom_site_fract_x
_atom_site_fract_y
_atom_site_fract_z
Si Si1 0.759978 0.841210 0.294105
Si Si2 0.340591 0.296383 0.795804
Si Si3 0.578312 0.228184 0.671625
Si Si4 0.357211 0.420070 0.967154
Si Si5 0.175329 0.329058 0.153343
Si Si6 0.693884 0.711404 0.595780
Si Si7 0.788903 0.207526 0.818368
Si Si8 0.888931 0.036755 0.167164
O O1 0.794581 0.673017 0.270070
O O2 0.737291 0.765439 0.452042
O O3 0.896045 0.831380 0.303734
O O4 0.567719 0.157472 0.110237
O O5 0.425361 0.290374 0.687950
O O6 0.292977 0.483052 0.804563
O O7 0.500000 0.000000 0.000000
O O8 0.500000 0.500000 0.500000
O O9 0.690233 0.154144 0.815361
O O10 0.702358 0.985317 0.699120
O O11 0.265865 0.688678 0.895162
O O12 0.279635 0.347789 0.069659
O O13 0.170231 0.404922 0.246042
O O14 0.000000 0.500000 0.000000
O O15 0.695856 0.505153 0.680200
O O16 0.500000 0.000000 0.500000
O O17 0.853171 0.092442 0.003482
O O18 0.932388 0.069056 0.781849
#
# Coordination Sequence:
#
# PCOD9105767 Si02
#       8
#     2   2   2   2   2   2   2   2
#     4  11  22  40  70  96 133 173 233 277 338 396
#     4  10  20  39  66 100 128 177 227 281 330 405
#     4  12  24  42  68 101 134 176 230 285 340 404
#     4  11  21  41  65  98 130 174 231 274 327 413
#     4  12  25  42  69 102 139 182 225 278 351 414
#     4  12  23  45  70  99 136 179 228 283 337 412
#     4  11  24  41  65  95 138 172 223 276 340 410
#     4  11  24  40  63  99 132 176 220 282 339 401
#
# _framework density 23.180125
#
# number of rings (size 3 to 8) (size 9 to 14) (size 15 to 20)
#    0.000    0.750    5.000    4.125    1.750    2.500 
#    0.000    1.250    0.000    5.250    0.000    0.000 
#    0.000    0.000    0.000    0.000    0.000    0.000 
#
# Total GULP energy -89453.594810 kJ/mol
# GULP energy per Si atom -5590.849676 kJ/mol
# Density = 2.312737 g / cm^3
# Si number density = 23.180125 Si / 1000 Ang^3
#
#
#
# Elastic Constant Matrix: (Units=GPa)
#
#
# Indices 1 2 3 4 5 6 
#
# 1 82.8263 18.0825 12.7136 0.9611 -6.8628 13.0399
# 2 18.0825 97.2614 11.2481 8.0880 12.3814 12.4418
# 3 12.7136 11.2481 59.3591 8.0513 -6.3072 -5.2240
# 4 0.9611 8.0880 8.0513 36.2078 4.1707 0.2742
# 5 -6.8628 12.3814 -6.3072 4.1707 38.2233 4.7600
# 6 13.0399 12.4418 -5.2240 0.2742 4.7600 32.6771
#
#
#
# Elastic Compliance Matrix: (Units=1/GPa)
#
#
# Indices 1 2 3 4 5 6 
#
# 1 0.014148 -0.002019 -0.002847 0.000360 0.003411 -0.005832
# 2 -0.002019 0.012033 -0.002370 -0.001616 -0.004033 -0.003554
# 3 -0.002847 -0.002370 0.019220 -0.004083 0.003292 0.004666
# 4 0.000360 -0.001616 -0.004083 0.029256 -0.003284 0.000052
# 5 0.003411 -0.004033 0.003292 -0.003284 0.029426 -0.003558
# 6 -0.005832 -0.003554 0.004666 0.000052 -0.003558 0.035547
#
#
# Mechanical properties :
#
#
# Convention : Reuss Voigt Hill
#
# Bulk Modulus (GPa) = 32.33237 35.94835 34.14036
# Shear Modulus (GPa) = 30.41152 34.58180 32.49666
#
# Velocity S-wave (km/s) = 3.62604 3.86667 3.74828
# Velocity P-wave (km/s) = 5.61333 5.95624 5.78732
#
# Compressibility (1/GPa) = 0.03092876
#
# Stress axis : x y z
#
# Youngs Moduli (GPa) = 70.68121 83.10218 52.02966
#
# Poissons Ratio (x) = 0.16780 0.14814
# Poissons Ratio (y) = 0.14272 0.12330
# Poissons Ratio (z) = 0.20124 0.19693
#
# Static dielectric constant tensor:
#      x y z
#    x 2.005840 0.055910 0.137900 
#    y 0.055910 1.901890 0.020810 
#    z 0.137900 0.020810 1.933400 
# 
# From -- ./inp_files/418912.got.cif
#   From: 2010.05.17/outbox.cif.g08.bks.cpg/sg2_210_cif.got.tgz:418912.got - 2010.06.03 11:33:40.
