data_PCOD9105220
_publ_section_title
;
Structure prediction by ZEFSAII (Michael W. Deem and Ramdas Pophale) SiO2 
 PCOD9105220
Probable space group: P -1
;
_chemical_formula_sum "Si O2"
_cell_formula_units_Z 16
_cell_length_a 8.421804
_cell_length_b 7.961572
_cell_length_c 12.178324
_cell_angle_alpha 81.781604
_cell_angle_beta 53.363282
_cell_angle_gamma 87.766165
_cell_volume 647.408402
_symmetry_space_group_name_H-M "P -1"
_symmetry_group_IT_number 2
_symmetry_cell_setting 'triclinic'
loop_
_space_group_symop_operation_xyz
x,y,z
-x,-y,-z
loop_
_atom_site_type_symbol
_atom_site_label
_atom_site_fract_x
_atom_site_fract_y
_atom_site_fract_z
Si Si1 0.511434 0.751860 0.670646
Si Si2 0.950178 0.197721 0.390879
Si Si3 0.676497 0.962854 0.785420
Si Si4 0.077581 0.555821 0.195660
Si Si5 0.501972 0.298783 0.555333
Si Si6 0.899710 0.657561 0.477783
Si Si7 0.753803 0.569819 0.162139
Si Si8 0.494364 0.716913 0.072477
O O1 0.571392 0.891663 0.722711
O O2 0.558189 0.807480 0.520417
O O3 0.678469 0.615582 0.618514
O O4 0.313147 0.632210 0.775614
O O5 0.028328 0.364525 0.274592
O O6 0.717692 0.227976 0.491859
O O7 0.087111 0.057204 0.297036
O O8 0.021149 0.195275 0.488119
O O9 0.611925 0.150582 0.817156
O O10 0.583266 0.833275 0.927195
O O11 0.954081 0.661441 0.327711
O O12 0.978569 0.587380 0.114824
O O13 0.310063 0.599966 0.112078
O O14 0.500000 0.500000 0.500000
O O15 0.362863 0.308497 0.716768
O O16 0.000000 0.500000 0.500000
O O17 0.667019 0.627184 0.075942
#
# Coordination Sequence:
#
# PCOD9105220 Si02
#       8
#     2   2   2   2   2   2   2   2
#     4  10  18  35  62  88 124 148 190 247 300 356
#     4  10  18  34  63  92 118 156 200 246 300 359
#     4  10  25  46  58  77 118 174 213 250 294 356
#     4  11  19  36  63  97 119 152 200 253 306 359
#     4  10  16  33  61  98 129 146 179 245 316 372
#     4   9  15  27  54  89 121 149 182 228 300 368
#     4  11  20  37  66  99 122 154 195 251 309 364
#     4  11  25  46  60  77 123 173 212 249 300 351
#
# _framework density 24.713919000000001
#
# number of rings (size 3 to 8) (size 9 to 14) (size 15 to 20)
#    0.000    1.750    3.750    5.250    0.000    2.000 
#    4.500    8.750    0.000    0.000    0.000    0.000 
#    0.000    0.000    0.000    0.000    0.000    0.000 
#
# Total GULP energy -89172.117251 kJ/mol
# GULP energy per Si atom -5573.257328 kJ/mol
# Density = 2.465767 g / cm^3
# Si number density = 24.713919 Si / 1000 Ang^3
#
#
#
# Elastic Constant Matrix: (Units=GPa)
#
#
# Indices 1 2 3 4 5 6 
#
# 1 159.4611 33.3458 42.0881 4.4262 8.6987 2.0881
# 2 33.3458 82.3994 25.3415 4.9276 5.2083 -2.6651
# 3 42.0881 25.3415 70.9418 6.5233 13.1563 -3.4152
# 4 4.4262 4.9276 6.5233 42.5462 1.8358 6.7007
# 5 8.6987 5.2083 13.1563 1.8358 47.9246 14.1854
# 6 2.0881 -2.6651 -3.4152 6.7007 14.1854 13.6583
#
#
#
# Elastic Compliance Matrix: (Units=1/GPa)
#
#
# Indices 1 2 3 4 5 6 
#
# 1 0.007843 -0.002081 -0.004433 0.000747 0.001303 -0.004434
# 2 -0.002081 0.014319 -0.003182 -0.001649 -0.001685 0.004876
# 3 -0.004433 -0.003182 0.020932 -0.004739 -0.009629 0.017616
# 4 0.000747 -0.001649 -0.004739 0.027558 0.006888 -0.022294
# 5 0.001303 -0.001685 -0.009629 0.006888 0.036185 -0.043896
# 6 -0.004434 0.004876 0.017616 -0.022294 -0.043896 0.135777
#
#
# Mechanical properties :
#
#
# Convention : Reuss Voigt Hill
#
# Bulk Modulus (GPa) = 42.18970 57.15037 49.67003
# Shear Modulus (GPa) = 18.52490 34.96095 26.74292
#
# Velocity S-wave (km/s) = 2.74080 3.76523 3.29310
# Velocity P-wave (km/s) = 5.20810 6.48672 5.88226
#
# Compressibility (1/GPa) = 0.02370247
#
# Stress axis : x y z
#
# Youngs Moduli (GPa) = 127.50840 69.83516 47.77312
#
# Poissons Ratio (x) = 0.14531 0.21180
# Poissons Ratio (y) = 0.26532 0.15200
# Poissons Ratio (z) = 0.56530 0.22220
#
# Static dielectric constant tensor:
#      x y z
#    x 2.190640 0.016500 -0.054940 
#    y 0.016500 2.599400 0.146820 
#    z -0.054940 0.146820 2.112030 
# 
# From -- ./inp_files/379036.got.cif
#   From: 2010.05.17/outbox.cif.g08.bks.cpg/sg2_190_cif.got.tgz:379036.got - 2010.06.03 11:33:40.
