data_PCOD9105513
_publ_section_title
;
Structure prediction by ZEFSAII (Michael W. Deem and Ramdas Pophale) SiO2 
 PCOD9105513
Probable space group: P -1
;
_chemical_formula_sum "Si O2"
_cell_formula_units_Z 14
_cell_length_a 11.191643
_cell_length_b 7.556473
_cell_length_c 17.813361
_cell_angle_alpha 118.780768
_cell_angle_beta 155.633673
_cell_angle_gamma 56.735412
_cell_volume 518.959478
_symmetry_space_group_name_H-M "P -1"
_symmetry_group_IT_number 2
_symmetry_cell_setting 'triclinic'
loop_
_space_group_symop_operation_xyz
x,y,z
-x,-y,-z
loop_
_atom_site_type_symbol
_atom_site_label
_atom_site_fract_x
_atom_site_fract_y
_atom_site_fract_z
Si Si1 0.400566 0.942337 0.087468
Si Si2 0.103902 0.710844 0.595207
Si Si3 0.363986 0.798191 0.451637
Si Si4 0.081624 0.681217 0.414207
Si Si5 0.408891 0.953429 0.266194
Si Si6 0.875896 0.327576 0.853444
Si Si7 0.099103 0.745834 0.760434
O O1 0.760579 0.869976 0.273031
O O2 0.294938 0.972702 0.119816
O O3 0.304578 0.764051 0.951075
O O4 0.193055 0.155789 0.974637
O O5 0.245928 0.704560 0.592432
O O6 0.773312 0.885911 0.446779
O O7 0.000000 0.500000 0.500000
O O8 0.263400 0.724780 0.768356
O O9 0.210164 0.711339 0.413845
O O10 0.342132 0.644802 0.338640
O O11 0.645890 0.847397 0.667412
O O12 0.179721 0.034285 0.362224
O O13 0.011913 0.458258 0.334713
O O14 0.305858 0.772922 0.211629
O O15 0.000000 0.500000 0.000000
#
# Coordination Sequence:
#
# PCOD9105513 Si02
#       7
#     2   2   2   2   2   2   2
#     4  10  22  40  65  94 128 168 204 273 314 376
#     4   8  17  36  61  96 124 164 200 260 314 380
#     4  10  23  43  67  95 127 168 210 267 312 383
#     4  10  20  39  65 101 126 161 214 258 328 378
#     4  10  21  42  65  88 129 168 210 260 316 372
#     4  11  25  45  62  92 127 173 218 257 313 376
#     4   9  19  36  61  95 133 161 200 258 326 370
#
# _framework density 26.977059000000001
#
# number of rings (size 3 to 8) (size 9 to 14) (size 15 to 20)
#    0.000    2.286    0.000    1.286    2.000    7.429 
#   18.000    0.714    0.000    0.000    0.000    0.000 
#    0.000    0.000    0.000    0.000    0.000    0.000 
#
# Total GULP energy -78257.761436 kJ/mol
# GULP energy per Si atom -5589.840103 kJ/mol
# Density = 2.691566 g / cm^3
# Si number density = 26.977059 Si / 1000 Ang^3
#
#
#
# Elastic Constant Matrix: (Units=GPa)
#
#
# Indices 1 2 3 4 5 6 
#
# 1 188.0379 16.0971 80.6818 19.1770 -24.5699 11.2323
# 2 16.0971 105.9813 35.2875 26.9520 -4.4316 -1.4900
# 3 80.6818 35.2875 164.6677 42.2361 -43.5317 -5.5779
# 4 19.1770 26.9520 42.2361 57.6356 -12.2657 -4.9336
# 5 -24.5699 -4.4316 -43.5317 -12.2657 50.5012 10.3731
# 6 11.2323 -1.4900 -5.5779 -4.9336 10.3731 34.7125
#
#
#
# Elastic Compliance Matrix: (Units=1/GPa)
#
#
# Indices 1 2 3 4 5 6 
#
# 1 0.007063 0.000007 -0.003227 0.000018 0.001316 -0.003194
# 2 0.000007 0.011008 -0.001673 -0.004242 -0.001513 0.000051
# 3 -0.003227 -0.001673 0.010978 -0.004784 0.006565 0.000095
# 4 0.000018 -0.004242 -0.004784 0.023165 0.000703 0.002126
# 5 0.001316 -0.001513 0.006565 0.000703 0.027702 -0.007614
# 6 -0.003194 0.000051 0.000095 0.002126 -0.007614 0.032437
#
#
# Mechanical properties :
#
#
# Convention : Reuss Voigt Hill
#
# Bulk Modulus (GPa) = 51.91159 80.31332 66.11246
# Shear Modulus (GPa) = 38.89244 50.34453 44.61849
#
# Velocity S-wave (km/s) = 3.80107 4.32464 4.07128
# Velocity P-wave (km/s) = 6.20877 7.40083 6.83085
#
# Compressibility (1/GPa) = 0.01926352
#
# Stress axis : x y z
#
# Youngs Moduli (GPa) = 141.58177 90.84599 91.08888
#
# Poissons Ratio (x) = -0.00066 0.29397
# Poissons Ratio (y) = -0.00103 0.15237
# Poissons Ratio (z) = 0.45692 0.15196
#
# Static dielectric constant tensor:
#      x y z
#    x 2.143860 -0.090140 -0.006690 
#    y -0.090140 2.277860 0.029640 
#    z -0.006690 0.029640 2.201270 
# 
# From -- ./inp_files/566156.got.cif
#   From: 2010.05.17/outbox.cif.g08.bks.cpg/sg2_284_cif.got.tgz:566156.got - 2010.06.03 11:33:40.
