data_PCOD9105970
_publ_section_title
;
Structure prediction by ZEFSAII (Michael W. Deem and Ramdas Pophale) SiO2 
 PCOD9105970
Probable space group: P -1
;
_chemical_formula_sum "Si O2"
_cell_formula_units_Z 14
_cell_length_a 18.074301
_cell_length_b 7.929175
_cell_length_c 16.003547
_cell_angle_alpha 44.367703
_cell_angle_beta 157.726674
_cell_angle_gamma 137.484677
_cell_volume 582.640837
_symmetry_space_group_name_H-M "P -1"
_symmetry_group_IT_number 2
_symmetry_cell_setting 'triclinic'
loop_
_space_group_symop_operation_xyz
x,y,z
-x,-y,-z
loop_
_atom_site_type_symbol
_atom_site_label
_atom_site_fract_x
_atom_site_fract_y
_atom_site_fract_z
Si Si1 0.571713 0.277613 0.941532
Si Si2 0.721851 0.019589 0.886851
Si Si3 0.218943 0.400997 0.208563
Si Si4 0.180711 0.795540 0.248070
Si Si5 0.402829 0.597754 0.782999
Si Si6 0.999257 0.326554 0.718554
Si Si7 0.612090 0.599170 0.451325
O O1 0.453921 0.435132 0.817869
O O2 0.490022 0.254610 0.770031
O O3 0.812133 0.429989 0.143576
O O4 0.500000 0.000000 0.000000
O O5 0.526636 0.880645 0.785962
O O6 0.785094 0.313850 0.873307
O O7 0.690125 0.005792 0.756694
O O8 0.880354 0.859758 0.127253
O O9 0.422658 0.412470 0.367465
O O10 0.240440 0.274183 0.364313
O O11 0.033971 0.282144 0.997355
O O12 0.124894 0.812520 0.280142
O O13 0.271418 0.561281 0.421601
O O14 0.165542 0.589670 0.539664
O O15 0.500000 0.500000 0.000000
#
# Coordination Sequence:
#
# PCOD9105970 Si02
#       7
#     2   2   2   2   2   2   2
#     4  11  25  46  69  98 127 177 226 274 325 391
#     4  10  24  40  67 102 132 174 213 268 339 393
#     4  10  22  40  66 102 136 171 215 272 327 397
#     4  11  21  42  69 101 134 169 221 268 337 392
#     4  11  27  48  64  94 134 177 226 273 324 391
#     4  11  24  46  68  96 135 171 218 278 333 397
#     4  10  20  39  66  96 136 165 214 273 322 380
#
# _framework density 24.028525999999999
#
# number of rings (size 3 to 8) (size 9 to 14) (size 15 to 20)
#    0.000    1.429    2.857    2.143    2.000    8.000 
#    7.714    0.000    0.000    0.000    0.000    0.000 
#    0.000    0.000    0.000    0.000    0.000    0.000 
#
# Total GULP energy -78260.609068 kJ/mol
# GULP energy per Si atom -5590.043505 kJ/mol
# Density = 2.397384 g / cm^3
# Si number density = 24.028526 Si / 1000 Ang^3
#
#
#
# Elastic Constant Matrix: (Units=GPa)
#
#
# Indices 1 2 3 4 5 6 
#
# 1 81.7746 15.1503 48.5882 0.2785 -6.7510 -3.3316
# 2 15.1503 85.2528 40.1936 -0.5010 -20.5784 18.7726
# 3 48.5882 40.1936 205.0483 1.6600 -22.7643 8.5003
# 4 0.2785 -0.5010 1.6600 24.0277 -0.5404 1.9959
# 5 -6.7510 -20.5784 -22.7643 -0.5404 52.6736 -9.1951
# 6 -3.3316 18.7726 8.5003 1.9959 -9.1951 40.5862
#
#
#
# Elastic Compliance Matrix: (Units=1/GPa)
#
#
# Indices 1 2 3 4 5 6 
#
# 1 0.014570 -0.001588 -0.003215 -0.000196 0.000325 0.002687
# 2 -0.001588 0.015164 -0.001930 0.001046 0.003864 -0.005916
# 3 -0.003215 -0.001930 0.006195 -0.000372 0.001451 -0.000321
# 4 -0.000196 0.001046 -0.000372 0.041875 0.000229 -0.002430
# 5 0.000325 0.003864 0.001451 0.000229 0.021660 0.002831
# 6 0.002687 -0.005916 -0.000321 -0.002430 0.002831 0.028424
#
#
# Mechanical properties :
#
#
# Convention : Reuss Voigt Hill
#
# Bulk Modulus (GPa) = 44.52012 64.43774 54.47893
# Shear Modulus (GPa) = 33.59277 41.33373 37.46325
#
# Velocity S-wave (km/s) = 3.74309 4.15202 3.95285
# Velocity P-wave (km/s) = 6.10321 7.06124 6.59963
#
# Compressibility (1/GPa) = 0.02246175
#
# Stress axis : x y z
#
# Youngs Moduli (GPa) = 68.63339 65.94708 161.43253
#
# Poissons Ratio (x) = 0.10472 0.51901
# Poissons Ratio (y) = 0.10899 0.31162
# Poissons Ratio (z) = 0.22066 0.12730
#
# Static dielectric constant tensor:
#      x y z
#    x 1.947660 0.006560 0.000210 
#    y 0.006560 1.991770 0.028350 
#    z 0.000210 0.028350 1.976080 
# 
# From -- ./inp_files/203866.got.cif
#   From: 2010.05.17/outbox.cif.g08.bks.cpg/sg2_102_cif.got.tgz:203866.got - 2010.06.03 11:33:40.
