data_PCOD9105982
_publ_section_title
;
Structure prediction by ZEFSAII (Michael W. Deem and Ramdas Pophale) SiO2 
 PCOD9105982
Probable space group: P -1
;
_chemical_formula_sum "Si O2"
_cell_formula_units_Z 14
_cell_length_a 9.075729
_cell_length_b 9.525250
_cell_length_c 21.106680
_cell_angle_alpha 157.684931
_cell_angle_beta 57.090184
_cell_angle_gamma 115.695315
_cell_volume 567.830241
_symmetry_space_group_name_H-M "P -1"
_symmetry_group_IT_number 2
_symmetry_cell_setting 'triclinic'
loop_
_space_group_symop_operation_xyz
x,y,z
-x,-y,-z
loop_
_atom_site_type_symbol
_atom_site_label
_atom_site_fract_x
_atom_site_fract_y
_atom_site_fract_z
Si Si1 0.800092 0.255991 0.147746
Si Si2 0.447915 0.119024 0.877716
Si Si3 0.607248 0.084362 0.321548
Si Si4 0.107340 0.598158 0.387489
Si Si5 0.145987 0.170983 0.724367
Si Si6 0.848560 0.866413 0.709868
Si Si7 0.752993 0.933456 0.547131
O O1 0.796561 0.470167 0.170661
O O2 0.760340 0.597123 0.352759
O O3 0.659039 0.989964 0.082571
O O4 0.000000 0.000000 0.000000
O O5 0.323335 0.051435 0.820060
O O6 0.650756 0.866681 0.731556
O O7 0.500000 0.500000 0.000000
O O8 0.500000 0.500000 0.500000
O O9 0.442334 0.915525 0.315823
O O10 0.750557 0.992313 0.304677
O O11 0.152159 0.184654 0.235064
O O12 0.893797 0.751797 0.492709
O O13 0.184147 0.858185 0.528732
O O14 0.181953 0.713257 0.351989
O O15 0.936071 0.202961 0.804090
O O16 0.000000 0.500000 0.500000
#
# Coordination Sequence:
#
# PCOD9105982 Si02
#       7
#     2   2   2   2   2   2   2
#     4  11  25  45  67  95 140 185 230 280 346 407
#     4  12  27  46  70  98 145 186 223 286 355 409
#     4  12  22  41  72 105 132 172 238 281 339 407
#     4   9  19  35  61 102 128 171 215 282 335 391
#     4  10  22  39  69  98 135 172 225 285 334 405
#     4  10  20  39  66  97 134 176 226 274 337 403
#     4  10  21  37  68  99 134 174 230 281 335 405
#
# _framework density 24.655255
#
# number of rings (size 3 to 8) (size 9 to 14) (size 15 to 20)
#    0.000    1.429    1.429    5.143    2.000    3.429 
#    2.571    2.143    0.000    0.000    0.000    0.000 
#    0.000    0.000    0.000    0.000    0.000    0.000 
#
# Total GULP energy -78059.917940 kJ/mol
# GULP energy per Si atom -5575.708424 kJ/mol
# Density = 2.459914 g / cm^3
# Si number density = 24.655255 Si / 1000 Ang^3
#
#
#
# Elastic Constant Matrix: (Units=GPa)
#
#
# Indices 1 2 3 4 5 6 
#
# 1 118.8712 47.8863 11.1390 -4.3319 -17.2859 -12.4585
# 2 47.8863 189.6249 33.5099 26.4930 -6.3223 13.1230
# 3 11.1390 33.5099 56.3433 10.6593 -14.3285 -2.6339
# 4 -4.3319 26.4930 10.6593 25.1620 6.7929 -4.5067
# 5 -17.2859 -6.3223 -14.3285 6.7929 27.9705 -5.7775
# 6 -12.4585 13.1230 -2.6339 -4.5067 -5.7775 60.6774
#
#
#
# Elastic Compliance Matrix: (Units=1/GPa)
#
#
# Indices 1 2 3 4 5 6 
#
# 1 0.011358 -0.003735 0.000954 0.004489 0.006426 0.004127
# 2 -0.003735 0.008098 -0.002770 -0.008447 -0.000530 -0.003317
# 3 0.000954 -0.002770 0.025793 -0.011859 0.016597 0.002614
# 4 0.004489 -0.008447 -0.011859 0.060408 -0.018864 0.004924
# 5 0.006426 -0.000530 0.016597 -0.018864 0.053903 0.005886
# 6 0.004127 -0.003317 0.002614 0.004924 0.005886 0.019085
#
#
# Mechanical properties :
#
#
# Convention : Reuss Voigt Hill
#
# Bulk Modulus (GPa) = 29.28443 61.10109 45.19276
# Shear Modulus (GPa) = 24.85952 40.91560 32.88756
#
# Velocity S-wave (km/s) = 3.17879 4.07813 3.65622
# Velocity P-wave (km/s) = 5.03749 6.85644 6.01611
#
# Compressibility (1/GPa) = 0.03414784
#
# Stress axis : x y z
#
# Youngs Moduli (GPa) = 88.04058 123.48130 38.76965
#
# Poissons Ratio (x) = 0.46125 -0.03699
# Poissons Ratio (y) = 0.32887 0.10738
# Poissons Ratio (z) = -0.08399 0.34202
#
# Static dielectric constant tensor:
#      x y z
#    x 2.008860 0.063450 0.099940 
#    y 0.063450 2.080910 0.037280 
#    z 0.099940 0.037280 2.082000 
# 
# From -- ./inp_files/587663.got.cif
#   From: 2010.05.17/outbox.cif.g08.bks.cpg/sg2_294_cif.got.tgz:587663.got - 2010.06.03 11:33:40.
