data_PCOD9105988
_publ_section_title
;
Structure prediction by ZEFSAII (Michael W. Deem and Ramdas Pophale) SiO2 
 PCOD9105988
Probable space group: P -1
;
_chemical_formula_sum "Si O2"
_cell_formula_units_Z 16
_cell_length_a 5.269308
_cell_length_b 7.077906
_cell_length_c 19.758711
_cell_angle_alpha 65.727739
_cell_angle_beta 91.957822
_cell_angle_gamma 77.875946
_cell_volume 650.758481
_symmetry_space_group_name_H-M "P -1"
_symmetry_group_IT_number 2
_symmetry_cell_setting 'triclinic'
loop_
_space_group_symop_operation_xyz
x,y,z
-x,-y,-z
loop_
_atom_site_type_symbol
_atom_site_label
_atom_site_fract_x
_atom_site_fract_y
_atom_site_fract_z
Si Si1 0.059212 0.747125 0.047427
Si Si2 0.811379 0.037507 0.556402
Si Si3 0.638010 0.813772 0.832294
Si Si4 0.333463 0.325561 0.461649
Si Si5 0.790316 0.394084 0.074314
Si Si6 0.203561 0.520085 0.222324
Si Si7 0.639533 0.701512 0.259582
Si Si8 0.929260 0.746248 0.388256
O O1 0.183341 0.669736 0.132546
O O2 0.813912 0.634290 0.056305
O O3 0.235893 0.643925 0.000085
O O4 0.000000 0.000000 0.000000
O O5 0.624953 0.269049 0.501609
O O6 0.955972 0.048225 0.626539
O O7 0.665941 0.848644 0.572126
O O8 0.000000 0.000000 0.500000
O O9 0.417751 0.696753 0.873083
O O10 0.718234 0.718927 0.772075
O O11 0.914395 0.746070 0.884200
O O12 0.505848 0.062696 0.802013
O O13 0.183510 0.285583 0.534471
O O14 0.176105 0.552977 0.401713
O O15 0.435049 0.559740 0.265328
O O16 0.916523 0.593388 0.242261
O O17 0.714876 0.743499 0.330934
#
# Coordination Sequence:
#
# PCOD9105988 Si02
#       8
#     2   2   2   2   2   2   2   2
#     4  10  20  39  66  98 129 164 215 273 324 383
#     4   9  18  36  60  90 119 156 193 252 325 370
#     4  11  23  46  65  89 137 171 216 278 318 384
#     4   9  19  39  61  90 124 150 202 269 314 372
#     4  10  23  39  67  97 123 170 217 268 336 376
#     4  11  26  44  63  95 132 172 219 264 323 386
#     4  12  26  44  65  94 128 182 222 256 323 396
#     4  10  22  37  61  88 120 162 207 258 315 373
#
# _framework density 24.586693
#
# number of rings (size 3 to 8) (size 9 to 14) (size 15 to 20)
#    0.000    1.750    0.000    4.125    1.750    6.500 
#    6.750    7.500    0.000    0.000    0.000    0.000 
#    0.000    0.000    0.000    0.000    0.000    0.000 
#
# Total GULP energy -89426.520982 kJ/mol
# GULP energy per Si atom -5589.157561 kJ/mol
# Density = 2.453073 g / cm^3
# Si number density = 24.586693 Si / 1000 Ang^3
#
#
#
# Elastic Constant Matrix: (Units=GPa)
#
#
# Indices 1 2 3 4 5 6 
#
# 1 139.6629 40.3026 38.8038 10.4756 11.9269 -17.9817
# 2 40.3026 84.9124 9.4126 15.4416 -4.5751 -7.5330
# 3 38.8038 9.4126 68.2211 33.9105 7.3990 10.9774
# 4 10.4756 15.4416 33.9105 28.9155 10.0513 8.9195
# 5 11.9269 -4.5751 7.3990 10.0513 39.7556 11.7705
# 6 -17.9817 -7.5330 10.9774 8.9195 11.7705 40.1884
#
#
#
# Elastic Compliance Matrix: (Units=1/GPa)
#
#
# Indices 1 2 3 4 5 6 
#
# 1 0.015209 -0.008992 -0.018644 0.022141 -0.010177 0.008279
# 2 -0.008992 0.020035 0.016022 -0.029306 0.009723 -0.000988
# 3 -0.018644 0.016022 0.060456 -0.075907 0.018460 -0.010412
# 4 0.022141 -0.029306 -0.075907 0.141568 -0.032654 0.003291
# 5 -0.010177 0.009723 0.018460 -0.032654 0.037559 -0.011526
# 6 0.008279 -0.000988 -0.010412 0.003291 -0.011526 0.033891
#
#
# Mechanical properties :
#
#
# Convention : Reuss Voigt Hill
#
# Bulk Modulus (GPa) = 13.79845 52.20381 33.00113
# Shear Modulus (GPa) = 14.04087 35.39041 24.71564
#
# Velocity S-wave (km/s) = 2.39231 3.79808 3.17400
# Velocity P-wave (km/s) = 3.64077 6.36494 5.18496
#
# Compressibility (1/GPa) = 0.07247190
#
# Stress axis : x y z
#
# Youngs Moduli (GPa) = 65.74867 49.91359 16.54087
#
# Poissons Ratio (x) = 0.44885 0.30839
# Poissons Ratio (y) = 0.59124 -0.26502
# Poissons Ratio (z) = 1.22583 -0.79974
#
# Static dielectric constant tensor:
#      x y z
#    x 1.992950 0.012900 0.009530 
#    y 0.012900 2.012900 -0.024800 
#    z 0.009530 -0.024800 1.998910 
# 
# From -- ./inp_files/581910.got.cif
#   From: 2010.05.17/outbox.cif.g08.bks.cpg/sg2_291_cif.got.tgz:581910.got - 2010.06.03 11:33:40.
