data_PCOD9105551
_publ_section_title
;
Structure prediction by ZEFSAII (Michael W. Deem and Ramdas Pophale) SiO2 
 PCOD9105551
Probable space group: P -1
;
_chemical_formula_sum "Si O2"
_cell_formula_units_Z 16
_cell_length_a 4.817474
_cell_length_b 14.496999
_cell_length_c 18.745841
_cell_angle_alpha 133.101453
_cell_angle_beta 108.877476
_cell_angle_gamma 58.939229
_cell_volume 817.961291
_symmetry_space_group_name_H-M "P -1"
_symmetry_group_IT_number 2
_symmetry_cell_setting 'triclinic'
loop_
_space_group_symop_operation_xyz
x,y,z
-x,-y,-z
loop_
_atom_site_type_symbol
_atom_site_label
_atom_site_fract_x
_atom_site_fract_y
_atom_site_fract_z
Si Si1 0.167331 0.614931 0.721488
Si Si2 0.139031 0.590147 0.858678
Si Si3 0.888180 0.076135 0.243683
Si Si4 0.469807 0.388254 0.386222
Si Si5 0.792649 0.602637 0.101674
Si Si6 0.465185 0.230192 0.024356
Si Si7 0.965601 0.220089 0.856005
Si Si8 0.741516 0.927192 0.860846
O O1 0.229935 0.529484 0.754603
O O2 0.453747 0.585456 0.674936
O O3 0.886010 0.605855 0.644764
O O4 0.021690 0.776250 0.821930
O O5 0.358424 0.674275 0.934194
O O6 0.595079 0.317337 0.898247
O O7 0.762456 0.699939 0.890526
O O8 0.727819 0.230760 0.344576
O O9 0.605247 0.078015 0.167634
O O10 0.189924 0.055861 0.208216
O O11 0.982368 0.939685 0.227539
O O12 0.500000 0.500000 0.500000
O O13 0.831306 0.517644 0.132980
O O14 0.938810 0.717090 0.172477
O O15 0.000000 0.500000 0.000000
O O16 0.213139 0.226698 0.940799
O O17 0.703641 0.068821 0.969340
#
# Coordination Sequence:
#
# PCOD9105551 Si02
#       8
#     2   2   2   2   2   2   2   2
#     4  10  22  38  53  80 115 138 169 225 271 330
#     4  12  24  34  48  75 110 149 193 223 265 304
#     4   9  18  32  54  81 105 132 171 227 276 317
#     4  10  20  39  65  88 105 130 170 218 283 352
#     4  12  24  33  50  75 102 154 204 231 253 289
#     4  11  21  32  51  72 104 152 191 223 260 300
#     4  11  21  35  51  72 108 144 190 240 258 289
#     4   9  18  32  50  72 105 143 180 214 260 317
#
# _framework density 19.560828000000001
#
# number of rings (size 3 to 8) (size 9 to 14) (size 15 to 20)
#    0.000    1.500    1.250    6.000    0.000    1.000 
#    0.000    0.000    0.000    0.000    0.000    5.250 
#    0.000    0.000    0.000    0.000    0.000    0.000 
#
# Total GULP energy -89342.157949 kJ/mol
# GULP energy per Si atom -5583.884872 kJ/mol
# Density = 1.951631 g / cm^3
# Si number density = 19.560828 Si / 1000 Ang^3
#
#
#
# Elastic Constant Matrix: (Units=GPa)
#
#
# Indices 1 2 3 4 5 6 
#
# 1 106.9632 32.9416 16.0441 6.2805 -1.0302 10.9071
# 2 32.9416 96.9136 46.9814 12.1928 -2.0595 16.5256
# 3 16.0441 46.9814 78.8198 11.5004 9.2540 11.5103
# 4 6.2805 12.1928 11.5004 16.5955 4.4161 -1.1515
# 5 -1.0302 -2.0595 9.2540 4.4161 20.1289 -0.9445
# 6 10.9071 16.5256 11.5103 -1.1515 -0.9445 42.5352
#
#
#
# Elastic Compliance Matrix: (Units=1/GPa)
#
#
# Indices 1 2 3 4 5 6 
#
# 1 0.010578 -0.003150 0.000199 -0.002072 0.000508 -0.001587
# 2 -0.003150 0.017470 -0.008992 -0.007592 0.007257 -0.003591
# 3 0.000199 -0.008992 0.020183 -0.005181 -0.009163 -0.002363
# 4 -0.002072 -0.007592 -0.005181 0.074537 -0.014545 0.006578
# 5 0.000508 0.007257 -0.009163 -0.014545 0.057871 0.000421
# 6 -0.001587 -0.003591 -0.002363 0.006578 0.000421 0.026139
#
#
# Mechanical properties :
#
#
# Convention : Reuss Voigt Hill
#
# Bulk Modulus (GPa) = 41.07587 52.73676 46.90631
# Shear Modulus (GPa) = 20.93993 28.30056 24.62024
#
# Velocity S-wave (km/s) = 3.27540 3.80781 3.55160
# Velocity P-wave (km/s) = 5.94550 6.80819 6.39142
#
# Compressibility (1/GPa) = 0.02434519
#
# Stress axis : x y z
#
# Youngs Moduli (GPa) = 94.53946 57.24159 49.54603
#
# Poissons Ratio (x) = 0.18029 -0.00985
# Poissons Ratio (y) = 0.29776 0.44551
# Poissons Ratio (z) = -0.01879 0.51471
#
# Static dielectric constant tensor:
#      x y z
#    x 1.725340 0.009640 0.011580 
#    y 0.009640 1.796020 0.010570 
#    z 0.011580 0.010570 1.666780 
# 
# From -- ./inp_files/549954.got.cif
#   From: 2010.05.17/outbox.cif.g08.bks.cpg/sg2_275_cif.got.tgz:549954.got - 2010.06.03 11:33:40.
