data_PCOD9105000
_publ_section_title
;
Structure prediction by ZEFSAII (Michael W. Deem and Ramdas Pophale) SiO2 
 PCOD9105000
Probable space group: P -1
;
_chemical_formula_sum "Si O2"
_cell_formula_units_Z 14
_cell_length_a 9.106245
_cell_length_b 15.172419
_cell_length_c 12.073835
_cell_angle_alpha 49.180395
_cell_angle_beta 108.906488
_cell_angle_gamma 68.514494
_cell_volume 704.598797
_symmetry_space_group_name_H-M "P -1"
_symmetry_group_IT_number 2
_symmetry_cell_setting 'triclinic'
loop_
_space_group_symop_operation_xyz
x,y,z
-x,-y,-z
loop_
_atom_site_type_symbol
_atom_site_label
_atom_site_fract_x
_atom_site_fract_y
_atom_site_fract_z
Si Si1 0.582465 0.819979 0.142769
Si Si2 0.408753 0.774244 0.552022
Si Si3 0.005267 0.459517 0.711766
Si Si4 0.795594 0.371556 0.866642
Si Si5 0.108145 0.361049 0.247689
Si Si6 0.255182 0.062184 0.409260
Si Si7 0.115804 0.922160 0.968348
O O1 0.731333 0.722514 0.142261
O O2 0.794700 0.649359 0.425454
O O3 0.326230 0.895189 0.023540
O O4 0.500000 0.000000 0.000000
O O5 0.577865 0.556325 0.745554
O O6 0.601119 0.759205 0.561394
O O7 0.346471 0.872027 0.576647
O O8 0.137470 0.918496 0.304030
O O9 0.872751 0.421336 0.754362
O O10 0.057537 0.503931 0.797211
O O11 0.740933 0.285804 0.858737
O O12 0.052145 0.198409 0.147130
O O13 0.119731 0.215501 0.350319
O O14 0.000000 0.500000 0.000000
O O15 0.500000 0.000000 0.500000
O O16 0.000000 0.000000 0.000000
#
# Coordination Sequence:
#
# PCOD9105000 Si02
#       7
#     2   2   2   2   2   2   2
#     4  11  25  43  58  84 125 160 201 242 298 366
#     4   9  19  30  51  86 117 148 185 237 298 341
#     4  10  22  38  61  89 117 160 200 241 304 353
#     4  10  19  36  57  89 120 145 200 250 296 350
#     4  10  16  33  59  91 119 150 194 252 290 342
#     4   9  17  28  51  88 121 145 183 242 290 341
#     4  11  22  36  59  87 116 156 200 255 297 347
#
# _framework density 19.869461999999999
#
# number of rings (size 3 to 8) (size 9 to 14) (size 15 to 20)
#    0.000    2.000    2.857    2.571    0.000    8.000 
#    0.000    0.000    0.000    4.286    0.000    0.000 
#    0.000    0.000    0.000    0.000    0.000    0.000 
#
# Total GULP energy -77971.564006 kJ/mol
# GULP energy per Si atom -5569.397429 kJ/mol
# Density = 1.982424 g / cm^3
# Si number density = 19.869462 Si / 1000 Ang^3
#
#
#
# Elastic Constant Matrix: (Units=GPa)
#
#
# Indices 1 2 3 4 5 6 
#
# 1 84.9978 72.7733 33.1914 -14.0489 11.5166 19.5792
# 2 72.7733 206.3540 48.0942 -27.9620 7.4281 22.9644
# 3 33.1914 48.0942 65.0969 -19.7203 17.9143 3.2223
# 4 -14.0489 -27.9620 -19.7203 33.2854 4.2638 -4.9056
# 5 11.5166 7.4281 17.9143 4.2638 20.3635 -1.9618
# 6 19.5792 22.9644 3.2223 -4.9056 -1.9618 34.4115
#
#
#
# Elastic Compliance Matrix: (Units=1/GPa)
#
#
# Indices 1 2 3 4 5 6 
#
# 1 0.020824 -0.004975 -0.003631 0.002262 -0.008043 -0.008324
# 2 -0.004975 0.007686 -0.002998 0.002080 0.002058 -0.001604
# 3 -0.003631 -0.002998 0.033946 0.020301 -0.030771 0.002028
# 4 0.002262 0.002080 0.020301 0.048717 -0.030034 0.000656
# 5 -0.008043 0.002058 -0.030771 -0.030034 0.086915 0.006758
# 6 -0.008324 -0.001604 0.002028 0.000656 0.006758 0.035155
#
#
# Mechanical properties :
#
#
# Convention : Reuss Voigt Hill
#
# Bulk Modulus (GPa) = 25.48022 73.84071 49.66046
# Shear Modulus (GPa) = 18.55058 31.10474 24.82766
#
# Velocity S-wave (km/s) = 3.05884 3.96087 3.53872
# Velocity P-wave (km/s) = 5.03259 7.62638 6.46098
#
# Compressibility (1/GPa) = 0.03924614
#
# Stress axis : x y z
#
# Youngs Moduli (GPa) = 48.02251 130.11315 29.45883
#
# Poissons Ratio (x) = 0.64731 0.10697
# Poissons Ratio (y) = 0.23891 0.08832
# Poissons Ratio (z) = 0.17438 0.39010
#
# Static dielectric constant tensor:
#      x y z
#    x 1.666680 -0.001800 -0.003990 
#    y -0.001800 1.814660 -0.058440 
#    z -0.003990 -0.058440 1.736660 
# 
# From -- ./inp_files/273923.got.cif
#   From: 2010.05.17/outbox.cif.g08.bks.cpg/sg2_137_cif.got.tgz:273923.got - 2010.06.03 11:33:40.
