data_PCOD9105152
_publ_section_title
;
Structure prediction by ZEFSAII (Michael W. Deem and Ramdas Pophale) SiO2 
 PCOD9105152
Probable space group: P -1
;
_chemical_formula_sum "Si O2"
_cell_formula_units_Z 16
_cell_length_a 22.455849
_cell_length_b 11.333766
_cell_length_c 12.214889
_cell_angle_alpha 25.413513
_cell_angle_beta 148.894767
_cell_angle_gamma 135.902991
_cell_volume 667.522027
_symmetry_space_group_name_H-M "P -1"
_symmetry_group_IT_number 2
_symmetry_cell_setting 'triclinic'
loop_
_space_group_symop_operation_xyz
x,y,z
-x,-y,-z
loop_
_atom_site_type_symbol
_atom_site_label
_atom_site_fract_x
_atom_site_fract_y
_atom_site_fract_z
Si Si1 0.840581 0.013624 0.637667
Si Si2 0.959811 0.215130 0.483465
Si Si3 0.508643 0.611257 0.239506
Si Si4 0.371244 0.266204 0.459664
Si Si5 0.926360 0.327665 0.098878
Si Si6 0.189240 0.708372 0.249387
Si Si7 0.100087 0.610239 0.412177
Si Si8 0.443960 0.732071 0.626137
O O1 0.819834 0.266346 0.481955
O O2 0.844404 0.144591 0.413314
O O3 0.755561 0.807170 0.694614
O O4 0.979869 0.855211 0.998471
O O5 0.038091 0.367755 0.556609
O O6 0.920706 0.400240 0.157266
O O7 0.063913 0.937996 0.853591
O O8 0.411560 0.476817 0.261880
O O9 0.607752 0.615913 0.485266
O O10 0.539469 0.424348 0.334822
O O11 0.457691 0.945814 0.852088
O O12 0.805362 0.398853 0.777863
O O13 0.000000 0.000000 0.500000
O O14 0.000000 0.500000 0.000000
O O15 0.170084 0.525397 0.478299
O O16 0.302930 0.826473 0.349046
O O17 0.500000 0.000000 0.500000
O O18 0.500000 0.500000 0.000000
#
# Coordination Sequence:
#
# PCOD9105152 Si02
#       8
#     2   2   2   2   2   2   2   2
#     4  10  23  37  63 102 129 177 224 281 344 408
#     4  10  21  40  64  99 139 176 222 275 343 428
#     4  10  24  48  70 101 134 175 245 287 347 409
#     4  10  23  47  75  97 134 184 227 302 346 395
#     4  10  20  39  63  93 128 170 213 256 323 407
#     4  10  24  42  63  95 134 180 216 281 341 407
#     4  10  21  39  62  95 139 170 227 267 347 426
#     4  12  29  47  70 105 137 184 240 288 348 419
#
# _framework density 23.969248
#
# number of rings (size 3 to 8) (size 9 to 14) (size 15 to 20)
#    0.000    1.750    1.250    1.125    7.000    1.000 
#    6.750    0.000    0.000    0.000    0.000    0.000 
#    0.000    0.000    0.000    0.000    0.000    0.000 
#
# Total GULP energy -89217.470038 kJ/mol
# GULP energy per Si atom -5576.091877 kJ/mol
# Density = 2.391469 g / cm^3
# Si number density = 23.969248 Si / 1000 Ang^3
#
#
#
# Elastic Constant Matrix: (Units=GPa)
#
#
# Indices 1 2 3 4 5 6 
#
# 1 102.2891 49.2724 26.1676 8.7944 -11.1211 -4.6959
# 2 49.2724 174.3313 28.0322 10.9281 -10.9718 13.1073
# 3 26.1676 28.0322 50.5821 4.9637 -12.1513 7.4002
# 4 8.7944 10.9281 4.9637 45.7232 3.0863 1.1975
# 5 -11.1211 -10.9718 -12.1513 3.0863 23.3494 -4.2457
# 6 -4.6959 13.1073 7.4002 1.1975 -4.2457 50.0071
#
#
#
# Elastic Compliance Matrix: (Units=1/GPa)
#
#
# Indices 1 2 3 4 5 6 
#
# 1 0.012947 -0.002835 -0.004640 -0.001600 0.003168 0.002953
# 2 -0.002835 0.007087 -0.001923 -0.000947 0.000786 -0.001750
# 3 -0.004640 -0.001923 0.026358 -0.002132 0.010357 -0.002902
# 4 -0.001600 -0.000947 -0.002132 0.023021 -0.005469 -0.000602
# 5 0.003168 0.000786 0.010357 -0.005469 0.051373 0.003051
# 6 0.002953 -0.001750 -0.002902 -0.000602 0.003051 0.021436
#
#
# Mechanical properties :
#
#
# Convention : Reuss Voigt Hill
#
# Bulk Modulus (GPa) = 36.23948 59.34965 47.79457
# Shear Modulus (GPa) = 29.37400 38.73131 34.05265
#
# Velocity S-wave (km/s) = 3.50449 4.02416 3.77328
# Velocity P-wave (km/s) = 5.61492 6.81222 6.24234
#
# Compressibility (1/GPa) = 0.02759422
#
# Stress axis : x y z
#
# Youngs Moduli (GPa) = 77.24027 141.09914 37.93891
#
# Poissons Ratio (x) = 0.40007 0.17605
# Poissons Ratio (y) = 0.21901 0.07296
# Poissons Ratio (z) = 0.35843 0.27135
#
# Static dielectric constant tensor:
#      x y z
#    x 2.073100 -0.123320 -0.047170 
#    y -0.123320 2.006680 -0.016750 
#    z -0.047170 -0.016750 2.011500 
# 
# From -- ./inp_files/471126.got.cif
#   From: 2010.05.17/outbox.cif.g08.bks.cpg/sg2_236_cif.got.tgz:471126.got - 2010.06.03 11:33:40.
