data_PCOD9105226
_publ_section_title
;
Structure prediction by ZEFSAII (Michael W. Deem and Ramdas Pophale) SiO2 
 PCOD9105226
Probable space group: P -1
;
_chemical_formula_sum "Si O2"
_cell_formula_units_Z 14
_cell_length_a 7.053015
_cell_length_b 15.860561
_cell_length_c 8.646912
_cell_angle_alpha 71.878807
_cell_angle_beta 129.257575
_cell_angle_gamma 125.979517
_cell_volume 603.237994
_symmetry_space_group_name_H-M "P -1"
_symmetry_group_IT_number 2
_symmetry_cell_setting 'triclinic'
loop_
_space_group_symop_operation_xyz
x,y,z
-x,-y,-z
loop_
_atom_site_type_symbol
_atom_site_label
_atom_site_fract_x
_atom_site_fract_y
_atom_site_fract_z
Si Si1 0.531398 0.408887 0.851567
Si Si2 0.376730 0.997709 0.682420
Si Si3 0.668763 0.901683 0.686415
Si Si4 0.974524 0.373058 0.918161
Si Si5 0.083209 0.717883 0.394413
Si Si6 0.693700 0.156391 0.034240
Si Si7 0.762838 0.807241 0.048559
O O1 0.219826 0.371158 0.635673
O O2 0.736012 0.395804 0.846363
O O3 0.715542 0.523830 0.950388
O O4 0.441237 0.320417 0.989941
O O5 0.240432 0.039561 0.464168
O O6 0.567812 0.965816 0.699327
O O7 0.198567 0.895244 0.757228
O O8 0.557338 0.088072 0.849202
O O9 0.866471 0.877783 0.909038
O O10 0.390338 0.782796 0.594660
O O11 0.908563 0.335517 0.729221
O O12 0.932745 0.274238 0.047155
O O13 0.021083 0.810398 0.272755
O O14 0.425447 0.159241 0.970765
#
# Coordination Sequence:
#
# PCOD9105226 Si02
#       7
#     2   2   2   2   2   2   2
#     4   8  19  33  57  85 106 142 189 215 274 340
#     4   9  18  31  56  77 107 154 182 219 286 313
#     4  10  18  34  56  82 114 141 180 238 269 317
#     4  10  16  33  62  78 109 150 175 229 275 320
#     4  10  19  33  60  81 110 148 178 221 283 330
#     4   9  16  33  56  76 108 148 183 222 269 322
#     4   8  19  34  54  81 114 135 186 223 267 334
#
# _framework density 23.208089000000001
#
# number of rings (size 3 to 8) (size 9 to 14) (size 15 to 20)
#    0.857    2.000    1.429    0.429    0.000    0.000 
#    0.000    7.857   18.857    8.571    0.000    0.000 
#    0.000    0.000    0.000    0.000    0.000    0.000 
#
# Total GULP energy -78065.570693 kJ/mol
# GULP energy per Si atom -5576.112192 kJ/mol
# Density = 2.315527 g / cm^3
# Si number density = 23.208089 Si / 1000 Ang^3
#
#
#
# Elastic Constant Matrix: (Units=GPa)
#
#
# Indices 1 2 3 4 5 6 
#
# 1 69.5653 29.4546 16.6867 3.2927 -12.7441 -6.6122
# 2 29.4546 134.5384 21.9450 26.8798 -16.9632 0.0321
# 3 16.6867 21.9450 56.9692 -3.6421 -7.7724 -4.0323
# 4 3.2927 26.8798 -3.6421 32.9667 2.0898 0.1784
# 5 -12.7441 -16.9632 -7.7724 2.0898 26.1490 -1.9404
# 6 -6.6122 0.0321 -4.0323 0.1784 -1.9404 29.2038
#
#
#
# Elastic Compliance Matrix: (Units=1/GPa)
#
#
# Indices 1 2 3 4 5 6 
#
# 1 0.017758 -0.002452 -0.003123 -0.000552 0.006478 0.004026
# 2 -0.002452 0.011181 -0.003461 -0.009615 0.005753 -0.000604
# 3 -0.003123 -0.003461 0.020583 0.005263 0.002096 0.002246
# 4 -0.000552 -0.009615 0.005263 0.039324 -0.008097 -0.000166
# 5 0.006478 0.005753 0.002096 -0.008097 0.046766 0.004907
# 6 0.004026 -0.000604 0.002246 -0.000166 0.004907 0.035791
#
#
# Mechanical properties :
#
#
# Convention : Reuss Voigt Hill
#
# Bulk Modulus (GPa) = 31.79836 44.13838 37.96837
# Shear Modulus (GPa) = 25.00499 30.52968 27.76734
#
# Velocity S-wave (km/s) = 3.28598 3.63088 3.46273
# Velocity P-wave (km/s) = 5.30359 6.05290 5.69059
#
# Compressibility (1/GPa) = 0.03144816
#
# Stress axis : x y z
#
# Youngs Moduli (GPa) = 56.31243 89.43884 48.58387
#
# Poissons Ratio (x) = 0.21933 0.15174
# Poissons Ratio (y) = 0.13809 0.16816
# Poissons Ratio (z) = 0.17588 0.30957
#
# Static dielectric constant tensor:
#      x y z
#    x 1.935150 0.034290 0.007700 
#    y 0.034290 1.871200 -0.015930 
#    z 0.007700 -0.015930 1.876180 
# 
# From -- ./inp_files/212062.got.cif
#   From: 2010.05.17/outbox.cif.g08.bks.cpg/sg2_107_cif.got.tgz:212062.got - 2010.06.03 11:33:40.
