data_PCOD9105672
_publ_section_title
;
Structure prediction by ZEFSAII (Michael W. Deem and Ramdas Pophale) SiO2 
 PCOD9105672
Probable space group: P -1
;
_chemical_formula_sum "Si O2"
_cell_formula_units_Z 14
_cell_length_a 14.555964
_cell_length_b 6.669520
_cell_length_c 14.343152
_cell_angle_alpha 73.477345
_cell_angle_beta 28.822240
_cell_angle_gamma 75.565568
_cell_volume 643.572881
_symmetry_space_group_name_H-M "P -1"
_symmetry_group_IT_number 2
_symmetry_cell_setting 'triclinic'
loop_
_space_group_symop_operation_xyz
x,y,z
-x,-y,-z
loop_
_atom_site_type_symbol
_atom_site_label
_atom_site_fract_x
_atom_site_fract_y
_atom_site_fract_z
Si Si1 0.138710 0.196980 0.362029
Si Si2 0.046399 0.916205 0.103135
Si Si3 0.836301 0.633046 0.073620
Si Si4 0.940575 0.358883 0.694164
Si Si5 0.349162 0.188713 0.612330
Si Si6 0.473462 0.714638 0.939719
Si Si7 0.409242 0.665343 0.785374
O O1 0.101709 0.391383 0.297820
O O2 0.360941 0.139360 0.185811
O O3 0.092135 0.311095 0.486543
O O4 0.000000 0.000000 0.500000
O O5 0.006728 0.752088 0.242500
O O6 0.866644 0.889050 0.200231
O O7 0.256473 0.855094 0.888178
O O8 0.064147 0.158105 0.080566
O O9 0.672809 0.684785 0.288995
O O10 0.728629 0.522093 0.099046
O O11 0.000000 0.500000 0.000000
O O12 0.747044 0.234632 0.853716
O O13 0.421858 0.321052 0.441234
O O14 0.500000 0.000000 0.500000
O O15 0.480901 0.673016 0.827006
O O16 0.500000 0.500000 0.000000
#
# Coordination Sequence:
#
# PCOD9105672 Si02
#       7
#     2   2   2   2   2   2   2
#     4  10  20  39  65  94 127 166 221 268 327 396
#     4  11  23  42  62  94 134 174 220 278 336 396
#     4  12  24  43  68  98 132 180 228 277 337 399
#     4   9  21  39  62  90 131 170 209 271 335 387
#     4  12  23  42  69  93 138 178 218 285 339 393
#     4   9  20  40  64  92 131 173 209 270 333 389
#     4  11  23  42  65  95 134 174 227 274 336 401
#
# _framework density 21.753558000000002
#
# number of rings (size 3 to 8) (size 9 to 14) (size 15 to 20)
#    0.000    1.429    2.857    2.571    0.000    4.000 
#    0.000   10.000    0.000    0.000    0.000    0.000 
#    0.000    0.000    0.000    0.000    0.000    0.000 
#
# Total GULP energy -78051.091992 kJ/mol
# GULP energy per Si atom -5575.077999 kJ/mol
# Density = 2.170405 g / cm^3
# Si number density = 21.753558 Si / 1000 Ang^3
#
#
#
# Elastic Constant Matrix: (Units=GPa)
#
#
# Indices 1 2 3 4 5 6 
#
# 1 113.5525 48.2633 31.1751 -14.1231 -15.2250 -12.2864
# 2 48.2633 93.3484 20.6010 -18.4856 -8.1119 -1.1677
# 3 31.1751 20.6010 78.7550 -6.9885 -2.9219 -4.7391
# 4 -14.1231 -18.4856 -6.9885 44.0581 5.6485 -5.4230
# 5 -15.2250 -8.1119 -2.9219 5.6485 52.5571 -12.2718
# 6 -12.2864 -1.1677 -4.7391 -5.4230 -12.2718 28.7013
#
#
#
# Elastic Compliance Matrix: (Units=1/GPa)
#
#
# Indices 1 2 3 4 5 6 
#
# 1 0.013644 -0.005498 -0.003188 0.001897 0.004438 0.007347
# 2 -0.005498 0.014625 -0.001376 0.004016 -0.000144 -0.001289
# 3 -0.003188 -0.001376 0.014451 0.000845 -0.000178 0.001049
# 4 0.001897 0.004016 0.000845 0.025877 -0.000181 0.005927
# 5 0.004438 -0.000144 -0.000178 -0.000181 0.023026 0.011676
# 6 0.007347 -0.001289 0.001049 0.005927 0.011676 0.044220
#
#
# Mechanical properties :
#
#
# Convention : Reuss Voigt Hill
#
# Bulk Modulus (GPa) = 44.25312 53.97050 49.11181
# Shear Modulus (GPa) = 30.58127 37.43775 34.00951
#
# Velocity S-wave (km/s) = 3.75347 4.15299 3.95827
# Velocity P-wave (km/s) = 6.25874 6.91811 6.59667
#
# Compressibility (1/GPa) = 0.02259728
#
# Stress axis : x y z
#
# Youngs Moduli (GPa) = 73.29045 68.37496 69.19955
#
# Poissons Ratio (x) = 0.37591 0.22060
# Poissons Ratio (y) = 0.40293 0.09522
# Poissons Ratio (z) = 0.23364 0.09408
#
# Static dielectric constant tensor:
#      x y z
#    x 1.855940 0.008260 0.000430 
#    y 0.008260 1.884930 0.008380 
#    z 0.000430 0.008380 1.850850 
# 
# From -- ./inp_files/484587.got.cif
#   From: 2010.05.17/outbox.cif.g08.bks.cpg/sg2_243_cif.got.tgz:484587.got - 2010.06.03 11:33:40.
