data_PCOD9105107
_publ_section_title
;
Structure prediction by ZEFSAII (Michael W. Deem and Ramdas Pophale) SiO2 
 PCOD9105107
Probable space group: P -1
;
_chemical_formula_sum "Si O2"
_cell_formula_units_Z 16
_cell_length_a 11.947024
_cell_length_b 8.778445
_cell_length_c 16.203709
_cell_angle_alpha 51.649533
_cell_angle_beta 32.708695
_cell_angle_gamma 49.223735
_cell_volume 684.866373
_symmetry_space_group_name_H-M "P -1"
_symmetry_group_IT_number 2
_symmetry_cell_setting 'triclinic'
loop_
_space_group_symop_operation_xyz
x,y,z
-x,-y,-z
loop_
_atom_site_type_symbol
_atom_site_label
_atom_site_fract_x
_atom_site_fract_y
_atom_site_fract_z
Si Si1 0.897290 0.581190 0.783391
Si Si2 0.507104 0.990572 0.865585
Si Si3 0.279177 0.590610 0.657955
Si Si4 0.694705 0.998009 0.561082
Si Si5 0.411050 0.439552 0.809118
Si Si6 0.916248 0.378914 0.522626
Si Si7 0.138953 0.850990 0.077493
Si Si8 0.291870 0.879969 0.796786
O O1 0.712018 0.799971 0.830963
O O2 0.809036 0.389623 0.888042
O O3 0.071645 0.548355 0.759472
O O4 0.029972 0.574425 0.618997
O O5 0.585347 0.043879 0.706300
O O6 0.421409 0.205157 0.894934
O O7 0.303016 0.901803 0.021847
O O8 0.500000 0.500000 0.500000
O O9 0.318697 0.501094 0.754302
O O10 0.263028 0.825439 0.578912
O O11 0.532907 0.902450 0.642429
O O12 0.934825 0.850395 0.478658
O O13 0.662584 0.420995 0.670157
O O14 0.292577 0.647540 0.861811
O O15 0.000000 0.500000 0.500000
O O16 0.204933 0.941842 0.921881
O O17 0.881355 0.965739 0.208089
#
# Coordination Sequence:
#
# PCOD9105107 Si02
#       8
#     2   2   2   2   2   2   2   2
#     4  11  23  42  68  93 127 171 215 255 318 384
#     4  10  22  41  65  91 124 169 213 262 309 378
#     4  12  22  36  63  98 132 163 205 262 313 387
#     4  10  20  39  63  91 127 168 207 247 325 379
#     4  12  24  40  65 100 131 163 211 264 327 368
#     4  11  22  39  65  96 130 163 200 262 320 385
#     4  10  23  44  67  89 121 174 226 256 315 369
#     4  10  23  40  66  91 127 168 211 271 310 377
#
# _framework density 23.362221999999999
#
# number of rings (size 3 to 8) (size 9 to 14) (size 15 to 20)
#    0.000    1.250    3.750    1.875    3.500    4.000 
#    0.000    0.625    0.000    0.000    0.000    0.000 
#    0.000    0.000    0.000    0.000    0.000    0.000 
#
# Total GULP energy -89334.247458 kJ/mol
# GULP energy per Si atom -5583.390466 kJ/mol
# Density = 2.330905 g / cm^3
# Si number density = 23.362222 Si / 1000 Ang^3
#
#
#
# Elastic Constant Matrix: (Units=GPa)
#
#
# Indices 1 2 3 4 5 6 
#
# 1 97.8673 49.1115 39.9947 8.1302 -49.1000 5.5096
# 2 49.1115 0.2934 -14.1227 -24.3968 63.9549 -14.2662
# 3 39.9947 -14.1227 27.4142 -17.2228 3.9986 -8.6498
# 4 8.1302 -24.3968 -17.2228 30.1040 18.2001 -9.9769
# 5 -49.1000 63.9549 3.9986 18.2001 -19.7028 14.4942
# 6 5.5096 -14.2662 -8.6498 -9.9769 14.4942 27.1722
#
#
#
# Elastic Compliance Matrix: (Units=1/GPa)
#
#
# Indices 1 2 3 4 5 6 
#
# 1 0.007798 0.003545 -0.007080 0.001377 -0.006587 0.002045
# 2 0.003545 0.008228 -0.006749 -0.004863 0.008451 -0.004841
# 3 -0.007080 -0.006749 0.050451 0.013446 0.023191 0.006519
# 4 0.001377 -0.004863 0.013446 0.029538 0.014249 0.004692
# 5 -0.006587 0.008451 0.023191 0.014249 0.017585 0.009007
# 6 0.002045 -0.004841 0.006519 0.004692 0.009007 0.032840
#
#
# Mechanical properties :
#
#
# Convention : Reuss Voigt Hill
#
# Bulk Modulus (GPa) = 21.78137 30.61577 26.19857
# Shear Modulus (GPa) = 27.42586 10.88744 19.15665
#
# Velocity S-wave (km/s) = 3.43000 2.16111 2.86664
# Velocity P-wave (km/s) = 5.00301 4.40005 4.71119
#
# Compressibility (1/GPa) = 0.04591079
#
# Stress axis : x y z
#
# Youngs Moduli (GPa) = 128.23570 121.53447 19.82131
#
# Poissons Ratio (x) = -0.43085 0.14033
# Poissons Ratio (y) = -0.45461 0.13377
# Poissons Ratio (z) = 0.90786 0.82019
#
# Static dielectric constant tensor:
#      x y z
#    x 2.058560 -0.348780 0.228710 
#    y -0.348780 2.788170 -0.476590 
#    z 0.228710 -0.476590 2.138100 
# 
# From -- ./inp_files/204269.got.cif
#   From: 2010.05.17/outbox.cif.g08.bks.cpg/sg2_103_cif.got.tgz:204269.got - 2010.06.03 11:33:40.
