data_PCOD9105705
_publ_section_title
;
Structure prediction by ZEFSAII (Michael W. Deem and Ramdas Pophale) SiO2 
 PCOD9105705
Probable space group: P -1
;
_chemical_formula_sum "Si O2"
_cell_formula_units_Z 16
_cell_length_a 5.653376
_cell_length_b 13.969774
_cell_length_c 14.314052
_cell_angle_alpha 136.871798
_cell_angle_beta 60.788826
_cell_angle_gamma 123.567692
_cell_volume 636.822519
_symmetry_space_group_name_H-M "P -1"
_symmetry_group_IT_number 2
_symmetry_cell_setting 'triclinic'
loop_
_space_group_symop_operation_xyz
x,y,z
-x,-y,-z
loop_
_atom_site_type_symbol
_atom_site_label
_atom_site_fract_x
_atom_site_fract_y
_atom_site_fract_z
Si Si1 0.643367 0.598840 0.692849
Si Si2 0.375122 0.828905 0.660132
Si Si3 0.158944 0.085849 0.118619
Si Si4 0.171780 0.545655 0.622511
Si Si5 0.736582 0.754076 0.383062
Si Si6 0.174501 0.969027 0.560381
Si Si7 0.874929 0.092193 0.833105
Si Si8 0.776891 0.583715 0.073614
O O1 0.313011 0.511749 0.666056
O O2 0.792689 0.565821 0.543829
O O3 0.613852 0.756746 0.839050
O O4 0.853024 0.556058 0.694724
O O5 0.068999 0.846560 0.742582
O O6 0.366891 0.708098 0.657622
O O7 0.464489 0.767411 0.502983
O O8 0.610977 0.990253 0.748240
O O9 0.228192 0.967583 0.086816
O O10 0.000000 0.000000 0.000000
O O11 0.680052 0.627291 0.225887
O O12 0.983170 0.803802 0.451323
O O13 0.878065 0.897254 0.391898
O O14 0.500000 0.000000 0.500000
O O15 0.118019 0.018106 0.708380
O O16 0.022639 0.265191 0.909406
O O17 0.500000 0.500000 0.000000
O O18 0.000000 0.500000 0.000000
#
# Coordination Sequence:
#
# PCOD9105705 Si02
#       8
#     2   2   2   2   2   2   2   2
#     4   9  18  35  56  87 115 168 208 267 325 376
#     4  10  20  39  65  95 130 169 235 281 338 400
#     4  11  23  39  64  96 137 183 230 279 339 404
#     4   9  17  34  60  82 123 155 212 270 323 377
#     4   9  20  36  61  96 123 168 215 273 337 403
#     4   9  17  32  63  95 124 158 214 276 337 393
#     4  10  22  40  66  94 129 180 228 280 343 405
#     4  11  27  47  69  98 144 182 225 279 353 425
#
# _framework density 25.124738000000001
#
# number of rings (size 3 to 8) (size 9 to 14) (size 15 to 20)
#    0.000    2.250    1.250    1.500    5.250    0.500 
#    2.250    0.000    5.500    0.000    0.000    0.000 
#    0.000    0.000    0.000    0.000    0.000    0.000 
#
# Total GULP energy -89069.157135 kJ/mol
# GULP energy per Si atom -5566.822321 kJ/mol
# Density = 2.506755 g / cm^3
# Si number density = 25.124738 Si / 1000 Ang^3
#
#
#
# Elastic Constant Matrix: (Units=GPa)
#
#
# Indices 1 2 3 4 5 6 
#
# 1 117.8487 17.6782 53.4097 18.4683 8.4252 -6.9050
# 2 17.6782 97.8236 40.5110 31.0423 9.4342 13.6036
# 3 53.4097 40.5110 122.3752 28.8159 19.2268 0.4600
# 4 18.4683 31.0423 28.8159 48.2047 10.4428 4.3365
# 5 8.4252 9.4342 19.2268 10.4428 27.9193 1.7268
# 6 -6.9050 13.6036 0.4600 4.3365 1.7268 22.6836
#
#
#
# Elastic Compliance Matrix: (Units=1/GPa)
#
#
# Indices 1 2 3 4 5 6 
#
# 1 0.010988 -0.000135 -0.004346 -0.001916 0.000200 0.003865
# 2 -0.000135 0.014807 -0.003231 -0.006944 0.000326 -0.007553
# 3 -0.004346 -0.003231 0.012621 -0.002759 -0.005336 0.001293
# 4 -0.001916 -0.006944 -0.002759 0.029018 -0.005939 -0.001458
# 5 0.000200 0.000326 -0.005336 -0.005939 0.041671 -0.002064
# 6 0.003865 -0.007553 0.001293 -0.001458 -0.002064 0.050200
#
#
# Mechanical properties :
#
#
# Convention : Reuss Voigt Hill
#
# Bulk Modulus (GPa) = 43.49073 62.36058 52.92565
# Shear Modulus (GPa) = 27.41363 34.85808 31.13586
#
# Velocity S-wave (km/s) = 3.30677 3.72882 3.52412
# Velocity P-wave (km/s) = 5.65041 6.58886 6.13760
#
# Compressibility (1/GPa) = 0.02299341
#
# Stress axis : x y z
#
# Youngs Moduli (GPa) = 91.01230 67.53552 79.23282
#
# Poissons Ratio (x) = 0.00910 0.34432
# Poissons Ratio (y) = 0.01226 0.25599
# Poissons Ratio (z) = 0.39550 0.21819
#
# Static dielectric constant tensor:
#      x y z
#    x 1.877500 -0.119680 -0.089050 
#    y -0.119680 2.255400 -0.015090 
#    z -0.089050 -0.015090 1.972990 
# 
# From -- ./inp_files/484453.got.cif
#   From: 2010.05.17/outbox.cif.g08.bks.cpg/sg2_243_cif.got.tgz:484453.got - 2010.06.03 11:33:40.
