data_PCOD9105470
_publ_section_title
;
Structure prediction by ZEFSAII (Michael W. Deem and Ramdas Pophale) SiO2 
 PCOD9105470
Probable space group: P -1
;
_chemical_formula_sum "Si O2"
_cell_formula_units_Z 12
_cell_length_a 10.146775
_cell_length_b 10.772149
_cell_length_c 9.832447
_cell_angle_alpha 48.254615
_cell_angle_beta 134.324985
_cell_angle_gamma 135.363635
_cell_volume 508.883712
_symmetry_space_group_name_H-M "P -1"
_symmetry_group_IT_number 2
_symmetry_cell_setting 'triclinic'
loop_
_space_group_symop_operation_xyz
x,y,z
-x,-y,-z
loop_
_atom_site_type_symbol
_atom_site_label
_atom_site_fract_x
_atom_site_fract_y
_atom_site_fract_z
Si Si1 0.561789 0.166014 0.815226
Si Si2 0.991447 0.466268 0.854709
Si Si3 0.670286 0.466023 0.234831
Si Si4 0.835051 0.926660 0.555058
Si Si5 0.375392 0.485701 0.212454
Si Si6 0.068527 0.730758 0.470214
O O1 0.793433 0.262019 0.849735
O O2 0.380339 0.079437 0.639529
O O3 0.553114 0.341057 0.759451
O O4 0.500000 0.000000 0.000000
O O5 0.978471 0.613309 0.632900
O O6 0.000000 0.500000 0.000000
O O7 0.227815 0.503750 0.976169
O O8 0.566209 0.462212 0.309565
O O9 0.721268 0.289882 0.387105
O O10 0.905434 0.634407 0.300690
O O11 0.500000 0.500000 0.000000
O O12 0.780242 0.713705 0.693320
O O13 0.908850 0.064681 0.635268
O O14 0.000000 0.000000 0.500000
#
# Coordination Sequence:
#
# PCOD9105470 Si02
#       6
#     2   2   2   2   2   2
#     4  11  22  37  64  96 133 174 217 279 346 399
#     4  10  20  39  64  96 134 169 217 277 339 395
#     4  11  24  45  72  93 135 185 231 280 323 398
#     4  12  23  40  65 101 136 171 224 280 341 412
#     4  11  22  40  64  96 134 177 223 274 337 398
#     4  11  24  44  70 100 135 180 227 276 339 399
#
# _framework density 23.581026999999999
#
# number of rings (size 3 to 8) (size 9 to 14) (size 15 to 20)
#    0.000    1.000    1.667    7.500    0.000    0.667 
#    0.000    0.833    0.000    0.000    0.000    0.000 
#    0.000    0.000    0.000    0.000    0.000    0.000 
#
# Total GULP energy -66905.473384 kJ/mol
# GULP energy per Si atom -5575.456115 kJ/mol
# Density = 2.352736 g / cm^3
# Si number density = 23.581027 Si / 1000 Ang^3
#
#
#
# Elastic Constant Matrix: (Units=GPa)
#
#
# Indices 1 2 3 4 5 6 
#
# 1 100.7523 15.1510 -0.1941 -4.9751 43.0341 -4.5568
# 2 15.1510 90.7433 11.0863 -7.8735 7.6672 -16.7699
# 3 -0.1941 11.0863 80.3967 14.4684 7.4369 -5.4910
# 4 -4.9751 -7.8735 14.4684 54.5577 5.0700 7.7526
# 5 43.0341 7.6672 7.4369 5.0700 31.9398 2.9218
# 6 -4.5568 -16.7699 -5.4910 7.7526 2.9218 40.8343
#
#
#
# Elastic Compliance Matrix: (Units=1/GPa)
#
#
# Indices 1 2 3 4 5 6 
#
# 1 0.026355 -0.000321 0.003138 0.004268 -0.037307 0.005090
# 2 -0.000321 0.012539 -0.001445 0.001757 -0.002960 0.004798
# 3 0.003138 -0.001445 0.014086 -0.003416 -0.006875 0.002792
# 4 0.004268 0.001757 -0.003416 0.021042 -0.008475 -0.002650
# 5 -0.037307 -0.002960 -0.006875 -0.008475 0.086225 -0.010864
# 6 0.005090 0.004798 0.002792 -0.002650 -0.010864 0.028683
#
#
# Mechanical properties :
#
#
# Convention : Reuss Voigt Hill
#
# Bulk Modulus (GPa) = 17.94445 35.99762 26.97103
# Shear Modulus (GPa) = 24.41877 41.85631 33.13754
#
# Velocity S-wave (km/s) = 3.22145 4.21764 3.75275
# Velocity P-wave (km/s) = 4.63284 6.24633 5.49909
#
# Compressibility (1/GPa) = 0.05572755
#
# Stress axis : x y z
#
# Youngs Moduli (GPa) = 37.94291 79.74949 70.99051
#
# Poissons Ratio (x) = 0.02557 -0.22279
# Poissons Ratio (y) = 0.01216 0.10255
# Poissons Ratio (z) = -0.11908 0.11520
#
# Static dielectric constant tensor:
#      x y z
#    x 2.116360 -0.002280 -0.044900 
#    y -0.002280 1.862610 0.022430 
#    z -0.044900 0.022430 2.043650 
# 
# From -- ./inp_files/188246.got.cif
#   From: 2010.05.17/outbox.cif.g08.bks.cpg/sg2_95_cif.got.tgz:188246.got - 2010.06.03 11:33:40.
