data_PCOD9105511
_publ_section_title
;
Structure prediction by ZEFSAII (Michael W. Deem and Ramdas Pophale) SiO2 
 PCOD9105511
Probable space group: P -1
;
_chemical_formula_sum "Si O2"
_cell_formula_units_Z 13
_cell_length_a 10.760370
_cell_length_b 10.868148
_cell_length_c 11.438941
_cell_angle_alpha 66.293506
_cell_angle_beta 70.806399
_cell_angle_gamma 26.908799
_cell_volume 552.900429
_symmetry_space_group_name_H-M "P -1"
_symmetry_group_IT_number 2
_symmetry_cell_setting 'triclinic'
loop_
_space_group_symop_operation_xyz
x,y,z
-x,-y,-z
loop_
_atom_site_type_symbol
_atom_site_label
_atom_site_fract_x
_atom_site_fract_y
_atom_site_fract_z
Si Si1 0.000000 0.000000 0.500000
Si Si2 0.722128 0.687825 0.558180
Si Si3 0.423085 0.365866 0.586379
Si Si4 0.927381 0.015483 0.146591
Si Si5 0.317558 0.455374 0.177729
Si Si6 0.834603 0.384137 0.101854
Si Si7 0.425782 0.937751 0.129580
O O1 0.185622 0.687372 0.568188
O O2 0.280678 0.827015 0.435971
O O3 0.635440 0.642653 0.519873
O O4 0.740259 0.630046 0.708937
O O5 0.000000 0.500000 0.500000
O O6 0.500000 0.000000 0.500000
O O7 0.443587 0.217637 0.725405
O O8 0.639109 0.196877 0.164521
O O9 0.885020 0.179980 0.181272
O O10 0.178365 0.691834 0.214521
O O11 0.000000 0.000000 0.000000
O O12 0.178274 0.584436 0.045670
O O13 0.544313 0.700915 0.113973
O O14 0.095994 0.228793 0.128990
O O15 0.500000 0.000000 0.000000
#
# Coordination Sequence:
#
# PCOD9105511 Si02
#       7
#     1   2   2   2   2   2   2
#     4  10  24  48  78 102 138 184 230 314 336 416
#     4  12  28  45  70  98 138 190 230 291 333 417
#     4  11  26  48  72 107 139 181 246 279 365 404
#     4  10  20  39  65 100 135 164 219 278 336 409
#     4  11  23  40  68  98 132 174 220 277 339 398
#     4  11  23  41  66  99 131 175 215 272 345 389
#     4  12  27  42  67  98 137 184 218 282 328 419
#
# _framework density 23.512373
#
# number of rings (size 3 to 8) (size 9 to 14) (size 15 to 20)
#    0.000    0.923    0.000    7.846    4.308    7.385 
#    0.000    0.000    0.000    0.000    0.000    0.000 
#    0.000    0.000    0.000    0.000    0.000    0.000 
#
# Total GULP energy -72395.098468 kJ/mol
# GULP energy per Si atom -5568.853728 kJ/mol
# Density = 2.345886 g / cm^3
# Si number density = 23.512373 Si / 1000 Ang^3
#
#
#
# Elastic Constant Matrix: (Units=GPa)
#
#
# Indices 1 2 3 4 5 6 
#
# 1 23.9406 20.9350 7.9198 -10.1799 1.3082 -4.5785
# 2 20.9350 203.0499 25.5399 -24.3954 -14.5657 -3.2585
# 3 7.9198 25.5399 75.7907 -7.7906 -2.0685 -6.0754
# 4 -10.1799 -24.3954 -7.7906 80.4199 -4.2534 -10.5521
# 5 1.3082 -14.5657 -2.0685 -4.2534 32.8165 9.7671
# 6 -4.5785 -3.2585 -6.0754 -10.5521 9.7671 41.3193
#
#
#
# Elastic Compliance Matrix: (Units=1/GPa)
#
#
# Indices 1 2 3 4 5 6 
#
# 1 0.050735 -0.004516 -0.002763 0.005480 -0.005759 0.007620
# 2 -0.004516 0.005912 -0.001370 0.001164 0.003066 -0.000663
# 3 -0.002763 -0.001370 0.014184 0.000855 -0.000060 0.001904
# 4 0.005480 0.001164 0.000855 0.014168 0.000932 0.004223
# 5 -0.005759 0.003066 -0.000060 0.000932 0.034669 -0.008362
# 6 0.007620 -0.000663 0.001904 0.004223 -0.008362 0.028329
#
#
# Mechanical properties :
#
#
# Convention : Reuss Voigt Hill
#
# Bulk Modulus (GPa) = 18.68012 45.73007 32.20509
# Shear Modulus (GPa) = 27.30185 47.47025 37.38605
#
# Velocity S-wave (km/s) = 3.41129 4.49814 3.99188
# Velocity P-wave (km/s) = 4.84540 6.81684 5.91385
#
# Compressibility (1/GPa) = 0.05353286
#
# Stress axis : x y z
#
# Youngs Moduli (GPa) = 19.71026 169.14775 70.50428
#
# Poissons Ratio (x) = 0.76384 0.19480
# Poissons Ratio (y) = 0.08901 0.09660
# Poissons Ratio (z) = 0.05446 0.23175
#
# Static dielectric constant tensor:
#      x y z
#    x 1.834880 -0.005470 0.196630 
#    y -0.005470 1.740650 0.166560 
#    z 0.196630 0.166560 1.594110 
# 
# From -- ./inp_files/427761.got.cif
#   From: 2010.05.17/outbox.cif.g08.bks.cpg/sg2_214_cif.got.tgz:427761.got - 2010.06.03 11:33:40.
