data_PCOD9105126
_publ_section_title
;
Structure prediction by ZEFSAII (Michael W. Deem and Ramdas Pophale) SiO2 
 PCOD9105126
Probable space group: P -1
;
_chemical_formula_sum "Si O2"
_cell_formula_units_Z 16
_cell_length_a 12.385687
_cell_length_b 14.537306
_cell_length_c 9.090022
_cell_angle_alpha 76.170352
_cell_angle_beta 31.683047
_cell_angle_gamma 88.597768
_cell_volume 781.640710
_symmetry_space_group_name_H-M "P -1"
_symmetry_group_IT_number 2
_symmetry_cell_setting 'triclinic'
loop_
_space_group_symop_operation_xyz
x,y,z
-x,-y,-z
loop_
_atom_site_type_symbol
_atom_site_label
_atom_site_fract_x
_atom_site_fract_y
_atom_site_fract_z
Si Si1 0.048172 0.440056 0.606383
Si Si2 0.383123 0.238413 0.788739
Si Si3 0.608244 0.264461 0.221218
Si Si4 0.472980 0.059039 0.861503
Si Si5 0.848140 0.140986 0.802936
Si Si6 0.705263 0.716680 0.666887
Si Si7 0.100273 0.788721 0.625057
Si Si8 0.333027 0.630164 0.376663
O O1 0.182150 0.368591 0.428465
O O2 0.193266 0.519332 0.526434
O O3 0.000000 0.500000 0.500000
O O4 0.812827 0.368260 0.965489
O O5 0.511507 0.220330 0.506537
O O6 0.375640 0.149930 0.948330
O O7 0.512838 0.347312 0.667953
O O8 0.141913 0.231929 0.032707
O O9 0.411154 0.280112 0.352868
O O10 0.708582 0.195941 0.033691
O O11 0.727839 0.123477 0.510502
O O12 0.500000 0.000000 0.000000
O O13 0.306157 0.976315 0.981570
O O14 0.881983 0.177565 0.579828
O O15 0.093695 0.179137 0.570864
O O16 0.504301 0.684089 0.027406
O O17 0.171205 0.691116 0.576082
#
# Coordination Sequence:
#
# PCOD9105126 Si02
#       8
#     2   2   2   2   2   2   2   2
#     4  11  23  39  68  97 122 160 220 262 301 375
#     4  11  25  41  62  94 134 164 203 262 322 364
#     4  11  25  41  60  96 131 164 206 264 317 367
#     4   9  22  40  66  96 124 163 216 258 305 378
#     4  10  20  39  65  90 123 165 214 254 304 375
#     4  11  21  38  67  93 123 163 211 259 310 369
#     4  10  20  39  63  92 126 163 208 259 308 373
#     4  11  21  39  66  90 123 169 210 253 310 374
#
# _framework density 20.469761999999999
#
# number of rings (size 3 to 8) (size 9 to 14) (size 15 to 20)
#    0.000    1.500    3.750    1.125    0.000    8.000 
#    0.000    2.500    0.000    0.000    0.000    0.000 
#    0.000    0.000    0.000    0.000    0.000    0.000 
#
# Total GULP energy -89228.016942 kJ/mol
# GULP energy per Si atom -5576.751059 kJ/mol
# Density = 2.042317 g / cm^3
# Si number density = 20.469762 Si / 1000 Ang^3
#
#
#
# Elastic Constant Matrix: (Units=GPa)
#
#
# Indices 1 2 3 4 5 6 
#
# 1 70.3392 29.0962 45.4083 -10.7590 -23.7654 10.5408
# 2 29.0962 92.9716 48.7591 -23.5360 -21.5173 26.4216
# 3 45.4083 48.7591 114.9082 -3.0930 -26.2911 12.0265
# 4 -10.7590 -23.5360 -3.0930 18.0905 14.7608 -17.9267
# 5 -23.7654 -21.5173 -26.2911 14.7608 45.4003 -8.1008
# 6 10.5408 26.4216 12.0265 -17.9267 -8.1008 35.5886
#
#
#
# Elastic Compliance Matrix: (Units=1/GPa)
#
#
# Indices 1 2 3 4 5 6 
#
# 1 0.021799 0.000400 -0.007915 0.011850 0.003650 0.002721
# 2 0.000400 0.023414 -0.011045 0.038355 -0.006848 0.003993
# 3 -0.007915 -0.011045 0.019544 -0.037795 0.012022 -0.012362
# 4 0.011850 0.038355 -0.037795 0.245167 -0.061090 0.090377
# 5 0.003650 -0.006848 0.012022 -0.061090 0.043793 -0.020864
# 6 0.002721 0.003993 -0.012362 0.090377 -0.020864 0.069282
#
#
# Mechanical properties :
#
#
# Convention : Reuss Voigt Hill
#
# Bulk Modulus (GPa) = 36.18403 58.30515 47.24459
# Shear Modulus (GPa) = 10.65347 30.14624 20.39986
#
# Velocity S-wave (km/s) = 2.28381 3.84177 3.16030
# Velocity P-wave (km/s) = 4.96685 6.94437 6.03713
#
# Compressibility (1/GPa) = 0.02763651
#
# Stress axis : x y z
#
# Youngs Moduli (GPa) = 45.87418 42.71020 51.16551
#
# Poissons Ratio (x) = -0.01709 0.40496
# Poissons Ratio (y) = -0.01835 0.56515
# Poissons Ratio (z) = 0.36308 0.47176
#
# Static dielectric constant tensor:
#      x y z
#    x 1.766310 0.016840 -0.004310 
#    y 0.016840 1.731530 -0.021760 
#    z -0.004310 -0.021760 1.712240 
# 
# From -- ./inp_files/37336.got.cif
#   From: 2010.05.17/outbox.cif.g08.bks.cpg/sg2_19_cif.got.tgz:37336.got - 2010.06.03 11:33:40.
