data_PCOD9105866
_publ_section_title
;
Structure prediction by ZEFSAII (Michael W. Deem and Ramdas Pophale) SiO2 
 PCOD9105866
Probable space group: P -1
;
_chemical_formula_sum "Si O2"
_cell_formula_units_Z 15
_cell_length_a 10.286096
_cell_length_b 15.150140
_cell_length_c 9.535372
_cell_angle_alpha 67.241056
_cell_angle_beta 123.913235
_cell_angle_gamma 147.539145
_cell_volume 650.019219
_symmetry_space_group_name_H-M "P -1"
_symmetry_group_IT_number 2
_symmetry_cell_setting 'triclinic'
loop_
_space_group_symop_operation_xyz
x,y,z
-x,-y,-z
loop_
_atom_site_type_symbol
_atom_site_label
_atom_site_fract_x
_atom_site_fract_y
_atom_site_fract_z
Si Si1 0.686270 0.492706 0.441050
Si Si2 0.153747 0.722341 0.997011
Si Si3 0.151915 0.875647 0.142583
Si Si4 0.406950 0.649876 0.237490
Si Si5 0.613609 0.633068 0.153165
Si Si6 0.604041 0.340188 0.219885
Si Si7 0.000000 0.000000 0.000000
Si Si8 0.738599 0.200779 0.292974
O O1 0.562231 0.382770 0.572092
O O2 0.513982 0.490191 0.264077
O O3 0.734243 0.438840 0.382145
O O4 0.972555 0.685344 0.539953
O O5 0.274041 0.827351 0.862353
O O6 0.866057 0.533047 0.886308
O O7 0.114815 0.777115 0.064274
O O8 0.346357 0.731464 0.156729
O O9 0.904219 0.756697 0.178663
O O10 0.458651 0.020471 0.299646
O O11 0.131808 0.973190 0.011129
O O12 0.641403 0.732998 0.220401
O O13 0.424570 0.583053 0.948514
O O14 0.746048 0.320667 0.244825
O O15 0.288097 0.153742 0.166125
#
# Coordination Sequence:
#
# PCOD9105866 Si02
#       8
#     2   2   2   2   2   2   1   2
#     4  11  24  37  65  98 129 171 212 273 324 371
#     4  10  21  39  67  94 128 175 213 261 327 387
#     4  10  22  38  68  92 127 175 216 263 321 385
#     4  10  23  41  62  97 136 161 216 272 319 385
#     4  11  23  40  64  95 129 168 214 270 318 380
#     4  10  20  39  66  91 127 169 214 262 320 383
#     4   8  20  38  60  96 124 160 210 264 308 380
#     4  10  21  42  61  96 132 164 218 270 315 387
#
# _framework density 23.076242000000001
#
# number of rings (size 3 to 8) (size 9 to 14) (size 15 to 20)
#    0.000    1.867    1.333    1.600    5.600    1.600 
#    0.000    2.667    0.000    8.000    0.000    0.000 
#    0.000    0.000    0.000    0.000    0.000    0.000 
#
# Total GULP energy -83518.845983 kJ/mol
# GULP energy per Si atom -5567.923066 kJ/mol
# Density = 2.302372 g / cm^3
# Si number density = 23.076242 Si / 1000 Ang^3
#
#
#
# Elastic Constant Matrix: (Units=GPa)
#
#
# Indices 1 2 3 4 5 6 
#
# 1 168.3458 24.3414 52.2798 -5.8121 -28.6004 -17.0712
# 2 24.3414 44.7309 27.6406 3.3346 -13.6267 1.3123
# 3 52.2798 27.6406 117.6451 -14.6280 -25.6270 -5.1561
# 4 -5.8121 3.3346 -14.6280 20.9830 2.5336 -0.1357
# 5 -28.6004 -13.6267 -25.6270 2.5336 29.6135 -3.0288
# 6 -17.0712 1.3123 -5.1561 -0.1357 -3.0288 28.3906
#
#
#
# Elastic Compliance Matrix: (Units=1/GPa)
#
#
# Indices 1 2 3 4 5 6 
#
# 1 0.008361 -0.001876 -0.001545 0.000803 0.006369 0.005517
# 2 -0.001876 0.030276 -0.006087 -0.010494 0.007455 -0.002888
# 3 -0.001545 -0.006087 0.013313 0.009026 0.006713 0.002529
# 4 0.000803 -0.010494 0.009026 0.055948 -0.000743 0.002795
# 5 0.006369 0.007455 0.006713 -0.000743 0.050252 0.010062
# 6 0.005517 -0.002888 0.002529 0.002795 0.010062 0.040220
#
#
# Mechanical properties :
#
#
# Convention : Reuss Voigt Hill
#
# Bulk Modulus (GPa) = 30.36551 59.91615 45.14083
# Shear Modulus (GPa) = 21.89490 30.89476 26.39483
#
# Velocity S-wave (km/s) = 3.08361 3.66295 3.38569
# Velocity P-wave (km/s) = 5.08582 6.62649 5.90660
#
# Compressibility (1/GPa) = 0.03293210
#
# Stress axis : x y z
#
# Youngs Moduli (GPa) = 119.60862 33.02929 75.11691
#
# Poissons Ratio (x) = 0.06196 0.11609
# Poissons Ratio (y) = 0.22438 0.45725
# Poissons Ratio (z) = 0.18485 0.20105
#
# Static dielectric constant tensor:
#      x y z
#    x 1.912440 0.016030 0.025520 
#    y 0.016030 1.977810 -0.047930 
#    z 0.025520 -0.047930 1.857200 
# 
# From -- ./inp_files/207090.got.cif
#   From: 2010.05.17/outbox.cif.g08.bks.cpg/sg2_104_cif.got.tgz:207090.got - 2010.06.03 11:33:40.
