data_PCOD9105561
_publ_section_title
;
Structure prediction by ZEFSAII (Michael W. Deem and Ramdas Pophale) SiO2 
 PCOD9105561
Probable space group: P -1
;
_chemical_formula_sum "Si O2"
_cell_formula_units_Z 16
_cell_length_a 14.803414
_cell_length_b 8.397181
_cell_length_c 11.549135
_cell_angle_alpha 38.434118
_cell_angle_beta 106.472659
_cell_angle_gamma 110.301309
_cell_volume 836.806366
_symmetry_space_group_name_H-M "P -1"
_symmetry_group_IT_number 2
_symmetry_cell_setting 'triclinic'
loop_
_space_group_symop_operation_xyz
x,y,z
-x,-y,-z
loop_
_atom_site_type_symbol
_atom_site_label
_atom_site_fract_x
_atom_site_fract_y
_atom_site_fract_z
Si Si1 0.695936 0.196882 0.053528
Si Si2 0.764940 0.401088 0.714209
Si Si3 0.749037 0.961957 0.781962
Si Si4 0.966674 0.710302 0.702757
Si Si5 0.393515 0.817184 0.554921
Si Si6 0.399991 0.401572 0.590033
Si Si7 0.609382 0.484142 0.048395
Si Si8 0.883721 0.559649 0.006058
O O1 0.638509 0.392570 0.985637
O O2 0.803555 0.298024 0.090511
O O3 0.632916 0.906429 0.216900
O O4 0.716119 0.248650 0.896358
O O5 0.864211 0.586424 0.681063
O O6 0.686343 0.546390 0.551118
O O7 0.788889 0.212382 0.730285
O O8 0.689194 0.042457 0.605641
O O9 0.667210 0.772613 0.933692
O O10 0.825329 0.781523 0.891250
O O11 0.047308 0.533082 0.821427
O O12 0.946004 0.689830 0.844612
O O13 0.000000 0.000000 0.500000
O O14 0.401410 0.583169 0.601428
O O15 0.367462 0.709684 0.735045
O O16 0.500000 0.000000 0.500000
O O17 0.500000 0.500000 0.500000
O O18 0.500000 0.500000 0.000000
#
# Coordination Sequence:
#
# PCOD9105561 Si02
#       8
#     2   2   2   2   2   2   2   2
#     4  10  22  39  58  85 120 153 200 247 295 353
#     4  10  23  40  60  87 121 157 195 253 299 353
#     4  10  22  40  57  86 122 154 201 244 297 355
#     4  10  20  39  65  89 117 151 197 244 303 363
#     4  11  22  37  55  79 117 158 202 247 287 343
#     4  11  24  36  57  86 118 162 203 243 295 348
#     4  11  22  35  60  82 112 163 203 244 291 345
#     4   9  21  38  62  90 116 156 194 246 301 359
#
# _framework density 19.120314
#
# number of rings (size 3 to 8) (size 9 to 14) (size 15 to 20)
#    0.000    1.750    1.250    2.250    3.500    7.000 
#    0.000    0.625    0.000    0.000    0.000    0.000 
#    0.000    0.000    0.000    0.000    0.000    0.000 
#
# Total GULP energy -89199.748493 kJ/mol
# GULP energy per Si atom -5574.984281 kJ/mol
# Density = 1.907680 g / cm^3
# Si number density = 19.120314 Si / 1000 Ang^3
#
#
#
# Elastic Constant Matrix: (Units=GPa)
#
#
# Indices 1 2 3 4 5 6 
#
# 1 93.5217 28.7558 47.5697 -0.7444 11.4169 6.2911
# 2 28.7558 66.7511 49.4959 0.9221 8.4227 9.0699
# 3 47.5697 49.4959 114.5849 -6.8863 0.3825 16.2515
# 4 -0.7444 0.9221 -6.8863 27.9308 6.7065 -1.9891
# 5 11.4169 8.4227 0.3825 6.7065 35.4265 -6.5067
# 6 6.2911 9.0699 16.2515 -1.9891 -6.5067 19.5344
#
#
#
# Elastic Compliance Matrix: (Units=1/GPa)
#
#
# Indices 1 2 3 4 5 6 
#
# 1 0.014412 -0.001773 -0.005039 0.000180 -0.004400 -0.001073
# 2 -0.001773 0.023776 -0.008916 -0.002066 -0.005531 -0.005103
# 3 -0.005039 -0.008916 0.015767 0.003158 0.001794 -0.006436
# 4 0.000180 -0.002066 0.003158 0.038296 -0.006872 -0.000116
# 5 -0.004400 -0.005531 0.001794 -0.006872 0.034694 0.013349
# 6 -0.001073 -0.005103 -0.006436 -0.000116 0.013349 0.063696
#
#
# Mechanical properties :
#
#
# Convention : Reuss Voigt Hill
#
# Bulk Modulus (GPa) = 44.44897 58.50006 51.47451
# Shear Modulus (GPa) = 21.77723 26.51409 24.14566
#
# Velocity S-wave (km/s) = 3.37851 3.72788 3.55748
# Velocity P-wave (km/s) = 6.20617 7.01367 6.62224
#
# Compressibility (1/GPa) = 0.02249771
#
# Stress axis : x y z
#
# Youngs Moduli (GPa) = 69.38678 42.05915 63.42308
#
# Poissons Ratio (x) = 0.07459 0.31961
# Poissons Ratio (y) = 0.12305 0.56547
# Poissons Ratio (z) = 0.34967 0.37499
#
# Static dielectric constant tensor:
#      x y z
#    x 1.673220 -0.012490 0.003540 
#    y -0.012490 1.660440 -0.003300 
#    z 0.003540 -0.003300 1.675250 
# 
# From -- ./inp_files/49365.got.cif
#   From: 2010.05.17/outbox.cif.g08.bks.cpg/sg2_25_cif.got.tgz:49365.got - 2010.06.03 11:33:40.
