data_PCOD9105904
_publ_section_title
;
Structure prediction by ZEFSAII (Michael W. Deem and Ramdas Pophale) SiO2 
 PCOD9105904
Probable space group: P -1
;
_chemical_formula_sum "Si O2"
_cell_formula_units_Z 14
_cell_length_a 7.649756
_cell_length_b 17.549532
_cell_length_c 9.563844
_cell_angle_alpha 51.991809
_cell_angle_beta 83.576916
_cell_angle_gamma 122.736636
_cell_volume 630.783087
_symmetry_space_group_name_H-M "P -1"
_symmetry_group_IT_number 2
_symmetry_cell_setting 'triclinic'
loop_
_space_group_symop_operation_xyz
x,y,z
-x,-y,-z
loop_
_atom_site_type_symbol
_atom_site_label
_atom_site_fract_x
_atom_site_fract_y
_atom_site_fract_z
Si Si1 0.777485 0.451814 0.878909
Si Si2 0.162100 0.297656 0.890131
Si Si3 0.305914 0.057983 0.000118
Si Si4 0.046483 0.634431 0.381561
Si Si5 0.259609 0.499810 0.859481
Si Si6 0.748262 0.758364 0.324351
Si Si7 0.171222 0.109662 0.228715
O O1 0.873474 0.565594 0.618985
O O2 0.018072 0.472044 0.858326
O O3 0.742734 0.490873 0.984920
O O4 0.483221 0.278032 0.055389
O O5 0.022009 0.137574 0.134714
O O6 0.039448 0.335188 0.773482
O O7 0.226232 0.377642 0.940245
O O8 0.357862 0.337090 0.702421
O O9 0.212721 0.046852 0.177617
O O10 0.638131 0.194577 0.813941
O O11 0.270618 0.136139 0.816896
O O12 0.080883 0.881897 0.171097
O O13 0.000000 0.500000 0.500000
O O14 0.555229 0.654471 0.589309
O O15 0.000000 0.000000 0.500000
#
# Coordination Sequence:
#
# PCOD9105904 Si02
#       7
#     2   2   2   2   2   2   2
#     4  11  24  40  69  95 136 173 213 268 331 380
#     4  11  25  41  71  97 129 172 224 267 327 383
#     4  10  20  39  66  93 130 174 215 263 327 379
#     4  12  21  43  69  98 132 173 218 267 319 398
#     4  11  22  42  64 102 128 174 218 268 322 392
#     4  10  21  38  66  97 129 170 220 269 314 390
#     4  11  24  44  65  95 131 172 215 277 329 384
#
# _framework density 22.194635000000002
#
# number of rings (size 3 to 8) (size 9 to 14) (size 15 to 20)
#    0.000    1.143    4.286    1.286    4.000    1.143 
#    2.571    2.857    0.000    0.000    0.000    0.000 
#    0.000    0.000    0.000    0.000    0.000    0.000 
#
# Total GULP energy -78059.089131 kJ/mol
# GULP energy per Si atom -5575.649224 kJ/mol
# Density = 2.214412 g / cm^3
# Si number density = 22.194635 Si / 1000 Ang^3
#
#
#
# Elastic Constant Matrix: (Units=GPa)
#
#
# Indices 1 2 3 4 5 6 
#
# 1 81.6158 18.9763 33.2840 -2.6501 9.1047 -3.6949
# 2 18.9763 117.0425 45.8313 27.9943 -5.9468 -19.7001
# 3 33.2840 45.8313 156.6026 27.9979 -5.9056 -3.7238
# 4 -2.6501 27.9943 27.9979 43.5918 7.8780 -5.8817
# 5 9.1047 -5.9468 -5.9056 7.8780 26.7461 9.5722
# 6 -3.6949 -19.7001 -3.7238 -5.8817 9.5722 32.1566
#
#
#
# Elastic Compliance Matrix: (Units=1/GPa)
#
#
# Indices 1 2 3 4 5 6 
#
# 1 0.016447 -0.002680 -0.004506 0.008271 -0.011270 0.004594
# 2 -0.002680 0.012226 -0.001485 -0.007121 0.003758 0.004589
# 3 -0.004506 -0.001485 0.009167 -0.006869 0.006527 -0.003565
# 4 0.008271 -0.007121 -0.006869 0.037177 -0.019915 0.008521
# 5 -0.011270 0.003758 0.006527 -0.019915 0.056007 -0.018551
# 6 0.004594 0.004589 -0.003565 0.008521 -0.018551 0.041105
#
#
# Mechanical properties :
#
#
# Convention : Reuss Voigt Hill
#
# Bulk Modulus (GPa) = 48.78138 61.27156 55.02647
# Shear Modulus (GPa) = 25.47080 37.64354 31.55717
#
# Velocity S-wave (km/s) = 3.39132 4.12280 3.77482
# Velocity P-wave (km/s) = 6.11239 7.09434 6.62159
#
# Compressibility (1/GPa) = 0.02049963
#
# Stress axis : x y z
#
# Youngs Moduli (GPa) = 60.80155 81.79062 109.08506
#
# Poissons Ratio (x) = 0.21919 0.49152
# Poissons Ratio (y) = 0.16295 0.16195
# Poissons Ratio (z) = 0.27396 0.12143
#
# Static dielectric constant tensor:
#      x y z
#    x 1.954400 0.061470 -0.058510 
#    y 0.061470 1.893360 -0.058860 
#    z -0.058510 -0.058860 1.786200 
# 
# From -- ./inp_files/217038.got.cif
#   From: 2010.05.17/outbox.cif.g08.bks.cpg/sg2_109_cif.got.tgz:217038.got - 2010.06.03 11:33:40.
