data_PCOD9105151
_publ_section_title
;
Structure prediction by ZEFSAII (Michael W. Deem and Ramdas Pophale) SiO2 
 PCOD9105151
Probable space group: P -1
;
_chemical_formula_sum "Si O2"
_cell_formula_units_Z 16
_cell_length_a 9.992537
_cell_length_b 12.975661
_cell_length_c 7.371241
_cell_angle_alpha 130.486861
_cell_angle_beta 90.367601
_cell_angle_gamma 66.755717
_cell_volume 623.763786
_symmetry_space_group_name_H-M "P -1"
_symmetry_group_IT_number 2
_symmetry_cell_setting 'triclinic'
loop_
_space_group_symop_operation_xyz
x,y,z
-x,-y,-z
loop_
_atom_site_type_symbol
_atom_site_label
_atom_site_fract_x
_atom_site_fract_y
_atom_site_fract_z
Si Si1 0.307982 0.272074 0.023441
Si Si2 0.272454 0.672426 0.930011
Si Si3 0.863203 0.178808 0.247438
Si Si4 0.062655 0.588911 0.314582
Si Si5 0.699310 0.151955 0.569454
Si Si6 0.068526 0.188308 0.775076
Si Si7 0.474109 0.051637 0.271108
Si Si8 0.756992 0.621248 0.443432
O O1 0.230885 0.434568 0.097711
O O2 0.293622 0.331219 0.295449
O O3 0.186208 0.212562 0.928104
O O4 0.473951 0.112329 0.811511
O O5 0.276551 0.738125 0.806339
O O6 0.305012 0.495344 0.738072
O O7 0.361973 0.708995 0.126139
O O8 0.086311 0.780144 0.090308
O O9 0.926559 0.298888 0.407742
O O10 0.793573 0.179333 0.443394
O O11 0.000000 0.000000 0.000000
O O12 0.941906 0.538557 0.325678
O O13 0.994382 0.689678 0.249613
O O14 0.581552 0.117093 0.420612
O O15 0.824738 0.992122 0.491544
O O16 0.308221 0.210507 0.466983
O O17 0.500000 0.000000 0.000000
#
# Coordination Sequence:
#
# PCOD9105151 Si02
#       8
#     2   2   2   2   2   2   2   2
#     4  10  20  39  63  93 127 170 219 271 320 379
#     4  12  22  39  64  98 135 169 216 274 322 390
#     4  12  24  37  67 101 134 173 216 268 337 384
#     4  12  22  36  66 103 129 169 219 271 329 382
#     4  11  24  44  63  96 138 174 212 273 329 385
#     4  11  21  37  62  98 135 166 210 275 333 373
#     4   9  23  45  70  87 132 180 214 270 330 387
#     4  11  23  40  66  98 129 175 222 266 326 387
#
# _framework density 25.650734
#
# number of rings (size 3 to 8) (size 9 to 14) (size 15 to 20)
#    0.000    1.000    5.000    2.625    3.500    0.500 
#    0.000    3.125    2.750    0.000    0.000    0.000 
#    0.000    0.000    0.000    0.000    0.000    0.000 
#
# Total GULP energy -89530.565554 kJ/mol
# GULP energy per Si atom -5595.660347 kJ/mol
# Density = 2.559235 g / cm^3
# Si number density = 25.650734 Si / 1000 Ang^3
#
#
#
# Elastic Constant Matrix: (Units=GPa)
#
#
# Indices 1 2 3 4 5 6 
#
# 1 43.4791 20.4647 35.9144 -3.9298 20.0525 0.0310
# 2 20.4647 142.6298 55.8845 24.4562 -4.3374 3.9138
# 3 35.9144 55.8845 169.2494 10.2215 42.1822 -6.1797
# 4 -3.9298 24.4562 10.2215 44.4187 -12.1226 1.1977
# 5 20.0525 -4.3374 42.1822 -12.1226 41.0719 2.7088
# 6 0.0310 3.9138 -6.1797 1.1977 2.7088 28.3007
#
#
#
# Elastic Compliance Matrix: (Units=1/GPa)
#
#
# Indices 1 2 3 4 5 6 
#
# 1 0.033833 -0.004903 -0.002059 0.002206 -0.014368 0.001473
# 2 -0.004903 0.010041 -0.003832 -0.003199 0.006625 -0.002719
# 3 -0.002059 -0.003832 0.011068 -0.004079 -0.012254 0.004294
# 4 0.002206 -0.003199 -0.004079 0.028592 0.011395 -0.002752
# 5 -0.014368 0.006625 -0.012254 0.011395 0.048585 -0.008709
# 6 0.001473 -0.002719 0.004294 -0.002752 -0.008709 0.037597
#
#
# Mechanical properties :
#
#
# Convention : Reuss Voigt Hill
#
# Bulk Modulus (GPa) = 29.98253 64.43171 47.20712
# Shear Modulus (GPa) = 24.70100 38.96458 31.83279
#
# Velocity S-wave (km/s) = 3.10655 3.90172 3.52662
# Velocity P-wave (km/s) = 4.95799 6.74324 5.91832
#
# Compressibility (1/GPa) = 0.03335276
#
# Stress axis : x y z
#
# Youngs Moduli (GPa) = 29.55730 99.59423 90.35179
#
# Poissons Ratio (x) = 0.48833 0.18602
# Poissons Ratio (y) = 0.14493 0.34625
# Poissons Ratio (z) = 0.06085 0.38166
#
# Static dielectric constant tensor:
#      x y z
#    x 2.010860 -0.011100 -0.015330 
#    y -0.011100 2.101780 -0.033280 
#    z -0.015330 -0.033280 2.040960 
# 
# From -- ./inp_files/316803.got.cif
#   From: 2010.05.17/outbox.cif.g08.bks.cpg/sg2_159_cif.got.tgz:316803.got - 2010.06.03 11:33:40.
