data_PCOD9105058
_publ_section_title
;
Structure prediction by ZEFSAII (Michael W. Deem and Ramdas Pophale) SiO2 
 PCOD9105058
Probable space group: P -1
;
_chemical_formula_sum "Si O2"
_cell_formula_units_Z 16
_cell_length_a 17.994885
_cell_length_b 8.093223
_cell_length_c 8.094980
_cell_angle_alpha 53.862360
_cell_angle_beta 103.265196
_cell_angle_gamma 63.618415
_cell_volume 625.908439
_symmetry_space_group_name_H-M "P -1"
_symmetry_group_IT_number 2
_symmetry_cell_setting 'triclinic'
loop_
_space_group_symop_operation_xyz
x,y,z
-x,-y,-z
loop_
_atom_site_type_symbol
_atom_site_label
_atom_site_fract_x
_atom_site_fract_y
_atom_site_fract_z
Si Si1 0.221866 0.764639 0.880380
Si Si2 0.764641 0.023656 0.738501
Si Si3 0.664076 0.844519 0.223726
Si Si4 0.837217 0.723038 0.615953
Si Si5 0.040859 0.036729 0.160823
Si Si6 0.827434 0.487952 0.229487
Si Si7 0.612249 0.561020 0.554067
Si Si8 0.553783 0.478456 0.873784
O O1 0.184888 0.621984 0.876266
O O2 0.142356 0.109303 0.578787
O O3 0.266539 0.668376 0.147386
O O4 0.340716 0.597769 0.958425
O O5 0.825730 0.732090 0.053104
O O6 0.843105 0.067252 0.736661
O O7 0.760118 0.931371 0.610558
O O8 0.644772 0.328364 0.571391
O O9 0.770817 0.699540 0.477390
O O10 0.717171 0.670929 0.181005
O O11 0.595413 0.806859 0.307595
O O12 0.598091 0.187199 0.975139
O O13 0.948680 0.394387 0.934230
O O14 0.065717 0.817146 0.440607
O O15 0.000000 0.000000 0.000000
O O16 0.521719 0.685908 0.577252
O O17 0.500000 0.500000 0.000000
#
# Coordination Sequence:
#
# PCOD9105058 Si02
#       8
#     2   2   2   2   2   2   2   2
#     4   9  21  39  64  84 124 155 202 237 314 351
#     4  12  23  38  64  85 122 165 205 245 303 351
#     4  11  20  40  64  85 127 160 196 245 307 357
#     4  11  21  41  58  88 121 163 201 256 293 347
#     4  12  25  40  58  87 126 157 214 253 291 345
#     4  12  22  40  60  89 117 167 200 248 298 358
#     4  10  20  39  63  90 115 165 194 241 306 365
#     4   9  21  40  65  94 121 150 199 250 298 366
#
# _framework density 25.562844999999999
#
# number of rings (size 3 to 8) (size 9 to 14) (size 15 to 20)
#    0.750    0.500    5.000    1.125    0.000    1.500 
#    2.250    0.625    0.000    3.750    0.000    0.000 
#    0.000    0.000    0.000    0.000    0.000    0.000 
#
# Total GULP energy -89405.706818 kJ/mol
# GULP energy per Si atom -5587.856676 kJ/mol
# Density = 2.550466 g / cm^3
# Si number density = 25.562845 Si / 1000 Ang^3
#
#
#
# Elastic Constant Matrix: (Units=GPa)
#
#
# Indices 1 2 3 4 5 6 
#
# 1 83.1191 12.1844 20.2812 -3.9582 -28.6792 -1.7949
# 2 12.1844 88.1925 -10.5113 2.9869 5.7127 0.9589
# 3 20.2812 -10.5113 75.8091 12.6748 -15.0788 15.8884
# 4 -3.9582 2.9869 12.6748 18.0632 1.0209 -11.5753
# 5 -28.6792 5.7127 -15.0788 1.0209 45.4872 -1.0512
# 6 -1.7949 0.9589 15.8884 -11.5753 -1.0512 42.2782
#
#
#
# Elastic Compliance Matrix: (Units=1/GPa)
#
#
# Indices 1 2 3 4 5 6 
#
# 1 0.019052 -0.004873 -0.008261 0.015719 0.009731 0.008570
# 2 -0.004873 0.013264 0.005494 -0.010491 -0.002809 -0.005515
# 3 -0.008261 0.005494 0.026719 -0.034370 0.003271 -0.019845
# 4 0.015719 -0.010491 -0.034370 0.113495 -0.001676 0.044854
# 5 0.009731 -0.002809 0.003271 -0.001676 0.029583 -0.000476
# 6 0.008570 -0.005515 -0.019845 0.044854 -0.000476 0.043868
#
#
# Mechanical properties :
#
#
# Convention : Reuss Voigt Hill
#
# Bulk Modulus (GPa) = 22.85456 32.33659 27.59557
# Shear Modulus (GPa) = 18.12593 36.17682 27.15138
#
# Velocity S-wave (km/s) = 2.66573 3.76601 3.26259
# Velocity P-wave (km/s) = 4.29357 5.62030 5.00113
#
# Compressibility (1/GPa) = 0.04375494
#
# Stress axis : x y z
#
# Youngs Moduli (GPa) = 52.48762 75.39183 37.42608
#
# Poissons Ratio (x) = 0.36736 0.30919
# Poissons Ratio (y) = 0.25576 -0.20561
# Poissons Ratio (z) = 0.43362 -0.41419
#
# Static dielectric constant tensor:
#      x y z
#    x 2.025800 -0.051770 0.042710 
#    y -0.051770 1.986450 0.008730 
#    z 0.042710 0.008730 2.037330 
# 
# From -- ./inp_files/356392.got.cif
#   From: 2010.05.17/outbox.cif.g08.bks.cpg/sg2_179_cif.got.tgz:356392.got - 2010.06.03 11:33:40.
