data_PCOD9105651
_publ_section_title
;
Structure prediction by ZEFSAII (Michael W. Deem and Ramdas Pophale) SiO2 
 PCOD9105651
Probable space group: P -1
;
_chemical_formula_sum "Si O2"
_cell_formula_units_Z 16
_cell_length_a 11.121298
_cell_length_b 12.376689
_cell_length_c 11.399729
_cell_angle_alpha 52.771887
_cell_angle_beta 116.894173
_cell_angle_gamma 76.207967
_cell_volume 771.991997
_symmetry_space_group_name_H-M "P -1"
_symmetry_group_IT_number 2
_symmetry_cell_setting 'triclinic'
loop_
_space_group_symop_operation_xyz
x,y,z
-x,-y,-z
loop_
_atom_site_type_symbol
_atom_site_label
_atom_site_fract_x
_atom_site_fract_y
_atom_site_fract_z
Si Si1 0.890213 0.906434 0.725109
Si Si2 0.277836 0.480128 0.144766
Si Si3 0.534478 0.497778 0.379870
Si Si4 0.738811 0.896193 0.095166
Si Si5 0.559028 0.758060 0.101600
Si Si6 0.044431 0.905029 0.208899
Si Si7 0.549617 0.063864 0.650658
Si Si8 0.470924 0.801055 0.773218
O O1 0.733898 0.967315 0.713101
O O2 0.998513 0.955178 0.801028
O O3 0.750985 0.058725 0.458686
O O4 0.046918 0.676523 0.912837
O O5 0.367002 0.549831 0.196847
O O6 0.377741 0.380408 0.128756
O O7 0.367040 0.291692 0.386151
O O8 0.500000 0.500000 0.500000
O O9 0.568634 0.629428 0.280928
O O10 0.727187 0.282633 0.565176
O O11 0.738948 0.732711 0.195749
O O12 0.932767 0.844184 0.212722
O O13 0.616998 0.029186 0.837941
O O14 0.623489 0.020095 0.080531
O O15 0.517190 0.729831 0.973581
O O16 0.000000 0.000000 0.000000
O O17 0.501191 0.941959 0.687317
#
# Coordination Sequence:
#
# PCOD9105651 Si02
#       8
#     2   2   2   2   2   2   2   2
#     4  11  21  37  63  98 126 170 212 265 310 375
#     4  11  21  38  63  94 127 166 216 261 314 373
#     4  12  24  40  67  96 121 165 219 270 322 380
#     4  10  21  41  64  92 128 170 205 267 325 373
#     4  10  23  43  64  88 130 169 210 260 328 384
#     4  12  21  39  65  96 129 158 218 269 312 372
#     4  10  20  39  65  93 129 165 214 266 317 370
#     4  10  23  42  60  91 133 173 208 258 321 385
#
# _framework density 20.725605000000002
#
# number of rings (size 3 to 8) (size 9 to 14) (size 15 to 20)
#    0.000    1.250    3.750    4.500    0.000    3.000 
#    2.250    1.250    0.000    0.000    0.000    0.000 
#    0.000    0.000    0.000    0.000    0.000    0.000 
#
# Total GULP energy -89343.155676 kJ/mol
# GULP energy per Si atom -5583.947230 kJ/mol
# Density = 2.067843 g / cm^3
# Si number density = 20.725605 Si / 1000 Ang^3
#
#
#
# Elastic Constant Matrix: (Units=GPa)
#
#
# Indices 1 2 3 4 5 6 
#
# 1 89.9934 27.8253 37.5331 1.9469 -7.7374 4.2538
# 2 27.8253 117.2744 42.6776 4.1345 7.5876 -12.3869
# 3 37.5331 42.6776 75.5819 -16.8577 7.4445 -6.2074
# 4 1.9469 4.1345 -16.8577 36.5359 -5.2570 1.8966
# 5 -7.7374 7.5876 7.4445 -5.2570 32.0012 0.1145
# 6 4.2538 -12.3869 -6.2074 1.8966 0.1145 28.5960
#
#
#
# Elastic Compliance Matrix: (Units=1/GPa)
#
#
# Indices 1 2 3 4 5 6 
#
# 1 0.016075 -0.001231 -0.009089 -0.003852 0.005677 -0.004665
# 2 -0.001231 0.012043 -0.006706 -0.004962 -0.002424 0.004283
# 3 -0.009089 -0.006706 0.024881 0.011923 -0.004448 0.003075
# 4 -0.003852 -0.004962 0.011923 0.034148 0.003086 -0.001265
# 5 0.005677 -0.002424 -0.004448 0.003086 0.034749 -0.003204
# 6 -0.004665 0.004283 0.003075 -0.001265 -0.003204 0.038283
#
#
# Mechanical properties :
#
#
# Convention : Reuss Voigt Hill
#
# Bulk Modulus (GPa) = 52.77495 55.43575 54.10535
# Shear Modulus (GPa) = 24.93181 31.08088 28.00634
#
# Velocity S-wave (km/s) = 3.47212 3.87672 3.67998
# Velocity P-wave (km/s) = 6.44927 6.84428 6.64970
#
# Compressibility (1/GPa) = 0.01894838
#
# Stress axis : x y z
#
# Youngs Moduli (GPa) = 62.20786 83.03339 40.19176
#
# Poissons Ratio (x) = 0.10218 0.36532
# Poissons Ratio (y) = 0.07655 0.26951
# Poissons Ratio (z) = 0.56543 0.55678
#
# Static dielectric constant tensor:
#      x y z
#    x 1.765330 0.030900 -0.017150 
#    y 0.030900 1.777560 -0.018840 
#    z -0.017150 -0.018840 1.721950 
# 
# From -- ./inp_files/427628.got.cif
#   From: 2010.05.17/outbox.cif.g08.bks.cpg/sg2_214_cif.got.tgz:427628.got - 2010.06.03 11:33:40.
