data_PCOD9105473
_publ_section_title
;
Structure prediction by ZEFSAII (Michael W. Deem and Ramdas Pophale) SiO2 
 PCOD9105473
Probable space group: P -1
;
_chemical_formula_sum "Si O2"
_cell_formula_units_Z 14
_cell_length_a 8.297308
_cell_length_b 16.939091
_cell_length_c 14.844081
_cell_angle_alpha 27.659237
_cell_angle_beta 140.507390
_cell_angle_gamma 138.531631
_cell_volume 600.447406
_symmetry_space_group_name_H-M "P -1"
_symmetry_group_IT_number 2
_symmetry_cell_setting 'triclinic'
loop_
_space_group_symop_operation_xyz
x,y,z
-x,-y,-z
loop_
_atom_site_type_symbol
_atom_site_label
_atom_site_fract_x
_atom_site_fract_y
_atom_site_fract_z
Si Si1 0.084283 0.189706 0.896651
Si Si2 0.516358 0.281536 0.128243
Si Si3 0.595831 0.933658 0.446293
Si Si4 0.867252 0.107817 0.222260
Si Si5 0.034742 0.680233 0.464742
Si Si6 0.908338 0.573409 0.097700
Si Si7 0.784521 0.968963 0.144104
O O1 0.014009 0.323013 0.659953
O O2 0.367949 0.276346 0.973183
O O3 0.000000 0.000000 0.000000
O O4 0.928530 0.128912 0.982486
O O5 0.581252 0.091658 0.347810
O O6 0.772807 0.426984 0.115186
O O7 0.312832 0.322123 0.073573
O O8 0.634652 0.021475 0.274663
O O9 0.331220 0.792469 0.487534
O O10 0.855541 0.860880 0.639988
O O11 0.888303 0.979274 0.279709
O O12 0.858964 0.289978 0.987400
O O13 0.017291 0.517623 0.687772
O O14 0.835975 0.793672 0.301132
O O15 0.500000 0.000000 0.000000
#
# Coordination Sequence:
#
# PCOD9105473 Si02
#       7
#     2   2   2   2   2   2   2
#     4  10  20  39  64  97 123 172 220 266 312 380
#     4  11  21  40  68  93 130 176 214 269 313 400
#     4  11  22  41  70  94 126 173 230 258 317 382
#     4  11  24  41  64 100 132 170 213 278 317 382
#     4  11  23  41  70  99 128 171 218 268 325 390
#     4  11  24  41  64 101 134 166 214 268 339 376
#     4  11  22  40  68  94 127 171 226 268 311 382
#
# _framework density 23.315947000000001
#
# number of rings (size 3 to 8) (size 9 to 14) (size 15 to 20)
#    0.000    1.143    4.286    3.429    2.000    2.857 
#    0.000    3.571    0.000    0.000    0.000    0.000 
#    0.000    0.000    0.000    0.000    0.000    0.000 
#
# Total GULP energy -78103.006925 kJ/mol
# GULP energy per Si atom -5578.786209 kJ/mol
# Density = 2.326288 g / cm^3
# Si number density = 23.315947 Si / 1000 Ang^3
#
#
#
# Elastic Constant Matrix: (Units=GPa)
#
#
# Indices 1 2 3 4 5 6 
#
# 1 74.9261 -12.0813 38.7395 -11.5103 -16.9828 -7.9150
# 2 -12.0813 46.7120 12.0698 4.0190 -7.1908 -21.1054
# 3 38.7395 12.0698 115.4052 -10.8169 -20.2646 4.1738
# 4 -11.5103 4.0190 -10.8169 38.4454 5.0555 0.2128
# 5 -16.9828 -7.1908 -20.2646 5.0555 39.7602 3.9483
# 6 -7.9150 -21.1054 4.1738 0.2128 3.9483 26.0382
#
#
#
# Elastic Compliance Matrix: (Units=1/GPa)
#
#
# Indices 1 2 3 4 5 6 
#
# 1 0.028426 0.024686 -0.011726 0.001479 0.007524 0.029376
# 2 0.024686 0.059041 -0.015480 -0.004540 0.008287 0.056621
# 3 -0.011726 -0.015480 0.015405 0.002333 0.001618 -0.018845
# 4 0.001479 -0.004540 0.002333 0.027893 -0.002199 -0.003499
# 5 0.007524 0.008287 0.001618 -0.002199 0.030557 0.004129
# 6 0.029376 0.056621 -0.018845 -0.003499 0.004129 0.095653
#
#
# Mechanical properties :
#
#
# Convention : Reuss Voigt Hill
#
# Bulk Modulus (GPa) = 10.22174 34.94435 22.58305
# Shear Modulus (GPa) = 16.97069 34.06977 25.52023
#
# Velocity S-wave (km/s) = 2.70081 3.82674 3.31197
# Velocity P-wave (km/s) = 3.75757 5.87751 4.93277
#
# Compressibility (1/GPa) = 0.09783067
#
# Stress axis : x y z
#
# Youngs Moduli (GPa) = 35.17950 16.93741 64.91513
#
# Poissons Ratio (x) = -0.41811 0.76122
# Poissons Ratio (y) = -0.86843 1.00486
# Poissons Ratio (z) = 0.41253 0.26218
#
# Static dielectric constant tensor:
#      x y z
#    x 1.873850 -0.008900 -0.006440 
#    y -0.008900 1.945850 0.032180 
#    z -0.006440 0.032180 2.012320 
# 
# From -- ./inp_files/507262.got.cif
#   From: 2010.05.17/outbox.cif.g08.bks.cpg/sg2_254_cif.got.tgz:507262.got - 2010.06.03 11:33:40.
