data_PCOD9105663
_publ_section_title
;
Structure prediction by ZEFSAII (Michael W. Deem and Ramdas Pophale) SiO2 
 PCOD9105663
Probable space group: P -1
;
_chemical_formula_sum "Si O2"
_cell_formula_units_Z 14
_cell_length_a 9.264720
_cell_length_b 11.687181
_cell_length_c 12.436345
_cell_angle_alpha 57.657422
_cell_angle_beta 109.412244
_cell_angle_gamma 151.154275
_cell_volume 517.312227
_symmetry_space_group_name_H-M "P -1"
_symmetry_group_IT_number 2
_symmetry_cell_setting 'triclinic'
loop_
_space_group_symop_operation_xyz
x,y,z
-x,-y,-z
loop_
_atom_site_type_symbol
_atom_site_label
_atom_site_fract_x
_atom_site_fract_y
_atom_site_fract_z
Si Si1 0.125392 0.722173 0.346740
Si Si2 0.577947 0.695962 0.330921
Si Si3 0.703833 0.023514 0.017924
Si Si4 0.745145 0.073713 0.293809
Si Si5 0.873325 0.105127 0.534818
Si Si6 0.685075 0.472662 0.952109
Si Si7 0.588984 0.489425 0.257516
O O1 0.209512 0.896038 0.370984
O O2 0.000000 0.500000 0.500000
O O3 0.860648 0.585098 0.275038
O O4 0.420446 0.891668 0.270122
O O5 0.601256 0.836200 0.179090
O O6 0.683699 0.656768 0.298897
O O7 0.242754 0.390715 0.450192
O O8 0.730577 0.900398 0.362508
O O9 0.587088 0.851752 0.967965
O O10 0.080320 0.338704 0.981291
O O11 0.500000 0.000000 0.000000
O O12 0.749690 0.101300 0.408179
O O13 0.051260 0.356037 0.161646
O O14 0.719166 0.838960 0.630886
O O15 0.514782 0.483767 0.874365
#
# Coordination Sequence:
#
# PCOD9105663 Si02
#       7
#     2   2   2   2   2   2   2
#     4  12  25  36  52  83 126 169 210 243 286 350
#     4  10  22  37  59  85 120 150 207 246 304 360
#     4  10  20  39  65  94 118 146 197 267 318 358
#     4  11  22  40  53  84 124 160 205 246 291 359
#     4  12  21  35  57  78 125 163 208 235 296 345
#     4  10  23  40  63  92 122 155 204 249 310 372
#     4  11  24  37  57  86 121 170 200 248 294 357
#
# _framework density 27.062961000000001
#
# number of rings (size 3 to 8) (size 9 to 14) (size 15 to 20)
#    0.000    1.143    5.714    1.286    6.000    1.143 
#    0.000    0.000    0.000    0.000    0.000   33.000 
#    0.000    0.000    0.000    0.000    0.000    0.000 
#
# Total GULP energy -78242.796574 kJ/mol
# GULP energy per Si atom -5588.771184 kJ/mol
# Density = 2.700136 g / cm^3
# Si number density = 27.062961 Si / 1000 Ang^3
#
#
#
# Elastic Constant Matrix: (Units=GPa)
#
#
# Indices 1 2 3 4 5 6 
#
# 1 131.4572 61.7168 34.4670 22.1446 20.4233 28.8212
# 2 61.7168 164.5006 31.9500 10.3938 11.9983 9.2813
# 3 34.4670 31.9500 101.9081 8.6794 20.7011 -10.5013
# 4 22.1446 10.3938 8.6794 38.8805 -1.8207 7.1053
# 5 20.4233 11.9983 20.7011 -1.8207 41.8283 15.5742
# 6 28.8212 9.2813 -10.5013 7.1053 15.5742 51.9377
#
#
#
# Elastic Compliance Matrix: (Units=1/GPa)
#
#
# Indices 1 2 3 4 5 6 
#
# 1 0.012160 -0.003268 -0.002969 -0.004428 -0.001610 -0.005676
# 2 -0.003268 0.007530 -0.001234 0.000083 -0.000030 0.000216
# 3 -0.002969 -0.001234 0.013813 -0.002789 -0.007915 0.007416
# 4 -0.004428 0.000083 -0.002789 0.029892 0.006352 -0.004116
# 5 -0.001610 -0.000030 -0.007915 0.006352 0.033186 -0.011522
# 6 -0.005676 0.000216 0.007416 -0.004116 -0.011522 0.027882
#
#
# Mechanical properties :
#
#
# Convention : Reuss Voigt Hill
#
# Bulk Modulus (GPa) = 53.87586 72.68149 63.27868
# Shear Modulus (GPa) = 34.34270 44.51145 39.42708
#
# Velocity S-wave (km/s) = 3.56616 4.05994 3.82103
# Velocity P-wave (km/s) = 6.07515 6.99229 6.54980
#
# Compressibility (1/GPa) = 0.01856119
#
# Stress axis : x y z
#
# Youngs Moduli (GPa) = 82.23591 132.80981 72.39392
#
# Poissons Ratio (x) = 0.43404 0.21492
# Poissons Ratio (y) = 0.26876 0.08933
# Poissons Ratio (z) = 0.24414 0.16388
#
# Static dielectric constant tensor:
#      x y z
#    x 2.140660 0.014170 0.021740 
#    y 0.014170 2.280670 0.145350 
#    z 0.021740 0.145350 2.137300 
# 
# From -- ./inp_files/559795.got.cif
#   From: 2010.05.17/outbox.cif.g08.bks.cpg/sg2_280_cif.got.tgz:559795.got - 2010.06.03 11:33:40.
