data_PCOD9105879
_publ_section_title
;
Structure prediction by ZEFSAII (Michael W. Deem and Ramdas Pophale) SiO2 
 PCOD9105879
Probable space group: P -1
;
_chemical_formula_sum "Si O2"
_cell_formula_units_Z 16
_cell_length_a 5.748059
_cell_length_b 26.134664
_cell_length_c 6.557422
_cell_angle_alpha 136.086492
_cell_angle_beta 106.538284
_cell_angle_gamma 73.356768
_cell_volume 650.037319
_symmetry_space_group_name_H-M "P -1"
_symmetry_group_IT_number 2
_symmetry_cell_setting 'triclinic'
loop_
_space_group_symop_operation_xyz
x,y,z
-x,-y,-z
loop_
_atom_site_type_symbol
_atom_site_label
_atom_site_fract_x
_atom_site_fract_y
_atom_site_fract_z
Si Si1 0.180674 0.735934 0.459206
Si Si2 0.668960 0.518603 0.781825
Si Si3 0.571341 0.237132 0.786836
Si Si4 0.209103 0.134679 0.336066
Si Si5 0.664411 0.973512 0.272367
Si Si6 0.175182 0.369784 0.133550
Si Si7 0.926280 0.103637 0.560041
Si Si8 0.519294 0.389930 0.615430
O O1 0.381211 0.766692 0.454616
O O2 0.325273 0.690069 0.542939
O O3 0.980775 0.804969 0.656973
O O4 0.035808 0.680931 0.121102
O O5 0.500000 0.500000 0.500000
O O6 0.866187 0.560779 0.832724
O O7 0.694140 0.442088 0.693721
O O8 0.539173 0.576693 0.079061
O O9 0.367039 0.186215 0.654714
O O10 0.817644 0.190438 0.797724
O O11 0.440579 0.320436 0.019208
O O12 0.054952 0.092745 0.339127
O O13 0.383118 0.082712 0.080686
O O14 0.888236 0.924448 0.297959
O O15 0.500000 0.000000 0.500000
O O16 0.729761 0.047004 0.387550
O O17 0.251882 0.393404 0.447345
#
# Coordination Sequence:
#
# PCOD9105879 Si02
#       8
#     2   2   2   2   2   2   2   2
#     4  10  22  41  62  97 127 172 223 265 329 392
#     4   9  19  39  64  93 130 166 216 270 317 390
#     4  10  21  42  62  89 130 164 210 275 321 380
#     4  10  23  43  64  92 130 172 215 271 327 386
#     4  11  24  41  64  97 128 165 220 269 323 401
#     4  10  21  40  62  92 132 164 216 272 320 393
#     4  10  23  41  64  93 126 170 216 264 331 388
#     4  10  20  39  66  92 128 173 210 269 333 376
#
# _framework density 24.613972
#
# number of rings (size 3 to 8) (size 9 to 14) (size 15 to 20)
#    0.000    2.000    1.250    1.125    1.750    6.500 
#    9.000    5.625    0.000    0.000    0.000    0.000 
#    0.000    0.000    0.000    0.000    0.000    0.000 
#
# Total GULP energy -89172.879650 kJ/mol
# GULP energy per Si atom -5573.304978 kJ/mol
# Density = 2.455795 g / cm^3
# Si number density = 24.613972 Si / 1000 Ang^3
#
#
#
# Elastic Constant Matrix: (Units=GPa)
#
#
# Indices 1 2 3 4 5 6 
#
# 1 59.3892 24.5305 21.8092 -6.1469 -5.4827 15.7786
# 2 24.5305 155.6284 14.0613 -17.3686 6.0197 5.9895
# 3 21.8092 14.0613 89.6513 -9.8536 -13.3880 16.3529
# 4 -6.1469 -17.3686 -9.8536 31.4140 -6.5671 11.5826
# 5 -5.4827 6.0197 -13.3880 -6.5671 25.1946 1.9775
# 6 15.7786 5.9895 16.3529 11.5826 1.9775 44.4150
#
#
#
# Elastic Compliance Matrix: (Units=1/GPa)
#
#
# Indices 1 2 3 4 5 6 
#
# 1 0.022339 -0.002475 -0.001388 0.007587 0.007430 -0.009401
# 2 -0.002475 0.007317 -0.000205 0.003532 -0.001405 -0.000891
# 3 -0.001388 -0.000205 0.015907 0.010142 0.011510 -0.008493
# 4 0.007587 0.003532 0.010142 0.050608 0.021039 -0.021040
# 5 0.007430 -0.001405 0.011510 0.021039 0.054390 -0.014596
# 6 -0.009401 -0.000891 -0.008493 -0.021040 -0.014596 0.035239
#
#
# Mechanical properties :
#
#
# Convention : Reuss Voigt Hill
#
# Bulk Modulus (GPa) = 26.71810 47.27455 36.99632
# Shear Modulus (GPa) = 24.22377 36.48923 30.35650
#
# Velocity S-wave (km/s) = 3.14052 3.85445 3.51565
# Velocity P-wave (km/s) = 4.90192 6.24957 5.61632
#
# Compressibility (1/GPa) = 0.03742782
#
# Stress axis : x y z
#
# Youngs Moduli (GPa) = 44.76545 136.67020 62.86569
#
# Poissons Ratio (x) = 0.33820 0.08725
# Poissons Ratio (y) = 0.11077 0.01288
# Poissons Ratio (z) = 0.06213 0.02800
#
# Static dielectric constant tensor:
#      x y z
#    x 2.012840 -0.008750 0.010810 
#    y -0.008750 1.953080 0.015400 
#    z 0.010810 0.015400 2.034580 
# 
# From -- ./inp_files/14805.got.cif
#   From: 2010.05.17/outbox.cif.g08.bks.cpg/sg2_8_cif.got.tgz:14805.got - 2010.06.03 11:33:40.
