data_PCOD9105861
_publ_section_title
;
Structure prediction by ZEFSAII (Michael W. Deem and Ramdas Pophale) SiO2 
 PCOD9105861
Probable space group: P -1
;
_chemical_formula_sum "Si O2"
_cell_formula_units_Z 16
_cell_length_a 12.061718
_cell_length_b 7.860080
_cell_length_c 9.160869
_cell_angle_alpha 73.864179
_cell_angle_beta 52.633011
_cell_angle_gamma 82.320655
_cell_volume 662.366506
_symmetry_space_group_name_H-M "P -1"
_symmetry_group_IT_number 2
_symmetry_cell_setting 'triclinic'
loop_
_space_group_symop_operation_xyz
x,y,z
-x,-y,-z
loop_
_atom_site_type_symbol
_atom_site_label
_atom_site_fract_x
_atom_site_fract_y
_atom_site_fract_z
Si Si1 0.729382 0.945497 0.793194
Si Si2 0.705150 0.157628 0.194215
Si Si3 0.553811 0.237574 0.000871
Si Si4 0.227970 0.576213 0.374008
Si Si5 0.710601 0.810462 0.142439
Si Si6 0.056815 0.277933 0.433637
Si Si7 0.882666 0.505740 0.970053
Si Si8 0.418071 0.666816 0.468049
O O1 0.861389 0.903281 0.599194
O O2 0.634683 0.113103 0.849514
O O3 0.609642 0.793272 0.885115
O O4 0.777248 0.914898 0.927217
O O5 0.828306 0.305083 0.027707
O O6 0.642322 0.217389 0.382442
O O7 0.740073 0.950227 0.215600
O O8 0.594863 0.185695 0.144339
O O9 0.641121 0.416635 0.844821
O O10 0.137357 0.395412 0.463958
O O11 0.296980 0.600553 0.470844
O O12 0.108854 0.720566 0.407520
O O13 0.767490 0.617018 0.120931
O O14 0.544216 0.784627 0.266994
O O15 0.079070 0.388177 0.235555
O O16 0.000000 0.500000 0.000000
O O17 0.500000 0.500000 0.500000
#
# Coordination Sequence:
#
# PCOD9105861 Si02
#       8
#     2   2   2   2   2   2   2   2
#     4   9  20  38  64  93 122 159 210 264 313 373
#     4  11  23  40  65  94 127 163 213 270 320 377
#     4  10  20  39  66  91 120 163 211 261 315 378
#     4  11  23  41  63  90 128 168 212 261 318 383
#     4  10  22  41  63  95 126 164 215 266 319 384
#     4  10  23  39  61  92 127 167 212 259 315 387
#     4  11  22  41  65  91 128 171 216 262 320 382
#     4  12  24  40  63  96 130 169 211 270 326 378
#
# _framework density 24.155809999999999
#
# number of rings (size 3 to 8) (size 9 to 14) (size 15 to 20)
#    0.000    1.500    3.750    1.125    1.750    1.500 
#    0.000    1.250    0.000    0.000    0.000    0.000 
#    0.000    0.000    0.000    0.000    0.000    0.000 
#
# Total GULP energy -89287.049851 kJ/mol
# GULP energy per Si atom -5580.440616 kJ/mol
# Density = 2.410083 g / cm^3
# Si number density = 24.155810 Si / 1000 Ang^3
#
#
#
# Elastic Constant Matrix: (Units=GPa)
#
#
# Indices 1 2 3 4 5 6 
#
# 1 119.9086 28.7298 32.0937 17.8878 0.3180 27.2836
# 2 28.7298 94.9843 -1.2247 24.7238 3.8176 20.7416
# 3 32.0937 -1.2247 73.4280 14.3981 -4.4558 10.6775
# 4 17.8878 24.7238 14.3981 34.2946 4.4446 1.3395
# 5 0.3180 3.8176 -4.4558 4.4446 37.1506 1.4500
# 6 27.2836 20.7416 10.6775 1.3395 1.4500 22.0792
#
#
#
# Elastic Compliance Matrix: (Units=1/GPa)
#
#
# Indices 1 2 3 4 5 6 
#
# 1 0.013229 0.001042 -0.002168 -0.006233 0.000888 -0.015958
# 2 0.001042 0.019179 0.006291 -0.016377 0.001572 -0.021457
# 3 -0.002168 0.006291 0.018820 -0.011289 0.003443 -0.011874
# 4 -0.006233 -0.016377 -0.011289 0.048779 -0.006469 0.026012
# 5 0.000888 0.001572 0.003443 -0.006469 0.028158 -0.005696
# 6 -0.015958 -0.021457 -0.011874 0.026012 -0.005696 0.089706
#
#
# Mechanical properties :
#
#
# Convention : Reuss Voigt Hill
#
# Bulk Modulus (GPa) = 16.24460 45.27983 30.76221
# Shear Modulus (GPa) = 21.92414 33.95303 27.93859
#
# Velocity S-wave (km/s) = 3.01593 3.75318 3.40457
# Velocity P-wave (km/s) = 4.34365 6.12923 5.31200
#
# Compressibility (1/GPa) = 0.06155892
#
# Stress axis : x y z
#
# Youngs Moduli (GPa) = 75.59339 52.13969 53.13373
#
# Poissons Ratio (x) = -0.05433 0.11520
# Poissons Ratio (y) = -0.07877 -0.33428
# Poissons Ratio (z) = 0.16389 -0.32803
#
# Static dielectric constant tensor:
#      x y z
#    x 1.885170 -0.028470 -0.013480 
#    y -0.028470 2.121670 -0.032120 
#    z -0.013480 -0.032120 1.967490 
# 
# From -- ./inp_files/238902.got.cif
#   From: 2010.05.17/outbox.cif.g08.bks.cpg/sg2_120_cif.got.tgz:238902.got - 2010.06.03 11:33:40.
