data_PCOD9105971
_publ_section_title
;
Structure prediction by ZEFSAII (Michael W. Deem and Ramdas Pophale) SiO2 
 PCOD9105971
Probable space group: P -1
;
_chemical_formula_sum "Si O2"
_cell_formula_units_Z 16
_cell_length_a 13.734884
_cell_length_b 8.410581
_cell_length_c 9.536849
_cell_angle_alpha 107.884152
_cell_angle_beta 137.983416
_cell_angle_gamma 77.346623
_cell_volume 701.701935
_symmetry_space_group_name_H-M "P -1"
_symmetry_group_IT_number 2
_symmetry_cell_setting 'triclinic'
loop_
_space_group_symop_operation_xyz
x,y,z
-x,-y,-z
loop_
_atom_site_type_symbol
_atom_site_label
_atom_site_fract_x
_atom_site_fract_y
_atom_site_fract_z
Si Si1 0.320629 0.281183 0.388339
Si Si2 0.163652 0.006182 0.736915
Si Si3 0.481203 0.493572 0.144851
Si Si4 0.300542 0.777873 0.612575
Si Si5 0.936092 0.510499 0.708851
Si Si6 0.206162 0.943012 0.284509
Si Si7 0.953691 0.177998 0.185915
Si Si8 0.239622 0.370625 0.029824
O O1 0.433329 0.360291 0.640646
O O2 0.165668 0.365055 0.279959
O O3 0.300082 0.084893 0.342671
O O4 0.340402 0.338537 0.264853
O O5 0.275874 0.937758 0.725643
O O6 0.155234 0.886501 0.830178
O O7 0.203282 0.191088 0.876759
O O8 0.000000 0.000000 0.500000
O O9 0.556343 0.322102 0.227043
O O10 0.319660 0.483619 0.030047
O O11 0.500000 0.500000 0.000000
O O12 0.166344 0.650053 0.471049
O O13 0.290799 0.831307 0.455143
O O14 0.983694 0.636677 0.668976
O O15 0.083981 0.449058 0.919569
O O16 0.083976 0.044170 0.270236
O O17 0.126090 0.831651 0.052120
#
# Coordination Sequence:
#
# PCOD9105971 Si02
#       8
#     2   2   2   2   2   2   2   2
#     4  10  23  46  70 100 133 174 227 279 335 399
#     4  12  23  40  66 102 138 171 225 275 333 398
#     4  11  29  49  67  95 138 181 226 277 340 401
#     4  11  25  44  66  98 136 180 223 274 336 400
#     4  10  23  37  72 102 135 167 225 276 338 390
#     4  10  20  39  66  96 136 170 220 272 334 393
#     4  10  21  35  62 104 135 171 213 279 333 392
#     4  12  24  45  70  99 135 183 222 278 332 399
#
# _framework density 22.801707
#
# number of rings (size 3 to 8) (size 9 to 14) (size 15 to 20)
#    0.000    1.250    3.750    0.750   10.500    2.000 
#    0.000    0.625    0.000    0.000    0.000    0.000 
#    0.000    0.000    0.000    0.000    0.000    0.000 
#
# Total GULP energy -89472.809404 kJ/mol
# GULP energy per Si atom -5592.050588 kJ/mol
# Density = 2.274981 g / cm^3
# Si number density = 22.801707 Si / 1000 Ang^3
#
#
#
# Elastic Constant Matrix: (Units=GPa)
#
#
# Indices 1 2 3 4 5 6 
#
# 1 69.2280 5.3269 26.5748 0.6353 0.9417 20.0616
# 2 5.3269 87.1260 27.4181 9.3216 -2.0052 5.9178
# 3 26.5748 27.4181 84.2443 1.7972 -12.6246 7.9647
# 4 0.6353 9.3216 1.7972 35.5345 2.8593 8.0514
# 5 0.9417 -2.0052 -12.6246 2.8593 23.6033 -2.8813
# 6 20.0616 5.9178 7.9647 8.0514 -2.8813 23.8573
#
#
#
# Elastic Compliance Matrix: (Units=1/GPa)
#
#
# Indices 1 2 3 4 5 6 
#
# 1 0.022784 0.001490 -0.007038 0.004612 -0.007503 -0.019641
# 2 0.001490 0.013280 -0.004736 -0.002649 -0.001417 -0.002243
# 3 -0.007038 -0.004736 0.016770 -0.000891 0.009313 0.002919
# 4 0.004612 -0.002649 -0.000891 0.032677 -0.006645 -0.014754
# 5 -0.007503 -0.001417 0.009313 -0.006645 0.049773 0.011806
# 6 -0.019641 -0.002243 0.002919 -0.014754 0.011806 0.064419
#
#
# Mechanical properties :
#
#
# Convention : Reuss Voigt Hill
#
# Bulk Modulus (GPa) = 30.99233 39.91531 35.45382
# Shear Modulus (GPa) = 21.64266 28.68428 25.16347
#
# Velocity S-wave (km/s) = 3.08420 3.55066 3.32562
# Velocity P-wave (km/s) = 5.12881 5.86114 5.50716
#
# Compressibility (1/GPa) = 0.03226605
#
# Stress axis : x y z
#
# Youngs Moduli (GPa) = 43.89124 75.30125 59.62974
#
# Poissons Ratio (x) = -0.11218 0.41966
# Poissons Ratio (y) = -0.06539 0.28240
# Poissons Ratio (z) = 0.30889 0.35662
#
# Static dielectric constant tensor:
#      x y z
#    x 1.864120 0.011290 -0.000150 
#    y 0.011290 1.864350 -0.016960 
#    z -0.000150 -0.016960 1.842100 
# 
# From -- ./inp_files/299405.got.cif
#   From: 2010.05.17/outbox.cif.g08.bks.cpg/sg2_150_cif.got.tgz:299405.got - 2010.06.03 11:33:40.
