data_PCOD9105215
_publ_section_title
;
Structure prediction by ZEFSAII (Michael W. Deem and Ramdas Pophale) SiO2 
 PCOD9105215
Probable space group: P -1
;
_chemical_formula_sum "Si O2"
_cell_formula_units_Z 14
_cell_length_a 8.893925
_cell_length_b 11.759443
_cell_length_c 9.863448
_cell_angle_alpha 128.762076
_cell_angle_beta 131.387268
_cell_angle_gamma 70.197237
_cell_volume 598.498553
_symmetry_space_group_name_H-M "P -1"
_symmetry_group_IT_number 2
_symmetry_cell_setting 'triclinic'
loop_
_space_group_symop_operation_xyz
x,y,z
-x,-y,-z
loop_
_atom_site_type_symbol
_atom_site_label
_atom_site_fract_x
_atom_site_fract_y
_atom_site_fract_z
Si Si1 0.864763 0.709245 0.533170
Si Si2 0.480772 0.343367 0.132893
Si Si3 0.156658 0.096344 0.756665
Si Si4 0.159072 0.604040 0.830212
Si Si5 0.443122 0.856720 0.715445
Si Si6 0.594735 0.326779 0.701791
Si Si7 0.891818 0.992136 0.072684
O O1 0.874946 0.572408 0.337122
O O2 0.632053 0.734882 0.427054
O O3 0.954983 0.660106 0.695073
O O4 0.015962 0.851946 0.691335
O O5 0.665433 0.345630 0.139209
O O6 0.530645 0.263908 0.243065
O O7 0.434367 0.509502 0.245257
O O8 0.280509 0.243513 0.883510
O O9 0.320643 0.983025 0.790420
O O10 0.067400 0.122269 0.871017
O O11 0.000000 0.000000 0.500000
O O12 0.250209 0.655131 0.067087
O O13 0.349932 0.772345 0.463764
O O14 0.657932 0.945338 0.866442
O O15 0.000000 0.000000 0.000000
#
# Coordination Sequence:
#
# PCOD9105215 Si02
#       7
#     2   2   2   2   2   2   2
#     4  10  20  39  63  97 130 168 216 270 328 379
#     4  10  21  43  64  91 129 178 213 266 334 388
#     4  11  26  41  65  94 134 173 217 267 332 392
#     4  10  22  38  68  95 131 171 222 266 323 392
#     4  11  23  45  64  97 135 175 208 275 339 385
#     4  11  23  40  69  98 132 168 226 269 323 394
#     4  11  22  41  69  92 126 172 220 263 326 394
#
# _framework density 23.391867999999999
#
# number of rings (size 3 to 8) (size 9 to 14) (size 15 to 20)
#    0.000    1.429    1.429    5.571    4.000    1.143 
#    0.000    2.857    0.000    0.000    0.000    0.000 
#    0.000    0.000    0.000    0.000    0.000    0.000 
#
# Total GULP energy -78246.265417 kJ/mol
# GULP energy per Si atom -5589.018958 kJ/mol
# Density = 2.333863 g / cm^3
# Si number density = 23.391868 Si / 1000 Ang^3
#
#
#
# Elastic Constant Matrix: (Units=GPa)
#
#
# Indices 1 2 3 4 5 6 
#
# 1 70.3937 31.1296 36.8174 2.3416 -6.7229 17.7959
# 2 31.1296 64.5833 25.7831 9.2963 5.3201 11.3549
# 3 36.8174 25.7831 174.2235 0.2360 -3.0934 12.0121
# 4 2.3416 9.2963 0.2360 48.4125 5.1417 9.8834
# 5 -6.7229 5.3201 -3.0934 5.1417 36.3248 6.7555
# 6 17.7959 11.3549 12.0121 9.8834 6.7555 28.9583
#
#
#
# Elastic Compliance Matrix: (Units=1/GPa)
#
#
# Indices 1 2 3 4 5 6 
#
# 1 0.023236 -0.008949 -0.002619 0.002317 0.007326 -0.012183
# 2 -0.008949 0.021158 -0.001302 -0.003123 -0.004393 -0.000166
# 3 -0.002619 -0.001302 0.006550 0.000479 0.000353 -0.000843
# 4 0.002317 -0.003123 0.000479 0.022863 -0.000820 -0.008010
# 5 0.007326 -0.004393 0.000353 -0.000820 0.031535 -0.010003
# 6 -0.012183 -0.000166 -0.000843 -0.008010 -0.010003 0.047501
#
#
# Mechanical properties :
#
#
# Convention : Reuss Voigt Hill
#
# Bulk Modulus (GPa) = 39.67850 55.18449 47.43149
# Shear Modulus (GPa) = 26.74019 37.10381 31.92200
#
# Velocity S-wave (km/s) = 3.38470 3.98701 3.69814
# Velocity P-wave (km/s) = 5.68105 6.69609 6.20934
#
# Compressibility (1/GPa) = 0.02520257
#
# Stress axis : x y z
#
# Youngs Moduli (GPa) = 43.03724 47.26367 152.68036
#
# Poissons Ratio (x) = 0.42297 0.39986
# Poissons Ratio (y) = 0.38514 0.19884
# Poissons Ratio (z) = 0.11271 0.06155
#
# Static dielectric constant tensor:
#      x y z
#    x 1.915170 -0.031610 -0.017670 
#    y -0.031610 1.901210 -0.031670 
#    z -0.017670 -0.031670 1.922440 
# 
# From -- ./inp_files/190527.got.cif
#   From: 2010.05.17/outbox.cif.g08.bks.cpg/sg2_96_cif.got.tgz:190527.got - 2010.06.03 11:33:40.
