data_PCOD9105618
_publ_section_title
;
Structure prediction by ZEFSAII (Michael W. Deem and Ramdas Pophale) SiO2 
 PCOD9105618
Probable space group: P -1
;
_chemical_formula_sum "Si O2"
_cell_formula_units_Z 16
_cell_length_a 16.893646
_cell_length_b 8.436229
_cell_length_c 9.370437
_cell_angle_alpha 83.200737
_cell_angle_beta 132.861763
_cell_angle_gamma 60.991794
_cell_volume 611.984712
_symmetry_space_group_name_H-M "P -1"
_symmetry_group_IT_number 2
_symmetry_cell_setting 'triclinic'
loop_
_space_group_symop_operation_xyz
x,y,z
-x,-y,-z
loop_
_atom_site_type_symbol
_atom_site_label
_atom_site_fract_x
_atom_site_fract_y
_atom_site_fract_z
Si Si1 0.589418 0.617681 0.257401
Si Si2 0.527876 0.329940 0.193432
Si Si3 0.853880 0.982169 0.425082
Si Si4 0.439436 0.299021 0.380868
Si Si5 0.768009 0.767199 0.903137
Si Si6 0.152159 0.843165 0.896641
Si Si7 0.077584 0.618523 0.305140
Si Si8 0.748853 0.787086 0.196591
O O1 0.528898 0.509052 0.239988
O O2 0.766782 0.461759 0.567430
O O3 0.599267 0.569316 0.103702
O O4 0.445374 0.920003 0.064981
O O5 0.708683 0.117015 0.352110
O O6 0.498370 0.239250 0.292542
O O7 0.816868 0.150022 0.233213
O O8 0.862764 0.811437 0.364712
O O9 0.021220 0.845627 0.726368
O O10 0.327020 0.271454 0.284255
O O11 0.621736 0.073209 0.704535
O O12 0.318522 0.591496 0.210707
O O13 0.788551 0.684982 0.098605
O O14 0.945569 0.638522 0.078249
O O15 0.049241 0.104134 0.814761
O O16 0.193136 0.398459 0.589977
#
# Coordination Sequence:
#
# PCOD9105618 Si02
#       8
#     2   2   2   2   2   2   2   2
#     4  10  21  38  63 101 126 155 201 260 326 367
#     4  10  20  39  65  92 128 164 206 246 309 381
#     4  10  21  37  64 102 126 159 203 257 318 369
#     4  11  25  45  64  83 126 179 212 250 305 382
#     4  11  26  44  62  90 124 170 218 254 307 371
#     4  11  22  37  65 100 125 161 205 258 317 368
#     4  12  23  39  64 100 128 152 208 271 314 361
#     4  11  22  38  63  95 128 158 201 264 315 363
#
# _framework density 26.144445000000001
#
# number of rings (size 3 to 8) (size 9 to 14) (size 15 to 20)
#    0.000    1.250    2.500    4.500    5.250    1.500 
#    0.000    1.875    0.000    6.000    0.000    0.000 
#    0.000    0.000    0.000    0.000    0.000    0.000 
#
# Total GULP energy -89393.986617 kJ/mol
# GULP energy per Si atom -5587.124164 kJ/mol
# Density = 2.608494 g / cm^3
# Si number density = 26.144445 Si / 1000 Ang^3
#
#
#
# Elastic Constant Matrix: (Units=GPa)
#
#
# Indices 1 2 3 4 5 6 
#
# 1 83.3621 30.4017 47.8601 14.1990 26.9430 13.7183
# 2 30.4017 79.2879 31.8344 -15.6405 15.9133 -0.5154
# 3 47.8601 31.8344 135.7830 -17.5800 37.5549 8.9189
# 4 14.1990 -15.6405 -17.5800 47.3296 10.8138 7.8603
# 5 26.9430 15.9133 37.5549 10.8138 51.5898 11.2460
# 6 13.7183 -0.5154 8.9189 7.8603 11.2460 39.5485
#
#
#
# Elastic Compliance Matrix: (Units=1/GPa)
#
#
# Indices 1 2 3 4 5 6 
#
# 1 0.021113 -0.007322 -0.006535 -0.010343 -0.001060 -0.003588
# 2 -0.007322 0.017852 0.000679 0.009033 -0.004531 0.002113
# 3 -0.006535 0.000679 0.012864 0.008805 -0.007983 -0.000105
# 4 -0.010343 0.009033 0.008805 0.033167 -0.010324 -0.001936
# 5 -0.001060 -0.004531 -0.007983 -0.010324 0.030281 -0.004450
# 6 -0.003588 0.002113 -0.000105 -0.001936 -0.004450 0.028231
#
#
# Mechanical properties :
#
#
# Convention : Reuss Voigt Hill
#
# Bulk Modulus (GPa) = 39.25801 57.62504 48.44153
# Shear Modulus (GPa) = 28.03383 40.24936 34.14159
#
# Velocity S-wave (km/s) = 3.27810 3.92790 3.61762
# Velocity P-wave (km/s) = 5.41999 6.53147 6.00152
#
# Compressibility (1/GPa) = 0.02547251
#
# Stress axis : x y z
#
# Youngs Moduli (GPa) = 47.36351 56.01586 77.73701
#
# Poissons Ratio (x) = 0.41017 0.50804
# Poissons Ratio (y) = 0.34682 -0.05282
# Poissons Ratio (z) = 0.30954 -0.03806
#
# Static dielectric constant tensor:
#      x y z
#    x 2.117210 0.020240 -0.007110 
#    y 0.020240 2.080110 -0.056440 
#    z -0.007110 -0.056440 2.127710 
# 
# From -- ./inp_files/469378.got.cif
#   From: 2010.05.17/outbox.cif.g08.bks.cpg/sg2_235_cif.got.tgz:469378.got - 2010.06.03 11:33:40.
