data_PCOD9105102
_publ_section_title
;
Structure prediction by ZEFSAII (Michael W. Deem and Ramdas Pophale) SiO2 
 PCOD9105102
Probable space group: P -1
;
_chemical_formula_sum "Si O2"
_cell_formula_units_Z 10
_cell_length_a 8.961044
_cell_length_b 6.858302
_cell_length_c 9.487097
_cell_angle_alpha 90.228940
_cell_angle_beta 132.250434
_cell_angle_gamma 62.571108
_cell_volume 339.063903
_symmetry_space_group_name_H-M "P -1"
_symmetry_group_IT_number 2
_symmetry_cell_setting 'triclinic'
loop_
_space_group_symop_operation_xyz
x,y,z
-x,-y,-z
loop_
_atom_site_type_symbol
_atom_site_label
_atom_site_fract_x
_atom_site_fract_y
_atom_site_fract_z
Si Si1 0.477902 0.197644 0.430194
Si Si2 0.162480 0.679938 0.413847
Si Si3 0.264120 0.844334 0.970025
Si Si4 0.001157 0.647114 0.909163
Si Si5 0.185315 0.546242 0.720250
O O1 0.371314 0.407473 0.483824
O O2 0.688422 0.200530 0.477040
O O3 0.208422 0.387967 0.146311
O O4 0.692290 0.923607 0.659802
O O5 0.044985 0.670978 0.485239
O O6 0.931140 0.863772 0.161304
O O7 0.253771 0.726193 0.817391
O O8 0.841815 0.243700 0.983412
O O9 0.558981 0.718279 0.166823
O O10 0.073350 0.534707 0.794163
#
# Coordination Sequence:
#
# PCOD9105102 Si02
#       5
#     2   2   2   2   2
#     4  11  23  41  62  95 127 164 212 266 315 370
#     4  11  22  41  66  93 127 168 213 255 319 380
#     4   9  19  38  65  92 125 170 205 254 322 371
#     4  10  20  39  63  91 127 164 210 257 313 372
#     4   9  20  39  66  93 127 169 205 260 319 369
#
# _framework density 29.492965999999999
#
# number of rings (size 3 to 8) (size 9 to 14) (size 15 to 20)
#    1.200    0.800    2.000    1.800    0.000    0.800 
#    3.600    4.000    0.000    0.000    0.000    0.000 
#    0.000    0.000    0.000    0.000    0.000    0.000 
#
# Total GULP energy -55836.346177 kJ/mol
# GULP energy per Si atom -5583.634618 kJ/mol
# Density = 2.942584 g / cm^3
# Si number density = 29.492966 Si / 1000 Ang^3
#
#
#
# Elastic Constant Matrix: (Units=GPa)
#
#
# Indices 1 2 3 4 5 6 
#
# 1 257.3944 55.8544 98.5216 -42.9175 -33.3980 7.3351
# 2 55.8544 124.4620 62.2061 -39.8367 -33.0919 -0.6865
# 3 98.5216 62.2061 186.5271 -40.5778 -7.1424 -1.3679
# 4 -42.9175 -39.8367 -40.5778 69.6331 -3.1934 -9.4370
# 5 -33.3980 -33.0919 -7.1424 -3.1934 90.6937 -4.3573
# 6 7.3351 -0.6865 -1.3679 -9.4370 -4.3573 49.7972
#
#
#
# Elastic Compliance Matrix: (Units=1/GPa)
#
#
# Indices 1 2 3 4 5 6 
#
# 1 0.005358 -0.000181 -0.002291 0.001899 0.001777 -0.000339
# 2 -0.000181 0.012572 -0.002603 0.006001 0.004607 0.001669
# 3 -0.002291 -0.002603 0.007768 0.001675 -0.001087 0.000737
# 4 0.001899 0.006001 0.001675 0.020680 0.003947 0.004113
# 5 0.001777 0.004607 -0.001087 0.003947 0.013497 0.001701
# 6 -0.000339 0.001669 0.000737 0.004113 0.001701 0.021103
#
#
# Mechanical properties :
#
#
# Convention : Reuss Voigt Hill
#
# Bulk Modulus (GPa) = 64.31764 111.28309 87.80036
# Shear Modulus (GPa) = 51.91615 65.47821 58.69718
#
# Velocity S-wave (km/s) = 4.20013 4.71694 4.46602
# Velocity P-wave (km/s) = 6.73622 8.21462 7.51188
#
# Compressibility (1/GPa) = 0.01554783
#
# Stress axis : x y z
#
# Youngs Moduli (GPa) = 186.62690 79.54420 128.74071
#
# Poissons Ratio (x) = 0.01439 0.29495
# Poissons Ratio (y) = 0.03376 0.33509
# Poissons Ratio (z) = 0.42758 0.20704
#
# Static dielectric constant tensor:
#      x y z
#    x 2.261510 0.148480 0.086180 
#    y 0.148480 2.193360 -0.035340 
#    z 0.086180 -0.035340 2.545070 
# 
# From -- ./inp_files/449108.got.cif
#   From: 2010.05.17/outbox.cif.g08.bks.cpg/sg2_225_cif.got.tgz:449108.got - 2010.06.03 11:33:40.
