data_PCOD9105808
_publ_section_title
;
Structure prediction by ZEFSAII (Michael W. Deem and Ramdas Pophale) SiO2 
 PCOD9105808
Probable space group: P -1
;
_chemical_formula_sum "Si O2"
_cell_formula_units_Z 13
_cell_length_a 10.513271
_cell_length_b 10.827456
_cell_length_c 8.899376
_cell_angle_alpha 134.819075
_cell_angle_beta 118.783367
_cell_angle_gamma 49.564434
_cell_volume 546.382557
_symmetry_space_group_name_H-M "P -1"
_symmetry_group_IT_number 2
_symmetry_cell_setting 'triclinic'
loop_
_space_group_symop_operation_xyz
x,y,z
-x,-y,-z
loop_
_atom_site_type_symbol
_atom_site_label
_atom_site_fract_x
_atom_site_fract_y
_atom_site_fract_z
Si Si1 0.656642 0.905161 0.801558
Si Si2 0.769020 0.206173 0.655183
Si Si3 0.099486 0.058410 0.217093
Si Si4 0.440172 0.234660 0.622061
Si Si5 0.736170 0.909988 0.188896
Si Si6 0.000000 0.500000 0.500000
Si Si7 0.836591 0.527137 0.104846
O O1 0.722372 0.022090 0.836171
O O2 0.697439 0.716639 0.551050
O O3 0.458800 0.004784 0.801289
O O4 0.738281 0.871835 0.981246
O O5 0.581565 0.274544 0.669820
O O6 0.879422 0.039870 0.696207
O O7 0.779133 0.083579 0.405313
O O8 0.824024 0.372378 0.849007
O O9 0.015306 0.293130 0.388738
O O10 0.000000 0.000000 0.000000
O O11 0.342178 0.368885 0.820490
O O12 0.500000 0.000000 0.500000
O O13 0.839044 0.705961 0.166321
O O14 0.039462 0.550299 0.748663
#
# Coordination Sequence:
#
# PCOD9105808 Si02
#       7
#     2   2   2   2   2   1   2
#     4  10  20  39  66  88 118 163 190 248 311 346
#     4  11  21  36  61  90 116 154 203 251 296 351
#     4  12  22  39  61  88 119 154 208 249 286 351
#     4  11  17  36  63  87 115 152 202 255 296 338
#     4  10  21  41  62  87 128 152 193 249 307 361
#     4  12  22  36  62  86 118 162 202 244 290 348
#     4  12  21  36  62  87 119 158 200 247 298 350
#
# _framework density 23.792853999999998
#
# number of rings (size 3 to 8) (size 9 to 14) (size 15 to 20)
#    0.000    0.923    9.231    0.462    0.000    0.000 
#    0.000   11.538    0.000    0.000    0.000    0.000 
#    0.000    0.000    0.000    0.000    0.000    0.000 
#
# Total GULP energy -72371.098337 kJ/mol
# GULP energy per Si atom -5567.007564 kJ/mol
# Density = 2.373870 g / cm^3
# Si number density = 23.792854 Si / 1000 Ang^3
#
#
#
# Elastic Constant Matrix: (Units=GPa)
#
#
# Indices 1 2 3 4 5 6 
#
# 1 89.3196 -5.0964 45.0137 7.9053 3.5326 -3.8470
# 2 -5.0964 39.6486 41.1220 -4.6198 -8.7150 -1.5537
# 3 45.0137 41.1220 199.0883 -1.1928 14.5611 -4.8256
# 4 7.9053 -4.6198 -1.1928 49.8284 0.7186 1.3415
# 5 3.5326 -8.7150 14.5611 0.7186 40.9776 -7.2167
# 6 -3.8470 -1.5537 -4.8256 1.3415 -7.2167 10.1090
#
#
#
# Elastic Compliance Matrix: (Units=1/GPa)
#
#
# Indices 1 2 3 4 5 6 
#
# 1 0.014501 0.007865 -0.004998 -0.001932 0.003479 0.007082
# 2 0.007865 0.041743 -0.011113 0.001760 0.014640 0.014322
# 3 -0.004998 -0.011113 0.008779 0.000148 -0.005669 -0.003486
# 4 -0.001932 0.001760 0.000148 0.020643 -0.000487 -0.003481
# 5 0.003479 0.014640 -0.005669 -0.000487 0.033633 0.024943
# 6 0.007082 0.014322 -0.003486 -0.003481 0.024943 0.120422
#
#
# Mechanical properties :
#
#
# Convention : Reuss Voigt Hill
#
# Bulk Modulus (GPa) = 20.60533 54.45949 37.53241
# Shear Modulus (GPa) = 18.35591 36.65081 27.50336
#
# Velocity S-wave (km/s) = 2.78058 3.92907 3.40362
# Velocity P-wave (km/s) = 4.35752 6.59713 5.59062
#
# Compressibility (1/GPa) = 0.04853113
#
# Stress axis : x y z
#
# Youngs Moduli (GPa) = 68.95847 23.95598 113.90344
#
# Poissons Ratio (x) = -0.18840 0.56925
# Poissons Ratio (y) = -0.54233 1.26586
# Poissons Ratio (z) = 0.34463 0.26623
#
# Static dielectric constant tensor:
#      x y z
#    x 1.699410 0.093750 -0.041070 
#    y 0.093750 1.812700 0.009150 
#    z -0.041070 0.009150 1.998480 
# 
# From -- ./inp_files/191597.got.cif
#   From: 2010.05.17/outbox.cif.g08.bks.cpg/sg2_96_cif.got.tgz:191597.got - 2010.06.03 11:33:40.
