data_PCOD9105603
_publ_section_title
;
Structure prediction by ZEFSAII (Michael W. Deem and Ramdas Pophale) SiO2 
 PCOD9105603
Probable space group: P -1
;
_chemical_formula_sum "Si O2"
_cell_formula_units_Z 16
_cell_length_a 30.768955
_cell_length_b 5.151320
_cell_length_c 8.230829
_cell_angle_alpha 108.955695
_cell_angle_beta 148.181300
_cell_angle_gamma 79.328849
_cell_volume 639.635779
_symmetry_space_group_name_H-M "P -1"
_symmetry_group_IT_number 2
_symmetry_cell_setting 'triclinic'
loop_
_space_group_symop_operation_xyz
x,y,z
-x,-y,-z
loop_
_atom_site_type_symbol
_atom_site_label
_atom_site_fract_x
_atom_site_fract_y
_atom_site_fract_z
Si Si1 0.069805 0.885302 0.807072
Si Si2 0.456443 0.856040 0.578533
Si Si3 0.681926 0.543887 0.840979
Si Si4 0.593487 0.652887 0.284069
Si Si5 0.945511 0.505066 0.578847
Si Si6 0.904628 0.641387 0.801292
Si Si7 0.242096 0.822535 0.725597
Si Si8 0.612689 0.223049 0.019901
O O1 0.110197 0.700301 0.767274
O O2 0.014327 0.692157 0.723889
O O3 0.000000 0.000000 0.500000
O O4 0.126799 0.131688 0.137418
O O5 0.416688 0.535038 0.430308
O O6 0.422780 0.864515 0.290143
O O7 0.412780 0.036267 0.608427
O O8 0.553352 0.005536 0.904993
O O9 0.665665 0.545047 0.597173
O O10 0.724874 0.336102 0.045170
O O11 0.731770 0.850011 0.098986
O O12 0.500000 0.500000 0.000000
O O13 0.605484 0.532058 0.119527
O O14 0.903065 0.677621 0.609658
O O15 0.999107 0.335456 0.831040
O O16 0.852719 0.336843 0.614586
O O17 0.289899 0.774067 0.701108
#
# Coordination Sequence:
#
# PCOD9105603 Si02
#       8
#     2   2   2   2   2   2   2   2
#     4   9  18  36  61  96 123 146 204 261 300 363
#     4   9  19  40  63  89 121 160 209 271 307 371
#     4  11  22  45  61  87 132 163 211 267 320 373
#     4  10  20  39  65  92 116 161 214 269 314 377
#     4   9  19  38  65  94 121 159 213 259 301 370
#     4  10  21  38  63  89 123 170 207 251 318 375
#     4  11  25  44  61  91 132 173 202 264 322 389
#     4   9  19  39  62  92 118 164 210 257 322 374
#
# _framework density 25.014237000000001
#
# number of rings (size 3 to 8) (size 9 to 14) (size 15 to 20)
#    0.000    2.250    2.500    0.375    1.750    2.500 
#   11.250    2.500    0.000    0.000    0.000    0.000 
#    0.000    0.000    0.000    0.000    0.000    0.000 
#
# Total GULP energy -89084.968739 kJ/mol
# GULP energy per Si atom -5567.810546 kJ/mol
# Density = 2.495730 g / cm^3
# Si number density = 25.014237 Si / 1000 Ang^3
#
#
#
# Elastic Constant Matrix: (Units=GPa)
#
#
# Indices 1 2 3 4 5 6 
#
# 1 95.9049 33.1681 64.5211 18.4115 -21.2823 -14.1284
# 2 33.1681 97.8856 45.0063 19.9403 -20.9675 7.6491
# 3 64.5211 45.0063 110.3402 36.4458 -17.8914 -12.8602
# 4 18.4115 19.9403 36.4458 48.8996 -6.7018 0.2963
# 5 -21.2823 -20.9675 -17.8914 -6.7018 41.4392 13.0161
# 6 -14.1284 7.6491 -12.8602 0.2963 13.0161 22.9006
#
#
#
# Elastic Compliance Matrix: (Units=1/GPa)
#
#
# Indices 1 2 3 4 5 6 
#
# 1 0.018639 -0.001975 -0.009382 0.001175 0.003108 0.005108
# 2 -0.001975 0.017071 -0.005935 -0.000325 0.010016 -0.015942
# 3 -0.009382 -0.005935 0.020938 -0.010210 -0.003618 0.010140
# 4 0.001175 -0.000325 -0.010210 0.028164 0.002726 -0.006814
# 5 0.003108 0.010016 -0.003618 0.002726 0.037460 -0.024786
# 6 0.005108 -0.015942 0.010140 -0.006814 -0.024786 0.072013
#
#
# Mechanical properties :
#
#
# Convention : Reuss Voigt Hill
#
# Bulk Modulus (GPa) = 45.32414 65.50242 55.41328
# Shear Modulus (GPa) = 21.16636 33.41023 27.28829
#
# Velocity S-wave (km/s) = 2.91206 3.65862 3.30648
# Velocity P-wave (km/s) = 5.42821 6.64005 6.06447
#
# Compressibility (1/GPa) = 0.02206330
#
# Stress axis : x y z
#
# Youngs Moduli (GPa) = 53.65231 58.57752 47.76112
#
# Poissons Ratio (x) = 0.11566 0.44811
# Poissons Ratio (y) = 0.10594 0.28347
# Poissons Ratio (z) = 0.50338 0.34767
#
# Static dielectric constant tensor:
#      x y z
#    x 2.038200 -0.051740 -0.046640 
#    y -0.051740 2.139330 -0.027770 
#    z -0.046640 -0.027770 2.050680 
# 
# From -- ./inp_files/358174.got.cif
#   From: 2010.05.17/outbox.cif.g08.bks.cpg/sg2_180_cif.got.tgz:358174.got - 2010.06.03 11:33:40.
