data_PCOD9105948
_publ_section_title
;
Structure prediction by ZEFSAII (Michael W. Deem and Ramdas Pophale) SiO2 
 PCOD9105948
Probable space group: P -1
;
_chemical_formula_sum "Si O2"
_cell_formula_units_Z 14
_cell_length_a 5.396307
_cell_length_b 10.137015
_cell_length_c 15.453734
_cell_angle_alpha 101.778691
_cell_angle_beta 49.468345
_cell_angle_gamma 75.737583
_cell_volume 541.254445
_symmetry_space_group_name_H-M "P -1"
_symmetry_group_IT_number 2
_symmetry_cell_setting 'triclinic'
loop_
_space_group_symop_operation_xyz
x,y,z
-x,-y,-z
loop_
_atom_site_type_symbol
_atom_site_label
_atom_site_fract_x
_atom_site_fract_y
_atom_site_fract_z
Si Si1 0.530974 0.892505 0.898867
Si Si2 0.031950 0.398466 0.398293
Si Si3 0.289926 0.796127 0.501264
Si Si4 0.417733 0.065946 0.777873
Si Si5 0.616614 0.564277 0.839450
Si Si6 0.693991 0.142724 0.318910
Si Si7 0.269675 0.377598 0.796579
O O1 0.453828 0.750996 0.913724
O O2 0.970973 0.820299 0.760017
O O3 0.333757 0.008040 0.878894
O O4 0.500000 0.000000 0.000000
O O5 0.080878 0.467230 0.309201
O O6 0.422492 0.241077 0.315301
O O7 0.000000 0.500000 0.500000
O O8 0.724818 0.349992 0.474621
O O9 0.497692 0.826527 0.538640
O O10 0.457544 0.733881 0.360175
O O11 0.862339 0.952416 0.628302
O O12 0.303374 0.244209 0.834880
O O13 0.176865 0.035742 0.756474
O O14 0.381358 0.491267 0.838022
O O15 0.859109 0.476214 0.857529
#
# Coordination Sequence:
#
# PCOD9105948 Si02
#       7
#     2   2   2   2   2   2   2
#     4  11  25  47  74  95 123 177 239 295 341 399
#     4  11  19  34  60  98 137 175 213 277 327 395
#     4  10  21  35  65  95 138 185 227 253 328 410
#     4  10  24  44  63  97 139 181 227 268 338 412
#     4  12  25  43  66 102 134 173 236 280 339 395
#     4  10  20  39  66  95 132 175 233 275 323 412
#     4  12  27  41  67 102 148 183 211 279 340 410
#
# _framework density 25.865841
#
# number of rings (size 3 to 8) (size 9 to 14) (size 15 to 20)
#    0.000    1.143    5.714    2.143    6.000    2.286 
#    0.000    1.429    0.000    0.000    0.000    0.000 
#    0.000    0.000    0.000    0.000    0.000    0.000 
#
# Total GULP energy -78067.955945 kJ/mol
# GULP energy per Si atom -5576.282568 kJ/mol
# Density = 2.580697 g / cm^3
# Si number density = 25.865841 Si / 1000 Ang^3
#
#
#
# Elastic Constant Matrix: (Units=GPa)
#
#
# Indices 1 2 3 4 5 6 
#
# 1 124.3645 53.5925 38.4696 19.9198 19.8157 5.0036
# 2 53.5925 163.7122 50.1493 30.3525 21.4652 7.5958
# 3 38.4696 50.1493 116.2066 23.8082 29.4881 7.8611
# 4 19.9198 30.3525 23.8082 20.0991 11.7676 1.7378
# 5 19.8157 21.4652 29.4881 11.7676 52.8278 14.8471
# 6 5.0036 7.5958 7.8611 1.7378 14.8471 34.9383
#
#
#
# Elastic Compliance Matrix: (Units=1/GPa)
#
#
# Indices 1 2 3 4 5 6 
#
# 1 0.010246 -0.001859 -0.001209 -0.005178 -0.001260 0.000002
# 2 -0.001859 0.009024 -0.001126 -0.010538 0.000300 -0.001046
# 3 -0.001209 -0.001126 0.012443 -0.009579 -0.003822 -0.000281
# 4 -0.005178 -0.010538 -0.009579 0.087101 -0.009167 0.004751
# 5 -0.001260 0.000300 -0.003822 -0.009167 0.026180 -0.009694
# 6 0.000002 -0.001046 -0.000281 0.004751 -0.009694 0.032795
#
#
# Mechanical properties :
#
#
# Convention : Reuss Voigt Hill
#
# Bulk Modulus (GPa) = 42.87039 76.52291 59.69665
# Shear Modulus (GPa) = 25.77954 39.04449 32.41201
#
# Velocity S-wave (km/s) = 3.16042 3.88944 3.54373
# Velocity P-wave (km/s) = 5.47063 7.05827 6.31454
#
# Compressibility (1/GPa) = 0.02332612
#
# Stress axis : x y z
#
# Youngs Moduli (GPa) = 97.59994 110.80974 80.36812
#
# Poissons Ratio (x) = 0.20594 0.09719
# Poissons Ratio (y) = 0.18139 0.09046
# Poissons Ratio (z) = 0.11803 0.12473
#
# Static dielectric constant tensor:
#      x y z
#    x 2.033630 0.132260 -0.001070 
#    y 0.132260 2.002440 0.128440 
#    z -0.001070 0.128440 2.279020 
# 
# From -- ./inp_files/547345.got.cif
#   From: 2010.05.17/outbox.cif.g08.bks.cpg/sg2_274_cif.got.tgz:547345.got - 2010.06.03 11:33:40.
