data_PCOD9105553
_publ_section_title
;
Structure prediction by ZEFSAII (Michael W. Deem and Ramdas Pophale) SiO2 
 PCOD9105553
Probable space group: P -1
;
_chemical_formula_sum "Si O2"
_cell_formula_units_Z 14
_cell_length_a 14.482218
_cell_length_b 6.671546
_cell_length_c 15.535091
_cell_angle_alpha 61.823993
_cell_angle_beta 147.232394
_cell_angle_gamma 123.628508
_cell_volume 676.354891
_symmetry_space_group_name_H-M "P -1"
_symmetry_group_IT_number 2
_symmetry_cell_setting 'triclinic'
loop_
_space_group_symop_operation_xyz
x,y,z
-x,-y,-z
loop_
_atom_site_type_symbol
_atom_site_label
_atom_site_fract_x
_atom_site_fract_y
_atom_site_fract_z
Si Si1 0.600028 0.118608 0.440248
Si Si2 0.727516 0.836774 0.367538
Si Si3 0.214104 0.287321 0.844380
Si Si4 0.862786 0.858799 0.659077
Si Si5 0.362130 0.630314 0.400452
Si Si6 0.449069 0.543638 0.810084
Si Si7 0.950623 0.354462 0.401231
O O1 0.603710 0.291115 0.488831
O O2 0.617308 0.269622 0.335733
O O3 0.762273 0.009168 0.605354
O O4 0.417179 0.887975 0.344189
O O5 0.748283 0.833263 0.486155
O O6 0.552204 0.662964 0.218285
O O7 0.886407 0.735948 0.480119
O O8 0.780098 0.113154 0.325210
O O9 0.323866 0.399401 0.820210
O O10 0.098053 0.463560 0.737233
O O11 0.360567 0.312955 0.027321
O O12 0.068310 0.024095 0.771010
O O13 0.827428 0.584635 0.715572
O O14 0.500000 0.500000 0.500000
O O15 0.000000 0.500000 0.500000
#
# Coordination Sequence:
#
# PCOD9105553 Si02
#       7
#     2   2   2   2   2   2   2
#     4  10  20  39  65  88 118 153 192 252 295 343
#     4  11  20  32  59  82 108 155 205 236 279 346
#     4  11  23  36  56  87 129 161 188 239 296 348
#     4  11  20  36  62  92 115 152 202 243 286 353
#     4   9  20  37  66  94 110 142 208 251 291 342
#     4  11  22  38  55  87 127 161 192 236 298 352
#     4  11  19  34  54  79 112 155 201 242 275 333
#
# _framework density 20.699192
#
# number of rings (size 3 to 8) (size 9 to 14) (size 15 to 20)
#    0.000    1.429    4.286    2.571    0.000    0.571 
#    0.000    2.143    0.000    7.714    0.000    0.000 
#    0.000    0.000    0.000    0.000    0.000    0.000 
#
# Total GULP energy -78053.040898 kJ/mol
# GULP energy per Si atom -5575.217207 kJ/mol
# Density = 2.065208 g / cm^3
# Si number density = 20.699192 Si / 1000 Ang^3
#
#
#
# Elastic Constant Matrix: (Units=GPa)
#
#
# Indices 1 2 3 4 5 6 
#
# 1 71.4469 38.1574 15.6363 12.9455 -7.6253 -2.1523
# 2 38.1574 169.6353 29.4842 29.3821 5.2290 29.4304
# 3 15.6363 29.4842 58.4880 24.0060 -2.4769 8.6905
# 4 12.9455 29.3821 24.0060 22.8498 0.0804 5.1385
# 5 -7.6253 5.2290 -2.4769 0.0804 14.3944 7.7470
# 6 -2.1523 29.4304 8.6905 5.1385 7.7470 52.4501
#
#
#
# Elastic Compliance Matrix: (Units=1/GPa)
#
#
# Indices 1 2 3 4 5 6 
#
# 1 0.018196 -0.003706 -0.000712 -0.005283 0.009809 0.002013
# 2 -0.003706 0.008999 0.000772 -0.009377 -0.002904 -0.003982
# 3 -0.000712 0.000772 0.030988 -0.032402 0.006692 -0.003411
# 4 -0.005283 -0.009377 -0.032402 0.092348 -0.006756 0.002364
# 5 0.009809 -0.002904 0.006692 -0.006756 0.082627 -0.010619
# 6 0.002013 -0.003982 -0.003411 0.002364 -0.010619 0.023285
#
#
# Mechanical properties :
#
#
# Convention : Reuss Voigt Hill
#
# Bulk Modulus (GPa) = 19.64958 51.79178 35.72068
# Shear Modulus (GPa) = 17.81272 32.35835 25.08554
#
# Velocity S-wave (km/s) = 2.93670 3.95811 3.48502
# Velocity P-wave (km/s) = 4.58393 6.77970 5.78691
#
# Compressibility (1/GPa) = 0.05089168
#
# Stress axis : x y z
#
# Youngs Moduli (GPa) = 54.95681 111.12408 32.27073
#
# Poissons Ratio (x) = 0.41180 0.02296
# Poissons Ratio (y) = 0.20366 -0.02490
# Poissons Ratio (z) = 0.03911 -0.08576
#
# Static dielectric constant tensor:
#      x y z
#    x 1.841910 0.033120 0.028870 
#    y 0.033120 1.816830 0.030420 
#    z 0.028870 0.030420 1.755860 
# 
# From -- ./inp_files/525622.got.cif
#   From: 2010.05.17/outbox.cif.g08.bks.cpg/sg2_263_cif.got.tgz:525622.got - 2010.06.03 11:33:40.
