data_PCOD9105223
_publ_section_title
;
Structure prediction by ZEFSAII (Michael W. Deem and Ramdas Pophale) SiO2 
 PCOD9105223
Probable space group: P -1
;
_chemical_formula_sum "Si O2"
_cell_formula_units_Z 16
_cell_length_a 11.547383
_cell_length_b 9.554338
_cell_length_c 12.087068
_cell_angle_alpha 107.020154
_cell_angle_beta 125.363014
_cell_angle_gamma 44.960725
_cell_volume 752.497990
_symmetry_space_group_name_H-M "P -1"
_symmetry_group_IT_number 2
_symmetry_cell_setting 'triclinic'
loop_
_space_group_symop_operation_xyz
x,y,z
-x,-y,-z
loop_
_atom_site_type_symbol
_atom_site_label
_atom_site_fract_x
_atom_site_fract_y
_atom_site_fract_z
Si Si1 0.395763 0.371810 0.666235
Si Si2 0.205399 0.297324 0.846901
Si Si3 0.642356 0.931147 0.903758
Si Si4 0.819570 0.363339 0.176136
Si Si5 0.547268 0.992463 0.397353
Si Si6 0.103354 0.712069 0.424048
Si Si7 0.874323 0.990359 0.579868
Si Si8 0.225310 0.857531 0.059278
O O1 0.310666 0.515318 0.759150
O O2 0.340052 0.240567 0.621239
O O3 0.300744 0.498257 0.531133
O O4 0.628808 0.225169 0.775014
O O5 0.148835 0.502197 0.831273
O O6 0.041851 0.301961 0.713581
O O7 0.417887 0.107934 0.865169
O O8 0.240825 0.248168 0.985420
O O9 0.625986 0.880162 0.758803
O O10 0.735420 0.026043 0.965814
O O11 0.014724 0.149293 0.283336
O O12 0.725131 0.320094 0.026735
O O13 0.671440 0.049972 0.469744
O O14 0.500000 0.000000 0.500000
O O15 0.997735 0.849078 0.508079
O O16 0.138946 0.825760 0.391690
O O17 0.000000 0.000000 0.000000
#
# Coordination Sequence:
#
# PCOD9105223 Si02
#       8
#     2   2   2   2   2   2   2   2
#     4  10  22  41  65  97 127 171 232 262 320 392
#     4  11  20  39  68  97 131 162 223 282 314 381
#     4  10  23  40  64  97 132 171 217 269 334 377
#     4  11  21  38  70  95 125 171 225 269 320 384
#     4  11  22  40  64  91 135 173 215 261 325 400
#     4  10  20  39  63  98 130 159 215 290 317 374
#     4  10  21  35  64  98 127 167 217 267 337 371
#     4  11  24  42  63  95 138 169 212 270 335 398
#
# _framework density 21.262515
#
# number of rings (size 3 to 8) (size 9 to 14) (size 15 to 20)
#    0.000    1.500    3.750    1.875    3.500    3.000 
#    0.000    1.250    5.500    0.000    0.000    0.000 
#    0.000    0.000    0.000    0.000    0.000    0.000 
#
# Total GULP energy -89389.445217 kJ/mol
# GULP energy per Si atom -5586.840326 kJ/mol
# Density = 2.121412 g / cm^3
# Si number density = 21.262515 Si / 1000 Ang^3
#
#
#
# Elastic Constant Matrix: (Units=GPa)
#
#
# Indices 1 2 3 4 5 6 
#
# 1 100.4360 59.0292 72.6336 -8.3250 22.6097 29.4650
# 2 59.0292 73.0664 61.2174 -22.6440 4.9152 36.8252
# 3 72.6336 61.2174 142.7927 -21.6958 0.3873 39.9867
# 4 -8.3250 -22.6440 -21.6958 37.7786 9.1685 -11.1105
# 5 22.6097 4.9152 0.3873 9.1685 40.7000 5.8974
# 6 29.4650 36.8252 39.9867 -11.1105 5.8974 46.2987
#
#
#
# Elastic Compliance Matrix: (Units=1/GPa)
#
#
# Indices 1 2 3 4 5 6 
#
# 1 0.028142 -0.018988 -0.008272 -0.005484 -0.012698 0.004639
# 2 -0.018988 0.044138 -0.001879 0.014639 0.004615 -0.018474
# 3 -0.008272 -0.001879 0.013818 0.002235 0.004951 -0.005270
# 4 -0.005484 0.014639 0.002235 0.036925 -0.007013 -0.000330
# 5 -0.012698 0.004615 0.004951 -0.007013 0.033441 -0.005808
# 6 0.004639 -0.018474 -0.005270 -0.000330 -0.005808 0.038553
#
#
# Mechanical properties :
#
#
# Convention : Reuss Voigt Hill
#
# Bulk Modulus (GPa) = 35.94530 78.00617 56.97574
# Shear Modulus (GPa) = 19.04272 33.18312 26.11292
#
# Velocity S-wave (km/s) = 2.99591 3.95478 3.50826
# Velocity P-wave (km/s) = 5.37675 7.59082 6.57761
#
# Compressibility (1/GPa) = 0.02782005
#
# Stress axis : x y z
#
# Youngs Moduli (GPa) = 35.53450 22.65627 72.36781
#
# Poissons Ratio (x) = 0.43020 0.59863
# Poissons Ratio (y) = 0.67473 0.13597
# Poissons Ratio (z) = 0.29394 0.04257
#
# Static dielectric constant tensor:
#      x y z
#    x 1.771430 -0.045810 -0.017670 
#    y -0.045810 1.793910 -0.004680 
#    z -0.017670 -0.004680 1.782760 
# 
# From -- ./inp_files/419622.got.cif
#   From: 2010.05.17/outbox.cif.g08.bks.cpg/sg2_210_cif.got.tgz:419622.got - 2010.06.03 11:33:40.
