data_PCOD9105260
_publ_section_title
;
Structure prediction by ZEFSAII (Michael W. Deem and Ramdas Pophale) SiO2 
 PCOD9105260
Probable space group: P -1
;
_chemical_formula_sum "Si O2"
_cell_formula_units_Z 16
_cell_length_a 9.573690
_cell_length_b 12.406866
_cell_length_c 9.642837
_cell_angle_alpha 123.568558
_cell_angle_beta 71.632966
_cell_angle_gamma 122.447371
_cell_volume 805.085757
_symmetry_space_group_name_H-M "P -1"
_symmetry_group_IT_number 2
_symmetry_cell_setting 'triclinic'
loop_
_space_group_symop_operation_xyz
x,y,z
-x,-y,-z
loop_
_atom_site_type_symbol
_atom_site_label
_atom_site_fract_x
_atom_site_fract_y
_atom_site_fract_z
Si Si1 0.053643 0.616053 0.443102
Si Si2 0.635598 0.228500 0.717295
Si Si3 0.290983 0.477280 0.632069
Si Si4 0.689617 0.954411 0.495822
Si Si5 0.583927 0.747556 0.640721
Si Si6 0.515420 0.410563 0.062784
Si Si7 0.253509 0.136849 0.068560
Si Si8 0.092100 0.926261 0.733410
O O1 0.222763 0.649890 0.335627
O O2 0.083991 0.770033 0.607313
O O3 0.000000 0.500000 0.500000
O O4 0.901705 0.567554 0.347437
O O5 0.469054 0.137442 0.617047
O O6 0.694272 0.106747 0.647842
O O7 0.595451 0.308986 0.911250
O O8 0.393338 0.626859 0.620494
O O9 0.321733 0.352796 0.458143
O O10 0.376935 0.500841 0.774348
O O11 0.657767 0.851951 0.563076
O O12 0.848295 0.993817 0.376386
O O13 0.618327 0.843032 0.835949
O O14 0.331184 0.297162 0.090015
O O15 0.500000 0.500000 0.000000
O O16 0.081102 0.090953 0.168417
O O17 0.224829 0.021889 0.875855
#
# Coordination Sequence:
#
# PCOD9105260 Si02
#       8
#     2   2   2   2   2   2   2   2
#     4  11  23  40  62  86 126 169 201 248 314 366
#     4  10  22  39  59  88 123 158 211 247 298 383
#     4  10  22  39  60  94 125 156 212 254 297 380
#     4  10  20  39  64  87 118 165 202 250 314 365
#     4  10  20  39  65  89 123 156 204 261 310 356
#     4  11  23  40  67  91 122 164 203 260 313 359
#     4  10  21  39  60  92 124 147 206 263 300 363
#     4  10  21  39  60  90 123 155 206 253 300 371
#
# _framework density 19.873657000000001
#
# number of rings (size 3 to 8) (size 9 to 14) (size 15 to 20)
#    0.000    1.750    2.500    1.500    1.750    1.000 
#    2.250    1.250    0.000    0.000    0.000    0.000 
#    0.000    0.000    0.000    0.000    0.000    0.000 
#
# Total GULP energy -89247.408341 kJ/mol
# GULP energy per Si atom -5577.963021 kJ/mol
# Density = 1.982842 g / cm^3
# Si number density = 19.873657 Si / 1000 Ang^3
#
#
#
# Elastic Constant Matrix: (Units=GPa)
#
#
# Indices 1 2 3 4 5 6 
#
# 1 35.4316 28.2373 18.9320 -3.8206 5.0539 15.2294
# 2 28.2373 145.3637 48.9269 -28.9508 12.0292 5.0510
# 3 18.9320 48.9269 101.4724 -2.4115 12.8914 -0.2912
# 4 -3.8206 -28.9508 -2.4115 35.3948 10.5137 1.1902
# 5 5.0539 12.0292 12.8914 10.5137 28.8153 -5.4037
# 6 15.2294 5.0510 -0.2912 1.1902 -5.4037 22.8961
#
#
#
# Elastic Compliance Matrix: (Units=1/GPa)
#
#
# Indices 1 2 3 4 5 6 
#
# 1 0.055225 -0.004442 -0.006130 0.007833 -0.015425 -0.039878
# 2 -0.004442 0.011842 -0.003750 0.011058 -0.006879 -0.001904
# 3 -0.006130 -0.003750 0.012917 -0.002642 -0.001254 0.004910
# 4 0.007833 0.011058 -0.002642 0.045767 -0.024477 -0.015839
# 5 -0.015425 -0.006879 -0.001254 -0.024477 0.054635 0.025928
# 6 -0.039878 -0.001904 0.004910 -0.015839 0.025928 0.077626
#
#
# Mechanical properties :
#
#
# Convention : Reuss Voigt Hill
#
# Bulk Modulus (GPa) = 19.47810 52.71778 36.09794
# Shear Modulus (GPa) = 16.45985 29.83266 23.14626
#
# Velocity S-wave (km/s) = 2.88101 3.87863 3.41643
# Velocity P-wave (km/s) = 4.57047 6.82952 5.81083
#
# Compressibility (1/GPa) = 0.05133972
#
# Stress axis : x y z
#
# Youngs Moduli (GPa) = 18.10786 84.44423 77.41556
#
# Poissons Ratio (x) = 0.37511 0.47457
# Poissons Ratio (y) = 0.08044 0.29030
# Poissons Ratio (z) = 0.11101 0.31666
#
# Static dielectric constant tensor:
#      x y z
#    x 1.721930 0.021090 0.012940 
#    y 0.021090 1.726610 -0.011730 
#    z 0.012940 -0.011730 1.696530 
# 
# From -- ./inp_files/189901.got.cif
#   From: 2010.05.17/outbox.cif.g08.bks.cpg/sg2_95_cif.got.tgz:189901.got - 2010.06.03 11:33:40.
