data_PCOD9105268
_publ_section_title
;
Structure prediction by ZEFSAII (Michael W. Deem and Ramdas Pophale) SiO2 
 PCOD9105268
Probable space group: P -1
;
_chemical_formula_sum "Si O2"
_cell_formula_units_Z 16
_cell_length_a 26.333458
_cell_length_b 11.081569
_cell_length_c 26.643003
_cell_angle_alpha 31.955292
_cell_angle_beta 10.560047
_cell_angle_gamma 31.559744
_cell_volume 741.016171
_symmetry_space_group_name_H-M "P -1"
_symmetry_group_IT_number 2
_symmetry_cell_setting 'triclinic'
loop_
_space_group_symop_operation_xyz
x,y,z
-x,-y,-z
loop_
_atom_site_type_symbol
_atom_site_label
_atom_site_fract_x
_atom_site_fract_y
_atom_site_fract_z
Si Si1 0.677155 0.709344 0.259898
Si Si2 0.439721 0.071300 0.090973
Si Si3 0.745007 0.466621 0.939605
Si Si4 0.006476 0.781845 0.654859
Si Si5 0.006760 0.649490 0.859380
Si Si6 0.472107 0.616767 0.344326
Si Si7 0.707733 0.836427 0.487293
Si Si8 0.755701 0.077166 0.251143
O O1 0.500000 0.500000 0.500000
O O2 0.877889 0.625674 0.142408
O O3 0.464061 0.942910 0.395163
O O4 0.876441 0.731204 0.011155
O O5 0.386171 0.347624 0.040644
O O6 0.167290 0.968029 0.406845
O O7 0.500000 0.000000 0.000000
O O8 0.710082 0.937960 0.905482
O O9 0.905698 0.597622 0.779556
O O10 0.994054 0.282619 0.737794
O O11 0.505450 0.347987 0.240290
O O12 0.245320 0.656993 0.505556
O O13 0.281854 0.709034 0.545010
O O14 0.754001 0.721306 0.040357
O O15 0.628236 0.348305 0.288890
O O16 0.796327 0.932677 0.314056
O O17 0.500000 0.000000 0.500000
O O18 0.000000 0.000000 0.000000
#
# Coordination Sequence:
#
# PCOD9105268 Si02
#       8
#     2   2   2   2   2   2   2   2
#     4  11  24  43  67  88 120 168 215 270 319 357
#     4  10  20  39  64  87 123 168 212 263 306 357
#     4  11  23  39  61  97 128 165 213 258 314 376
#     4  11  22  40  64  90 129 170 207 255 308 378
#     4  11  23  40  65  85 120 153 218 265 305 356
#     4  12  24  41  59  93 122 165 213 253 301 379
#     4  12  25  38  63  93 129 167 209 265 313 372
#     4  12  25  38  53  81 131 179 200 232 296 378
#
# _framework density 21.591971000000001
#
# number of rings (size 3 to 8) (size 9 to 14) (size 15 to 20)
#    0.000    0.750    2.500    6.750    5.250    3.000 
#    0.000    0.000    0.000    0.000    0.000   17.500 
#    0.000    0.000    0.000    0.000    0.000    0.000 
#
# Total GULP energy -89217.559743 kJ/mol
# GULP energy per Si atom -5576.097484 kJ/mol
# Density = 2.154283 g / cm^3
# Si number density = 21.591971 Si / 1000 Ang^3
#
#
#
# Elastic Constant Matrix: (Units=GPa)
#
#
# Indices 1 2 3 4 5 6 
#
# 1 57.0139 30.0240 31.3442 4.2165 -4.9916 -19.1812
# 2 30.0240 121.3458 53.9973 21.8273 5.3698 -14.7950
# 3 31.3442 53.9973 169.4912 18.6817 8.5106 -1.1518
# 4 4.2165 21.8273 18.6817 45.8200 -3.8545 -1.7921
# 5 -4.9916 5.3698 8.5106 -3.8545 43.0613 13.9573
# 6 -19.1812 -14.7950 -1.1518 -1.7921 13.9573 25.9993
#
#
#
# Elastic Compliance Matrix: (Units=1/GPa)
#
#
# Indices 1 2 3 4 5 6 
#
# 1 0.027644 -0.002680 -0.004138 0.001029 -0.001975 0.019817
# 2 -0.002680 0.011751 -0.002536 -0.004383 -0.003704 0.006284
# 3 -0.004138 -0.002536 0.007665 -0.001738 -0.000542 -0.003985
# 4 0.001029 -0.004383 -0.001738 0.024771 0.003947 -0.002224
# 5 -0.001975 -0.003704 -0.000542 0.003947 0.030256 -0.019559
# 6 0.019817 0.006284 -0.003985 -0.002224 -0.019559 0.066829
#
#
# Mechanical properties :
#
#
# Convention : Reuss Voigt Hill
#
# Bulk Modulus (GPa) = 35.27161 64.28688 49.77925
# Shear Modulus (GPa) = 25.37110 38.47515 31.92312
#
# Velocity S-wave (km/s) = 3.43158 4.22586 3.84926
# Velocity P-wave (km/s) = 5.66321 7.32452 6.54678
#
# Compressibility (1/GPa) = 0.02835141
#
# Stress axis : x y z
#
# Youngs Moduli (GPa) = 36.17426 85.09884 130.46393
#
# Poissons Ratio (x) = 0.22806 0.53986
# Poissons Ratio (y) = 0.09694 0.33090
# Poissons Ratio (z) = 0.14969 0.21584
#
# Static dielectric constant tensor:
#      x y z
#    x 1.849050 -0.072790 -0.073210 
#    y -0.072790 1.956430 0.259950 
#    z -0.073210 0.259950 2.036900 
# 
# From -- ./inp_files/621237.got.cif
#   From: 2010.05.17/outbox.cif.g08.bks.cpg/sg2_311_cif.got.tgz:621237.got - 2010.06.03 11:33:40.
