data_PCOD9105091
_publ_section_title
;
Structure prediction by ZEFSAII (Michael W. Deem and Ramdas Pophale) SiO2 
 PCOD9105091
Probable space group: P -1
;
_chemical_formula_sum "Si O2"
_cell_formula_units_Z 15
_cell_length_a 19.821583
_cell_length_b 10.935501
_cell_length_c 7.813479
_cell_angle_alpha 98.118688
_cell_angle_beta 60.210965
_cell_angle_gamma 147.659617
_cell_volume 629.076437
_symmetry_space_group_name_H-M "P -1"
_symmetry_group_IT_number 2
_symmetry_cell_setting 'triclinic'
loop_
_space_group_symop_operation_xyz
x,y,z
-x,-y,-z
loop_
_atom_site_type_symbol
_atom_site_label
_atom_site_fract_x
_atom_site_fract_y
_atom_site_fract_z
Si Si1 0.395181 0.224413 0.024445
Si Si2 0.665526 0.876986 0.543217
Si Si3 0.044548 0.819833 0.191049
Si Si4 0.267457 0.316417 0.503393
Si Si5 0.030065 0.469624 0.278077
Si Si6 0.000000 0.500000 0.000000
Si Si7 0.733571 0.637612 0.132383
Si Si8 0.085279 0.280606 0.328603
O O1 0.546198 0.374638 0.752818
O O2 0.500000 0.500000 0.000000
O O3 0.353461 0.103118 0.233936
O O4 0.211480 0.007932 0.132416
O O5 0.699206 0.777942 0.487967
O O6 0.478033 0.633649 0.643719
O O7 0.849438 0.210757 0.322486
O O8 0.902351 0.669364 0.477940
O O9 0.967411 0.598596 0.134667
O O10 0.145329 0.071139 0.010115
O O11 0.213501 0.321804 0.733809
O O12 0.103169 0.062377 0.530646
O O13 0.150018 0.692044 0.018992
O O14 0.066813 0.384187 0.272766
O O15 0.000000 0.500000 0.500000
O O16 0.767907 0.588953 0.929763
#
# Coordination Sequence:
#
# PCOD9105091 Si02
#       8
#     2   2   2   2   2   1   2   2
#     4  10  16  33  60  84 123 160 211 262 317 356
#     4  10  19  36  60  91 117 167 215 257 316 367
#     4  12  21  39  61  95 129 164 217 262 313 387
#     4  10  19  33  55  87 128 161 203 253 323 372
#     4  11  22  45  67  88 129 167 218 260 305 385
#     4  12  26  38  70  96 116 178 228 254 298 390
#     4  12  23  34  61 101 132 156 208 276 326 377
#     4  11  22  40  60  92 132 171 198 269 340 366
#
# _framework density 23.844477999999999
#
# number of rings (size 3 to 8) (size 9 to 14) (size 15 to 20)
#    0.000    1.067    8.000    2.800    1.867    0.000 
#    0.000    0.667    0.000    0.800    0.000    0.000 
#    0.000    0.000    0.000    0.000    0.000    0.000 
#
# Total GULP energy -83569.151673 kJ/mol
# GULP energy per Si atom -5571.276778 kJ/mol
# Density = 2.379021 g / cm^3
# Si number density = 23.844478 Si / 1000 Ang^3
#
#
#
# Elastic Constant Matrix: (Units=GPa)
#
#
# Indices 1 2 3 4 5 6 
#
# 1 51.4281 18.4379 9.2165 8.3383 6.2934 -3.7898
# 2 18.4379 96.4354 36.5658 19.5857 -8.4963 -7.9222
# 3 9.2165 36.5658 111.3151 38.6607 11.5651 7.1534
# 4 8.3383 19.5857 38.6607 52.2780 12.9189 5.0104
# 5 6.2934 -8.4963 11.5651 12.9189 38.9841 2.1653
# 6 -3.7898 -7.9222 7.1534 5.0104 2.1653 36.8656
#
#
#
# Elastic Compliance Matrix: (Units=1/GPa)
#
#
# Indices 1 2 3 4 5 6 
#
# 1 0.021757 -0.004283 0.000375 -0.001256 -0.004233 0.001663
# 2 -0.004283 0.014206 -0.003924 -0.003538 0.005929 0.003506
# 3 0.000375 -0.003924 0.013268 -0.007647 -0.002195 -0.002211
# 4 -0.001256 -0.003538 -0.007647 0.028451 -0.007571 -0.002828
# 5 -0.004233 0.005929 -0.002195 -0.007571 0.030760 0.000487
# 6 0.001663 0.003506 -0.002211 -0.002828 0.000487 0.028835
#
#
# Mechanical properties :
#
#
# Convention : Reuss Voigt Hill
#
# Bulk Modulus (GPa) = 29.79316 43.06878 36.43097
# Shear Modulus (GPa) = 30.46354 38.62277 34.54315
#
# Velocity S-wave (km/s) = 3.57822 4.02901 3.81029
# Velocity P-wave (km/s) = 5.43999 6.30440 5.88808
#
# Compressibility (1/GPa) = 0.03356476
#
# Stress axis : x y z
#
# Youngs Moduli (GPa) = 45.96164 70.39481 75.37213
#
# Poissons Ratio (x) = 0.30152 -0.02824
# Poissons Ratio (y) = 0.19686 0.29578
# Poissons Ratio (z) = -0.01722 0.27625
#
# Static dielectric constant tensor:
#      x y z
#    x 2.303350 -0.183110 0.585460 
#    y -0.183110 2.094230 -0.410990 
#    z 0.585460 -0.410990 3.103830 
# 
# From -- ./inp_files/223197.got.cif
#   From: 2010.05.17/outbox.cif.g08.bks.cpg/sg2_112_cif.got.tgz:223197.got - 2010.06.03 11:33:40.
