data_PCOD9105921
_publ_section_title
;
Structure prediction by ZEFSAII (Michael W. Deem and Ramdas Pophale) SiO2 
 PCOD9105921
Probable space group: P -1
;
_chemical_formula_sum "Si O2"
_cell_formula_units_Z 16
_cell_length_a 16.585969
_cell_length_b 11.533709
_cell_length_c 16.617074
_cell_angle_alpha 33.572127
_cell_angle_beta 149.084185
_cell_angle_gamma 148.523013
_cell_volume 789.379769
_symmetry_space_group_name_H-M "P -1"
_symmetry_group_IT_number 2
_symmetry_cell_setting 'triclinic'
loop_
_space_group_symop_operation_xyz
x,y,z
-x,-y,-z
loop_
_atom_site_type_symbol
_atom_site_label
_atom_site_fract_x
_atom_site_fract_y
_atom_site_fract_z
Si Si1 0.543090 0.008544 0.396410
Si Si2 0.836510 0.518300 0.310012
Si Si3 0.649534 0.925754 0.187607
Si Si4 0.771120 0.673376 0.326436
Si Si5 0.017350 0.349389 0.327002
Si Si6 0.096282 0.285501 0.925208
Si Si7 0.602819 0.793334 0.719273
Si Si8 0.390065 0.488347 0.492651
O O1 0.656658 0.970002 0.587658
O O2 0.464365 0.763862 0.422407
O O3 0.668775 0.250638 0.317448
O O4 0.396443 0.056400 0.289051
O O5 0.804157 0.675384 0.258837
O O6 0.874780 0.620565 0.195148
O O7 0.000000 0.500000 0.500000
O O8 0.714975 0.866376 0.194516
O O9 0.575758 0.681112 0.317968
O O10 0.824649 0.132543 0.262484
O O11 0.500000 0.000000 0.000000
O O12 0.604334 0.407212 0.353128
O O13 0.922620 0.698185 0.505672
O O14 0.998631 0.587934 0.181809
O O15 0.173056 0.378485 0.380658
O O16 0.283378 0.341096 0.094547
O O17 0.000000 0.000000 0.000000
O O18 0.500000 0.500000 0.500000
#
# Coordination Sequence:
#
# PCOD9105921 Si02
#       8
#     2   2   2   2   2   2   2   2
#     4  10  21  38  67  90 134 173 224 266 335 392
#     4  11  23  39  63  99 130 171 220 273 330 404
#     4  11  24  45  68  97 133 175 222 275 333 392
#     4  10  20  41  66  91 127 174 219 262 332 394
#     4  11  23  43  70  94 132 178 220 273 328 408
#     4  12  25  40  64  97 135 166 221 274 347 390
#     4  10  20  39  66  94 128 174 211 273 335 393
#     4  11  24  43  67  97 128 179 230 271 327 393
#
# _framework density 20.269078
#
# number of rings (size 3 to 8) (size 9 to 14) (size 15 to 20)
#    0.000    1.250    3.750    3.750    3.500    3.000 
#    4.500    0.625    0.000    0.000    0.000    0.000 
#    0.000    0.000    0.000    0.000    0.000    0.000 
#
# Total GULP energy -89297.248283 kJ/mol
# GULP energy per Si atom -5581.078018 kJ/mol
# Density = 2.022294 g / cm^3
# Si number density = 20.269078 Si / 1000 Ang^3
#
#
#
# Elastic Constant Matrix: (Units=GPa)
#
#
# Indices 1 2 3 4 5 6 
#
# 1 106.3762 26.6841 40.9935 -8.0212 12.2581 -5.3581
# 2 26.6841 104.0545 17.8143 -1.9531 9.4274 -14.1829
# 3 40.9935 17.8143 111.3673 -1.3912 29.0247 1.0292
# 4 -8.0212 -1.9531 -1.3912 29.8898 -1.0297 4.8744
# 5 12.2581 9.4274 29.0247 -1.0297 35.6644 -16.4587
# 6 -5.3581 -14.1829 1.0292 4.8744 -16.4587 25.4116
#
#
#
# Elastic Compliance Matrix: (Units=1/GPa)
#
#
# Indices 1 2 3 4 5 6 
#
# 1 0.011711 -0.002126 -0.004090 0.002621 0.000539 0.001294
# 2 -0.002126 0.011288 -0.001888 -0.001135 0.002976 0.008074
# 3 -0.004090 -0.001888 0.015312 0.001138 -0.016823 -0.013650
# 4 0.002621 -0.001135 0.001138 0.035651 -0.005295 -0.010395
# 5 0.000539 0.002976 -0.016823 -0.005295 0.060202 0.042463
# 6 0.001294 0.008074 -0.013650 -0.010395 0.042463 0.074181
#
#
# Mechanical properties :
#
#
# Convention : Reuss Voigt Hill
#
# Bulk Modulus (GPa) = 45.24264 54.75353 49.99809
# Shear Modulus (GPa) = 21.55922 33.94691 27.75307
#
# Velocity S-wave (km/s) = 3.26490 4.09689 3.70433
# Velocity P-wave (km/s) = 6.04833 7.03216 6.55872
#
# Compressibility (1/GPa) = 0.02210304
#
# Stress axis : x y z
#
# Youngs Moduli (GPa) = 85.39052 88.58771 65.31023
#
# Poissons Ratio (x) = 0.18835 0.26713
# Poissons Ratio (y) = 0.18155 0.12327
# Poissons Ratio (z) = 0.34927 0.16721
#
# Static dielectric constant tensor:
#      x y z
#    x 1.786910 0.003220 0.033010 
#    y 0.003220 1.777420 0.048260 
#    z 0.033010 0.048260 1.728650 
# 
# From -- ./inp_files/575838.got.cif
#   From: 2010.05.17/outbox.cif.g08.bks.cpg/sg2_288_cif.got.tgz:575838.got - 2010.06.03 11:33:40.
