data_PCOD9105934
_publ_section_title
;
Structure prediction by ZEFSAII (Michael W. Deem and Ramdas Pophale) SiO2 
 PCOD9105934
Probable space group: P -1
;
_chemical_formula_sum "Si O2"
_cell_formula_units_Z 14
_cell_length_a 12.611287
_cell_length_b 16.214518
_cell_length_c 12.397637
_cell_angle_alpha 34.230994
_cell_angle_beta 34.099889
_cell_angle_gamma 26.852912
_cell_volume 601.987866
_symmetry_space_group_name_H-M "P -1"
_symmetry_group_IT_number 2
_symmetry_cell_setting 'triclinic'
loop_
_space_group_symop_operation_xyz
x,y,z
-x,-y,-z
loop_
_atom_site_type_symbol
_atom_site_label
_atom_site_fract_x
_atom_site_fract_y
_atom_site_fract_z
Si Si1 0.935146 0.177035 0.747555
Si Si2 0.443788 0.894763 0.511668
Si Si3 0.545387 0.136623 0.856949
Si Si4 0.458589 0.445396 0.708748
Si Si5 0.234554 0.826812 0.560877
Si Si6 0.169919 0.090831 0.937095
Si Si7 0.742233 0.467276 0.795360
O O1 0.728958 0.312340 0.682001
O O2 0.850047 0.331533 0.745273
O O3 0.225179 0.055121 0.603960
O O4 0.901102 0.016430 0.958476
O O5 0.293167 0.873058 0.573927
O O6 0.582407 0.957641 0.267240
O O7 0.650481 0.679371 0.622162
O O8 0.382624 0.317342 0.881855
O O9 0.550773 0.223128 0.647591
O O10 0.500000 0.000000 0.000000
O O11 0.788640 0.987159 0.891568
O O12 0.500000 0.500000 0.500000
O O13 0.265806 0.636393 0.735749
O O14 0.000000 0.000000 0.500000
O O15 0.956284 0.323543 0.857793
O O16 0.500000 0.500000 0.000000
#
# Coordination Sequence:
#
# PCOD9105934 Si02
#       7
#     2   2   2   2   2   2   2
#     4  11  24  46  69  98 140 179 230 290 341 412
#     4  12  24  44  71 102 136 185 229 284 350 405
#     4  10  20  39  66  94 139 170 217 292 336 398
#     4   9  19  37  65  94 132 176 223 272 339 411
#     4  11  21  39  69  97 132 184 230 274 347 415
#     4  11  24  44  68 104 139 180 234 283 342 410
#     4  12  26  47  72  97 139 187 231 284 348 410
#
# _framework density 23.256281999999999
#
# number of rings (size 3 to 8) (size 9 to 14) (size 15 to 20)
#    0.000    1.143    4.286    3.429    0.000    0.571 
#    2.571    0.714    9.429    0.000    0.000    0.000 
#    0.000    0.000    0.000    0.000    0.000    0.000 
#
# Total GULP energy -78089.405110 kJ/mol
# GULP energy per Si atom -5577.814651 kJ/mol
# Density = 2.320335 g / cm^3
# Si number density = 23.256282 Si / 1000 Ang^3
#
#
#
# Elastic Constant Matrix: (Units=GPa)
#
#
# Indices 1 2 3 4 5 6 
#
# 1 82.4996 25.7892 -3.0018 -6.9262 4.5990 4.4762
# 2 25.7892 136.3253 16.1939 -9.9894 4.0908 10.9878
# 3 -3.0018 16.1939 61.1810 -2.2649 -3.2486 9.8055
# 4 -6.9262 -9.9894 -2.2649 37.7760 -3.4143 8.5446
# 5 4.5990 4.0908 -3.2486 -3.4143 35.3785 -5.3305
# 6 4.4762 10.9878 9.8055 8.5446 -5.3305 40.0480
#
#
#
# Elastic Compliance Matrix: (Units=1/GPa)
#
#
# Indices 1 2 3 4 5 6 
#
# 1 0.013276 -0.002344 0.001582 0.002210 -0.001380 -0.001883
# 2 -0.002344 0.008362 -0.001964 0.002056 -0.000963 -0.002118
# 3 0.001582 -0.001964 0.017755 0.001901 0.001198 -0.004231
# 4 0.002210 0.002056 0.001901 0.029321 0.001372 -0.007350
# 5 -0.001380 -0.000963 0.001198 0.001372 0.029363 0.003741
# 6 -0.001883 -0.002118 -0.004231 -0.007350 0.003741 0.028864
#
#
# Mechanical properties :
#
#
# Convention : Reuss Voigt Hill
#
# Bulk Modulus (GPa) = 29.46260 39.77428 34.61844
# Shear Modulus (GPa) = 34.79311 38.70881 36.75096
#
# Velocity S-wave (km/s) = 3.87211 4.08419 3.97956
# Velocity P-wave (km/s) = 5.71727 6.27539 6.00282
#
# Compressibility (1/GPa) = 0.03394133
#
# Stress axis : x y z
#
# Youngs Moduli (GPa) = 75.32180 119.58185 56.32374
#
# Poissons Ratio (x) = 0.28034 -0.08912
# Poissons Ratio (y) = 0.17658 0.11062
# Poissons Ratio (z) = -0.11918 0.23486
#
# Static dielectric constant tensor:
#      x y z
#    x 1.955540 0.084370 -0.011340 
#    y 0.084370 1.831150 0.125470 
#    z -0.011340 0.125470 1.858740 
# 
# From -- ./inp_files/523186.got.cif
#   From: 2010.05.17/outbox.cif.g08.bks.cpg/sg2_262_cif.got.tgz:523186.got - 2010.06.03 11:33:40.
