data_PCOD9105796
_publ_section_title
;
Structure prediction by ZEFSAII (Michael W. Deem and Ramdas Pophale) SiO2 
 PCOD9105796
Probable space group: P -1
;
_chemical_formula_sum "Si O2"
_cell_formula_units_Z 13
_cell_length_a 9.202692
_cell_length_b 13.937100
_cell_length_c 8.211253
_cell_angle_alpha 38.422236
_cell_angle_beta 124.133308
_cell_angle_gamma 125.085799
_cell_volume 522.700894
_symmetry_space_group_name_H-M "P -1"
_symmetry_group_IT_number 2
_symmetry_cell_setting 'triclinic'
loop_
_space_group_symop_operation_xyz
x,y,z
-x,-y,-z
loop_
_atom_site_type_symbol
_atom_site_label
_atom_site_fract_x
_atom_site_fract_y
_atom_site_fract_z
Si Si1 0.862703 0.335454 0.577529
Si Si2 0.608798 0.693492 0.146442
Si Si3 0.958444 0.703577 0.549717
Si Si4 0.183829 0.265038 0.268065
Si Si5 0.500000 0.500000 0.000000
Si Si6 0.919624 0.919852 0.854625
Si Si7 0.486704 0.810696 0.235796
O O1 0.668628 0.289629 0.604646
O O2 0.000000 0.500000 0.500000
O O3 0.876181 0.335832 0.390250
O O4 0.948596 0.190375 0.870535
O O5 0.766646 0.633333 0.425503
O O6 0.510706 0.573777 0.102864
O O7 0.481347 0.742888 0.138386
O O8 0.728654 0.852236 0.918093
O O9 0.946089 0.672817 0.775016
O O10 0.995903 0.895857 0.305680
O O11 0.293968 0.396015 0.038224
O O12 0.106410 0.114460 0.306098
O O13 0.329108 0.215148 0.540811
O O14 0.500000 0.000000 0.000000
#
# Coordination Sequence:
#
# PCOD9105796 Si02
#       7
#     2   2   2   2   1   2   2
#     4  11  24  37  62  96 133 160 208 271 330 367
#     4   9  20  37  66  85 123 170 210 251 304 392
#     4  10  20  39  66  87 120 175 216 249 313 396
#     4  10  23  38  69  87 124 168 218 253 304 389
#     4  10  22  38  58  92 120 156 226 250 296 366
#     4  10  20  43  64  92 123 169 220 254 309 392
#     4  11  23  41  65  98 127 165 213 268 325 375
#
# _framework density 24.870819999999998
#
# number of rings (size 3 to 8) (size 9 to 14) (size 15 to 20)
#    0.000    1.846    0.000    5.077    8.615    1.231 
#    0.000   10.769    0.000    0.000    0.000    0.000 
#    0.000    0.000    0.000    0.000    0.000    0.000 
#
# Total GULP energy -72436.889051 kJ/mol
# GULP energy per Si atom -5572.068389 kJ/mol
# Density = 2.481421 g / cm^3
# Si number density = 24.870820 Si / 1000 Ang^3
#
#
#
# Elastic Constant Matrix: (Units=GPa)
#
#
# Indices 1 2 3 4 5 6 
#
# 1 160.7820 57.9349 34.3613 -3.8015 -39.3498 -45.6902
# 2 57.9349 181.8499 12.8741 8.2831 -8.8684 -38.8529
# 3 34.3613 12.8741 40.6448 -15.6446 -5.7890 -13.1860
# 4 -3.8015 8.2831 -15.6446 38.2468 -7.9294 -11.7642
# 5 -39.3498 -8.8684 -5.7890 -7.9294 43.8196 9.4419
# 6 -45.6902 -38.8529 -13.1860 -11.7642 9.4419 50.7507
#
#
#
# Elastic Compliance Matrix: (Units=1/GPa)
#
#
# Indices 1 2 3 4 5 6 
#
# 1 0.012395 -0.001670 -0.004461 0.004132 0.009236 0.007961
# 2 -0.001670 0.006811 0.000070 -0.000670 -0.001045 0.003768
# 3 -0.004461 0.000070 0.039542 0.019419 0.002517 0.010344
# 4 0.004132 -0.000670 0.019419 0.041692 0.010235 0.016013
# 5 0.009236 -0.001045 0.002517 0.010235 0.032103 0.004569
# 6 0.007961 0.003768 0.010344 0.016013 0.004569 0.035306
#
#
# Mechanical properties :
#
#
# Convention : Reuss Voigt Hill
#
# Bulk Modulus (GPa) = 21.44736 65.95749 43.70243
# Shear Modulus (GPa) = 25.57375 45.10385 35.33880
#
# Velocity S-wave (km/s) = 3.21013 4.26317 3.77356
# Velocity P-wave (km/s) = 4.73098 7.12814 6.04949
#
# Compressibility (1/GPa) = 0.04662579
#
# Stress axis : x y z
#
# Youngs Moduli (GPa) = 80.67583 146.82803 25.28978
#
# Poissons Ratio (x) = 0.24520 0.11282
# Poissons Ratio (y) = 0.13473 -0.00178
# Poissons Ratio (z) = 0.35991 -0.01031
#
# Static dielectric constant tensor:
#      x y z
#    x 2.116850 -0.049810 0.001630 
#    y -0.049810 1.973000 0.096300 
#    z 0.001630 0.096300 2.138270 
# 
# From -- ./inp_files/153281.got.cif
#   From: 2010.05.17/outbox.cif.g08.bks.cpg/sg2_77_cif.got.tgz:153281.got - 2010.06.03 11:33:40.
