data_PCOD9105748
_publ_section_title
;
Structure prediction by ZEFSAII (Michael W. Deem and Ramdas Pophale) SiO2 
 PCOD9105748
Probable space group: P -1
;
_chemical_formula_sum "Si O2"
_cell_formula_units_Z 15
_cell_length_a 15.520046
_cell_length_b 7.468967
_cell_length_c 12.104186
_cell_angle_alpha 97.924347
_cell_angle_beta 42.627836
_cell_angle_gamma 68.295621
_cell_volume 669.746663
_symmetry_space_group_name_H-M "P -1"
_symmetry_group_IT_number 2
_symmetry_cell_setting 'triclinic'
loop_
_space_group_symop_operation_xyz
x,y,z
-x,-y,-z
loop_
_atom_site_type_symbol
_atom_site_label
_atom_site_fract_x
_atom_site_fract_y
_atom_site_fract_z
Si Si1 0.978725 0.510856 0.708284
Si Si2 0.348101 0.704667 0.075250
Si Si3 0.715401 0.819984 0.784714
Si Si4 0.280098 0.605890 0.721979
Si Si5 0.482965 0.562060 0.331835
Si Si6 0.888469 0.993552 0.372295
Si Si7 0.000000 0.000000 0.500000
Si Si8 0.049482 0.133693 0.070826
O O1 0.161708 0.365633 0.450633
O O2 0.021239 0.289151 0.717939
O O3 0.819755 0.650357 0.780658
O O4 0.928937 0.722933 0.854905
O O5 0.177773 0.747700 0.247448
O O6 0.263229 0.983114 0.211799
O O7 0.500000 0.500000 0.000000
O O8 0.418633 0.632999 0.878604
O O9 0.500000 0.000000 0.000000
O O10 0.404252 0.496646 0.488010
O O11 0.385277 0.447638 0.719311
O O12 0.105482 0.671856 0.855618
O O13 0.215636 0.877905 0.830041
O O14 0.315412 0.831326 0.459633
O O15 0.889514 0.102390 0.495262
O O16 0.980849 0.032321 0.200236
#
# Coordination Sequence:
#
# PCOD9105748 Si02
#       8
#     2   2   2   2   2   2   1   2
#     4  11  24  45  61  98 142 173 228 280 328 411
#     4  12  24  40  68 102 134 179 218 276 341 407
#     4  11  26  40  61  97 139 181 222 271 336 408
#     4   9  20  40  68  95 125 176 233 278 333 398
#     4  10  20  39  65  97 133 170 229 280 330 400
#     4  11  23  39  66  95 137 176 222 270 336 408
#     4  12  22  38  62  98 138 176 214 262 328 408
#     4  10  22  43  69  93 128 182 225 281 342 384
#
# _framework density 22.396528
#
# number of rings (size 3 to 8) (size 9 to 14) (size 15 to 20)
#    0.000    1.333    2.667    2.400    7.467    0.000 
#    2.400    6.667    0.000    0.000    0.000    0.000 
#    0.000    0.000    0.000    0.000    0.000    0.000 
#
# Total GULP energy -83536.093718 kJ/mol
# GULP energy per Si atom -5569.072915 kJ/mol
# Density = 2.234555 g / cm^3
# Si number density = 22.396528 Si / 1000 Ang^3
#
#
#
# Elastic Constant Matrix: (Units=GPa)
#
#
# Indices 1 2 3 4 5 6 
#
# 1 115.4649 25.6659 31.1836 2.7254 -0.4469 -33.8576
# 2 25.6659 56.8241 -7.2170 16.4491 0.1346 -12.2410
# 3 31.1836 -7.2170 113.7154 3.8357 8.0956 -14.3815
# 4 2.7254 16.4491 3.8357 19.3018 -14.7164 2.7163
# 5 -0.4469 0.1346 8.0956 -14.7164 50.9743 16.5836
# 6 -33.8576 -12.2410 -14.3815 2.7163 16.5836 38.1338
#
#
#
# Elastic Compliance Matrix: (Units=1/GPa)
#
#
# Indices 1 2 3 4 5 6 
#
# 1 0.013815 0.000161 -0.000807 -0.010320 -0.008011 0.016232
# 2 0.000161 0.062595 0.018386 -0.104640 -0.051901 0.057194
# 3 -0.000807 0.018386 0.015873 -0.037987 -0.021034 0.023025
# 4 -0.010320 -0.104640 -0.037987 0.263187 0.124482 -0.129960
# 5 -0.008011 -0.051901 -0.021034 0.124482 0.084055 -0.077127
# 6 0.016232 0.057194 0.023025 -0.129960 -0.077127 0.110476
#
#
# Mechanical properties :
#
#
# Convention : Reuss Voigt Hill
#
# Bulk Modulus (GPa) = 7.82699 42.80771 25.31735
# Shear Modulus (GPa) = 8.97489 37.44010 23.20750
#
# Velocity S-wave (km/s) = 2.00399 4.09307 3.22251
# Velocity P-wave (km/s) = 2.97606 6.44148 5.01745
#
# Compressibility (1/GPa) = 0.12776303
#
# Stress axis : x y z
#
# Youngs Moduli (GPa) = 72.38385 15.97568 63.00091
#
# Poissons Ratio (x) = -0.00256 0.05084
# Poissons Ratio (y) = -0.01162 -1.15836
# Poissons Ratio (z) = 0.05841 -0.29374
#
# Static dielectric constant tensor:
#      x y z
#    x 1.997050 -0.013410 -0.036500 
#    y -0.013410 1.835300 -0.060290 
#    z -0.036500 -0.060290 1.942150 
# 
# From -- ./inp_files/447795.got.cif
#   From: 2010.05.17/outbox.cif.g08.bks.cpg/sg2_224_cif.got.tgz:447795.got - 2010.06.03 11:33:40.
