data_PCOD9105210
_publ_section_title
;
Structure prediction by ZEFSAII (Michael W. Deem and Ramdas Pophale) SiO2 
 PCOD9105210
Probable space group: P -1
;
_chemical_formula_sum "Si O2"
_cell_formula_units_Z 14
_cell_length_a 20.850688
_cell_length_b 12.140153
_cell_length_c 9.042421
_cell_angle_alpha 141.067049
_cell_angle_beta 35.758835
_cell_angle_gamma 154.965171
_cell_volume 557.547310
_symmetry_space_group_name_H-M "P -1"
_symmetry_group_IT_number 2
_symmetry_cell_setting 'triclinic'
loop_
_space_group_symop_operation_xyz
x,y,z
-x,-y,-z
loop_
_atom_site_type_symbol
_atom_site_label
_atom_site_fract_x
_atom_site_fract_y
_atom_site_fract_z
Si Si1 0.865222 0.231096 0.887988
Si Si2 0.485120 0.188342 0.865886
Si Si3 0.071711 0.958072 0.197272
Si Si4 0.586550 0.946843 0.485891
Si Si5 0.587442 0.553957 0.545028
Si Si6 0.968949 0.091165 0.319147
Si Si7 0.048996 0.723778 0.741201
O O1 0.816169 0.023409 0.885872
O O2 0.956099 0.258755 0.607379
O O3 0.689495 0.103030 0.053016
O O4 0.000000 0.500000 0.000000
O O5 0.608053 0.184335 0.691747
O O6 0.481078 0.177711 0.683661
O O7 0.481731 0.378262 0.141319
O O8 0.000000 0.000000 0.500000
O O9 0.110943 0.146761 0.192947
O O10 0.968463 0.693768 0.015051
O O11 0.462634 0.696996 0.565953
O O12 0.763055 0.078271 0.345977
O O13 0.500000 0.500000 0.500000
O O14 0.784501 0.800647 0.404263
O O15 0.980303 0.154202 0.193501
O O16 0.000000 0.500000 0.500000
#
# Coordination Sequence:
#
# PCOD9105210 Si02
#       7
#     2   2   2   2   2   2   2
#     4  10  20  39  63  96 134 174 226 282 337 413
#     4  10  24  44  67 100 135 184 238 279 346 414
#     4  10  22  42  66  93 132 178 225 279 339 410
#     4  11  24  46  68  99 138 187 230 284 350 411
#     4  11  23  44  68  97 139 177 230 289 339 420
#     4  10  23  40  63 100 129 178 227 279 352 404
#     4  12  24  44  68 101 142 173 228 293 346 417
#
# _framework density 25.109978000000002
#
# number of rings (size 3 to 8) (size 9 to 14) (size 15 to 20)
#    0.000    1.429    2.857    1.714    2.000    1.714 
#    2.571    0.000    0.000    0.000    0.000    0.000 
#    0.000    0.000    0.000    0.000    0.000    0.000 
#
# Total GULP energy -77989.906929 kJ/mol
# GULP energy per Si atom -5570.707638 kJ/mol
# Density = 2.505283 g / cm^3
# Si number density = 25.109978 Si / 1000 Ang^3
#
#
#
# Elastic Constant Matrix: (Units=GPa)
#
#
# Indices 1 2 3 4 5 6 
#
# 1 176.4197 15.0158 34.3803 1.6014 5.6907 -26.0482
# 2 15.0158 55.8538 3.9145 6.3934 -2.7371 -3.6615
# 3 34.3803 3.9145 82.0693 13.7563 23.9956 -1.3609
# 4 1.6014 6.3934 13.7563 24.0176 5.7835 1.0696
# 5 5.6907 -2.7371 23.9956 5.7835 62.0167 0.2077
# 6 -26.0482 -3.6615 -1.3609 1.0696 0.2077 39.2669
#
#
#
# Elastic Compliance Matrix: (Units=1/GPa)
#
#
# Indices 1 2 3 4 5 6 
#
# 1 0.007033 -0.001534 -0.003150 0.001463 0.000355 0.004372
# 2 -0.001534 0.019055 0.000264 -0.005496 0.001389 0.000911
# 3 -0.003150 0.000264 0.016337 -0.007890 -0.005281 -0.001256
# 4 0.001463 -0.005496 -0.007890 0.048003 -0.001797 -0.001113
# 5 0.000355 0.001389 -0.005281 -0.001797 0.018364 0.000134
# 6 0.004372 0.000911 -0.001256 -0.001113 0.000134 0.028438
#
#
# Mechanical properties :
#
#
# Convention : Reuss Voigt Hill
#
# Bulk Modulus (GPa) = 29.77400 46.77379 38.27390
# Shear Modulus (GPa) = 31.79354 42.46238 37.12796
#
# Velocity S-wave (km/s) = 3.56219 4.11671 3.84945
# Velocity P-wave (km/s) = 5.36676 6.42374 5.91889
#
# Compressibility (1/GPa) = 0.03358635
#
# Stress axis : x y z
#
# Youngs Moduli (GPa) = 142.17848 52.48069 61.20940
#
# Poissons Ratio (x) = 0.08049 0.19279
# Poissons Ratio (y) = 0.21805 -0.01615
# Poissons Ratio (z) = 0.44782 -0.01385
#
# Static dielectric constant tensor:
#      x y z
#    x 1.873720 -0.171130 -0.063130 
#    y -0.171130 1.908160 0.050310 
#    z -0.063130 0.050310 2.113990 
# 
# From -- ./inp_files/258315.got.cif
#   From: 2010.05.17/outbox.cif.g08.bks.cpg/sg2_130_cif.got.tgz:258315.got - 2010.06.03 11:33:40.
