data_PCOD9105502
_publ_section_title
;
Structure prediction by ZEFSAII (Michael W. Deem and Ramdas Pophale) SiO2 
 PCOD9105502
Probable space group: P -1
;
_chemical_formula_sum "Si O2"
_cell_formula_units_Z 16
_cell_length_a 13.538590
_cell_length_b 8.655222
_cell_length_c 12.367958
_cell_angle_alpha 102.840796
_cell_angle_beta 54.099562
_cell_angle_gamma 136.186054
_cell_volume 758.824686
_symmetry_space_group_name_H-M "P -1"
_symmetry_group_IT_number 2
_symmetry_cell_setting 'triclinic'
loop_
_space_group_symop_operation_xyz
x,y,z
-x,-y,-z
loop_
_atom_site_type_symbol
_atom_site_label
_atom_site_fract_x
_atom_site_fract_y
_atom_site_fract_z
Si Si1 0.086855 0.555110 0.610499
Si Si2 0.741432 0.795723 0.855285
Si Si3 0.100635 0.200497 0.560060
Si Si4 0.704366 0.136914 0.674658
Si Si5 0.048749 0.503761 0.090023
Si Si6 0.420854 0.036653 0.963276
Si Si7 0.417203 0.345442 0.291282
Si Si8 0.824496 0.733867 0.024479
O O1 0.129749 0.411560 0.544866
O O2 0.215901 0.781894 0.484579
O O3 0.875683 0.362428 0.673638
O O4 0.095911 0.612569 0.738593
O O5 0.657257 0.650566 0.773457
O O6 0.597486 0.796750 0.974909
O O7 0.773484 0.728941 0.932998
O O8 0.949954 0.051568 0.728888
O O9 0.299305 0.311192 0.457223
O O10 0.000000 0.000000 0.500000
O O11 0.539082 0.098990 0.794005
O O12 0.639696 0.896997 0.711241
O O13 0.122945 0.398472 0.029039
O O14 0.000000 0.500000 0.000000
O O15 0.212214 0.782492 0.051537
O O16 0.500000 0.000000 0.000000
O O17 0.636328 0.575622 0.188443
O O18 0.000000 0.000000 0.000000
#
# Coordination Sequence:
#
# PCOD9105502 Si02
#       8
#     2   2   2   2   2   2   2   2
#     4  11  23  40  68 105 137 179 223 281 347 405
#     4  11  22  40  68 102 135 173 222 281 345 404
#     4  10  20  39  64  99 141 170 209 276 350 399
#     4  11  22  37  68 104 139 170 227 284 342 404
#     4  12  25  46  72  90 135 186 231 279 337 405
#     4  12  19  41  69 100 133 176 227 283 335 396
#     4  11  22  42  66 101 135 177 218 282 347 402
#     4  12  28  44  65  96 134 179 234 282 335 400
#
# _framework density 21.085238
#
# number of rings (size 3 to 8) (size 9 to 14) (size 15 to 20)
#    0.000    0.750    7.500    1.125    3.500    1.000 
#    0.000    1.250    0.000    0.000    0.000    0.000 
#    0.000    0.000    0.000    0.000    0.000    0.000 
#
# Total GULP energy -89302.038387 kJ/mol
# GULP energy per Si atom -5581.377399 kJ/mol
# Density = 2.103725 g / cm^3
# Si number density = 21.085238 Si / 1000 Ang^3
#
#
#
# Elastic Constant Matrix: (Units=GPa)
#
#
# Indices 1 2 3 4 5 6 
#
# 1 103.7023 16.4495 55.4129 4.9912 8.6983 -12.2688
# 2 16.4495 41.5818 28.5838 -18.4503 0.0093 5.1152
# 3 55.4129 28.5838 156.1720 -16.3329 -7.9249 0.3852
# 4 4.9912 -18.4503 -16.3329 34.3694 -3.5402 -3.4738
# 5 8.6983 0.0093 -7.9249 -3.5402 42.9538 5.6113
# 6 -12.2688 5.1152 0.3852 -3.4738 5.6113 21.7399
#
#
#
# Elastic Compliance Matrix: (Units=1/GPa)
#
#
# Indices 1 2 3 4 5 6 
#
# 1 0.016173 -0.007832 -0.005576 -0.008725 -0.006505 0.011354
# 2 -0.007832 0.038962 -0.001966 0.020416 0.004390 -0.011423
# 3 -0.005576 -0.001966 0.009379 0.004271 0.003617 -0.003102
# 4 -0.008725 0.020416 0.004271 0.043584 0.006741 -0.004579
# 5 -0.006505 0.004390 0.003617 0.006741 0.027220 -0.010717
# 6 0.011354 -0.011423 -0.003102 -0.004579 -0.010717 0.057183
#
#
# Mechanical properties :
#
#
# Convention : Reuss Voigt Hill
#
# Bulk Modulus (GPa) = 29.61466 55.81651 42.71559
# Shear Modulus (GPa) = 21.32155 33.21329 27.26742
#
# Velocity S-wave (km/s) = 3.18340 3.97317 3.60001
# Velocity P-wave (km/s) = 5.25240 6.89764 6.13046
#
# Compressibility (1/GPa) = 0.03376705
#
# Stress axis : x y z
#
# Youngs Moduli (GPa) = 61.82957 25.66605 106.61819
#
# Poissons Ratio (x) = 0.20102 0.59448
# Poissons Ratio (y) = 0.48425 0.20962
# Poissons Ratio (z) = 0.34475 0.05046
#
# Static dielectric constant tensor:
#      x y z
#    x 1.750020 0.004840 -0.004130 
#    y 0.004840 2.016010 0.102610 
#    z -0.004130 0.102610 1.877100 
# 
# From -- ./inp_files/298378.got.cif
#   From: 2010.05.17/outbox.cif.g08.bks.cpg/sg2_150_cif.got.tgz:298378.got - 2010.06.03 11:33:40.
