data_PCOD9105241
_publ_section_title
;
Structure prediction by ZEFSAII (Michael W. Deem and Ramdas Pophale) SiO2 
 PCOD9105241
Probable space group: P -1
;
_chemical_formula_sum "Si O2"
_cell_formula_units_Z 14
_cell_length_a 32.272559
_cell_length_b 5.066423
_cell_length_c 18.200190
_cell_angle_alpha 120.955632
_cell_angle_beta 164.559281
_cell_angle_gamma 59.236550
_cell_volume 677.838386
_symmetry_space_group_name_H-M "P -1"
_symmetry_group_IT_number 2
_symmetry_cell_setting 'triclinic'
loop_
_space_group_symop_operation_xyz
x,y,z
-x,-y,-z
loop_
_atom_site_type_symbol
_atom_site_label
_atom_site_fract_x
_atom_site_fract_y
_atom_site_fract_z
Si Si1 0.529401 0.488582 0.357698
Si Si2 0.667250 0.140388 0.821459
Si Si3 0.165010 0.379853 0.363307
Si Si4 0.774428 0.476278 0.907863
Si Si5 0.937263 0.934264 0.721768
Si Si6 0.586078 0.789232 0.348462
Si Si7 0.616372 0.702190 0.144254
O O1 0.368937 0.641989 0.139038
O O2 0.651803 0.455255 0.628997
O O3 0.589084 0.712462 0.429096
O O4 0.525111 0.136642 0.273838
O O5 0.710793 0.336900 0.853884
O O6 0.500000 0.000000 0.500000
O O7 0.787469 0.842790 0.993954
O O8 0.075167 0.137475 0.222488
O O9 0.243588 0.278889 0.406625
O O10 0.063871 0.700923 0.235933
O O11 0.225859 0.180362 0.604667
O O12 0.925443 0.270535 0.110555
O O13 0.683176 0.578644 0.319121
O O14 0.467912 0.551783 0.080539
O O15 0.500000 0.000000 0.000000
#
# Coordination Sequence:
#
# PCOD9105241 Si02
#       7
#     2   2   2   2   2   2   2
#     4  11  23  35  58  90 113 146 188 239 303 332
#     4  10  20  39  64  82 110 150 198 241 276 338
#     4  10  21  36  55  86 111 154 196 226 273 332
#     4  11  21  41  61  85 116 148 194 238 282 352
#     4  10  22  35  61  85 111 153 204 224 278 329
#     4  12  21  35  58  87 120 146 189 243 283 332
#     4  10  21  37  63  81 115 153 206 232 266 327
#
# _framework density 20.653888999999999
#
# number of rings (size 3 to 8) (size 9 to 14) (size 15 to 20)
#    0.857    0.571    1.429    7.286    2.000    0.000 
#    0.000    4.286    0.000    5.143    0.000    0.000 
#    0.000    0.000    0.000    0.000    0.000    0.000 
#
# Total GULP energy -78161.206465 kJ/mol
# GULP energy per Si atom -5582.943319 kJ/mol
# Density = 2.060688 g / cm^3
# Si number density = 20.653889 Si / 1000 Ang^3
#
#
#
# Elastic Constant Matrix: (Units=GPa)
#
#
# Indices 1 2 3 4 5 6 
#
# 1 195.6344 -52.0971 -26.9904 15.5373 -34.7092 18.8245
# 2 -52.0971 176.8289 41.8650 -64.7423 25.9834 -7.6571
# 3 -26.9904 41.8650 53.5183 -32.5689 19.5826 -10.4395
# 4 15.5373 -64.7423 -32.5689 53.8564 -26.8340 10.5782
# 5 -34.7092 25.9834 19.5826 -26.8340 33.4092 -10.3375
# 6 18.8245 -7.6571 -10.4395 10.5782 -10.3375 42.9388
#
#
#
# Elastic Compliance Matrix: (Units=1/GPa)
#
#
# Indices 1 2 3 4 5 6 
#
# 1 0.007655 0.003272 0.002465 0.008782 0.010454 -0.001820
# 2 0.003272 0.011790 -0.000219 0.017274 0.007679 -0.001792
# 3 0.002465 -0.000219 0.031250 0.016795 -0.001482 0.001983
# 4 0.008782 0.017274 0.016795 0.066804 0.038286 -0.003927
# 5 0.010454 0.007679 -0.001482 0.038286 0.067440 0.003230
# 6 -0.001820 -0.001792 0.001983 -0.003927 0.003230 0.025994
#
#
# Mechanical properties :
#
#
# Convention : Reuss Voigt Hill
#
# Bulk Modulus (GPa) = 16.19918 39.05963 27.62940
# Shear Modulus (GPa) = 22.67835 56.92116 39.79975
#
# Velocity S-wave (km/s) = 3.31723 5.25541 4.39451
# Velocity P-wave (km/s) = 4.74681 7.46849 6.25742
#
# Compressibility (1/GPa) = 0.06173154
#
# Stress axis : x y z
#
# Youngs Moduli (GPa) = 130.62560 84.81874 32.00000
#
# Poissons Ratio (x) = -0.27755 -0.07889
# Poissons Ratio (y) = -0.42744 0.00702
# Poissons Ratio (z) = -0.32203 0.01861
#
# Static dielectric constant tensor:
#      x y z
#    x 1.766910 -0.025880 -0.013640 
#    y -0.025880 1.777860 0.018540 
#    z -0.013640 0.018540 1.757060 
# 
# From -- ./inp_files/96186.got.cif
#   From: 2010.05.17/outbox.cif.g08.bks.cpg/sg2_49_cif.got.tgz:96186.got - 2010.06.03 11:33:40.
