data_PCOD9105185
_publ_section_title
;
Structure prediction by ZEFSAII (Michael W. Deem and Ramdas Pophale) SiO2 
 PCOD9105185
Probable space group: P -1
;
_chemical_formula_sum "Si O2"
_cell_formula_units_Z 16
_cell_length_a 13.236643
_cell_length_b 15.875588
_cell_length_c 9.775986
_cell_angle_alpha 122.264418
_cell_angle_beta 94.841808
_cell_angle_gamma 37.457808
_cell_volume 793.822059
_symmetry_space_group_name_H-M "P -1"
_symmetry_group_IT_number 2
_symmetry_cell_setting 'triclinic'
loop_
_space_group_symop_operation_xyz
x,y,z
-x,-y,-z
loop_
_atom_site_type_symbol
_atom_site_label
_atom_site_fract_x
_atom_site_fract_y
_atom_site_fract_z
Si Si1 0.374421 0.979998 0.241290
Si Si2 0.120925 0.023745 0.764351
Si Si3 0.905051 0.035074 0.880272
Si Si4 0.807623 0.734259 0.112315
Si Si5 0.888769 0.419851 0.184683
Si Si6 0.438419 0.767044 0.843395
Si Si7 0.069363 0.664147 0.566169
Si Si8 0.386661 0.896140 0.459606
O O1 0.580398 0.872707 0.186384
O O2 0.388002 0.890644 0.291374
O O3 0.385347 0.917201 0.041482
O O4 0.120479 0.237764 0.439730
O O5 0.990949 0.033503 0.772127
O O6 0.304311 0.872229 0.776924
O O7 0.249903 0.932896 0.559931
O O8 0.945173 0.264708 0.985125
O O9 0.649015 0.241538 0.069561
O O10 0.998265 0.842465 0.707775
O O11 0.000000 0.000000 0.000000
O O12 0.732882 0.895714 0.331980
O O13 0.000000 0.500000 0.000000
O O14 0.920615 0.675283 0.935356
O O15 0.902433 0.392921 0.324058
O O16 0.642707 0.671145 0.338619
O O17 0.696354 0.543013 0.657620
#
# Coordination Sequence:
#
# PCOD9105185 Si02
#       8
#     2   2   2   2   2   2   2   2
#     4  11  24  42  61  88 126 162 202 254 309 366
#     4  10  20  39  63  95 124 158 209 252 294 362
#     4   9  18  36  61  94 127 158 207 247 296 367
#     4  11  25  42  65  89 119 161 211 251 303 373
#     4  11  21  39  62  93 122 155 207 257 295 362
#     4  10  21  37  61  91 125 162 198 251 304 355
#     4  11  22  38  63  93 128 163 198 254 314 349
#     4  11  24  40  66  90 120 162 209 248 306 367
#
# _framework density 20.155652
#
# number of rings (size 3 to 8) (size 9 to 14) (size 15 to 20)
#    0.000    1.500    6.250    0.375    1.750    3.500 
#    0.000    3.750    0.000    4.500    0.000    0.000 
#    0.000    0.000    0.000    0.000    0.000    0.000 
#
# Total GULP energy -89205.547750 kJ/mol
# GULP energy per Si atom -5575.346734 kJ/mol
# Density = 2.010978 g / cm^3
# Si number density = 20.155652 Si / 1000 Ang^3
#
#
#
# Elastic Constant Matrix: (Units=GPa)
#
#
# Indices 1 2 3 4 5 6 
#
# 1 83.8924 24.8158 36.1660 10.9961 -32.9036 1.2692
# 2 24.8158 80.6820 31.5804 20.8881 -14.7064 -0.4183
# 3 36.1660 31.5804 80.2591 27.0620 -38.3838 -5.4291
# 4 10.9961 20.8881 27.0620 36.6000 -0.7301 -9.0578
# 5 -32.9036 -14.7064 -38.3838 -0.7301 37.6230 0.8621
# 6 1.2692 -0.4183 -5.4291 -9.0578 0.8621 24.1862
#
#
#
# Elastic Compliance Matrix: (Units=1/GPa)
#
#
# Indices 1 2 3 4 5 6 
#
# 1 0.020202 -0.001753 0.004937 -0.009337 0.021936 -0.004261
# 2 -0.001753 0.016253 -0.001388 -0.008455 0.003315 -0.003223
# 3 0.004937 -0.001388 0.046730 -0.035436 0.050874 -0.004878
# 4 -0.009337 -0.008455 -0.035436 0.064751 -0.046785 0.018306
# 5 0.021936 0.003315 0.050874 -0.046785 0.098300 -0.010699
# 6 -0.004261 -0.003223 -0.004878 0.018306 -0.010699 0.047656
#
#
# Mechanical properties :
#
#
# Convention : Reuss Voigt Hill
#
# Bulk Modulus (GPa) = 11.52358 47.77309 29.64833
# Shear Modulus (GPa) = 15.66304 29.83325 22.74814
#
# Velocity S-wave (km/s) = 2.79068 3.85144 3.36314
# Velocity P-wave (km/s) = 4.01417 6.59785 5.46101
#
# Compressibility (1/GPa) = 0.08677861
#
# Stress axis : x y z
#
# Youngs Moduli (GPa) = 49.50028 61.52788 21.39971
#
# Poissons Ratio (x) = 0.10783 -0.10566
# Poissons Ratio (y) = 0.08675 0.02969
# Poissons Ratio (z) = -0.24439 0.08537
#
# Static dielectric constant tensor:
#      x y z
#    x 1.746540 0.000240 -0.011050 
#    y 0.000240 1.734490 0.019930 
#    z -0.011050 0.019930 1.769390 
# 
# From -- ./inp_files/317827.got.cif
#   From: 2010.05.17/outbox.cif.g08.bks.cpg/sg2_159_cif.got.tgz:317827.got - 2010.06.03 11:33:40.
