data_PCOD9105974
_publ_section_title
;
Structure prediction by ZEFSAII (Michael W. Deem and Ramdas Pophale) SiO2 
 PCOD9105974
Probable space group: P -1
;
_chemical_formula_sum "Si O2"
_cell_formula_units_Z 16
_cell_length_a 22.640316
_cell_length_b 6.975606
_cell_length_c 11.930438
_cell_angle_alpha 47.278191
_cell_angle_beta 153.247224
_cell_angle_gamma 128.819776
_cell_volume 621.830864
_symmetry_space_group_name_H-M "P -1"
_symmetry_group_IT_number 2
_symmetry_cell_setting 'triclinic'
loop_
_space_group_symop_operation_xyz
x,y,z
-x,-y,-z
loop_
_atom_site_type_symbol
_atom_site_label
_atom_site_fract_x
_atom_site_fract_y
_atom_site_fract_z
Si Si1 0.977250 0.715886 0.471732
Si Si2 0.942806 0.520483 0.739426
Si Si3 0.511453 0.973854 0.163080
Si Si4 0.219655 0.995573 0.333307
Si Si5 0.207196 0.431969 0.326605
Si Si6 0.432494 0.635543 0.495048
Si Si7 0.272588 0.258555 0.080228
Si Si8 0.270091 0.833408 0.930499
O O1 0.948862 0.582884 0.595192
O O2 0.000000 0.500000 0.500000
O O3 0.115885 0.884459 0.653851
O O4 0.844327 0.843631 0.158530
O O5 0.835628 0.635584 0.593834
O O6 0.901019 0.212502 0.797920
O O7 0.085092 0.580129 0.011227
O O8 0.642278 0.136120 0.360604
O O9 0.539341 0.670208 0.362236
O O10 0.378334 0.031274 0.977941
O O11 0.500000 0.000000 0.000000
O O12 0.209150 0.179743 0.350397
O O13 0.234980 0.155143 0.180921
O O14 0.342837 0.603004 0.467316
O O15 0.576902 0.783373 0.681634
O O16 0.338016 0.744693 0.196506
O O17 0.268673 0.572604 0.954058
#
# Coordination Sequence:
#
# PCOD9105974 Si02
#       8
#     2   2   2   2   2   2   2   2
#     4  10  21  34  58  90 120 158 208 249 304 362
#     4  11  23  38  62  92 124 157 210 251 301 368
#     4  10  20  31  56  92 121 151 206 256 295 358
#     4  11  21  38  64  90 122 162 206 250 309 361
#     4  10  21  39  61  89 123 164 201 251 308 362
#     4  10  17  36  61  81 115 171 202 238 311 366
#     4  10  18  34  59  88 121 159 203 253 302 363
#     4  10  16  34  55  85 114 166 202 238 302 371
#
# _framework density 25.730467000000001
#
# number of rings (size 3 to 8) (size 9 to 14) (size 15 to 20)
#    0.000    1.750    5.000    1.875    5.250    0.000 
#    2.250    1.250    0.000    8.250    0.000    0.000 
#    0.000    0.000    0.000    0.000    0.000    0.000 
#
# Total GULP energy -89504.368931 kJ/mol
# GULP energy per Si atom -5594.023058 kJ/mol
# Density = 2.567190 g / cm^3
# Si number density = 25.730467 Si / 1000 Ang^3
#
#
#
# Elastic Constant Matrix: (Units=GPa)
#
#
# Indices 1 2 3 4 5 6 
#
# 1 186.1583 44.7791 53.1088 17.5146 5.1255 27.0754
# 2 44.7791 76.0920 23.9463 15.4886 13.4787 11.3412
# 3 53.1088 23.9463 168.4119 35.6885 17.0626 17.7266
# 4 17.5146 15.4886 35.6885 30.0026 10.8712 8.8066
# 5 5.1255 13.4787 17.0626 10.8712 49.2420 7.8498
# 6 27.0754 11.3412 17.7266 8.8066 7.8498 46.5493
#
#
#
# Elastic Compliance Matrix: (Units=1/GPa)
#
#
# Indices 1 2 3 4 5 6 
#
# 1 0.007022 -0.003417 -0.001525 -0.000124 0.001215 -0.002852
# 2 -0.003417 0.016864 0.000270 -0.005768 -0.002980 -0.000630
# 3 -0.001525 0.000270 0.008377 -0.008757 -0.000792 -0.000579
# 4 -0.000124 -0.005768 -0.008757 0.049983 -0.005825 -0.003662
# 5 0.001215 -0.002980 -0.000792 -0.005825 0.022948 -0.002447
# 6 -0.002852 -0.000630 -0.000579 -0.003662 -0.002447 0.024621
#
#
# Mechanical properties :
#
#
# Convention : Reuss Voigt Hill
#
# Bulk Modulus (GPa) = 43.63208 74.92562 59.27885
# Shear Modulus (GPa) = 34.06048 45.74730 39.90389
#
# Velocity S-wave (km/s) = 3.64227 4.22114 3.94235
# Velocity P-wave (km/s) = 5.88917 7.27599 6.61900
#
# Compressibility (1/GPa) = 0.02291891
#
# Stress axis : x y z
#
# Youngs Moduli (GPa) = 142.41127 59.29880 119.37101
#
# Poissons Ratio (x) = 0.20264 0.18205
# Poissons Ratio (y) = 0.48665 -0.03226
# Poissons Ratio (z) = 0.21719 -0.01603
#
# Static dielectric constant tensor:
#      x y z
#    x 2.048280 -0.027260 0.093800 
#    y -0.027260 2.046870 -0.030660 
#    z 0.093800 -0.030660 2.094310 
# 
# From -- ./inp_files/469869.got.cif
#   From: 2010.05.17/outbox.cif.g08.bks.cpg/sg2_235_cif.got.tgz:469869.got - 2010.06.03 11:33:40.
