data_PCOD9105517
_publ_section_title
;
Structure prediction by ZEFSAII (Michael W. Deem and Ramdas Pophale) SiO2 
 PCOD9105517
Probable space group: P -1
;
_chemical_formula_sum "Si O2"
_cell_formula_units_Z 16
_cell_length_a 7.842122
_cell_length_b 10.598246
_cell_length_c 9.236073
_cell_angle_alpha 87.950297
_cell_angle_beta 131.816468
_cell_angle_gamma 101.005078
_cell_volume 557.174736
_symmetry_space_group_name_H-M "P -1"
_symmetry_group_IT_number 2
_symmetry_cell_setting 'triclinic'
loop_
_space_group_symop_operation_xyz
x,y,z
-x,-y,-z
loop_
_atom_site_type_symbol
_atom_site_label
_atom_site_fract_x
_atom_site_fract_y
_atom_site_fract_z
Si Si1 0.632650 0.169635 0.948782
Si Si2 0.168305 0.202606 0.569076
Si Si3 0.826336 0.457128 0.054796
Si Si4 0.380683 0.109326 0.113431
Si Si5 0.785187 0.092674 0.570004
Si Si6 0.330036 0.502509 0.712916
Si Si7 0.274069 0.645937 0.386548
Si Si8 0.224964 0.184145 0.301358
O O1 0.417742 0.162907 0.715039
O O2 0.801464 0.307334 0.007100
O O3 0.728688 0.040900 0.980760
O O4 0.498646 0.168538 0.027769
O O5 0.216276 0.350448 0.639487
O O6 0.059270 0.192726 0.346977
O O7 0.018771 0.111597 0.607306
O O8 0.610609 0.512046 0.865407
O O9 0.908038 0.458619 0.806832
O O10 0.751352 0.453958 0.182261
O O11 0.598196 0.110822 0.342874
O O12 0.220217 0.178304 0.123009
O O13 0.810363 0.220443 0.675341
O O14 0.734717 0.960851 0.635169
O O15 0.253463 0.583132 0.537106
O O16 0.557130 0.695390 0.534255
#
# Coordination Sequence:
#
# PCOD9105517 Si02
#       8
#     2   2   2   2   2   2   2   2
#     4  10  22  38  65  97 135 172 220 278 328 402
#     4  11  23  41  68  97 134 170 227 274 337 403
#     4  10  20  39  65 101 135 174 223 280 334 398
#     4  10  21  40  67  95 131 175 224 273 336 396
#     4  11  22  41  71  95 125 181 227 271 335 404
#     4  10  22  39  66 102 135 174 223 279 329 408
#     4  11  22  40  70  97 131 180 224 273 340 400
#     4  11  24  42  70  96 136 176 221 284 337 396
#
# _framework density 28.716305999999999
#
# number of rings (size 3 to 8) (size 9 to 14) (size 15 to 20)
#    0.000    1.500    2.500    3.750    1.750    0.500 
#    0.000    3.125    5.500    0.750    0.000    0.000 
#    0.000    0.000    0.000    0.000    0.000    0.000 
#
# Total GULP energy -89618.943952 kJ/mol
# GULP energy per Si atom -5601.183997 kJ/mol
# Density = 2.865095 g / cm^3
# Si number density = 28.716306 Si / 1000 Ang^3
#
#
#
# Elastic Constant Matrix: (Units=GPa)
#
#
# Indices 1 2 3 4 5 6 
#
# 1 100.0092 27.6148 41.9042 3.3126 -27.5515 16.2011
# 2 27.6148 161.2223 37.1882 21.3090 -3.3782 23.7314
# 3 41.9042 37.1882 133.3503 4.3977 -0.3012 14.3100
# 4 3.3126 21.3090 4.3977 56.1998 -3.2073 -7.3459
# 5 -27.5515 -3.3782 -0.3012 -3.2073 54.0863 -2.2550
# 6 16.2011 23.7314 14.3100 -7.3459 -2.2550 39.3208
#
#
#
# Elastic Compliance Matrix: (Units=1/GPa)
#
#
# Indices 1 2 3 4 5 6 
#
# 1 0.014416 -0.000847 -0.003874 -0.000299 0.007098 -0.003667
# 2 -0.000847 0.007754 -0.001301 -0.003398 -0.000344 -0.004512
# 3 -0.003874 -0.001301 0.009205 -0.000265 -0.002067 -0.001137
# 4 -0.000299 -0.003398 -0.000265 0.019974 0.001071 0.006064
# 5 0.007098 -0.000344 -0.002067 0.001071 0.022115 -0.000496
# 6 -0.003667 -0.004512 -0.001137 0.006064 -0.000496 0.031184
#
#
# Mechanical properties :
#
#
# Convention : Reuss Voigt Hill
#
# Bulk Modulus (GPa) = 51.73247 67.55512 59.64380
# Shear Modulus (GPa) = 40.60567 49.11302 44.85934
#
# Velocity S-wave (km/s) = 3.76444 4.14004 3.95670
# Velocity P-wave (km/s) = 6.07855 6.81391 6.45671
#
# Compressibility (1/GPa) = 0.01933022
#
# Stress axis : x y z
#
# Youngs Moduli (GPa) = 69.36775 128.97037 108.63291
#
# Poissons Ratio (x) = 0.10929 0.42088
# Poissons Ratio (y) = 0.05878 0.14129
# Poissons Ratio (z) = 0.26875 0.16774
#
# Static dielectric constant tensor:
#      x y z
#    x 2.372890 0.012870 0.065660 
#    y 0.012870 2.135930 0.056540 
#    z 0.065660 0.056540 2.247830 
# 
# From -- ./inp_files/186544.got.cif
#   From: 2010.05.17/outbox.cif.g08.bks.cpg/sg2_94_cif.got.tgz:186544.got - 2010.06.03 11:33:40.
