data_PCOD9105337
_publ_section_title
;
Structure prediction by ZEFSAII (Michael W. Deem and Ramdas Pophale) SiO2 
 PCOD9105337
Probable space group: P -1
;
_chemical_formula_sum "Si O2"
_cell_formula_units_Z 14
_cell_length_a 9.702724
_cell_length_b 10.692232
_cell_length_c 14.477029
_cell_angle_alpha 126.022514
_cell_angle_beta 116.476442
_cell_angle_gamma 107.517340
_cell_volume 683.216829
_symmetry_space_group_name_H-M "P -1"
_symmetry_group_IT_number 2
_symmetry_cell_setting 'triclinic'
loop_
_space_group_symop_operation_xyz
x,y,z
-x,-y,-z
loop_
_atom_site_type_symbol
_atom_site_label
_atom_site_fract_x
_atom_site_fract_y
_atom_site_fract_z
Si Si1 0.100160 0.323030 0.144264
Si Si2 0.491890 0.300036 0.863942
Si Si3 0.071564 0.094252 0.420583
Si Si4 0.939101 0.020367 0.137753
Si Si5 0.554881 0.439658 0.141133
Si Si6 0.213871 0.753918 0.117189
Si Si7 0.590380 0.902219 0.519119
O O1 0.361915 0.608017 0.331255
O O2 0.068677 0.146820 0.993967
O O3 0.058816 0.237377 0.199319
O O4 0.897015 0.283473 0.029719
O O5 0.573012 0.498680 0.904801
O O6 0.562742 0.190104 0.799485
O O7 0.625466 0.423307 0.056291
O O8 0.204667 0.105461 0.711670
O O9 0.234502 0.345972 0.633295
O O10 0.200770 0.027812 0.444517
O O11 0.064754 0.113605 0.316380
O O12 0.652120 0.825724 0.989006
O O13 0.296255 0.967287 0.291292
O O14 0.000000 0.500000 0.000000
O O15 0.500000 0.000000 0.500000
#
# Coordination Sequence:
#
# PCOD9105337 Si02
#       7
#     2   2   2   2   2   2   2
#     4  11  23  40  63  95 130 165 216 261 320 370
#     4  10  24  38  65  95 126 168 212 260 327 376
#     4  11  22  40  64  96 128 170 213 262 316 381
#     4  10  22  40  63  94 125 172 216 260 306 384
#     4  10  20  39  64  90 127 165 217 255 311 376
#     4  12  24  42  65  93 131 163 205 273 326 374
#     4  12  24  37  67  98 129 160 208 268 323 371
#
# _framework density 20.491299999999999
#
# number of rings (size 3 to 8) (size 9 to 14) (size 15 to 20)
#    0.000    1.143    4.286    2.143    4.000    2.857 
#    0.000    2.857    0.000    5.143    0.000    0.000 
#    0.000    0.000    0.000    0.000    0.000    0.000 
#
# Total GULP energy -78194.556751 kJ/mol
# GULP energy per Si atom -5585.325482 kJ/mol
# Density = 2.044466 g / cm^3
# Si number density = 20.491300 Si / 1000 Ang^3
#
#
#
# Elastic Constant Matrix: (Units=GPa)
#
#
# Indices 1 2 3 4 5 6 
#
# 1 95.3098 29.2421 35.8559 5.4947 10.3388 2.5426
# 2 29.2421 115.3275 34.4750 0.0798 8.2880 10.7965
# 3 35.8559 34.4750 128.2498 -6.0822 -7.5759 6.8941
# 4 5.4947 0.0798 -6.0822 28.2263 3.9796 -5.3719
# 5 10.3388 8.2880 -7.5759 3.9796 34.1362 -4.6668
# 6 2.5426 10.7965 6.8941 -5.3719 -4.6668 23.0440
#
#
#
# Elastic Compliance Matrix: (Units=1/GPa)
#
#
# Indices 1 2 3 4 5 6 
#
# 1 0.012999 -0.001876 -0.003452 -0.002892 -0.004050 -0.001017
# 2 -0.001876 0.010488 -0.002247 -0.000631 -0.003060 -0.004801
# 3 -0.003452 -0.002247 0.009689 0.002233 0.003447 -0.000246
# 4 -0.002892 -0.000631 0.002233 0.038347 -0.001780 0.008525
# 5 -0.004050 -0.003060 0.003447 -0.001780 0.033215 0.007161
# 6 -0.001017 -0.004801 -0.000246 0.008525 0.007161 0.049268
#
#
# Mechanical properties :
#
#
# Convention : Reuss Voigt Hill
#
# Bulk Modulus (GPa) = 55.47400 59.78144 57.62772
# Shear Modulus (GPa) = 28.54417 33.03558 30.78988
#
# Velocity S-wave (km/s) = 3.73633 4.01955 3.88052
# Velocity P-wave (km/s) = 6.76345 7.12599 6.94709
#
# Compressibility (1/GPa) = 0.01802646
#
# Stress axis : x y z
#
# Youngs Moduli (GPa) = 76.92702 95.34436 103.20726
#
# Poissons Ratio (x) = 0.17887 0.35624
# Poissons Ratio (y) = 0.14432 0.23195
# Poissons Ratio (z) = 0.26553 0.21428
#
# Static dielectric constant tensor:
#      x y z
#    x 1.740150 0.010730 0.000880 
#    y 0.010730 1.731480 -0.024020 
#    z 0.000880 -0.024020 1.768910 
# 
# From -- ./inp_files/270625.got.cif
#   From: 2010.05.17/outbox.cif.g08.bks.cpg/sg2_136_cif.got.tgz:270625.got - 2010.06.03 11:33:40.
