data_PCOD9105060
_publ_section_title
;
Structure prediction by ZEFSAII (Michael W. Deem and Ramdas Pophale) SiO2 
 PCOD9105060
Probable space group: P -1
;
_chemical_formula_sum "Si O2"
_cell_formula_units_Z 16
_cell_length_a 12.233518
_cell_length_b 11.815981
_cell_length_c 11.228611
_cell_angle_alpha 121.481229
_cell_angle_beta 55.557106
_cell_angle_gamma 146.597554
_cell_volume 732.407142
_symmetry_space_group_name_H-M "P -1"
_symmetry_group_IT_number 2
_symmetry_cell_setting 'triclinic'
loop_
_space_group_symop_operation_xyz
x,y,z
-x,-y,-z
loop_
_atom_site_type_symbol
_atom_site_label
_atom_site_fract_x
_atom_site_fract_y
_atom_site_fract_z
Si Si1 0.060557 0.818159 0.558637
Si Si2 0.328371 0.517922 0.859753
Si Si3 0.492920 0.921471 0.590175
Si Si4 0.026340 0.880136 0.982033
Si Si5 0.053364 0.637422 0.683123
Si Si6 0.209145 0.141054 0.229452
Si Si7 0.301253 0.759263 0.156408
Si Si8 0.994282 0.239827 0.711895
O O1 0.028219 0.664498 0.577006
O O2 0.939912 0.850487 0.702172
O O3 0.972484 0.735657 0.435522
O O4 0.309971 0.025438 0.506899
O O5 0.186151 0.326196 0.934424
O O6 0.557386 0.637053 0.768325
O O7 0.195249 0.418037 0.766181
O O8 0.358308 0.687505 0.990364
O O9 0.500000 0.000000 0.500000
O O10 0.536790 0.043574 0.748258
O O11 0.746868 0.299159 0.378452
O O12 0.090832 0.809476 0.818499
O O13 0.194495 0.033532 0.065285
O O14 0.000000 0.000000 0.000000
O O15 0.854434 0.425763 0.752926
O O16 0.109884 0.979092 0.307093
O O17 0.173172 0.772507 0.171271
#
# Coordination Sequence:
#
# PCOD9105060 Si02
#       8
#     2   2   2   2   2   2   2   2
#     4  10  21  39  59  85 121 161 196 247 293 350
#     4  10  23  39  62  91 116 160 201 242 300 352
#     4   9  20  36  58  87 115 156 195 235 299 349
#     4  10  20  39  63  90 121 150 192 248 302 356
#     4  10  20  39  63  90 119 153 195 255 302 349
#     4  11  22  40  59  87 124 157 200 243 295 356
#     4  10  21  40  61  91 120 149 203 252 297 350
#     4  10  23  39  59  83 121 162 203 246 286 349
#
# _framework density 21.845772
#
# number of rings (size 3 to 8) (size 9 to 14) (size 15 to 20)
#    0.000    2.000    1.250    1.500    0.000    8.000 
#    2.250    6.250    0.000    0.000    0.000    0.000 
#    0.000    0.000    0.000    0.000    0.000    0.000 
#
# Total GULP energy -89331.643364 kJ/mol
# GULP energy per Si atom -5583.227710 kJ/mol
# Density = 2.179605 g / cm^3
# Si number density = 21.845772 Si / 1000 Ang^3
#
#
#
# Elastic Constant Matrix: (Units=GPa)
#
#
# Indices 1 2 3 4 5 6 
#
# 1 117.5588 56.2958 30.3716 -1.3008 3.4194 16.7370
# 2 56.2958 82.5986 14.9732 6.8606 7.2813 31.6085
# 3 30.3716 14.9732 68.6260 2.4562 12.1481 25.6073
# 4 -1.3008 6.8606 2.4562 18.0300 2.9886 0.0971
# 5 3.4194 7.2813 12.1481 2.9886 39.2073 2.9444
# 6 16.7370 31.6085 25.6073 0.0971 2.9444 37.0599
#
#
#
# Elastic Compliance Matrix: (Units=1/GPa)
#
#
# Indices 1 2 3 4 5 6 
#
# 1 0.016115 -0.014367 -0.008748 0.007331 0.002604 0.010794
# 2 -0.014367 0.032347 0.011324 -0.013895 -0.005065 -0.028486
# 3 -0.008748 0.011324 0.026149 -0.007192 -0.007152 -0.023188
# 4 0.007331 -0.013895 -0.007192 0.062452 -0.001603 0.013473
# 5 0.002604 -0.005065 -0.007152 -0.001603 0.028117 0.005856
# 6 0.010794 -0.028486 -0.023188 0.013473 0.005856 0.061926
#
#
# Mechanical properties :
#
#
# Convention : Reuss Voigt Hill
#
# Bulk Modulus (GPa) = 19.59693 52.45163 36.02428
# Shear Modulus (GPa) = 18.67773 30.00230 24.34001
#
# Velocity S-wave (km/s) = 2.92718 3.70992 3.34155
# Velocity P-wave (km/s) = 4.51825 6.51256 5.60482
#
# Compressibility (1/GPa) = 0.05102840
#
# Stress axis : x y z
#
# Youngs Moduli (GPa) = 62.05423 30.91453 38.24270
#
# Poissons Ratio (x) = 0.44414 0.33457
# Poissons Ratio (y) = 0.89151 -0.43305
# Poissons Ratio (z) = 0.54288 -0.35007
#
# Static dielectric constant tensor:
#      x y z
#    x 1.786530 -0.019770 -0.013980 
#    y -0.019770 1.797900 0.007480 
#    z -0.013980 0.007480 1.868230 
# 
# From -- ./inp_files/428692.got.cif
#   From: 2010.05.17/outbox.cif.g08.bks.cpg/sg2_215_cif.got.tgz:428692.got - 2010.06.03 11:33:40.
