data_PCOD9105583
_publ_section_title
;
Structure prediction by ZEFSAII (Michael W. Deem and Ramdas Pophale) SiO2 
 PCOD9105583
Probable space group: P -1
;
_chemical_formula_sum "Si O2"
_cell_formula_units_Z 13
_cell_length_a 8.916284
_cell_length_b 7.865721
_cell_length_c 9.058694
_cell_angle_alpha 112.163259
_cell_angle_beta 102.115782
_cell_angle_gamma 106.666709
_cell_volume 526.182678
_symmetry_space_group_name_H-M "P -1"
_symmetry_group_IT_number 2
_symmetry_cell_setting 'triclinic'
loop_
_space_group_symop_operation_xyz
x,y,z
-x,-y,-z
loop_
_atom_site_type_symbol
_atom_site_label
_atom_site_fract_x
_atom_site_fract_y
_atom_site_fract_z
Si Si1 0.667805 0.499496 0.958496
Si Si2 0.151311 0.041704 0.933358
Si Si3 0.231825 0.520429 0.722381
Si Si4 0.580074 0.097138 0.329389
Si Si5 0.066224 0.847722 0.540655
Si Si6 0.529286 0.652234 0.418283
Si Si7 0.500000 0.000000 0.000000
O O1 0.617286 0.406745 0.753840
O O2 0.500000 0.500000 0.000000
O O3 0.789759 0.731348 0.033815
O O4 0.760513 0.437793 0.089714
O O5 0.076853 0.890830 0.731383
O O6 0.322472 0.026437 0.018100
O O7 0.000000 0.000000 0.000000
O O8 0.347916 0.732595 0.736017
O O9 0.319258 0.370287 0.643651
O O10 0.044254 0.385198 0.592014
O O11 0.742809 0.103623 0.446726
O O12 0.462994 0.151704 0.431166
O O13 0.509160 0.913762 0.144151
O O14 0.000000 0.000000 0.500000
O O15 0.500000 0.500000 0.500000
#
# Coordination Sequence:
#
# PCOD9105583 Si02
#       7
#     2   2   2   2   2   2   1
#     4  10  20  39  66  93 133 175 221 273 344 393
#     4  11  24  40  68  97 131 182 223 276 337 407
#     4  10  20  39  65  90 129 173 215 272 341 396
#     4  10  22  40  66  92 124 175 226 270 330 409
#     4  11  23  42  61  90 136 174 214 278 340 391
#     4   9  19  35  64  93 120 168 223 267 321 400
#     4  10  22  42  62  94 134 168 222 274 334 390
#
# _framework density 24.706247000000001
#
# number of rings (size 3 to 8) (size 9 to 14) (size 15 to 20)
#    0.000    1.846    1.538    3.231    6.462    0.000 
#    0.000    7.692    0.000    0.000    0.000    0.000 
#    0.000    0.000    0.000    0.000    0.000    0.000 
#
# Total GULP energy -72402.748974 kJ/mol
# GULP energy per Si atom -5569.442229 kJ/mol
# Density = 2.465001 g / cm^3
# Si number density = 24.706247 Si / 1000 Ang^3
#
#
#
# Elastic Constant Matrix: (Units=GPa)
#
#
# Indices 1 2 3 4 5 6 
#
# 1 111.5491 24.6971 24.3149 -14.7059 -9.1348 -0.6840
# 2 24.6971 97.4042 25.6708 -25.0535 2.0122 13.2233
# 3 24.3149 25.6708 152.4094 -12.8942 -0.0481 14.9559
# 4 -14.7059 -25.0535 -12.8942 29.8967 -9.6456 2.5945
# 5 -9.1348 2.0122 -0.0481 -9.6456 47.9542 -0.8611
# 6 -0.6840 13.2233 14.9559 2.5945 -0.8611 42.3627
#
#
#
# Elastic Compliance Matrix: (Units=1/GPa)
#
#
# Indices 1 2 3 4 5 6 
#
# 1 0.010326 -0.001382 -0.001127 0.004303 0.002904 0.000791
# 2 -0.001382 0.014582 -0.000713 0.012146 0.001477 -0.005036
# 3 -0.001127 -0.000713 0.007301 0.002291 0.000238 -0.002509
# 4 0.004303 0.012146 0.002291 0.050726 0.010382 -0.007426
# 5 0.002904 0.001477 0.000238 0.010382 0.023421 -0.000658
# 6 0.000791 -0.005036 -0.002509 -0.007426 -0.000658 0.026518
#
#
# Mechanical properties :
#
#
# Convention : Reuss Voigt Hill
#
# Bulk Modulus (GPa) = 38.81261 56.74756 47.78009
# Shear Modulus (GPa) = 33.80483 43.15470 38.47977
#
# Velocity S-wave (km/s) = 3.70303 4.18390 3.95079
# Velocity P-wave (km/s) = 5.83326 6.80873 6.33979
#
# Compressibility (1/GPa) = 0.02576482
#
# Stress axis : x y z
#
# Youngs Moduli (GPa) = 96.84026 68.57711 136.96009
#
# Poissons Ratio (x) = 0.09475 0.15440
# Poissons Ratio (y) = 0.13380 0.09771
# Poissons Ratio (z) = 0.10917 0.04893
#
# Static dielectric constant tensor:
#      x y z
#    x 1.957950 -0.017770 0.049490 
#    y -0.017770 1.991400 -0.184030 
#    z 0.049490 -0.184030 1.693240 
# 
# From -- ./inp_files/151576.got.cif
#   From: 2010.05.17/outbox.cif.g08.bks.cpg/sg2_76_cif.got.tgz:151576.got - 2010.06.03 11:33:40.
