data_PCOD9105072
_publ_section_title
;
Structure prediction by ZEFSAII (Michael W. Deem and Ramdas Pophale) SiO2 
 PCOD9105072
Probable space group: P -1
;
_chemical_formula_sum "Si O2"
_cell_formula_units_Z 12
_cell_length_a 7.631523
_cell_length_b 15.789563
_cell_length_c 6.621805
_cell_angle_alpha 52.455133
_cell_angle_beta 57.726157
_cell_angle_gamma 53.740756
_cell_volume 490.980814
_symmetry_space_group_name_H-M "P -1"
_symmetry_group_IT_number 2
_symmetry_cell_setting 'triclinic'
loop_
_space_group_symop_operation_xyz
x,y,z
-x,-y,-z
loop_
_atom_site_type_symbol
_atom_site_label
_atom_site_fract_x
_atom_site_fract_y
_atom_site_fract_z
Si Si1 0.598250 0.566190 0.687269
Si Si2 0.974675 0.509024 0.240322
Si Si3 0.134035 0.227900 0.051382
Si Si4 0.354721 0.130006 0.472224
Si Si5 0.592319 0.182709 0.589609
Si Si6 0.916054 0.947361 0.934856
O O1 0.745051 0.507063 0.481433
O O2 0.404715 0.690348 0.567186
O O3 0.800004 0.584160 0.662409
O O4 0.500000 0.500000 0.000000
O O5 0.979521 0.634348 0.108482
O O6 0.000000 0.500000 0.000000
O O7 0.193511 0.199842 0.291071
O O8 0.001765 0.154268 0.142599
O O9 0.384242 0.190243 0.854741
O O10 0.528857 0.174853 0.405432
O O11 0.500000 0.000000 0.500000
O O12 0.213883 0.114356 0.765900
O O13 0.783318 0.062739 0.719341
O O14 0.000000 0.000000 0.000000
#
# Coordination Sequence:
#
# PCOD9105072 Si02
#       6
#     2   2   2   2   2   2
#     4  10  23  43  66  95 130 175 220 274 327 392
#     4  10  22  43  68  98 131 171 224 275 330 389
#     4  10  20  39  65  90 127 168 210 264 325 396
#     4  11  18  36  63  86 117 166 204 246 323 391
#     4  10  20  39  63  90 125 166 216 262 322 395
#     4  11  23  37  57  96 130 160 209 267 326 389
#
# _framework density 24.440874000000001
#
# number of rings (size 3 to 8) (size 9 to 14) (size 15 to 20)
#    0.000    1.667    3.333    2.000    0.000    4.000 
#    3.000    0.000    0.000    0.000    0.000    0.000 
#    0.000    0.000    0.000    0.000    0.000    0.000 
#
# Total GULP energy -66858.301499 kJ/mol
# GULP energy per Si atom -5571.525125 kJ/mol
# Density = 2.438525 g / cm^3
# Si number density = 24.440874 Si / 1000 Ang^3
#
#
#
# Elastic Constant Matrix: (Units=GPa)
#
#
# Indices 1 2 3 4 5 6 
#
# 1 71.3197 36.1429 37.9317 -3.9230 7.1440 11.6847
# 2 36.1429 105.3356 43.2810 -4.6635 14.6351 8.4369
# 3 37.9317 43.2810 174.2908 9.1388 2.0410 5.8640
# 4 -3.9230 -4.6635 9.1388 48.5549 1.0902 8.3391
# 5 7.1440 14.6351 2.0410 1.0902 46.7323 -2.1720
# 6 11.6847 8.4369 5.8640 8.3391 -2.1720 26.5599
#
#
#
# Elastic Compliance Matrix: (Units=1/GPa)
#
#
# Indices 1 2 3 4 5 6 
#
# 1 0.019480 -0.004436 -0.003021 0.003066 -0.001882 -0.007610
# 2 -0.004436 0.012630 -0.002142 0.001746 -0.003336 -0.002408
# 3 -0.003021 -0.002142 0.006981 -0.001985 0.000928 0.001167
# 4 0.003066 0.001746 -0.001985 0.022941 -0.001874 -0.008821
# 5 -0.001882 -0.003336 0.000928 -0.001874 0.022927 0.004146
# 6 -0.007610 -0.002408 0.001167 -0.008821 0.004146 0.044615
#
#
# Mechanical properties :
#
#
# Convention : Reuss Voigt Hill
#
# Bulk Modulus (GPa) = 50.27036 65.07303 57.67170
# Shear Modulus (GPa) = 32.17460 39.94213 36.05837
#
# Velocity S-wave (km/s) = 3.63219 4.04695 3.84517
# Velocity P-wave (km/s) = 6.18088 6.96560 6.58494
#
# Compressibility (1/GPa) = 0.01989244
#
# Stress axis : x y z
#
# Youngs Moduli (GPa) = 51.33480 79.17931 143.24937
#
# Poissons Ratio (x) = 0.35125 0.43269
# Poissons Ratio (y) = 0.22773 0.30688
# Poissons Ratio (z) = 0.15506 0.16962
#
# Static dielectric constant tensor:
#      x y z
#    x 2.041620 0.094970 0.004270 
#    y 0.094970 2.070480 0.051350 
#    z 0.004270 0.051350 1.921380 
# 
# From -- ./inp_files/33906.got.cif
#   From: 2010.05.17/outbox.cif.g08.bks.cpg/sg2_17_cif.got.tgz:33906.got - 2010.06.03 11:33:40.
