data_PCOD9105778
_publ_section_title
;
Structure prediction by ZEFSAII (Michael W. Deem and Ramdas Pophale) SiO2 
 PCOD9105778
Probable space group: P -1
;
_chemical_formula_sum "Si O2"
_cell_formula_units_Z 14
_cell_length_a 10.919547
_cell_length_b 6.380635
_cell_length_c 12.813319
_cell_angle_alpha 98.199526
_cell_angle_beta 123.789183
_cell_angle_gamma 120.813342
_cell_volume 510.288974
_symmetry_space_group_name_H-M "P -1"
_symmetry_group_IT_number 2
_symmetry_cell_setting 'triclinic'
loop_
_space_group_symop_operation_xyz
x,y,z
-x,-y,-z
loop_
_atom_site_type_symbol
_atom_site_label
_atom_site_fract_x
_atom_site_fract_y
_atom_site_fract_z
Si Si1 0.930764 0.669147 0.438544
Si Si2 0.188430 0.614412 0.266956
Si Si3 0.416976 0.510541 0.242754
Si Si4 0.518863 0.242630 0.907504
Si Si5 0.010897 0.198717 0.763858
Si Si6 0.700344 0.979473 0.996818
Si Si7 0.313949 0.479156 0.495899
O O1 0.938472 0.653383 0.316201
O O2 0.000000 0.500000 0.500000
O O3 0.730049 0.484905 0.406058
O O4 0.000000 0.000000 0.500000
O O5 0.274538 0.564102 0.209447
O O6 0.163941 0.840036 0.261792
O O7 0.324765 0.687124 0.437933
O O8 0.940380 0.303144 0.140292
O O9 0.517346 0.529352 0.398463
O O10 0.690307 0.797139 0.887797
O O11 0.574072 0.762546 0.244745
O O12 0.548845 0.022922 0.904380
O O13 0.763447 0.572696 0.056633
O O14 0.614634 0.827506 0.060327
O O15 0.896595 0.858742 0.668724
#
# Coordination Sequence:
#
# PCOD9105778 Si02
#       7
#     2   2   2   2   2   2   2
#     4  10  20  39  66 101 136 181 234 292 355 419
#     4  11  24  42  66  93 133 178 222 281 342 422
#     4  12  25  41  65  97 134 175 224 277 349 419
#     4  10  23  44  67  95 129 171 227 286 344 409
#     4  10  22  41  66  96 130 178 227 283 349 413
#     4  10  23  43  67  94 126 172 222 282 342 406
#     4  11  24  40  63  97 133 178 221 285 345 416
#
# _framework density 27.435435999999999
#
# number of rings (size 3 to 8) (size 9 to 14) (size 15 to 20)
#    0.000    1.429    1.429    3.000    0.000    8.571 
#    5.143    0.000    0.000    0.000    0.000    0.000 
#    0.000    0.000    0.000    0.000    0.000    0.000 
#
# Total GULP energy -78217.955280 kJ/mol
# GULP energy per Si atom -5586.996806 kJ/mol
# Density = 2.737299 g / cm^3
# Si number density = 27.435436 Si / 1000 Ang^3
#
#
#
# Elastic Constant Matrix: (Units=GPa)
#
#
# Indices 1 2 3 4 5 6 
#
# 1 123.6940 29.0503 40.9688 1.2335 -9.5912 -32.9612
# 2 29.0503 125.6531 57.4597 -12.1277 -5.4255 -7.3469
# 3 40.9688 57.4597 76.7869 -13.1835 -21.2659 -8.3888
# 4 1.2335 -12.1277 -13.1835 49.9702 -3.5156 -5.0580
# 5 -9.5912 -5.4255 -21.2659 -3.5156 38.3193 -3.0407
# 6 -32.9612 -7.3469 -8.3888 -5.0580 -3.0407 54.8783
#
#
#
# Elastic Compliance Matrix: (Units=1/GPa)
#
#
# Indices 1 2 3 4 5 6 
#
# 1 0.011594 0.000269 -0.005931 -0.001179 0.000015 0.005985
# 2 0.000269 0.012624 -0.010745 -0.000070 -0.004117 -0.000026
# 3 -0.005931 -0.010745 0.029241 0.006312 0.013866 0.000819
# 4 -0.001179 -0.000070 0.006312 0.022337 0.005454 0.002608
# 5 0.000015 -0.004117 0.013866 0.005454 0.034028 0.003966
# 6 0.005985 -0.000026 0.000819 0.002608 0.003966 0.022399
#
#
# Mechanical properties :
#
#
# Convention : Reuss Voigt Hill
#
# Bulk Modulus (GPa) = 48.43952 64.56573 56.50262
# Shear Modulus (GPa) = 29.08387 41.87726 35.48056
#
# Velocity S-wave (km/s) = 3.25943 3.91115 3.60006
# Velocity P-wave (km/s) = 5.64440 6.63181 6.15793
#
# Compressibility (1/GPa) = 0.02064430
#
# Stress axis : x y z
#
# Youngs Moduli (GPa) = 86.25506 79.21624 34.19870
#
# Poissons Ratio (x) = -0.02128 0.20283
# Poissons Ratio (y) = -0.02317 0.36745
# Poissons Ratio (z) = 0.51158 0.85114
#
# Static dielectric constant tensor:
#      x y z
#    x 2.134960 -0.036080 0.071810 
#    y -0.036080 2.277800 -0.021060 
#    z 0.071810 -0.021060 2.141690 
# 
# From -- ./inp_files/511103.got.cif
#   From: 2010.05.17/outbox.cif.g08.bks.cpg/sg2_256_cif.got.tgz:511103.got - 2010.06.03 11:33:40.
