data_PCOD9105765
_publ_section_title
;
Structure prediction by ZEFSAII (Michael W. Deem and Ramdas Pophale) SiO2 
 PCOD9105765
Probable space group: P -1
;
_chemical_formula_sum "Si O2"
_cell_formula_units_Z 16
_cell_length_a 21.063917
_cell_length_b 9.411977
_cell_length_c 11.460483
_cell_angle_alpha 139.435926
_cell_angle_beta 29.835277
_cell_angle_gamma 128.071854
_cell_volume 728.759113
_symmetry_space_group_name_H-M "P -1"
_symmetry_group_IT_number 2
_symmetry_cell_setting 'triclinic'
loop_
_space_group_symop_operation_xyz
x,y,z
-x,-y,-z
loop_
_atom_site_type_symbol
_atom_site_label
_atom_site_fract_x
_atom_site_fract_y
_atom_site_fract_z
Si Si1 0.285726 0.231131 0.961616
Si Si2 0.904118 0.368908 0.401689
Si Si3 0.377914 0.928524 0.082519
Si Si4 0.059655 0.011315 0.082313
Si Si5 0.878861 0.766707 0.349599
Si Si6 0.698977 0.140783 0.098939
Si Si7 0.048474 0.641471 0.190518
Si Si8 0.525780 0.547092 0.350867
O O1 0.220742 0.461721 0.264947
O O2 0.177528 0.136141 0.999882
O O3 0.397017 0.271631 0.718558
O O4 0.313070 0.047833 0.905051
O O5 0.951693 0.194958 0.317070
O O6 0.017361 0.518001 0.281604
O O7 0.897466 0.199246 0.199483
O O8 0.248625 0.093892 0.410097
O O9 0.373713 0.919533 0.941562
O O10 0.385461 0.680356 0.962158
O O11 0.500000 0.000000 0.000000
O O12 0.996858 0.905676 0.225578
O O13 0.904363 0.719876 0.416591
O O14 0.898369 0.544870 0.104711
O O15 0.618480 0.372930 0.414762
O O16 0.842703 0.196576 0.873096
O O17 0.500000 0.500000 0.500000
#
# Coordination Sequence:
#
# PCOD9105765 Si02
#       8
#     2   2   2   2   2   2   2   2
#     4  12  23  43  70  97 137 179 230 286 343 411
#     4  10  23  38  62 104 139 178 223 271 348 409
#     4  11  24  43  66  97 134 182 233 282 329 416
#     4  10  22  40  62 101 142 177 214 292 340 402
#     4  10  20  39  65  99 138 174 222 276 347 391
#     4  11  24  43  67  97 135 182 234 275 345 401
#     4  10  21  38  67 101 138 175 217 283 333 414
#     4  10  25  46  67  93 127 180 230 277 344 407
#
# _framework density 21.955127999999998
#
# number of rings (size 3 to 8) (size 9 to 14) (size 15 to 20)
#    0.000    1.500    1.250    3.000    5.250    1.000 
#   13.500    0.625    0.000    0.000    0.000    0.000 
#    0.000    0.000    0.000    0.000    0.000    0.000 
#
# Total GULP energy -89101.840247 kJ/mol
# GULP energy per Si atom -5568.865015 kJ/mol
# Density = 2.190516 g / cm^3
# Si number density = 21.955128 Si / 1000 Ang^3
#
#
#
# Elastic Constant Matrix: (Units=GPa)
#
#
# Indices 1 2 3 4 5 6 
#
# 1 21.0996 -46.7291 36.9818 5.2610 -10.5053 -32.8390
# 2 -46.7291 -21.0027 50.4434 11.5978 8.4141 -67.8405
# 3 36.9818 50.4434 97.3384 17.2908 -21.7169 -0.0375
# 4 5.2610 11.5978 17.2908 38.6352 -6.2491 0.3147
# 5 -10.5053 8.4141 -21.7169 -6.2491 25.1179 -2.8276
# 6 -32.8390 -67.8405 -0.0375 0.3147 -2.8276 12.5666
#
#
#
# Elastic Compliance Matrix: (Units=1/GPa)
#
#
# Indices 1 2 3 4 5 6 
#
# 1 0.017819 -0.010338 0.000715 0.002245 0.011332 -0.006752
# 2 -0.010338 0.003588 0.000899 -0.000969 -0.006000 -0.008971
# 3 0.000715 0.000899 0.012773 -0.004380 0.011003 0.009343
# 4 0.002245 -0.000969 -0.004380 0.028580 0.004696 0.000965
# 5 0.011332 -0.006000 0.011003 0.004696 0.058400 0.010279
# 6 -0.006752 -0.008971 0.009343 0.000965 0.010279 0.015815
#
#
# Mechanical properties :
#
#
# Convention : Reuss Voigt Hill
#
# Bulk Modulus (GPa) = 59.77720 19.86971 39.82345
# Shear Modulus (GPa) = 31.24986 19.04657 25.14822
#
# Velocity S-wave (km/s) = 3.77683 2.94857 3.38810
# Velocity P-wave (km/s) = 6.80480 4.54553 5.78650
#
# Compressibility (1/GPa) = 0.01672879
#
# Stress axis : x y z
#
# Youngs Moduli (GPa) = 56.12113 278.73629 78.29217
#
# Poissons Ratio (x) = 2.88168 -0.05595
# Poissons Ratio (y) = 0.58020 -0.07036
# Poissons Ratio (z) = -0.04010 -0.25051
#
# Static dielectric constant tensor:
#      x y z
#    x 1.797480 -0.007740 0.020920 
#    y -0.007740 1.798140 0.029700 
#    z 0.020920 0.029700 1.955800 
# 
# From -- ./inp_files/470181.got.cif
#   From: 2010.05.17/outbox.cif.g08.bks.cpg/sg2_236_cif.got.tgz:470181.got - 2010.06.03 11:33:40.
