data_PCOD9105499
_publ_section_title
;
Structure prediction by ZEFSAII (Michael W. Deem and Ramdas Pophale) SiO2 
 PCOD9105499
Probable space group: P -1
;
_chemical_formula_sum "Si O2"
_cell_formula_units_Z 16
_cell_length_a 8.556597
_cell_length_b 12.482572
_cell_length_c 10.244002
_cell_angle_alpha 46.943186
_cell_angle_beta 104.834965
_cell_angle_gamma 117.875037
_cell_volume 703.316180
_symmetry_space_group_name_H-M "P -1"
_symmetry_group_IT_number 2
_symmetry_cell_setting 'triclinic'
loop_
_space_group_symop_operation_xyz
x,y,z
-x,-y,-z
loop_
_atom_site_type_symbol
_atom_site_label
_atom_site_fract_x
_atom_site_fract_y
_atom_site_fract_z
Si Si1 0.537700 0.885055 0.917908
Si Si2 0.135471 0.608039 0.332165
Si Si3 0.885704 0.826502 0.448951
Si Si4 0.074426 0.484479 0.887125
Si Si5 0.080062 0.893855 0.182223
Si Si6 0.467470 0.663200 0.849783
Si Si7 0.470054 0.191146 0.717807
Si Si8 0.861480 0.802724 0.753682
O O1 0.449556 0.736293 0.925813
O O2 0.734034 0.983544 0.822817
O O3 0.460411 0.020206 0.803037
O O4 0.557601 0.832156 0.112794
O O5 0.121106 0.779537 0.186685
O O6 0.337772 0.660790 0.375256
O O7 0.000000 0.500000 0.500000
O O8 0.070241 0.534373 0.238026
O O9 0.681746 0.777892 0.412410
O O10 0.900794 0.763191 0.647358
O O11 0.964864 0.790357 0.363389
O O12 0.996786 0.019658 0.327802
O O13 0.272820 0.619955 0.782339
O O14 0.110141 0.322803 0.039774
O O15 0.000000 0.500000 0.000000
O O16 0.000000 0.000000 0.000000
O O17 0.656184 0.782654 0.727843
O O18 0.500000 0.500000 0.000000
#
# Coordination Sequence:
#
# PCOD9105499 Si02
#       8
#     2   2   2   2   2   2   2   2
#     4  10  20  39  64  99 126 166 229 266 336 395
#     4  11  27  45  65 102 138 170 224 275 337 397
#     4  11  22  40  66  95 130 165 219 282 323 382
#     4  11  25  43  69  89 136 181 214 261 332 402
#     4  11  21  40  71  94 129 174 219 278 329 389
#     4  10  22  40  64  90 129 172 219 261 322 403
#     4  10  23  39  69  95 129 169 216 287 330 390
#     4  10  24  41  61  96 131 169 223 261 326 399
#
# _framework density 22.749369000000002
#
# number of rings (size 3 to 8) (size 9 to 14) (size 15 to 20)
#    0.000    1.500    2.500    1.500   10.500    0.000 
#    0.000    1.250    0.000    0.000    0.000    0.000 
#    0.000    0.000    0.000    0.000    0.000    0.000 
#
# Total GULP energy -89340.944461 kJ/mol
# GULP energy per Si atom -5583.809029 kJ/mol
# Density = 2.269759 g / cm^3
# Si number density = 22.749369 Si / 1000 Ang^3
#
#
#
# Elastic Constant Matrix: (Units=GPa)
#
#
# Indices 1 2 3 4 5 6 
#
# 1 82.9818 34.6015 2.3685 -1.2430 -20.5192 31.8995
# 2 34.6015 121.5113 10.6624 13.2363 -7.9456 13.8591
# 3 2.3685 10.6624 49.0384 3.0544 -17.3510 14.7001
# 4 -1.2430 13.2363 3.0544 26.1764 -6.1488 -8.5116
# 5 -20.5192 -7.9456 -17.3510 -6.1488 25.1117 1.3342
# 6 31.8995 13.8591 14.7001 -8.5116 1.3342 35.9014
#
#
#
# Elastic Compliance Matrix: (Units=1/GPa)
#
#
# Indices 1 2 3 4 5 6 
#
# 1 0.088487 -0.010140 0.076800 -0.006449 0.126553 -0.112387
# 2 -0.010140 0.010796 -0.007976 -0.005496 -0.012112 0.007255
# 3 0.076800 -0.007976 0.100070 -0.009604 0.133046 -0.113356
# 4 -0.006449 -0.005496 -0.009604 0.048725 -0.002959 0.023446
# 5 0.126553 -0.012112 0.133046 -0.002959 0.239734 -0.171858
# 6 -0.112387 0.007255 -0.113356 0.023446 -0.171858 0.183272
#
#
# Mechanical properties :
#
#
# Convention : Reuss Voigt Hill
#
# Bulk Modulus (GPa) = 3.15734 38.75514 20.95624
# Shear Modulus (GPa) = 7.58391 31.16449 19.37420
#
# Velocity S-wave (km/s) = 1.82782 3.70524 2.92145
# Velocity P-wave (km/s) = 2.41774 5.94792 4.54000
#
# Compressibility (1/GPa) = 0.31672225
#
# Stress axis : x y z
#
# Youngs Moduli (GPa) = 11.30107 92.62407 9.99297
#
# Poissons Ratio (x) = 0.93925 -0.76746
# Poissons Ratio (y) = 0.11460 0.07970
# Poissons Ratio (z) = -0.86792 0.73873
#
# Static dielectric constant tensor:
#      x y z
#    x 1.900870 -0.026160 -0.031970 
#    y -0.026160 1.968800 -0.010980 
#    z -0.031970 -0.010980 1.800570 
# 
# From -- ./inp_files/185132.got.cif
#   From: 2010.05.17/outbox.cif.g08.bks.cpg/sg2_93_cif.got.tgz:185132.got - 2010.06.03 11:33:40.
