data_PCOD9105951
_publ_section_title
;
Structure prediction by ZEFSAII (Michael W. Deem and Ramdas Pophale) SiO2 
 PCOD9105951
Probable space group: P -1
;
_chemical_formula_sum "Si O2"
_cell_formula_units_Z 10
_cell_length_a 13.458870
_cell_length_b 5.302716
_cell_length_c 9.616139
_cell_angle_alpha 135.828504
_cell_angle_beta 51.324967
_cell_angle_gamma 125.328985
_cell_volume 362.515836
_symmetry_space_group_name_H-M "P -1"
_symmetry_group_IT_number 2
_symmetry_cell_setting 'triclinic'
loop_
_space_group_symop_operation_xyz
x,y,z
-x,-y,-z
loop_
_atom_site_type_symbol
_atom_site_label
_atom_site_fract_x
_atom_site_fract_y
_atom_site_fract_z
Si Si1 0.023421 0.513911 0.650382
Si Si2 0.727791 0.770174 0.643154
Si Si3 0.620163 0.929883 0.510360
Si Si4 0.392554 0.100300 0.926310
Si Si5 0.796767 0.749618 0.075666
O O1 0.121136 0.251268 0.493987
O O2 0.000000 0.500000 0.500000
O O3 0.107209 0.921237 0.790189
O O4 0.888520 0.483053 0.840896
O O5 0.699589 0.923056 0.579902
O O6 0.656796 0.335515 0.565577
O O7 0.658686 0.970611 0.899565
O O8 0.670080 0.664525 0.253261
O O9 0.472643 0.870328 0.670807
O O10 0.262302 0.121138 0.962741
O O11 0.500000 0.500000 0.000000
#
# Coordination Sequence:
#
# PCOD9105951 Si02
#       5
#     2   2   2   2   2
#     4  10  20  40  68  92 133 169 223 271 326 389
#     4  10  21  41  66  94 131 174 216 272 331 387
#     4  10  22  40  64  97 132 169 220 271 328 396
#     4  10  20  39  66  95 134 170 216 270 331 393
#     4  10  21  39  67  97 128 174 220 269 330 391
#
# _framework density 27.585000000000001
#
# number of rings (size 3 to 8) (size 9 to 14) (size 15 to 20)
#    0.000    2.000    2.000    1.200    0.000    0.800 
#    0.000   28.000    0.000    0.000    0.000    0.000 
#    0.000    0.000    0.000    0.000    0.000    0.000 
#
# Total GULP energy -55997.143399 kJ/mol
# GULP energy per Si atom -5599.714340 kJ/mol
# Density = 2.752222 g / cm^3
# Si number density = 27.585000 Si / 1000 Ang^3
#
#
#
# Elastic Constant Matrix: (Units=GPa)
#
#
# Indices 1 2 3 4 5 6 
#
# 1 163.8078 20.0084 62.4722 8.1869 3.0440 -26.8378
# 2 20.0084 85.8257 57.9625 -16.0523 -4.6572 10.9545
# 3 62.4722 57.9625 321.4144 11.8138 -30.3521 -13.7009
# 4 8.1869 -16.0523 11.8138 53.4588 0.0446 -4.2106
# 5 3.0440 -4.6572 -30.3521 0.0446 76.7391 -14.9646
# 6 -26.8378 10.9545 -13.7009 -4.2106 -14.9646 45.3820
#
#
#
# Elastic Compliance Matrix: (Units=1/GPa)
#
#
# Indices 1 2 3 4 5 6 
#
# 1 0.007474 -0.001971 -0.000845 -0.001189 0.000143 0.004578
# 2 -0.001971 0.015821 -0.003036 0.005264 -0.001305 -0.005843
# 3 -0.000845 -0.003036 0.004140 -0.001544 0.001869 0.001956
# 4 -0.001189 0.005264 -0.001544 0.020760 -0.000381 -0.000640
# 5 0.000143 -0.001305 0.001869 -0.000381 0.014820 0.005815
# 6 0.004578 -0.005843 0.001956 -0.000640 0.005815 0.028601
#
#
# Mechanical properties :
#
#
# Convention : Reuss Voigt Hill
#
# Bulk Modulus (GPa) = 63.56623 94.65933 79.11278
# Shear Modulus (GPa) = 46.05639 63.82297 54.93968
#
# Velocity S-wave (km/s) = 4.09053 4.81530 4.46763
# Velocity P-wave (km/s) = 6.73823 8.08122 7.44009
#
# Compressibility (1/GPa) = 0.01573162
#
# Stress axis : x y z
#
# Youngs Moduli (GPa) = 133.78851 63.20856 241.57136
#
# Poissons Ratio (x) = 0.12457 0.20414
# Poissons Ratio (y) = 0.26366 0.73335
# Poissons Ratio (z) = 0.11306 0.19188
#
# Static dielectric constant tensor:
#      x y z
#    x 2.126120 0.121220 -0.003290 
#    y 0.121220 2.334990 0.118100 
#    z -0.003290 0.118100 2.106230 
# 
# From -- ./inp_files/18040.got.cif
#   From: 2010.05.17/outbox.cif.g08.bks.cpg/sg2_10_cif.got.tgz:18040.got - 2010.06.03 11:33:40.
