data_PCOD9105130
_publ_section_title
;
Structure prediction by ZEFSAII (Michael W. Deem and Ramdas Pophale) SiO2 
 PCOD9105130
Probable space group: P -1
;
_chemical_formula_sum "Si O2"
_cell_formula_units_Z 16
_cell_length_a 22.298431
_cell_length_b 18.917985
_cell_length_c 11.989532
_cell_angle_alpha 151.563617
_cell_angle_beta 141.795663
_cell_angle_gamma 18.891584
_cell_volume 743.998982
_symmetry_space_group_name_H-M "P -1"
_symmetry_group_IT_number 2
_symmetry_cell_setting 'triclinic'
loop_
_space_group_symop_operation_xyz
x,y,z
-x,-y,-z
loop_
_atom_site_type_symbol
_atom_site_label
_atom_site_fract_x
_atom_site_fract_y
_atom_site_fract_z
Si Si1 0.400230 0.618389 0.900978
Si Si2 0.286761 0.046399 0.829976
Si Si3 0.429641 0.245805 0.347367
Si Si4 0.027536 0.656017 0.360662
Si Si5 0.154272 0.482933 0.760931
Si Si6 0.515365 0.850628 0.077460
Si Si7 0.717065 0.956479 0.790846
Si Si8 0.993521 0.177498 0.195543
O O1 0.441485 0.400788 0.616070
O O2 0.500000 0.500000 0.000000
O O3 0.430587 0.712614 0.991031
O O4 0.180133 0.938208 0.058437
O O5 0.168098 0.082184 0.635677
O O6 0.408360 0.979507 0.824028
O O7 0.118462 0.369833 0.089625
O O8 0.449645 0.811519 0.837794
O O9 0.200047 0.525311 0.377601
O O10 0.477063 0.059915 0.251971
O O11 0.999337 0.738580 0.562977
O O12 0.268983 0.424792 0.939896
O O13 0.260394 0.185182 0.477344
O O14 0.935855 0.725758 0.814791
O O15 0.160704 0.560666 0.758164
O O16 0.371722 0.017018 0.201012
O O17 0.000000 0.000000 0.000000
#
# Coordination Sequence:
#
# PCOD9105130 Si02
#       8
#     2   2   2   2   2   2   2   2
#     4  11  23  38  61  94 132 163 204 263 315 381
#     4  10  23  39  64  97 121 170 219 261 302 364
#     4  11  22  40  63  95 124 167 217 257 312 367
#     4  10  20  39  63  92 129 157 216 262 304 371
#     4  10  22  39  60  90 131 161 207 259 316 381
#     4  11  22  38  65  88 122 166 212 261 308 367
#     4  10  23  38  58  92 128 167 204 253 324 369
#     4  11  22  38  65  96 121 163 206 259 326 372
#
# _framework density 21.505406000000001
#
# number of rings (size 3 to 8) (size 9 to 14) (size 15 to 20)
#    0.000    1.500    1.250    4.875    1.750    6.000 
#    0.000    0.625    0.000    2.250    0.000    0.000 
#    0.000    0.000    0.000    0.000    0.000    0.000 
#
# Total GULP energy -89133.799715 kJ/mol
# GULP energy per Si atom -5570.862482 kJ/mol
# Density = 2.145646 g / cm^3
# Si number density = 21.505406 Si / 1000 Ang^3
#
#
#
# Elastic Constant Matrix: (Units=GPa)
#
#
# Indices 1 2 3 4 5 6 
#
# 1 75.9055 6.8646 17.8248 9.5340 -0.6552 1.1548
# 2 6.8646 77.2482 8.3259 -23.7482 7.0823 15.9894
# 3 17.8248 8.3259 66.7901 -3.5455 -0.4948 16.4054
# 4 9.5340 -23.7482 -3.5455 22.0287 -0.3285 -6.1086
# 5 -0.6552 7.0823 -0.4948 -0.3285 28.0528 4.3234
# 6 1.1548 15.9894 16.4054 -6.1086 4.3234 28.1115
#
#
#
# Elastic Compliance Matrix: (Units=1/GPa)
#
#
# Indices 1 2 3 4 5 6 
#
# 1 0.016503 -0.005627 -0.004978 -0.013342 0.001201 0.002344
# 2 -0.005627 0.023060 0.001850 0.025372 -0.004426 -0.007771
# 3 -0.004978 0.001850 0.019082 0.004101 0.001548 -0.011331
# 4 -0.013342 0.025372 0.004101 0.079634 -0.006013 0.001953
# 5 0.001201 -0.004426 0.001548 -0.006013 0.037601 -0.005525
# 6 0.002344 -0.007771 -0.011331 0.001953 -0.005525 0.047783
#
#
# Mechanical properties :
#
#
# Convention : Reuss Voigt Hill
#
# Bulk Modulus (GPa) = 24.30968 31.77492 28.04230
# Shear Modulus (GPa) = 19.61674 28.10048 23.85861
#
# Velocity S-wave (km/s) = 3.02350 3.61871 3.33442
# Velocity P-wave (km/s) = 4.84946 5.68045 5.28132
#
# Compressibility (1/GPa) = 0.04113587
#
# Stress axis : x y z
#
# Youngs Moduli (GPa) = 60.59681 43.36455 52.40423
#
# Poissons Ratio (x) = 0.24400 0.26086
# Poissons Ratio (y) = 0.34096 -0.09694
# Poissons Ratio (z) = 0.30164 -0.08021
#
# Static dielectric constant tensor:
#      x y z
#    x 1.828250 0.023080 0.088400 
#    y 0.023080 1.780790 0.002930 
#    z 0.088400 0.002930 1.867420 
# 
# From -- ./inp_files/472509.got.cif
#   From: 2010.05.17/outbox.cif.g08.bks.cpg/sg2_237_cif.got.tgz:472509.got - 2010.06.03 11:33:40.
