data_PCOD9105760
_publ_section_title
;
Structure prediction by ZEFSAII (Michael W. Deem and Ramdas Pophale) SiO2 
 PCOD9105760
Probable space group: P -1
;
_chemical_formula_sum "Si O2"
_cell_formula_units_Z 16
_cell_length_a 9.275673
_cell_length_b 14.730502
_cell_length_c 9.254140
_cell_angle_alpha 92.479173
_cell_angle_beta 51.345197
_cell_angle_gamma 61.399035
_cell_volume 751.191390
_symmetry_space_group_name_H-M "P -1"
_symmetry_group_IT_number 2
_symmetry_cell_setting 'triclinic'
loop_
_space_group_symop_operation_xyz
x,y,z
-x,-y,-z
loop_
_atom_site_type_symbol
_atom_site_label
_atom_site_fract_x
_atom_site_fract_y
_atom_site_fract_z
Si Si1 0.911383 0.706537 0.976152
Si Si2 0.312338 0.495252 0.534218
Si Si3 0.641356 0.105887 0.326872
Si Si4 0.924483 0.171110 0.643896
Si Si5 0.263331 0.571060 0.252045
Si Si6 0.349530 0.905979 0.339319
Si Si7 0.170285 0.343902 0.666422
Si Si8 0.050846 0.843099 0.029766
O O1 0.634628 0.821453 0.126850
O O2 0.910899 0.646258 0.117984
O O3 0.061920 0.747713 0.927132
O O4 0.044401 0.612559 0.758859
O O5 0.500000 0.500000 0.500000
O O6 0.333939 0.500370 0.350956
O O7 0.325066 0.386199 0.562358
O O8 0.687420 0.108091 0.468997
O O9 0.353123 0.203923 0.499120
O O10 0.775855 0.969199 0.199607
O O11 0.772812 0.137989 0.146655
O O12 0.838938 0.294731 0.643540
O O13 0.755756 0.142424 0.693230
O O14 0.902962 0.186911 0.831993
O O15 0.191958 0.047820 0.426910
O O16 0.054550 0.585291 0.295626
O O17 0.500000 0.500000 0.000000
#
# Coordination Sequence:
#
# PCOD9105760 Si02
#       8
#     2   2   2   2   2   2   2   2
#     4  11  23  40  69  97 127 166 214 266 319 386
#     4  12  28  45  67  93 129 171 220 271 319 381
#     4   9  21  37  69  94 130 168 214 260 313 388
#     4  10  22  41  65  91 133 167 211 254 328 371
#     4  12  28  44  68  93 128 174 216 266 323 386
#     4   9  22  40  66  96 129 168 208 265 315 386
#     4  11  24  44  66  93 129 168 219 266 322 377
#     4  10  20  39  65  98 129 168 211 257 324 379
#
# _framework density 21.299499999999998
#
# number of rings (size 3 to 8) (size 9 to 14) (size 15 to 20)
#    0.000    1.500    1.250    2.250   10.500    2.500 
#    0.000    0.625    0.000    0.000    0.000    0.000 
#    0.000    0.000    0.000    0.000    0.000    0.000 
#
# Total GULP energy -89469.911347 kJ/mol
# GULP energy per Si atom -5591.869459 kJ/mol
# Density = 2.125102 g / cm^3
# Si number density = 21.299500 Si / 1000 Ang^3
#
#
#
# Elastic Constant Matrix: (Units=GPa)
#
#
# Indices 1 2 3 4 5 6 
#
# 1 75.0683 1.9189 -1.0895 7.8316 -8.0513 -4.4592
# 2 1.9189 57.9652 -4.1173 -5.0520 -2.0395 11.1776
# 3 -1.0895 -4.1173 81.6097 3.6674 -0.5784 -6.6867
# 4 7.8316 -5.0520 3.6674 30.4251 3.1468 1.6791
# 5 -8.0513 -2.0395 -0.5784 3.1468 19.9173 8.4082
# 6 -4.4592 11.1776 -6.6867 1.6791 8.4082 29.8658
#
#
#
# Elastic Compliance Matrix: (Units=1/GPa)
#
#
# Indices 1 2 3 4 5 6 
#
# 1 0.014553 -0.000862 0.000498 -0.004639 0.006050 0.001164
# 2 -0.000862 0.019489 0.000117 0.003433 0.004894 -0.008967
# 3 0.000498 0.000117 0.012593 -0.001750 -0.000442 0.003073
# 4 -0.004639 0.003433 -0.001750 0.035618 -0.006079 -0.002660
# 5 0.006050 0.004894 -0.000442 -0.006079 0.061728 -0.018064
# 6 0.001164 -0.008967 0.003073 -0.002660 -0.018064 0.042936
#
#
# Mechanical properties :
#
#
# Convention : Reuss Voigt Hill
#
# Bulk Modulus (GPa) = 21.67314 23.11860 22.39587
# Shear Modulus (GPa) = 24.65580 30.57037 27.61309
#
# Velocity S-wave (km/s) = 3.40601 3.79260 3.60449
# Velocity P-wave (km/s) = 5.06610 5.48234 5.27832
#
# Compressibility (1/GPa) = 0.04614006
#
# Stress axis : x y z
#
# Youngs Moduli (GPa) = 68.71667 51.31061 79.40728
#
# Poissons Ratio (x) = 0.04425 -0.03951
# Poissons Ratio (y) = 0.05926 -0.00932
# Poissons Ratio (z) = -0.03419 -0.00603
#
# Static dielectric constant tensor:
#      x y z
#    x 1.739620 -0.010930 -0.025740 
#    y -0.010930 1.768670 0.035410 
#    z -0.025740 0.035410 1.746090 
# 
# From -- ./inp_files/179488.got.cif
#   From: 2010.05.17/outbox.cif.g08.bks.cpg/sg2_90_cif.got.tgz:179488.got - 2010.06.03 11:33:40.
