data_PCOD9105877
_publ_section_title
;
Structure prediction by ZEFSAII (Michael W. Deem and Ramdas Pophale) SiO2 
 PCOD9105877
Probable space group: P -1
;
_chemical_formula_sum "Si O2"
_cell_formula_units_Z 15
_cell_length_a 12.649423
_cell_length_b 16.885140
_cell_length_c 6.927157
_cell_angle_alpha 126.496811
_cell_angle_beta 45.466963
_cell_angle_gamma 146.132948
_cell_volume 587.457937
_symmetry_space_group_name_H-M "P -1"
_symmetry_group_IT_number 2
_symmetry_cell_setting 'triclinic'
loop_
_space_group_symop_operation_xyz
x,y,z
-x,-y,-z
loop_
_atom_site_type_symbol
_atom_site_label
_atom_site_fract_x
_atom_site_fract_y
_atom_site_fract_z
Si Si1 0.952985 0.800718 0.809790
Si Si2 0.000000 0.500000 0.500000
Si Si3 0.189413 0.123377 0.575854
Si Si4 0.251862 0.770306 0.292041
Si Si5 0.727171 0.507724 0.853882
Si Si6 0.652927 0.996682 0.904383
Si Si7 0.997946 0.677082 0.096174
Si Si8 0.313103 0.318675 0.370980
O O1 0.166205 0.837563 0.566243
O O2 0.783592 0.635952 0.864223
O O3 0.882071 0.805550 0.699031
O O4 0.917696 0.871897 0.104078
O O5 0.171025 0.650268 0.365799
O O6 0.215853 0.557016 0.440983
O O7 0.312927 0.081152 0.388094
O O8 0.327851 0.264402 0.469684
O O9 0.000000 0.000000 0.500000
O O10 0.131213 0.697860 0.132861
O O11 0.507416 0.891127 0.115009
O O12 0.930017 0.581138 0.855332
O O13 0.514340 0.407913 0.102359
O O14 0.865712 0.162003 0.917223
O O15 0.500000 0.000000 0.000000
O O16 0.770589 0.612290 0.365286
#
# Coordination Sequence:
#
# PCOD9105877 Si02
#       8
#     2   1   2   2   2   2   2   2
#     4  10  23  41  66  98 132 168 220 281 322 398
#     4  10  22  40  56  90 136 166 220 274 318 414
#     4  12  23  42  67  98 131 170 225 275 321 395
#     4   9  21  42  65  93 135 178 219 269 343 394
#     4  11  21  41  62  92 133 169 218 276 335 383
#     4  10  21  43  67  95 136 174 219 270 337 405
#     4  10  20  39  66  92 125 175 221 274 325 397
#     4  11  22  40  65  96 128 170 220 274 333 385
#
# _framework density 25.533743000000001
#
# number of rings (size 3 to 8) (size 9 to 14) (size 15 to 20)
#    0.000    1.600    2.667    1.600    0.000    1.067 
#    4.800    6.000    0.000    0.000    0.000    0.000 
#    0.000    0.000    0.000    0.000    0.000    0.000 
#
# Total GULP energy -83674.594722 kJ/mol
# GULP energy per Si atom -5578.306315 kJ/mol
# Density = 2.547563 g / cm^3
# Si number density = 25.533743 Si / 1000 Ang^3
#
#
#
# Elastic Constant Matrix: (Units=GPa)
#
#
# Indices 1 2 3 4 5 6 
#
# 1 61.5898 26.6971 8.7606 27.4743 2.8025 -16.0782
# 2 26.6971 86.1989 53.4613 -3.2319 -2.4125 -22.4885
# 3 8.7606 53.4613 155.0266 1.6645 -2.2039 -0.6308
# 4 27.4743 -3.2319 1.6645 65.0941 -0.4642 4.0153
# 5 2.8025 -2.4125 -2.2039 -0.4642 38.0537 -3.9831
# 6 -16.0782 -22.4885 -0.6308 4.0153 -3.9831 22.3562
#
#
#
# Elastic Compliance Matrix: (Units=1/GPa)
#
#
# Indices 1 2 3 4 5 6 
#
# 1 0.029361 -0.004981 0.000272 -0.013791 -0.000698 0.018466
# 2 -0.004981 0.023205 -0.007615 0.002255 0.003493 0.019762
# 3 0.000272 -0.007615 0.009024 -0.000279 -0.000747 -0.007293
# 4 -0.013791 0.002255 -0.000279 0.022018 0.000199 -0.011577
# 5 -0.000698 0.003493 -0.000747 0.000199 0.027330 0.007824
# 6 0.018466 0.019762 -0.007293 -0.011577 0.007824 0.081157
#
#
# Mechanical properties :
#
#
# Convention : Reuss Voigt Hill
#
# Bulk Modulus (GPa) = 27.07011 53.40594 40.23802
# Shear Modulus (GPa) = 21.82872 39.36055 30.59463
#
# Velocity S-wave (km/s) = 2.92703 3.93047 3.46526
# Velocity P-wave (km/s) = 4.69554 6.44665 5.63948
#
# Compressibility (1/GPa) = 0.03694112
#
# Stress axis : x y z
#
# Youngs Moduli (GPa) = 34.05860 43.09482 110.81765
#
# Poissons Ratio (x) = 0.21467 -0.03013
# Poissons Ratio (y) = 0.16966 0.84386
# Poissons Ratio (z) = -0.00926 0.32816
#
# Static dielectric constant tensor:
#      x y z
#    x 2.069590 0.039470 -0.051270 
#    y 0.039470 2.143780 0.029370 
#    z -0.051270 0.029370 2.223710 
# 
# From -- ./inp_files/273596.got.cif
#   From: 2010.05.17/outbox.cif.g08.bks.cpg/sg2_137_cif.got.tgz:273596.got - 2010.06.03 11:33:40.
