data_PCOD9105776
_publ_section_title
;
Structure prediction by ZEFSAII (Michael W. Deem and Ramdas Pophale) SiO2 
 PCOD9105776
Probable space group: P -1
;
_chemical_formula_sum "Si O2"
_cell_formula_units_Z 16
_cell_length_a 8.405942
_cell_length_b 11.478668
_cell_length_c 9.984353
_cell_angle_alpha 122.832085
_cell_angle_beta 121.570356
_cell_angle_gamma 49.043335
_cell_volume 589.479609
_symmetry_space_group_name_H-M "P -1"
_symmetry_group_IT_number 2
_symmetry_cell_setting 'triclinic'
loop_
_space_group_symop_operation_xyz
x,y,z
-x,-y,-z
loop_
_atom_site_type_symbol
_atom_site_label
_atom_site_fract_x
_atom_site_fract_y
_atom_site_fract_z
Si Si1 0.796054 0.446752 0.609419
Si Si2 0.337312 0.978868 0.823502
Si Si3 0.233333 0.295148 0.834387
Si Si4 0.360934 0.919714 0.275498
Si Si5 0.008989 0.072809 0.408466
Si Si6 0.177101 0.718633 0.968537
Si Si7 0.732949 0.755251 0.696213
Si Si8 0.569415 0.524026 0.829571
O O1 0.906740 0.264603 0.488867
O O2 0.776679 0.577196 0.572606
O O3 0.610058 0.484218 0.664303
O O4 0.991919 0.433626 0.780617
O O5 0.149583 0.952496 0.776390
O O6 0.507625 0.821782 0.719095
O O7 0.225638 0.143525 0.792287
O O8 0.500000 0.000000 0.000000
O O9 0.392906 0.224302 0.731763
O O10 0.351504 0.350253 0.024456
O O11 0.325047 0.093624 0.329968
O O12 0.253955 0.957158 0.395814
O O13 0.221396 0.866546 0.089064
O O14 0.000000 0.000000 0.500000
O O15 0.330369 0.604784 0.842545
O O16 0.937742 0.746692 0.860299
O O17 0.277611 0.626520 0.097676
#
# Coordination Sequence:
#
# PCOD9105776 Si02
#       8
#     2   2   2   2   2   2   2   2
#     4  12  24  41  68  99 141 183 230 279 342 416
#     4  11  24  43  71 103 136 178 230 284 340 405
#     4  10  21  42  66 104 132 182 233 278 338 402
#     4  10  24  42  66  96 139 179 229 289 335 407
#     4  12  26  47  71 102 136 183 231 280 344 415
#     4  10  20  39  66 101 136 177 231 284 344 386
#     4  11  24  41  63  99 137 181 226 283 347 403
#     4  10  21  36  67 105 135 173 233 292 326 398
#
# _framework density 27.142582999999998
#
# number of rings (size 3 to 8) (size 9 to 14) (size 15 to 20)
#    0.000    1.250    2.500    3.000    1.750    4.500 
#    0.000    0.000    0.000    0.000    0.000    0.000 
#    0.000    0.000    0.000    0.000    0.000    0.000 
#
# Total GULP energy -89504.486021 kJ/mol
# GULP energy per Si atom -5594.030376 kJ/mol
# Density = 2.708081 g / cm^3
# Si number density = 27.142583 Si / 1000 Ang^3
#
#
#
# Elastic Constant Matrix: (Units=GPa)
#
#
# Indices 1 2 3 4 5 6 
#
# 1 124.8490 45.0380 38.6884 10.3092 -14.0265 -5.8934
# 2 45.0380 67.7720 19.0125 17.5242 6.1193 8.3762
# 3 38.6884 19.0125 104.5218 18.6643 12.1035 8.2433
# 4 10.3092 17.5242 18.6643 41.9278 2.1051 6.0590
# 5 -14.0265 6.1193 12.1035 2.1051 57.0057 10.4653
# 6 -5.8934 8.3762 8.2433 6.0590 10.4653 32.8608
#
#
#
# Elastic Compliance Matrix: (Units=1/GPa)
#
#
# Indices 1 2 3 4 5 6 
#
# 1 0.013044 -0.008743 -0.004331 0.001582 0.004275 0.004001
# 2 -0.008743 0.023048 0.001139 -0.007046 -0.003639 -0.005270
# 3 -0.004331 0.001139 0.012302 -0.004391 -0.003212 -0.002321
# 4 0.001582 -0.007046 -0.004391 0.028659 0.001493 -0.002578
# 5 0.004275 -0.003639 -0.003212 0.001493 0.020395 -0.004271
# 6 0.004001 -0.005270 -0.002321 -0.002578 -0.004271 0.034910
#
#
# Mechanical properties :
#
#
# Convention : Reuss Voigt Hill
#
# Bulk Modulus (GPa) = 40.77544 55.84674 48.31109
# Shear Modulus (GPa) = 30.41289 39.31912 34.86600
#
# Velocity S-wave (km/s) = 3.35100 3.81019 3.58795
# Velocity P-wave (km/s) = 5.47974 6.32272 5.91626
#
# Compressibility (1/GPa) = 0.02452456
#
# Stress axis : x y z
#
# Youngs Moduli (GPa) = 76.66190 43.38762 81.28547
#
# Poissons Ratio (x) = 0.37935 0.35205
# Poissons Ratio (y) = 0.67027 -0.09260
# Poissons Ratio (z) = 0.33202 -0.04943
#
# Static dielectric constant tensor:
#      x y z
#    x 2.115440 0.028440 -0.009110 
#    y 0.028440 2.162300 -0.053920 
#    z -0.009110 -0.053920 2.261170 
# 
# From -- ./inp_files/393177.got.cif
#   From: 2010.05.17/outbox.cif.g08.bks.cpg/sg2_197_cif.got.tgz:393177.got - 2010.06.03 11:33:40.
