data_PCOD9105099
_publ_section_title
;
Structure prediction by ZEFSAII (Michael W. Deem and Ramdas Pophale) SiO2 
 PCOD9105099
Probable space group: P -1
;
_chemical_formula_sum "Si O2"
_cell_formula_units_Z 16
_cell_length_a 10.058295
_cell_length_b 10.454706
_cell_length_c 14.904082
_cell_angle_alpha 50.182284
_cell_angle_beta 137.022520
_cell_angle_gamma 102.260329
_cell_volume 715.747998
_symmetry_space_group_name_H-M "P -1"
_symmetry_group_IT_number 2
_symmetry_cell_setting 'triclinic'
loop_
_space_group_symop_operation_xyz
x,y,z
-x,-y,-z
loop_
_atom_site_type_symbol
_atom_site_label
_atom_site_fract_x
_atom_site_fract_y
_atom_site_fract_z
Si Si1 0.213020 0.517629 0.111289
Si Si2 0.871690 0.145006 0.772728
Si Si3 0.723177 0.247679 0.828797
Si Si4 0.543162 0.871327 0.491081
Si Si5 0.534116 0.469959 0.138581
Si Si6 0.141973 0.978654 0.490794
Si Si7 0.599529 0.712946 0.211575
Si Si8 0.131032 0.086572 0.759937
O O1 0.149692 0.702488 0.055171
O O2 0.373856 0.339784 0.333637
O O3 0.311148 0.527040 0.059729
O O4 0.000000 0.500000 0.000000
O O5 0.758831 0.303913 0.722299
O O6 0.687908 0.075899 0.696915
O O7 0.935841 0.196977 0.686409
O O8 0.124403 0.982483 0.999577
O O9 0.477865 0.338859 0.709558
O O10 0.500000 0.000000 0.500000
O O11 0.726410 0.901054 0.510967
O O12 0.677735 0.244172 0.324309
O O13 0.634690 0.579929 0.200883
O O14 0.500000 0.500000 0.000000
O O15 0.969787 0.007689 0.313963
O O16 0.000000 0.000000 0.500000
O O17 0.795095 0.762056 0.304435
O O18 0.367158 0.909705 0.987993
#
# Coordination Sequence:
#
# PCOD9105099 Si02
#       8
#     2   2   2   2   2   2   2   2
#     4  11  24  40  67  94 127 166 208 261 314 371
#     4  10  20  39  63  91 126 161 207 257 307 376
#     4   9  21  38  61  94 123 161 208 252 313 368
#     4  12  23  43  65  92 126 167 210 261 317 367
#     4  11  24  43  63  94 129 164 212 260 310 375
#     4  12  27  42  64  94 127 169 212 260 314 375
#     4   9  21  39  63  89 125 166 202 258 308 371
#     4  10  20  40  62  89 126 164 207 251 313 371
#
# _framework density 22.354236
#
# number of rings (size 3 to 8) (size 9 to 14) (size 15 to 20)
#    0.000    1.500    2.500    1.500    7.000    2.000 
#    2.250    0.000    0.000    0.000    0.000    0.000 
#    0.000    0.000    0.000    0.000    0.000    0.000 
#
# Total GULP energy -89120.958551 kJ/mol
# GULP energy per Si atom -5570.059909 kJ/mol
# Density = 2.230336 g / cm^3
# Si number density = 22.354236 Si / 1000 Ang^3
#
#
#
# Elastic Constant Matrix: (Units=GPa)
#
#
# Indices 1 2 3 4 5 6 
#
# 1 183.0930 70.1776 21.3174 27.8319 -4.0962 -10.3937
# 2 70.1776 68.2071 4.8702 13.2187 5.6084 -5.1330
# 3 21.3174 4.8702 67.1473 6.3386 -1.2383 0.6493
# 4 27.8319 13.2187 6.3386 30.5623 8.4299 5.8591
# 5 -4.0962 5.6084 -1.2383 8.4299 21.9459 7.8209
# 6 -10.3937 -5.1330 0.6493 5.8591 7.8209 52.6163
#
#
#
# Elastic Compliance Matrix: (Units=1/GPa)
#
#
# Indices 1 2 3 4 5 6 
#
# 1 0.010890 -0.010168 -0.001919 -0.007223 0.006958 0.000953
# 2 -0.010168 0.025939 0.001165 -0.000046 -0.009108 0.001866
# 3 -0.001919 0.001165 0.015658 -0.002271 0.001239 -0.000390
# 4 -0.007223 -0.000046 -0.002271 0.045358 -0.017515 -0.003851
# 5 0.006958 -0.009108 0.001239 -0.017515 0.058212 -0.006232
# 6 0.000953 0.001866 -0.000390 -0.003851 -0.006232 0.020736
#
#
# Mechanical properties :
#
#
# Convention : Reuss Voigt Hill
#
# Bulk Modulus (GPa) = 32.63397 56.79752 44.71574
# Shear Modulus (GPa) = 23.94041 35.83036 29.88539
#
# Velocity S-wave (km/s) = 3.27610 4.00790 3.66033
# Velocity P-wave (km/s) = 5.37965 6.84695 6.15717
#
# Compressibility (1/GPa) = 0.03064291
#
# Stress axis : x y z
#
# Youngs Moduli (GPa) = 91.82416 38.55260 63.86386
#
# Poissons Ratio (x) = 0.39202 0.12255
# Poissons Ratio (y) = 0.93371 -0.07441
# Poissons Ratio (z) = 0.17620 -0.04492
#
# Static dielectric constant tensor:
#      x y z
#    x 1.916400 0.012410 -0.092130 
#    y 0.012410 1.832360 -0.013340 
#    z -0.092130 -0.013340 2.111740 
# 
# From -- ./inp_files/500078.got.cif
#   From: 2010.05.17/outbox.cif.g08.bks.cpg/sg2_251_cif.got.tgz:500078.got - 2010.06.03 11:33:40.
