data_PCOD9105299
_publ_section_title
;
Structure prediction by ZEFSAII (Michael W. Deem and Ramdas Pophale) SiO2 
 PCOD9105299
Probable space group: P -1
;
_chemical_formula_sum "Si O2"
_cell_formula_units_Z 16
_cell_length_a 17.446280
_cell_length_b 8.791765
_cell_length_c 13.020916
_cell_angle_alpha 31.058792
_cell_angle_beta 136.584554
_cell_angle_gamma 118.833245
_cell_volume 650.639697
_symmetry_space_group_name_H-M "P -1"
_symmetry_group_IT_number 2
_symmetry_cell_setting 'triclinic'
loop_
_space_group_symop_operation_xyz
x,y,z
-x,-y,-z
loop_
_atom_site_type_symbol
_atom_site_label
_atom_site_fract_x
_atom_site_fract_y
_atom_site_fract_z
Si Si1 0.334868 0.233525 0.261024
Si Si2 0.982318 0.365403 0.781700
Si Si3 0.321998 0.692532 0.680645
Si Si4 0.197737 0.029843 0.854195
Si Si5 0.927979 0.303469 0.181599
Si Si6 0.465704 0.912449 0.852579
Si Si7 0.204529 0.364950 0.862793
Si Si8 0.545445 0.367816 0.770635
O O1 0.443943 0.294586 0.387296
O O2 0.326734 0.896126 0.468932
O O3 0.208867 0.488981 0.035155
O O4 0.318746 0.302783 0.084719
O O5 0.001023 0.469325 0.856191
O O6 0.088850 0.406647 0.793618
O O7 0.862104 0.631547 0.461344
O O8 0.000000 0.000000 0.000000
O O9 0.360754 0.881025 0.698969
O O10 0.199890 0.664824 0.616077
O O11 0.415555 0.332184 0.951322
O O12 0.221026 0.084176 0.962512
O O13 0.102664 0.857387 0.854701
O O14 0.323913 0.843666 0.027988
O O15 0.000000 0.000000 0.500000
O O16 0.459652 0.268920 0.666847
O O17 0.465893 0.762130 0.051956
#
# Coordination Sequence:
#
# PCOD9105299 Si02
#       8
#     2   2   2   2   2   2   2   2
#     4  10  22  39  66  92 125 167 220 260 311 378
#     4  10  22  39  67  97 123 165 214 259 315 388
#     4  11  23  42  66  94 125 172 219 265 315 383
#     4  10  20  39  64  88 130 173 201 259 326 375
#     4   8  18  38  62  87 128 162 196 256 315 367
#     4  10  22  41  65  93 129 171 214 267 333 362
#     4  11  22  40  65  93 131 164 208 265 319 373
#     4  10  20  40  65  90 129 170 209 268 320 377
#
# _framework density 24.591183999999998
#
# number of rings (size 3 to 8) (size 9 to 14) (size 15 to 20)
#    0.000    2.000    2.500    0.375    3.500    1.000 
#    0.000    8.125    0.000    0.000    0.000    0.000 
#    0.000    0.000    0.000    0.000    0.000    0.000 
#
# Total GULP energy -89204.673946 kJ/mol
# GULP energy per Si atom -5575.292122 kJ/mol
# Density = 2.453521 g / cm^3
# Si number density = 24.591184 Si / 1000 Ang^3
#
#
#
# Elastic Constant Matrix: (Units=GPa)
#
#
# Indices 1 2 3 4 5 6 
#
# 1 58.9986 -11.8501 15.7743 -7.3990 -6.1753 6.1778
# 2 -11.8501 159.8316 17.3087 -3.1112 -13.3650 -3.6527
# 3 15.7743 17.3087 43.5773 -19.6133 1.7635 -0.8474
# 4 -7.3990 -3.1112 -19.6133 34.4848 1.6324 -11.1913
# 5 -6.1753 -13.3650 1.7635 1.6324 31.6178 -5.1266
# 6 6.1778 -3.6527 -0.8474 -11.1913 -5.1266 31.7086
#
#
#
# Elastic Compliance Matrix: (Units=1/GPa)
#
#
# Indices 1 2 3 4 5 6 
#
# 1 0.020946 0.002969 -0.010249 -0.002645 0.005394 -0.004074
# 2 0.002969 0.007316 -0.004851 -0.001578 0.004063 0.000235
# 3 -0.010249 -0.004851 0.039482 0.023262 -0.005874 0.009754
# 4 -0.002645 -0.001578 0.023262 0.047227 -0.002117 0.017281
# 5 0.005394 0.004063 -0.005874 -0.002117 0.035526 0.004257
# 6 -0.004074 0.000235 0.009754 0.017281 0.004257 0.039406
#
#
# Mechanical properties :
#
#
# Convention : Reuss Voigt Hill
#
# Bulk Modulus (GPa) = 22.99806 33.87482 28.43644
# Shear Modulus (GPa) = 21.86657 35.64053 28.75355
#
# Velocity S-wave (km/s) = 2.98519 3.81113 3.42316
# Velocity P-wave (km/s) = 4.61023 5.75946 5.21659
#
# Compressibility (1/GPa) = 0.04348193
#
# Stress axis : x y z
#
# Youngs Moduli (GPa) = 47.74236 136.67866 25.32806
#
# Poissons Ratio (x) = -0.40584 0.25960
# Poissons Ratio (y) = -0.14176 0.12287
# Poissons Ratio (z) = 0.48933 0.66303
#
# Static dielectric constant tensor:
#      x y z
#    x 1.956930 0.007380 -0.021690 
#    y 0.007380 2.167000 -0.085900 
#    z -0.021690 -0.085900 2.036160 
# 
# From -- ./inp_files/328143.got.cif
#   From: 2010.05.17/outbox.cif.g08.bks.cpg/sg2_165_cif.got.tgz:328143.got - 2010.06.03 11:33:40.
