data_PCOD9105025
_publ_section_title
;
Structure prediction by ZEFSAII (Michael W. Deem and Ramdas Pophale) SiO2 
 PCOD9105025
Probable space group: P -1
;
_chemical_formula_sum "Si O2"
_cell_formula_units_Z 16
_cell_length_a 19.436958
_cell_length_b 7.831294
_cell_length_c 10.561969
_cell_angle_alpha 93.547189
_cell_angle_beta 30.316459
_cell_angle_gamma 75.971013
_cell_volume 655.644776
_symmetry_space_group_name_H-M "P -1"
_symmetry_group_IT_number 2
_symmetry_cell_setting 'triclinic'
loop_
_space_group_symop_operation_xyz
x,y,z
-x,-y,-z
loop_
_atom_site_type_symbol
_atom_site_label
_atom_site_fract_x
_atom_site_fract_y
_atom_site_fract_z
Si Si1 0.642158 0.441962 0.875861
Si Si2 0.927314 0.837991 0.187004
Si Si3 0.104178 0.498711 0.669820
Si Si4 0.455740 0.985182 0.713388
Si Si5 0.629831 0.166017 0.519940
Si Si6 0.987925 0.009248 0.342234
Si Si7 0.656854 0.270295 0.200764
Si Si8 0.093751 0.322200 0.240610
O O1 0.754191 0.511781 0.638739
O O2 0.781096 0.192528 0.679863
O O3 0.500000 0.500000 0.000000
O O4 0.528703 0.599922 0.178387
O O5 0.848081 0.723289 0.367133
O O6 0.789562 0.061349 0.351367
O O7 0.003660 0.893500 0.180874
O O8 0.049808 0.667175 0.876967
O O9 0.941422 0.585707 0.841092
O O10 0.426554 0.806332 0.764898
O O11 0.500000 0.000000 0.500000
O O12 0.576231 0.006197 0.609056
O O13 0.272899 0.197426 0.014848
O O14 0.685754 0.155578 0.286446
O O15 0.040684 0.164166 0.301310
O O16 0.155715 0.800467 0.138070
O O17 0.500000 0.500000 0.500000
O O18 0.000000 0.500000 0.500000
#
# Coordination Sequence:
#
# PCOD9105025 Si02
#       8
#     2   2   2   2   2   2   2   2
#     4  11  22  40  62  95 129 170 209 257 333 390
#     4  11  23  42  65 100 131 173 220 272 335 384
#     4  10  24  40  64  97 131 173 221 272 321 400
#     4   9  18  35  58  85 120 164 213 253 311 376
#     4  11  22  39  63  91 131 172 210 266 328 392
#     4  10  22  41  65  93 130 169 216 272 325 388
#     4  10  23  40  64  95 125 169 223 271 314 379
#     4  10  20  39  63  88 126 174 217 259 325 388
#
# _framework density 24.403455999999998
#
# number of rings (size 3 to 8) (size 9 to 14) (size 15 to 20)
#    0.000    1.750    1.250    4.500    1.750    7.000 
#    0.000    3.750    0.000    0.000    0.000    0.000 
#    0.000    0.000    0.000    0.000    0.000    0.000 
#
# Total GULP energy -89073.830283 kJ/mol
# GULP energy per Si atom -5567.114393 kJ/mol
# Density = 2.434791 g / cm^3
# Si number density = 24.403456 Si / 1000 Ang^3
#
#
#
# Elastic Constant Matrix: (Units=GPa)
#
#
# Indices 1 2 3 4 5 6 
#
# 1 118.6701 29.7085 4.8407 0.0267 -2.2398 29.0544
# 2 29.7085 64.5658 47.4238 7.6017 5.1003 3.5002
# 3 4.8407 47.4238 117.7086 21.9813 10.2445 17.8107
# 4 0.0267 7.6017 21.9813 41.4023 -0.1482 3.8818
# 5 -2.2398 5.1003 10.2445 -0.1482 51.1454 7.2917
# 6 29.0544 3.5002 17.8107 3.8818 7.2917 28.9269
#
#
#
# Elastic Compliance Matrix: (Units=1/GPa)
#
#
# Indices 1 2 3 4 5 6 
#
# 1 0.015780 -0.011257 0.006441 0.000462 0.003282 -0.019342
# 2 -0.011257 0.030328 -0.014130 0.000328 -0.003121 0.017079
# 3 0.006441 -0.014130 0.017064 -0.005093 0.000350 -0.014671
# 4 0.000462 0.000328 -0.005093 0.026923 0.001271 -0.001302
# 5 0.003282 -0.003121 0.000350 0.001271 0.021173 -0.008642
# 6 -0.019342 0.017079 -0.014671 -0.001302 -0.008642 0.063317
#
#
# Mechanical properties :
#
#
# Convention : Reuss Voigt Hill
#
# Bulk Modulus (GPa) = 39.55636 51.65449 45.60543
# Shear Modulus (GPa) = 22.63437 38.89300 30.76368
#
# Velocity S-wave (km/s) = 3.04880 3.99651 3.55438
# Velocity P-wave (km/s) = 5.35146 6.51989 5.96436
#
# Compressibility (1/GPa) = 0.02528038
#
# Stress axis : x y z
#
# Youngs Moduli (GPa) = 63.37320 32.97271 58.60292
#
# Poissons Ratio (x) = 0.37116 -0.37746
# Poissons Ratio (y) = 0.71337 0.82806
# Poissons Ratio (z) = -0.40819 0.46590
#
# Static dielectric constant tensor:
#      x y z
#    x 1.927470 -0.053560 -0.030420 
#    y -0.053560 1.998190 -0.016900 
#    z -0.030420 -0.016900 2.016520 
# 
# From -- ./inp_files/469430.got.cif
#   From: 2010.05.17/outbox.cif.g08.bks.cpg/sg2_235_cif.got.tgz:469430.got - 2010.06.03 11:33:40.
