data_PCOD9105538
_publ_section_title
;
Structure prediction by ZEFSAII (Michael W. Deem and Ramdas Pophale) SiO2 
 PCOD9105538
Probable space group: P -1
;
_chemical_formula_sum "Si O2"
_cell_formula_units_Z 16
_cell_length_a 16.817011
_cell_length_b 5.324589
_cell_length_c 7.933357
_cell_angle_alpha 100.572835
_cell_angle_beta 83.218328
_cell_angle_gamma 109.515419
_cell_volume 656.966395
_symmetry_space_group_name_H-M "P -1"
_symmetry_group_IT_number 2
_symmetry_cell_setting 'triclinic'
loop_
_space_group_symop_operation_xyz
x,y,z
-x,-y,-z
loop_
_atom_site_type_symbol
_atom_site_label
_atom_site_fract_x
_atom_site_fract_y
_atom_site_fract_z
Si Si1 0.697923 0.203410 0.935636
Si Si2 0.600303 0.800152 0.153795
Si Si3 0.835786 0.552892 0.155703
Si Si4 0.589095 0.420184 0.781226
Si Si5 0.743785 0.814922 0.666244
Si Si6 0.092175 0.312214 0.355392
Si Si7 0.994838 0.306267 0.735594
Si Si8 0.770082 0.015290 0.327193
O O1 0.641697 0.223884 0.793766
O O2 0.743947 0.984943 0.855370
O O3 0.772550 0.465617 0.003334
O O4 0.629702 0.088275 0.086341
O O5 0.508452 0.722566 0.249992
O O6 0.677544 0.832181 0.263893
O O7 0.593746 0.588668 0.976342
O O8 0.933255 0.574505 0.128405
O O9 0.832301 0.845348 0.245282
O O10 0.795188 0.303314 0.265283
O O11 0.647523 0.617692 0.654239
O O12 0.809609 0.651841 0.640698
O O13 0.769848 0.016029 0.528075
O O14 0.951112 0.680368 0.450645
O O15 0.066770 0.523288 0.271391
O O16 0.053769 0.006735 0.259021
#
# Coordination Sequence:
#
# PCOD9105538 Si02
#       8
#     2   2   2   2   2   2   2   2
#     4  10  22  39  64  91 125 170 208 260 312 375
#     4   9  20  40  62  93 118 171 219 250 299 382
#     4  11  22  42  66  92 123 168 218 250 310 379
#     4  10  20  39  65  86 129 166 211 253 317 373
#     4  11  25  38  60  97 128 165 200 269 325 363
#     4  10  22  37  60  92 127 156 209 256 314 367
#     4  10  21  38  63  90 118 167 209 256 300 380
#     4  11  23  39  65  95 128 163 211 264 305 371
#
# _framework density 24.354365999999999
#
# number of rings (size 3 to 8) (size 9 to 14) (size 15 to 20)
#    0.000    1.750    2.500    1.125    7.000    0.500 
#    0.000    1.875    0.000    0.000    0.000    0.000 
#    0.000    0.000    0.000    0.000    0.000    0.000 
#
# Total GULP energy -89458.299867 kJ/mol
# GULP energy per Si atom -5591.143742 kJ/mol
# Density = 2.429893 g / cm^3
# Si number density = 24.354366 Si / 1000 Ang^3
#
#
#
# Elastic Constant Matrix: (Units=GPa)
#
#
# Indices 1 2 3 4 5 6 
#
# 1 127.7802 28.7460 14.2917 5.5335 -0.3749 7.0214
# 2 28.7460 79.8059 10.0555 1.0903 0.4231 -9.2144
# 3 14.2917 10.0555 33.1997 -10.6976 -3.7050 2.4845
# 4 5.5335 1.0903 -10.6976 20.4468 1.5789 7.3915
# 5 -0.3749 0.4231 -3.7050 1.5789 32.8793 -0.9458
# 6 7.0214 -9.2144 2.4845 7.3915 -0.9458 43.5878
#
#
#
# Elastic Compliance Matrix: (Units=1/GPa)
#
#
# Indices 1 2 3 4 5 6 
#
# 1 0.009198 -0.002829 -0.004400 -0.004223 -0.000184 -0.001117
# 2 -0.002829 0.014772 -0.005026 -0.004272 -0.000452 0.004580
# 3 -0.004400 -0.005026 0.042907 0.026240 0.003383 -0.007176
# 4 -0.004223 -0.004272 0.026240 0.068915 -0.000732 -0.013421
# 5 -0.000184 -0.000452 0.003383 -0.000732 0.030850 0.000535
# 6 -0.001117 0.004580 -0.007176 -0.013421 0.000535 0.026787
#
#
# Mechanical properties :
#
#
# Convention : Reuss Voigt Hill
#
# Bulk Modulus (GPa) = 23.60367 38.55245 31.07806
# Shear Modulus (GPa) = 21.54596 31.89561 26.72079
#
# Velocity S-wave (km/s) = 2.97759 3.62283 3.31594
# Velocity P-wave (km/s) = 4.64050 5.77616 5.23919
#
# Compressibility (1/GPa) = 0.04236630
#
# Stress axis : x y z
#
# Youngs Moduli (GPa) = 108.71663 67.69440 23.30624
#
# Poissons Ratio (x) = 0.19151 0.10256
# Poissons Ratio (y) = 0.30756 0.11714
# Poissons Ratio (z) = 0.47839 0.34025
#
# Static dielectric constant tensor:
#      x y z
#    x 1.917290 -0.015940 -0.002800 
#    y -0.015940 1.963050 0.021090 
#    z -0.002800 0.021090 1.973980 
# 
# From -- ./inp_files/53805.got.cif
#   From: 2010.05.17/outbox.cif.g08.bks.cpg/sg2_27_cif.got.tgz:53805.got - 2010.06.03 11:33:40.
