data_PCOD9105011
_publ_section_title
;
Structure prediction by ZEFSAII (Michael W. Deem and Ramdas Pophale) SiO2 
 PCOD9105011
Probable space group: P -1
;
_chemical_formula_sum "Si O2"
_cell_formula_units_Z 14
_cell_length_a 10.377979
_cell_length_b 15.649467
_cell_length_c 17.752029
_cell_angle_alpha 158.366467
_cell_angle_beta 33.437611
_cell_angle_gamma 138.209325
_cell_volume 579.219875
_symmetry_space_group_name_H-M "P -1"
_symmetry_group_IT_number 2
_symmetry_cell_setting 'triclinic'
loop_
_space_group_symop_operation_xyz
x,y,z
-x,-y,-z
loop_
_atom_site_type_symbol
_atom_site_label
_atom_site_fract_x
_atom_site_fract_y
_atom_site_fract_z
Si Si1 0.465830 0.864130 0.087167
Si Si2 0.757923 0.843245 0.783280
Si Si3 0.183253 0.539717 0.375872
Si Si4 0.984087 0.724437 0.986523
Si Si5 0.040035 0.228225 0.782844
Si Si6 0.460043 0.980431 0.594631
Si Si7 0.352379 0.306384 0.441599
O O1 0.187151 0.858870 0.214818
O O2 0.474055 0.141363 0.312804
O O3 0.587402 0.765809 0.867398
O O4 0.631714 0.693138 0.920867
O O5 0.657355 0.858086 0.760916
O O6 0.988677 0.646246 0.497867
O O7 0.854361 0.078933 0.956236
O O8 0.338889 0.749395 0.482802
O O9 0.000000 0.500000 0.500000
O O10 0.969325 0.770714 0.121060
O O11 0.102618 0.456209 0.704898
O O12 0.742128 0.793357 0.115012
O O13 0.295197 0.064218 0.514155
O O14 0.000000 0.500000 0.000000
O O15 0.500000 0.000000 0.500000
O O16 0.500000 0.500000 0.500000
#
# Coordination Sequence:
#
# PCOD9105011 Si02
#       7
#     2   2   2   2   2   2   2
#     4  11  20  36  61  92 122 153 199 250 302 353
#     4  10  20  39  63  88 119 156 194 246 305 358
#     4   9  19  35  61  88 119 155 198 249 302 355
#     4  10  21  39  61  89 119 154 203 243 294 364
#     4  11  20  36  62  88 118 161 201 242 301 354
#     4   9  19  36  61  85 117 162 200 240 296 363
#     4  12  22  36  62  94 122 153 197 251 303 357
#
# _framework density 24.170442999999999
#
# number of rings (size 3 to 8) (size 9 to 14) (size 15 to 20)
#    0.000    1.714    4.286    1.286    0.000    0.000 
#    0.000    3.571    0.000    0.000    0.000    0.000 
#    0.000    0.000    0.000    0.000    0.000    0.000 
#
# Total GULP energy -77979.819332 kJ/mol
# GULP energy per Si atom -5569.987095 kJ/mol
# Density = 2.411543 g / cm^3
# Si number density = 24.170443 Si / 1000 Ang^3
#
#
#
# Elastic Constant Matrix: (Units=GPa)
#
#
# Indices 1 2 3 4 5 6 
#
# 1 72.3124 13.7013 24.3422 -9.6593 -30.8813 2.0833
# 2 13.7013 91.6823 17.7608 4.9949 -18.7083 0.6846
# 3 24.3422 17.7608 155.2908 13.9913 -56.1411 6.7211
# 4 -9.6593 4.9949 13.9913 34.6952 -4.1543 -13.1586
# 5 -30.8813 -18.7083 -56.1411 -4.1543 57.9347 -8.3033
# 6 2.0833 0.6846 6.7211 -13.1586 -8.3033 18.6252
#
#
#
# Elastic Compliance Matrix: (Units=1/GPa)
#
#
# Indices 1 2 3 4 5 6 
#
# 1 0.021150 -0.001158 0.000107 0.012386 0.013681 0.012488
# 2 -0.001158 0.011799 0.000152 -0.001773 0.003185 -0.000192
# 3 0.000107 0.000152 0.010269 -0.003841 0.009463 -0.002218
# 4 0.012386 -0.001773 -0.003841 0.051297 0.011953 0.041636
# 5 0.013681 0.003185 0.009463 0.011953 0.038558 0.020572
# 6 0.012488 -0.000192 -0.002218 0.041636 0.020572 0.091688
#
#
# Mechanical properties :
#
#
# Convention : Reuss Voigt Hill
#
# Bulk Modulus (GPa) = 24.14373 47.87713 36.01043
# Shear Modulus (GPa) = 20.80170 39.81643 30.30906
#
# Velocity S-wave (km/s) = 2.93682 4.06312 3.54499
# Velocity P-wave (km/s) = 4.63795 6.47017 5.62910
#
# Compressibility (1/GPa) = 0.04141862
#
# Stress axis : x y z
#
# Youngs Moduli (GPa) = 47.28213 84.75372 97.38269
#
# Poissons Ratio (x) = 0.09812 -0.01039
# Poissons Ratio (y) = 0.05474 -0.01477
# Poissons Ratio (z) = -0.00505 -0.01285
#
# Static dielectric constant tensor:
#      x y z
#    x 1.893020 0.007230 -0.053460 
#    y 0.007230 1.942150 -0.055270 
#    z -0.053460 -0.055270 2.078580 
# 
# From -- ./inp_files/431164.got.cif
#   From: 2010.05.17/outbox.cif.g08.bks.cpg/sg2_216_cif.got.tgz:431164.got - 2010.06.03 11:33:40.
