data_PCOD9105745
_publ_section_title
;
Structure prediction by ZEFSAII (Michael W. Deem and Ramdas Pophale) SiO2 
 PCOD9105745
Probable space group: P -1
;
_chemical_formula_sum "Si O2"
_cell_formula_units_Z 14
_cell_length_a 8.284239
_cell_length_b 12.660215
_cell_length_c 11.036569
_cell_angle_alpha 46.361101
_cell_angle_beta 128.107501
_cell_angle_gamma 134.641650
_cell_volume 576.052619
_symmetry_space_group_name_H-M "P -1"
_symmetry_group_IT_number 2
_symmetry_cell_setting 'triclinic'
loop_
_space_group_symop_operation_xyz
x,y,z
-x,-y,-z
loop_
_atom_site_type_symbol
_atom_site_label
_atom_site_fract_x
_atom_site_fract_y
_atom_site_fract_z
Si Si1 0.829245 0.000524 0.081635
Si Si2 0.607910 0.982652 0.252866
Si Si3 0.250421 0.638656 0.358875
Si Si4 0.983561 0.564083 0.069286
Si Si5 0.054339 0.289007 0.651168
Si Si6 0.683338 0.697959 0.891486
Si Si7 0.705196 0.210707 0.347528
O O1 0.770153 0.010060 0.189147
O O2 0.831330 0.828948 0.190897
O O3 0.086754 0.156785 0.045654
O O4 0.617930 0.000276 0.908896
O O5 0.498208 0.789889 0.392307
O O6 0.701606 0.099980 0.320427
O O7 0.215129 0.663906 0.179534
O O8 0.224944 0.462468 0.524879
O O9 0.046555 0.656538 0.323484
O O10 0.854556 0.402019 0.222207
O O11 0.000000 0.500000 0.000000
O O12 0.832868 0.655710 0.900641
O O13 0.830550 0.188629 0.539459
O O14 0.534460 0.790717 0.726032
O O15 0.500000 0.500000 0.000000
#
# Coordination Sequence:
#
# PCOD9105745 Si02
#       7
#     2   2   2   2   2   2   2
#     4  11  24  41  68 102 136 179 221 283 338 400
#     4  11  24  41  69 101 138 176 229 273 336 402
#     4  10  22  43  68  94 137 181 220 276 333 406
#     4  10  20  39  65  97 131 171 225 280 327 393
#     4  10  24  45  67  97 142 177 226 275 340 400
#     4  10  21  39  66  99 129 174 227 279 327 386
#     4  10  23  40  66  99 131 178 222 280 330 402
#
# _framework density 24.303335000000001
#
# number of rings (size 3 to 8) (size 9 to 14) (size 15 to 20)
#    0.000    1.714    1.429    1.714    4.000    4.571 
#    2.571    2.857    0.000    0.000    0.000    0.000 
#    0.000    0.000    0.000    0.000    0.000    0.000 
#
# Total GULP energy -78093.751791 kJ/mol
# GULP energy per Si atom -5578.125128 kJ/mol
# Density = 2.424802 g / cm^3
# Si number density = 24.303335 Si / 1000 Ang^3
#
#
#
# Elastic Constant Matrix: (Units=GPa)
#
#
# Indices 1 2 3 4 5 6 
#
# 1 72.5516 36.5852 33.2939 -7.0379 3.1648 -23.0781
# 2 36.5852 131.0104 38.8799 -19.4390 -0.1829 -16.9732
# 3 33.2939 38.8799 69.9477 -14.1039 -0.0804 -10.1994
# 4 -7.0379 -19.4390 -14.1039 44.0171 -8.7276 -13.5204
# 5 3.1648 -0.1829 -0.0804 -8.7276 21.3380 -2.2414
# 6 -23.0781 -16.9732 -10.1994 -13.5204 -2.2414 52.4358
#
#
#
# Elastic Compliance Matrix: (Units=1/GPa)
#
#
# Indices 1 2 3 4 5 6 
#
# 1 0.020925 -0.002481 -0.007100 0.001956 -0.001567 0.007463
# 2 -0.002481 0.010337 -0.003220 0.004549 0.002611 0.002912
# 3 -0.007100 -0.003220 0.020701 0.005149 0.003349 0.001330
# 4 0.001956 0.004549 0.005149 0.033494 0.014792 0.012604
# 5 -0.001567 0.002611 0.003349 0.014792 0.053910 0.006925
# 6 0.007463 0.002912 0.001330 0.012604 0.006925 0.027103
#
#
# Mechanical properties :
#
#
# Convention : Reuss Voigt Hill
#
# Bulk Modulus (GPa) = 37.93415 54.55862 46.24638
# Shear Modulus (GPa) = 24.89303 34.54155 29.71729
#
# Velocity S-wave (km/s) = 3.20388 3.77406 3.50060
# Velocity P-wave (km/s) = 5.41563 6.44121 5.95055
#
# Compressibility (1/GPa) = 0.02636147
#
# Stress axis : x y z
#
# Youngs Moduli (GPa) = 47.79076 96.73564 48.30572
#
# Poissons Ratio (x) = 0.24004 0.34295
# Poissons Ratio (y) = 0.11859 0.15554
# Poissons Ratio (z) = 0.33930 0.31149
#
# Static dielectric constant tensor:
#      x y z
#    x 1.876580 0.144220 0.022610 
#    y 0.144220 1.999430 -0.036980 
#    z 0.022610 -0.036980 1.940800 
# 
# From -- ./inp_files/191306.got.cif
#   From: 2010.05.17/outbox.cif.g08.bks.cpg/sg2_96_cif.got.tgz:191306.got - 2010.06.03 11:33:40.
