data_PCOD9105269
_publ_section_title
;
Structure prediction by ZEFSAII (Michael W. Deem and Ramdas Pophale) SiO2 
 PCOD9105269
Probable space group: P -1
;
_chemical_formula_sum "Si O2"
_cell_formula_units_Z 14
_cell_length_a 14.976498
_cell_length_b 15.571162
_cell_length_c 13.091931
_cell_angle_alpha 21.381236
_cell_angle_beta 149.188855
_cell_angle_gamma 142.418259
_cell_volume 569.688140
_symmetry_space_group_name_H-M "P -1"
_symmetry_group_IT_number 2
_symmetry_cell_setting 'triclinic'
loop_
_space_group_symop_operation_xyz
x,y,z
-x,-y,-z
loop_
_atom_site_type_symbol
_atom_site_label
_atom_site_fract_x
_atom_site_fract_y
_atom_site_fract_z
Si Si1 0.643325 0.148769 0.416926
Si Si2 0.379288 0.086126 0.552436
Si Si3 0.182067 0.593044 0.538172
Si Si4 0.037717 0.022441 0.203697
Si Si5 0.109608 0.008040 0.702030
Si Si6 0.687865 0.433158 0.511506
Si Si7 0.558136 0.725089 0.248379
O O1 0.582229 0.098109 0.298121
O O2 0.676598 0.374817 0.270212
O O3 0.500000 0.000000 0.500000
O O4 0.849350 0.080792 0.666421
O O5 0.185574 0.183406 0.225130
O O6 0.519368 0.283645 0.481771
O O7 0.403597 0.917323 0.860892
O O8 0.248783 0.454690 0.656616
O O9 0.000000 0.500000 0.500000
O O10 0.130221 0.846818 0.155065
O O11 0.983031 0.880167 0.409296
O O12 0.281154 0.144641 0.691041
O O13 0.000000 0.000000 0.500000
O O14 0.175480 0.752025 0.094352
O O15 0.636499 0.621478 0.335848
O O16 0.500000 0.500000 0.500000
#
# Coordination Sequence:
#
# PCOD9105269 Si02
#       7
#     2   2   2   2   2   2   2
#     4  10  20  39  64  87 123 171 206 237 314 377
#     4   9  22  42  65  89 129 167 204 253 317 372
#     4  11  22  38  62  97 125 162 208 264 304 359
#     4   9  22  40  64  88 127 164 209 250 314 375
#     4  10  24  44  66  89 125 170 202 263 326 362
#     4  10  23  42  63  92 130 162 212 253 314 383
#     4  11  26  42  66  94 124 163 213 264 313 373
#
# _framework density 24.574850000000001
#
# number of rings (size 3 to 8) (size 9 to 14) (size 15 to 20)
#    0.857    1.143    1.429    0.429    6.000    4.000 
#    2.571    2.143    0.000    0.000    0.000    0.000 
#    0.000    0.000    0.000    0.000    0.000    0.000 
#
# Total GULP energy -77960.613584 kJ/mol
# GULP energy per Si atom -5568.615256 kJ/mol
# Density = 2.451892 g / cm^3
# Si number density = 24.574850 Si / 1000 Ang^3
#
#
#
# Elastic Constant Matrix: (Units=GPa)
#
#
# Indices 1 2 3 4 5 6 
#
# 1 132.4291 36.7861 11.1919 -2.6637 -10.5533 -13.1992
# 2 36.7861 127.6220 35.7681 25.1233 -17.3933 -12.0014
# 3 11.1919 35.7681 54.6541 16.0928 -7.1055 0.5403
# 4 -2.6637 25.1233 16.0928 23.6220 2.6481 -7.4985
# 5 -10.5533 -17.3933 -7.1055 2.6481 33.9925 -4.2766
# 6 -13.1992 -12.0014 0.5403 -7.4985 -4.2766 38.9430
#
#
#
# Elastic Compliance Matrix: (Units=1/GPa)
#
#
# Indices 1 2 3 4 5 6 
#
# 1 0.009055 -0.002915 -0.001719 0.006305 0.000910 0.003509
# 2 -0.002915 0.013006 -0.003627 -0.011915 0.006102 0.001446
# 3 -0.001719 -0.003627 0.026336 -0.016217 0.003778 -0.004773
# 4 0.006305 -0.011915 -0.016217 0.071631 -0.011701 0.011198
# 5 0.000910 0.006102 0.003778 -0.011701 0.034993 0.003726
# 6 0.003509 0.001446 -0.004773 0.011198 0.003726 0.029945
#
#
# Mechanical properties :
#
#
# Convention : Reuss Voigt Hill
#
# Bulk Modulus (GPa) = 31.37375 53.57751 42.47563
# Shear Modulus (GPa) = 23.57226 34.70879 29.14053
#
# Velocity S-wave (km/s) = 3.10046 3.76223 3.44726
# Velocity P-wave (km/s) = 5.06078 6.38135 5.75904
#
# Compressibility (1/GPa) = 0.03187378
#
# Stress axis : x y z
#
# Youngs Moduli (GPa) = 110.43115 76.88963 37.97073
#
# Poissons Ratio (x) = 0.22417 0.06527
# Poissons Ratio (y) = 0.32196 0.13773
# Poissons Ratio (z) = 0.18984 0.27889
#
# Static dielectric constant tensor:
#      x y z
#    x 2.058740 -0.015630 0.034630 
#    y -0.015630 1.808020 0.069860 
#    z 0.034630 0.069860 1.964910 
# 
# From -- ./inp_files/453535.got.cif
#   From: 2010.05.17/outbox.cif.g08.bks.cpg/sg2_227_cif.got.tgz:453535.got - 2010.06.03 11:33:40.
