data_PCOD9105182
_publ_section_title
;
Structure prediction by ZEFSAII (Michael W. Deem and Ramdas Pophale) SiO2 
 PCOD9105182
Probable space group: P -1
;
_chemical_formula_sum "Si O2"
_cell_formula_units_Z 16
_cell_length_a 17.112061
_cell_length_b 9.361357
_cell_length_c 9.130766
_cell_angle_alpha 121.687919
_cell_angle_beta 85.518555
_cell_angle_gamma 48.674264
_cell_volume 697.972291
_symmetry_space_group_name_H-M "P -1"
_symmetry_group_IT_number 2
_symmetry_cell_setting 'triclinic'
loop_
_space_group_symop_operation_xyz
x,y,z
-x,-y,-z
loop_
_atom_site_type_symbol
_atom_site_label
_atom_site_fract_x
_atom_site_fract_y
_atom_site_fract_z
Si Si1 0.750524 0.799850 0.616630
Si Si2 0.370089 0.690988 0.225273
Si Si3 0.908408 0.659763 0.749639
Si Si4 0.127211 0.490319 0.067434
Si Si5 0.575954 0.220564 0.433573
Si Si6 0.571438 0.820940 0.680356
Si Si7 0.008980 0.790173 0.927555
Si Si8 0.296563 0.447261 0.190496
O O1 0.777183 0.782873 0.776085
O O2 0.614997 0.927071 0.675424
O O3 0.865540 0.498779 0.346935
O O4 0.748866 0.989748 0.659211
O O5 0.402962 0.723841 0.388449
O O6 0.326919 0.577697 0.195013
O O7 0.500000 0.500000 0.000000
O O8 0.000000 0.500000 0.500000
O O9 0.885242 0.888797 0.937492
O O10 0.959908 0.467982 0.782269
O O11 0.048344 0.679883 0.031062
O O12 0.269857 0.129295 0.818576
O O13 0.169119 0.584982 0.200920
O O14 0.500000 0.500000 0.500000
O O15 0.467865 0.254897 0.467330
O O16 0.693914 0.557618 0.636551
O O17 0.428230 0.099330 0.938772
O O18 0.000000 0.000000 0.000000
#
# Coordination Sequence:
#
# PCOD9105182 Si02
#       8
#     2   2   2   2   2   2   2   2
#     4  11  23  44  65  95 134 177 218 282 343 391
#     4  12  24  39  64 103 143 177 216 266 339 418
#     4  10  24  46  72  93 128 177 235 293 343 393
#     4  11  23  45  72  96 139 182 222 289 345 396
#     4  11  24  39  65 104 139 175 223 262 333 426
#     4  10  20  39  63  94 138 172 216 264 328 417
#     4  11  26  47  66  98 130 174 242 292 335 392
#     4  10  21  37  64 100 133 175 216 260 338 421
#
# _framework density 22.923546000000002
#
# number of rings (size 3 to 8) (size 9 to 14) (size 15 to 20)
#    0.000    1.250    5.000    0.375    3.500    2.500 
#    0.000    2.500    0.000    0.000    0.000    0.000 
#    0.000    0.000    0.000    0.000    0.000    0.000 
#
# Total GULP energy -89199.818913 kJ/mol
# GULP energy per Si atom -5574.988682 kJ/mol
# Density = 2.287137 g / cm^3
# Si number density = 22.923546 Si / 1000 Ang^3
#
#
#
# Elastic Constant Matrix: (Units=GPa)
#
#
# Indices 1 2 3 4 5 6 
#
# 1 131.3972 25.1909 29.3698 -10.6958 29.6310 15.1310
# 2 25.1909 131.0655 40.6713 -13.1951 17.0447 17.3781
# 3 29.3698 40.6713 70.1491 -9.7848 9.9536 5.9128
# 4 -10.6958 -13.1951 -9.7848 33.3204 -1.6453 5.3020
# 5 29.6310 17.0447 9.9536 -1.6453 34.8769 -0.1386
# 6 15.1310 17.3781 5.9128 5.3020 -0.1386 40.1022
#
#
#
# Elastic Compliance Matrix: (Units=1/GPa)
#
#
# Indices 1 2 3 4 5 6 
#
# 1 0.010844 0.000895 -0.002999 0.003242 -0.008659 -0.004496
# 2 0.000895 0.010541 -0.004987 0.003523 -0.004341 -0.004651
# 3 -0.002999 -0.004987 0.018776 0.002534 -0.000253 0.000188
# 4 0.003242 0.003523 0.002534 0.034232 -0.003615 -0.007662
# 5 -0.008659 -0.004341 -0.000253 -0.003615 0.038075 0.005795
# 6 -0.004496 -0.004651 0.000188 -0.007662 0.005795 0.029653
#
#
# Mechanical properties :
#
#
# Convention : Reuss Voigt Hill
#
# Bulk Modulus (GPa) = 38.49311 58.11953 48.30632
# Shear Modulus (GPa) = 30.30989 37.48523 33.89756
#
# Velocity S-wave (km/s) = 3.64017 4.04818 3.84959
# Velocity P-wave (km/s) = 5.87335 6.87452 6.39356
#
# Compressibility (1/GPa) = 0.02597868
#
# Stress axis : x y z
#
# Youngs Moduli (GPa) = 92.22080 94.86599 53.26009
#
# Poissons Ratio (x) = -0.08491 0.15973
# Poissons Ratio (y) = -0.08255 0.26561
# Poissons Ratio (z) = 0.27658 0.47309
#
# Static dielectric constant tensor:
#      x y z
#    x 1.961840 -0.053380 -0.065110 
#    y -0.053380 2.170860 0.052490 
#    z -0.065110 0.052490 1.858280 
# 
# From -- ./inp_files/327831.got.cif
#   From: 2010.05.17/outbox.cif.g08.bks.cpg/sg2_164_cif.got.tgz:327831.got - 2010.06.03 11:33:40.
