data_PCOD9105593
_publ_section_title
;
Structure prediction by ZEFSAII (Michael W. Deem and Ramdas Pophale) SiO2 
 PCOD9105593
Probable space group: P -1
;
_chemical_formula_sum "Si O2"
_cell_formula_units_Z 12
_cell_length_a 9.416454
_cell_length_b 8.291140
_cell_length_c 11.376879
_cell_angle_alpha 116.167529
_cell_angle_beta 126.036249
_cell_angle_gamma 52.681887
_cell_volume 566.285895
_symmetry_space_group_name_H-M "P -1"
_symmetry_group_IT_number 2
_symmetry_cell_setting 'triclinic'
loop_
_space_group_symop_operation_xyz
x,y,z
-x,-y,-z
loop_
_atom_site_type_symbol
_atom_site_label
_atom_site_fract_x
_atom_site_fract_y
_atom_site_fract_z
Si Si1 0.383404 0.035064 0.761412
Si Si2 0.641822 0.262967 0.970698
Si Si3 0.123687 0.917993 0.748400
Si Si4 0.980596 0.359803 0.546514
Si Si5 0.294969 0.867094 0.302549
Si Si6 0.348557 0.259958 0.395386
O O1 0.515671 0.142794 0.889189
O O2 0.198571 0.193469 0.642129
O O3 0.279824 0.989519 0.805267
O O4 0.522826 0.832202 0.689086
O O5 0.708662 0.223747 0.855231
O O6 0.500000 0.500000 0.000000
O O7 0.817028 0.180336 0.125256
O O8 0.124411 0.760066 0.601958
O O9 0.896264 0.096242 0.703558
O O10 0.842972 0.518464 0.629771
O O11 0.000000 0.500000 0.500000
O O12 0.500917 0.738557 0.431172
O O13 0.285083 0.088572 0.348075
#
# Coordination Sequence:
#
# PCOD9105593 Si02
#       6
#     2   2   2   2   2   2
#     4  11  25  43  62  95 134 159 203 270 317 362
#     4  11  24  43  65  89 123 173 217 249 308 384
#     4  12  23  41  64  94 131 163 204 266 319 356
#     4  12  21  39  70  94 123 166 216 249 302 387
#     4  10  20  39  65  91 125 163 211 258 307 370
#     4  10  20  39  65  95 123 164 209 253 311 370
#
# _framework density 21.190708000000001
#
# number of rings (size 3 to 8) (size 9 to 14) (size 15 to 20)
#    0.000    1.000    3.333    5.500    0.000    0.667 
#    3.000    0.833    0.000    0.000    0.000    0.000 
#    0.000    0.000    0.000    0.000    0.000    0.000 
#
# Total GULP energy -67129.681479 kJ/mol
# GULP energy per Si atom -5594.140123 kJ/mol
# Density = 2.114248 g / cm^3
# Si number density = 21.190708 Si / 1000 Ang^3
#
#
#
# Elastic Constant Matrix: (Units=GPa)
#
#
# Indices 1 2 3 4 5 6 
#
# 1 96.5009 19.6233 -7.8806 12.0335 -5.1853 -25.7522
# 2 19.6233 72.6139 21.0585 16.5530 -10.0945 -31.9581
# 3 -7.8806 21.0585 68.5385 -2.9052 -3.6796 -11.8342
# 4 12.0335 16.5530 -2.9052 23.2629 -4.5033 -6.6304
# 5 -5.1853 -10.0945 -3.6796 -4.5033 26.4447 -0.9177
# 6 -25.7522 -31.9581 -11.8342 -6.6304 -0.9177 31.3921
#
#
#
# Elastic Compliance Matrix: (Units=1/GPa)
#
#
# Indices 1 2 3 4 5 6 
#
# 1 0.015237 0.004174 0.003519 -0.004546 0.004896 0.017258
# 2 0.004174 0.033347 -0.004055 -0.014716 0.011625 0.033076
# 3 0.003519 -0.004055 0.017807 0.005768 0.002837 0.006774
# 4 -0.004546 -0.014716 0.005768 0.055922 0.003656 -0.004618
# 5 0.004896 0.011625 0.002837 0.003656 0.044889 0.019005
# 6 0.017258 0.033076 0.006774 -0.004618 0.019005 0.081819
#
#
# Mechanical properties :
#
#
# Convention : Reuss Voigt Hill
#
# Bulk Modulus (GPa) = 13.57427 33.69506 23.63466
# Shear Modulus (GPa) = 18.77589 29.87675 24.32632
#
# Velocity S-wave (km/s) = 2.97988 3.75894 3.39185
# Velocity P-wave (km/s) = 4.27308 5.89702 5.14947
#
# Compressibility (1/GPa) = 0.07366878
#
# Stress axis : x y z
#
# Youngs Moduli (GPa) = 65.63122 29.98766 56.15700
#
# Poissons Ratio (x) = -0.12517 -0.19764
# Poissons Ratio (y) = -0.27395 0.22770
# Poissons Ratio (z) = -0.23099 0.12159
#
# Static dielectric constant tensor:
#      x y z
#    x 1.789430 -0.001790 -0.009900 
#    y -0.001790 1.749060 -0.009520 
#    z -0.009900 -0.009520 1.761710 
# 
# From -- ./inp_files/145848.got.cif
#   From: 2010.05.17/outbox.cif.g08.bks.cpg/sg2_73_cif.got.tgz:145848.got - 2010.06.03 11:33:40.
