data_PCOD9105789
_publ_section_title
;
Structure prediction by ZEFSAII (Michael W. Deem and Ramdas Pophale) SiO2 
 PCOD9105789
Probable space group: P -1
;
_chemical_formula_sum "Si O2"
_cell_formula_units_Z 16
_cell_length_a 20.266571
_cell_length_b 5.465362
_cell_length_c 6.324326
_cell_angle_alpha 105.067213
_cell_angle_beta 99.322406
_cell_angle_gamma 88.039829
_cell_volume 667.469267
_symmetry_space_group_name_H-M "P -1"
_symmetry_group_IT_number 2
_symmetry_cell_setting 'triclinic'
loop_
_space_group_symop_operation_xyz
x,y,z
-x,-y,-z
loop_
_atom_site_type_symbol
_atom_site_label
_atom_site_fract_x
_atom_site_fract_y
_atom_site_fract_z
Si Si1 0.642049 0.096478 0.223676
Si Si2 0.865183 0.824867 0.181759
Si Si3 0.239604 0.079516 0.496982
Si Si4 0.661285 0.603764 0.613903
Si Si5 0.402935 0.643545 0.102802
Si Si6 0.154940 0.754062 0.109526
Si Si7 0.990459 0.207959 0.857449
Si Si8 0.454037 0.246401 0.697199
O O1 0.659871 0.350611 0.415230
O O2 0.699640 0.919924 0.302945
O O3 0.569614 0.994692 0.234004
O O4 0.638873 0.138643 0.982985
O O5 0.823222 0.844351 0.378599
O O6 0.945499 0.838803 0.268370
O O7 0.848676 0.541247 0.021906
O O8 0.848243 0.050537 0.052019
O O9 0.270093 0.257304 0.371440
O O10 0.217841 0.827168 0.303812
O O11 0.646056 0.526750 0.825359
O O12 0.594573 0.746542 0.527052
O O13 0.467057 0.734213 0.291085
O O14 0.433114 0.481290 0.889168
O O15 0.088469 0.806545 0.228852
O O16 0.000000 0.500000 0.000000
O O17 0.000000 0.000000 0.000000
#
# Coordination Sequence:
#
# PCOD9105789 Si02
#       8
#     2   2   2   2   2   2   2   2
#     4  10  23  39  56  89 125 161 212 267 318 402
#     4  10  23  42  69  97 136 180 221 286 331 391
#     4  11  26  42  60  94 136 172 231 259 332 414
#     4  10  23  39  57  90 127 162 210 269 319 399
#     4  10  20  39  66  85 119 162 208 266 336 382
#     4  10  23  41  70  99 133 182 222 279 342 391
#     4   8  16  37  63  98 131 165 226 278 333 389
#     4   9  20  39  61  92 116 155 212 266 328 399
#
# _framework density 23.971139000000001
#
# number of rings (size 3 to 8) (size 9 to 14) (size 15 to 20)
#    0.000    2.250    0.000    0.750    3.500    7.000 
#    0.000    0.000    0.000    9.000    0.000    0.000 
#    0.000    0.000    0.000    0.000    0.000    0.000 
#
# Total GULP energy -89336.642477 kJ/mol
# GULP energy per Si atom -5583.540155 kJ/mol
# Density = 2.391658 g / cm^3
# Si number density = 23.971139 Si / 1000 Ang^3
#
#
#
# Elastic Constant Matrix: (Units=GPa)
#
#
# Indices 1 2 3 4 5 6 
#
# 1 113.8251 38.1701 28.3044 -11.1329 -11.5868 24.4464
# 2 38.1701 119.1694 26.1674 -10.0052 -1.1145 23.3591
# 3 28.3044 26.1674 49.8166 -11.3644 9.0399 0.2936
# 4 -11.1329 -10.0052 -11.3644 40.7227 9.1941 -2.3215
# 5 -11.5868 -1.1145 9.0399 9.1941 32.5260 6.3255
# 6 24.4464 23.3591 0.2936 -2.3215 6.3255 32.0645
#
#
#
# Elastic Compliance Matrix: (Units=1/GPa)
#
#
# Indices 1 2 3 4 5 6 
#
# 1 0.015910 0.000390 -0.012063 -0.002643 0.012698 -0.015000
# 2 0.000390 0.011789 -0.007357 -0.000665 0.004679 -0.009789
# 3 -0.012063 -0.007357 0.037227 0.011322 -0.021859 0.019348
# 4 -0.002643 -0.000665 0.011322 0.030447 -0.014155 0.007393
# 5 0.012698 0.004679 -0.021859 -0.014155 0.050134 -0.023805
# 6 -0.015000 -0.009789 0.019348 0.007393 -0.023805 0.054809
#
#
# Mechanical properties :
#
#
# Convention : Reuss Voigt Hill
#
# Bulk Modulus (GPa) = 37.22216 52.01055 44.61636
# Shear Modulus (GPa) = 20.21572 33.74058 26.97815
#
# Velocity S-wave (km/s) = 2.90718 3.75580 3.35840
# Velocity P-wave (km/s) = 5.17982 6.36807 5.80443
#
# Compressibility (1/GPa) = 0.02686571
#
# Stress axis : x y z
#
# Youngs Moduli (GPa) = 62.85368 84.82637 26.86202
#
# Poissons Ratio (x) = -0.03308 0.32404
# Poissons Ratio (y) = -0.02451 0.19762
# Poissons Ratio (z) = 0.75821 0.62406
#
# Static dielectric constant tensor:
#      x y z
#    x 1.918530 -0.038340 0.008310 
#    y -0.038340 1.982520 -0.017560 
#    z 0.008310 -0.017560 1.917170 
# 
# From -- ./inp_files/10673.got.cif
#   From: 2010.05.17/outbox.cif.g08.bks.cpg/sg2_6_cif.got.tgz:10673.got - 2010.06.03 11:33:40.
