data_PCOD9105617
_publ_section_title
;
Structure prediction by ZEFSAII (Michael W. Deem and Ramdas Pophale) SiO2 
 PCOD9105617
Probable space group: P -1
;
_chemical_formula_sum "Si O2"
_cell_formula_units_Z 14
_cell_length_a 15.061926
_cell_length_b 18.820031
_cell_length_c 8.039676
_cell_angle_alpha 42.426219
_cell_angle_beta 50.809362
_cell_angle_gamma 22.038985
_cell_volume 564.473169
_symmetry_space_group_name_H-M "P -1"
_symmetry_group_IT_number 2
_symmetry_cell_setting 'triclinic'
loop_
_space_group_symop_operation_xyz
x,y,z
-x,-y,-z
loop_
_atom_site_type_symbol
_atom_site_label
_atom_site_fract_x
_atom_site_fract_y
_atom_site_fract_z
Si Si1 0.397240 0.377969 0.062074
Si Si2 0.109549 0.307418 0.788943
Si Si3 0.682600 0.214268 0.323782
Si Si4 0.135112 0.282502 0.173928
Si Si5 0.881435 0.264236 0.427921
Si Si6 0.706458 0.952433 0.283558
Si Si7 0.200133 0.682101 0.209284
O O1 0.133287 0.564470 0.121316
O O2 0.576751 0.240855 0.240435
O O3 0.497317 0.206393 0.120727
O O4 0.357606 0.518859 0.768371
O O5 0.000000 0.500000 0.500000
O O6 0.291240 0.106773 0.792775
O O7 0.222753 0.229528 0.972224
O O8 0.454240 0.412056 0.373717
O O9 0.765889 0.259406 0.076213
O O10 0.916855 0.957553 0.537633
O O11 0.288959 0.127754 0.422536
O O12 0.973557 0.306557 0.300766
O O13 0.000000 0.500000 0.000000
O O14 0.844814 0.235497 0.695665
O O15 0.965027 0.803491 0.238370
#
# Coordination Sequence:
#
# PCOD9105617 Si02
#       7
#     2   2   2   2   2   2   2
#     4  11  24  41  66  95 129 172 221 268 323 401
#     4  11  23  41  66  95 132 168 222 270 327 394
#     4  11  21  42  66  93 129 171 217 269 325 391
#     4  10  20  39  65  92 127 170 217 265 322 389
#     4  10  23  40  62  92 133 166 216 272 319 393
#     4  11  22  43  66  94 138 171 215 281 324 388
#     4  10  22  40  66  94 127 171 216 266 333 383
#
# _framework density 24.801888000000002
#
# number of rings (size 3 to 8) (size 9 to 14) (size 15 to 20)
#    0.000    1.429    5.714    0.429    0.000    3.429 
#    0.000    2.143    0.000    0.000    0.000    0.000 
#    0.000    0.000    0.000    0.000    0.000    0.000 
#
# Total GULP energy -78300.589654 kJ/mol
# GULP energy per Si atom -5592.899261 kJ/mol
# Density = 2.474544 g / cm^3
# Si number density = 24.801888 Si / 1000 Ang^3
#
#
#
# Elastic Constant Matrix: (Units=GPa)
#
#
# Indices 1 2 3 4 5 6 
#
# 1 65.9962 43.8270 18.7983 10.2760 6.8929 15.6745
# 2 43.8270 165.8727 38.7025 -14.9488 -2.1959 15.9710
# 3 18.7983 38.7025 103.3047 -15.1774 15.1153 0.2737
# 4 10.2760 -14.9488 -15.1774 48.2095 8.3375 -8.7826
# 5 6.8929 -2.1959 15.1153 8.3375 36.8787 10.5749
# 6 15.6745 15.9710 0.2737 -8.7826 10.5749 39.0993
#
#
#
# Elastic Compliance Matrix: (Units=1/GPa)
#
#
# Indices 1 2 3 4 5 6 
#
# 1 0.023519 -0.005156 -0.004134 -0.010146 0.002201 -0.010168
# 2 -0.005156 0.008258 -0.002122 0.002370 0.002176 -0.001348
# 3 -0.004134 -0.002122 0.013448 0.007017 -0.008240 0.006235
# 4 -0.010146 0.002370 0.007017 0.030163 -0.011356 0.012897
# 5 0.002201 0.002176 -0.008240 -0.011356 0.036860 -0.014234
# 6 -0.010168 -0.001348 0.006235 0.012897 -0.014234 0.036905
#
#
# Mechanical properties :
#
#
# Convention : Reuss Voigt Hill
#
# Bulk Modulus (GPa) = 44.64200 59.75879 52.20039
# Shear Modulus (GPa) = 27.86386 40.42723 34.14554
#
# Velocity S-wave (km/s) = 3.35544 4.04171 3.71446
# Velocity P-wave (km/s) = 5.74895 6.77697 6.28402
#
# Compressibility (1/GPa) = 0.02240043
#
# Stress axis : x y z
#
# Youngs Moduli (GPa) = 42.51952 121.08961 74.36300
#
# Poissons Ratio (x) = 0.62432 0.30740
# Poissons Ratio (y) = 0.21922 0.15783
# Poissons Ratio (z) = 0.17577 0.25700
#
# Static dielectric constant tensor:
#      x y z
#    x 2.027900 -0.042470 0.007700 
#    y -0.042470 1.970270 0.056610 
#    z 0.007700 0.056610 2.046160 
# 
# From -- ./inp_files/337423.got.cif
#   From: 2010.05.17/outbox.cif.g08.bks.cpg/sg2_169_cif.got.tgz:337423.got - 2010.06.03 11:33:40.
