data_PCOD9105110
_publ_section_title
;
Structure prediction by ZEFSAII (Michael W. Deem and Ramdas Pophale) SiO2 
 PCOD9105110
Probable space group: P -1
;
_chemical_formula_sum "Si O2"
_cell_formula_units_Z 16
_cell_length_a 9.361166
_cell_length_b 14.590039
_cell_length_c 12.530123
_cell_angle_alpha 151.945811
_cell_angle_beta 103.681791
_cell_angle_gamma 66.183577
_cell_volume 707.190679
_symmetry_space_group_name_H-M "P -1"
_symmetry_group_IT_number 2
_symmetry_cell_setting 'triclinic'
loop_
_space_group_symop_operation_xyz
x,y,z
-x,-y,-z
loop_
_atom_site_type_symbol
_atom_site_label
_atom_site_fract_x
_atom_site_fract_y
_atom_site_fract_z
Si Si1 0.736123 0.242711 0.485690
Si Si2 0.666441 0.525877 0.564077
Si Si3 0.235463 0.407216 0.036993
Si Si4 0.970248 0.243571 0.212344
Si Si5 0.057729 0.854504 0.117820
Si Si6 0.785325 0.865373 0.679041
Si Si7 0.424766 0.066035 0.899036
Si Si8 0.144940 0.436263 0.816375
O O1 0.760521 0.370575 0.520017
O O2 0.689732 0.419991 0.751763
O O3 0.616960 0.138866 0.320038
O O4 0.905320 0.045338 0.340689
O O5 0.500000 0.500000 0.500000
O O6 0.784980 0.414584 0.372888
O O7 0.629911 0.768552 0.840831
O O8 0.044848 0.515846 0.150319
O O9 0.330616 0.207400 0.925322
O O10 0.235517 0.350004 0.854795
O O11 0.085000 0.277206 0.355163
O O12 0.012712 0.231949 0.083388
O O13 0.000000 0.000000 0.000000
O O14 0.144354 0.663784 0.018721
O O15 0.164866 0.958193 0.186162
O O16 0.781909 0.718526 0.429681
O O17 0.614727 0.986480 0.831395
#
# Coordination Sequence:
#
# PCOD9105110 Si02
#       8
#     2   2   2   2   2   2   2   2
#     4  11  22  42  65  94 130 167 218 258 317 388
#     4  11  22  41  65  95 134 172 213 263 311 379
#     4  10  23  44  66  96 127 162 216 278 317 377
#     4  10  20  39  63  91 130 167 204 261 311 371
#     4  11  22  40  68  93 124 172 213 258 320 383
#     4  11  23  43  62  97 133 165 211 269 313 382
#     4  11  25  41  66  95 134 169 212 263 326 373
#     4  11  23  41  70  96 120 168 223 263 324 381
#
# _framework density 22.624732999999999
#
# number of rings (size 3 to 8) (size 9 to 14) (size 15 to 20)
#    0.000    1.250    5.000    2.250    0.000    6.000 
#    0.000    1.250    0.000    0.000    0.000    0.000 
#    0.000    0.000    0.000    0.000    0.000    0.000 
#
# Total GULP energy -89504.808153 kJ/mol
# GULP energy per Si atom -5594.050510 kJ/mol
# Density = 2.257324 g / cm^3
# Si number density = 22.624733 Si / 1000 Ang^3
#
#
#
# Elastic Constant Matrix: (Units=GPa)
#
#
# Indices 1 2 3 4 5 6 
#
# 1 79.3518 -9.7044 13.9996 17.4064 8.9222 0.8881
# 2 -9.7044 76.5772 9.3988 -8.1444 1.7099 -1.5728
# 3 13.9996 9.3988 89.0401 4.6460 3.9912 1.1837
# 4 17.4064 -8.1444 4.6460 28.7889 4.0335 5.5398
# 5 8.9222 1.7099 3.9912 4.0335 36.5113 7.4374
# 6 0.8881 -1.5728 1.1837 5.5398 7.4374 22.8200
#
#
#
# Elastic Compliance Matrix: (Units=1/GPa)
#
#
# Indices 1 2 3 4 5 6 
#
# 1 0.015352 0.001400 -0.002004 -0.008642 -0.003202 0.002745
# 2 0.001400 0.013865 -0.001813 0.003437 -0.001292 0.000582
# 3 -0.002004 -0.001813 0.011822 -0.001090 -0.000554 -0.000215
# 4 -0.008642 0.003437 -0.001090 0.043056 -0.000734 -0.009583
# 5 -0.003202 -0.001292 -0.000554 -0.000734 0.030338 -0.009645
# 6 0.002745 0.000582 -0.000215 -0.009583 -0.009645 0.049235
#
#
# Mechanical properties :
#
#
# Convention : Reuss Voigt Hill
#
# Bulk Modulus (GPa) = 27.61958 30.26188 28.94073
# Shear Modulus (GPa) = 27.69009 33.04237 30.36623
#
# Velocity S-wave (km/s) = 3.50220 3.82573 3.66754
# Velocity P-wave (km/s) = 5.34678 5.73756 5.54562
#
# Compressibility (1/GPa) = 0.03620620
#
# Stress axis : x y z
#
# Youngs Moduli (GPa) = 65.13851 72.12383 84.58919
#
# Poissons Ratio (x) = -0.10098 0.16948
# Poissons Ratio (y) = -0.09120 0.15335
# Poissons Ratio (z) = 0.13051 0.13075
#
# Static dielectric constant tensor:
#      x y z
#    x 1.872500 -0.002520 0.070420 
#    y -0.002520 1.816530 -0.004060 
#    z 0.070420 -0.004060 1.885500 
# 
# From -- ./inp_files/312988.got.cif
#   From: 2010.05.17/outbox.cif.g08.bks.cpg/sg2_157_cif.got.tgz:312988.got - 2010.06.03 11:33:40.
