data_PCOD9105311
_publ_section_title
;
Structure prediction by ZEFSAII (Michael W. Deem and Ramdas Pophale) SiO2 
 PCOD9105311
Probable space group: P -1
;
_chemical_formula_sum "Si O2"
_cell_formula_units_Z 16
_cell_length_a 8.131290
_cell_length_b 11.165794
_cell_length_c 11.920961
_cell_angle_alpha 84.589444
_cell_angle_beta 42.866803
_cell_angle_gamma 87.450879
_cell_volume 732.540608
_symmetry_space_group_name_H-M "P -1"
_symmetry_group_IT_number 2
_symmetry_cell_setting 'triclinic'
loop_
_space_group_symop_operation_xyz
x,y,z
-x,-y,-z
loop_
_atom_site_type_symbol
_atom_site_label
_atom_site_fract_x
_atom_site_fract_y
_atom_site_fract_z
Si Si1 0.123379 0.370101 0.936497
Si Si2 0.572074 0.432612 0.859138
Si Si3 0.929296 0.879977 0.705246
Si Si4 0.687934 0.060856 0.678313
Si Si5 0.949391 0.264166 0.647524
Si Si6 0.872583 0.897081 0.994958
Si Si7 0.744172 0.579115 0.383693
Si Si8 0.938103 0.619808 0.645944
O O1 0.354438 0.382169 0.899887
O O2 0.196572 0.367636 0.771122
O O3 0.017251 0.235373 0.027662
O O4 0.000000 0.500000 0.000000
O O5 0.742133 0.324364 0.817751
O O6 0.711860 0.543014 0.715820
O O7 0.500000 0.500000 0.000000
O O8 0.904014 0.920925 0.843149
O O9 0.894119 0.735054 0.733113
O O10 0.184430 0.914500 0.508890
O O11 0.723686 0.926832 0.718364
O O12 0.869673 0.129864 0.670656
O O13 0.415022 0.102553 0.827322
O O14 0.205151 0.308360 0.566816
O O15 0.918469 0.328624 0.536821
O O16 0.000000 0.000000 0.000000
O O17 0.500000 0.500000 0.500000
O O18 0.926776 0.478731 0.342399
#
# Coordination Sequence:
#
# PCOD9105311 Si02
#       8
#     2   2   2   2   2   2   2   2
#     4  12  25  42  60 100 142 174 226 282 350 417
#     4  11  20  36  62  88 122 172 212 268 330 398
#     4  10  23  45  70  99 133 173 242 287 343 411
#     4  10  23  45  74  95 128 183 240 292 333 416
#     4  10  20  39  64  89 128 169 227 270 337 406
#     4  12  27  46  69 102 145 188 228 289 359 415
#     4  11  22  36  64  97 133 170 213 276 348 413
#     4  10  21  39  63  95 126 171 218 276 336 409
#
# _framework density 21.841792999999999
#
# number of rings (size 3 to 8) (size 9 to 14) (size 15 to 20)
#    0.000    1.250    1.250    6.375    3.500    1.500 
#    0.000    5.000    0.000    0.000    0.000    0.000 
#    0.000    0.000    0.000    0.000    0.000    0.000 
#
# Total GULP energy -89150.408777 kJ/mol
# GULP energy per Si atom -5571.900549 kJ/mol
# Density = 2.179208 g / cm^3
# Si number density = 21.841793 Si / 1000 Ang^3
#
#
#
# Elastic Constant Matrix: (Units=GPa)
#
#
# Indices 1 2 3 4 5 6 
#
# 1 82.0011 33.9295 22.6211 -4.1825 7.6611 27.0905
# 2 33.9295 99.1049 18.3220 -2.2219 -2.6684 15.7950
# 3 22.6211 18.3220 88.7879 5.7870 15.0400 -0.3721
# 4 -4.1825 -2.2219 5.7870 31.0372 -2.6353 8.3066
# 5 7.6611 -2.6684 15.0400 -2.6353 36.5893 -4.8067
# 6 27.0905 15.7950 -0.3721 8.3066 -4.8067 39.9683
#
#
#
# Elastic Compliance Matrix: (Units=1/GPa)
#
#
# Indices 1 2 3 4 5 6 
#
# 1 0.020396 -0.003910 -0.004169 0.006692 -0.004228 -0.014217
# 2 -0.003910 0.012264 -0.002045 0.001536 0.002369 -0.002250
# 3 -0.004169 -0.002045 0.013889 -0.004826 -0.004782 0.004191
# 4 0.006692 0.001536 -0.004826 0.037708 0.001727 -0.012817
# 5 -0.004228 0.002369 -0.004782 0.001727 0.031171 0.005275
# 6 -0.014217 -0.002250 0.004191 -0.012817 0.005275 0.038882
#
#
# Mechanical properties :
#
#
# Convention : Reuss Voigt Hill
#
# Bulk Modulus (GPa) = 38.02247 46.62656 42.32451
# Shear Modulus (GPa) = 27.27373 34.52040 30.89706
#
# Velocity S-wave (km/s) = 3.53752 3.97983 3.76518
# Velocity P-wave (km/s) = 5.84220 6.52016 6.19047
#
# Compressibility (1/GPa) = 0.02630024
#
# Stress axis : x y z
#
# Youngs Moduli (GPa) = 49.02880 81.54080 71.99797
#
# Poissons Ratio (x) = 0.31882 0.30018
# Poissons Ratio (y) = 0.19170 0.14726
# Poissons Ratio (z) = 0.20441 0.16678
#
# Static dielectric constant tensor:
#      x y z
#    x 1.834060 0.027670 -0.038540 
#    y 0.027670 1.892430 -0.011890 
#    z -0.038540 -0.011890 1.999410 
# 
# From -- ./inp_files/390153.got.cif
#   From: 2010.05.17/outbox.cif.g08.bks.cpg/sg2_196_cif.got.tgz:390153.got - 2010.06.03 11:33:40.
