data_PCOD9105467
_publ_section_title
;
Structure prediction by ZEFSAII (Michael W. Deem and Ramdas Pophale) SiO2 
 PCOD9105467
Probable space group: P -1
;
_chemical_formula_sum "Si O2"
_cell_formula_units_Z 16
_cell_length_a 9.389251
_cell_length_b 5.725727
_cell_length_c 12.074212
_cell_angle_alpha 73.290283
_cell_angle_beta 85.287831
_cell_angle_gamma 72.182016
_cell_volume 591.870394
_symmetry_space_group_name_H-M "P -1"
_symmetry_group_IT_number 2
_symmetry_cell_setting 'triclinic'
loop_
_space_group_symop_operation_xyz
x,y,z
-x,-y,-z
loop_
_atom_site_type_symbol
_atom_site_label
_atom_site_fract_x
_atom_site_fract_y
_atom_site_fract_z
Si Si1 0.291614 0.690164 0.708193
Si Si2 0.122416 0.854508 0.286845
Si Si3 0.259370 0.109104 0.069523
Si Si4 0.865482 0.835453 0.465017
Si Si5 0.674439 0.418759 0.964011
Si Si6 0.475986 0.155482 0.216103
Si Si7 0.550420 0.309861 0.623522
Si Si8 0.035529 0.511021 0.686579
O O1 0.423894 0.442881 0.703254
O O2 0.138382 0.622168 0.741692
O O3 0.259086 0.899808 0.582555
O O4 0.358784 0.817283 0.786141
O O5 0.150909 0.080311 0.180956
O O6 0.283936 0.710326 0.344880
O O7 0.014421 0.887808 0.396564
O O8 0.036692 0.700232 0.235723
O O9 0.258479 0.881940 0.017246
O O10 0.426044 0.030463 0.126938
O O11 0.241812 0.403479 0.000199
O O12 0.850780 0.628040 0.402583
O O13 0.097958 0.295334 0.401414
O O14 0.646405 0.567528 0.825877
O O15 0.500000 0.500000 0.000000
O O16 0.454172 0.982035 0.342664
O O17 0.500000 0.500000 0.500000
#
# Coordination Sequence:
#
# PCOD9105467 Si02
#       8
#     2   2   2   2   2   2   2   2
#     4  12  21  36  55  83 117 164 216 256 307 375
#     4   9  19  39  55  81 123 161 207 262 306 362
#     4   9  20  37  61  96 125 152 202 258 320 377
#     4   9  20  36  53  78 110 172 216 259 293 373
#     4  10  20  39  64  96 129 158 198 262 329 385
#     4   9  22  35  57  85 126 152 209 251 318 370
#     4  11  23  37  53  82 128 165 208 267 321 361
#     4   9  20  36  56  74 117 164 221 251 302 360
#
# _framework density 27.032948999999999
#
# number of rings (size 3 to 8) (size 9 to 14) (size 15 to 20)
#    1.500    0.750    0.000    3.750    1.750    1.500 
#    4.500    0.000    0.000    0.000    0.000    5.250 
#    0.000    0.000    0.000    0.000    0.000    0.000 
#
# Total GULP energy -89192.153192 kJ/mol
# GULP energy per Si atom -5574.509574 kJ/mol
# Density = 2.697142 g / cm^3
# Si number density = 27.032949 Si / 1000 Ang^3
#
#
#
# Elastic Constant Matrix: (Units=GPa)
#
#
# Indices 1 2 3 4 5 6 
#
# 1 114.4339 38.2491 20.5065 0.3856 -6.3228 19.3074
# 2 38.2491 133.7019 25.6168 -12.3638 -7.1082 31.8732
# 3 20.5065 25.6168 66.9438 3.1036 -9.4170 15.0697
# 4 0.3856 -12.3638 3.1036 21.5952 0.3349 -10.1733
# 5 -6.3228 -7.1082 -9.4170 0.3349 39.1277 -4.5267
# 6 19.3074 31.8732 15.0697 -10.1733 -4.5267 56.4029
#
#
#
# Elastic Compliance Matrix: (Units=1/GPa)
#
#
# Indices 1 2 3 4 5 6 
#
# 1 0.010186 -0.002280 -0.001573 -0.002279 0.000625 -0.002139
# 2 -0.002280 0.009820 -0.002474 0.004472 0.000404 -0.003269
# 3 -0.001573 -0.002474 0.017901 -0.005715 0.003235 -0.003618
# 4 -0.002279 0.004472 -0.005715 0.054226 -0.000292 0.009537
# 5 0.000625 0.000404 0.003235 -0.000292 0.026603 0.000776
# 6 -0.002139 -0.003269 -0.003618 0.009537 0.000776 0.023058
#
#
# Mechanical properties :
#
#
# Convention : Reuss Voigt Hill
#
# Bulk Modulus (GPa) = 39.59942 53.75828 46.67885
# Shear Modulus (GPa) = 30.70044 38.80563 34.75304
#
# Velocity S-wave (km/s) = 3.37362 3.79290 3.58939
# Velocity P-wave (km/s) = 5.46402 6.25387 5.87224
#
# Compressibility (1/GPa) = 0.02525290
#
# Stress axis : x y z
#
# Youngs Moduli (GPa) = 98.17676 101.83431 55.86369
#
# Poissons Ratio (x) = 0.23220 0.08785
# Poissons Ratio (y) = 0.22386 0.13821
# Poissons Ratio (z) = 0.15438 0.25194
#
# Static dielectric constant tensor:
#      x y z
#    x 2.040160 0.009640 -0.043450 
#    y 0.009640 2.368940 -0.006780 
#    z -0.043450 -0.006780 2.203160 
# 
# From -- ./inp_files/509693.got.cif
#   From: 2010.05.17/outbox.cif.g08.bks.cpg/sg2_255_cif.got.tgz:509693.got - 2010.06.03 11:33:40.
