data_PCOD9105715
_publ_section_title
;
Structure prediction by ZEFSAII (Michael W. Deem and Ramdas Pophale) SiO2 
 PCOD9105715
Probable space group: P -1
;
_chemical_formula_sum "Si O2"
_cell_formula_units_Z 12
_cell_length_a 9.046283
_cell_length_b 15.026173
_cell_length_c 9.407688
_cell_angle_alpha 142.944144
_cell_angle_beta 123.529555
_cell_angle_gamma 38.665168
_cell_volume 472.863245
_symmetry_space_group_name_H-M "P -1"
_symmetry_group_IT_number 2
_symmetry_cell_setting 'triclinic'
loop_
_space_group_symop_operation_xyz
x,y,z
-x,-y,-z
loop_
_atom_site_type_symbol
_atom_site_label
_atom_site_fract_x
_atom_site_fract_y
_atom_site_fract_z
Si Si1 0.426404 0.208463 0.128005
Si Si2 0.453528 0.576195 0.911329
Si Si3 0.747975 0.006425 0.274342
Si Si4 0.300661 0.989443 0.412451
Si Si5 0.871362 0.428081 0.764607
Si Si6 0.033344 0.104709 0.030929
O O1 0.499439 0.200751 0.318433
O O2 0.314998 0.404228 0.234462
O O3 0.684903 0.007971 0.943800
O O4 0.245949 0.173664 0.978657
O O5 0.401387 0.781901 0.137728
O O6 0.206788 0.659980 0.810117
O O7 0.500000 0.500000 0.000000
O O8 0.711154 0.417848 0.771042
O O9 0.739586 0.022280 0.456714
O O10 0.940906 0.961708 0.207968
O O11 0.500000 0.000000 0.500000
O O12 0.063312 0.211031 0.519377
O O13 0.000000 0.500000 0.000000
O O14 0.000000 0.000000 0.000000
#
# Coordination Sequence:
#
# PCOD9105715 Si02
#       6
#     2   2   2   2   2   2
#     4   9  19  39  66  94 132 179 213 274 333 389
#     4  12  26  42  68 100 135 176 220 281 338 386
#     4   9  19  37  66  92 135 172 220 273 322 399
#     4  12  25  43  69 100 133 176 233 271 329 407
#     4  12  22  42  70  95 130 178 224 273 334 396
#     4  10  20  39  65  95 133 175 216 268 342 392
#
# _framework density 25.377317000000001
#
# number of rings (size 3 to 8) (size 9 to 14) (size 15 to 20)
#    1.000    0.333    5.000    1.000    0.000    2.667 
#    0.000    3.333    0.000    0.000    0.000    0.000 
#    0.000    0.000    0.000    0.000    0.000    0.000 
#
# Total GULP energy -66929.560745 kJ/mol
# GULP energy per Si atom -5577.463395 kJ/mol
# Density = 2.531956 g / cm^3
# Si number density = 25.377317 Si / 1000 Ang^3
#
#
#
# Elastic Constant Matrix: (Units=GPa)
#
#
# Indices 1 2 3 4 5 6 
#
# 1 132.0492 39.0294 15.7078 8.6708 -13.4405 9.5892
# 2 39.0294 141.7261 4.8429 17.1176 -4.2302 9.9059
# 3 15.7078 4.8429 67.7089 19.5941 0.4471 -14.6119
# 4 8.6708 17.1176 19.5941 43.7261 -6.2212 -8.0136
# 5 -13.4405 -4.2302 0.4471 -6.2212 28.1635 5.2816
# 6 9.5892 9.9059 -14.6119 -8.0136 5.2816 52.7398
#
#
#
# Elastic Compliance Matrix: (Units=1/GPa)
#
#
# Indices 1 2 3 4 5 6 
#
# 1 0.009145 -0.002177 -0.002638 0.000443 0.004623 -0.002380
# 2 -0.002177 0.008129 0.000572 -0.003313 -0.000288 -0.001447
# 3 -0.002638 0.000572 0.018642 -0.007761 -0.004077 0.004766
# 4 0.000443 -0.003313 -0.007761 0.028780 0.005784 0.002185
# 5 0.004623 -0.000288 -0.004077 0.005784 0.039957 -0.005039
# 6 -0.002380 -0.001447 0.004766 0.002185 -0.005039 0.021823
#
#
# Mechanical properties :
#
#
# Convention : Reuss Voigt Hill
#
# Bulk Modulus (GPa) = 36.45883 51.18270 43.82077
# Shear Modulus (GPa) = 34.69714 43.71949 39.20831
#
# Velocity S-wave (km/s) = 3.70165 4.15514 3.93493
# Velocity P-wave (km/s) = 5.71555 6.57516 6.16036
#
# Compressibility (1/GPa) = 0.02742820
#
# Stress axis : x y z
#
# Youngs Moduli (GPa) = 109.35392 123.02290 53.64362
#
# Poissons Ratio (x) = 0.26785 0.14151
# Poissons Ratio (y) = 0.23809 -0.03069
# Poissons Ratio (z) = 0.28848 -0.07037
#
# Static dielectric constant tensor:
#      x y z
#    x 2.022700 -0.056320 0.011080 
#    y -0.056320 2.090780 -0.102930 
#    z 0.011080 -0.102930 2.065820 
# 
# From -- ./inp_files/375086.got.cif
#   From: 2010.05.17/outbox.cif.g08.bks.cpg/sg2_188_cif.got.tgz:375086.got - 2010.06.03 11:33:40.
