data_PCOD9105667
_publ_section_title
;
Structure prediction by ZEFSAII (Michael W. Deem and Ramdas Pophale) SiO2 
 PCOD9105667
Probable space group: P -1
;
_chemical_formula_sum "Si O2"
_cell_formula_units_Z 12
_cell_length_a 10.156615
_cell_length_b 8.904527
_cell_length_c 7.200373
_cell_angle_alpha 72.873697
_cell_angle_beta 122.291975
_cell_angle_gamma 108.081469
_cell_volume 516.547131
_symmetry_space_group_name_H-M "P -1"
_symmetry_group_IT_number 2
_symmetry_cell_setting 'triclinic'
loop_
_space_group_symop_operation_xyz
x,y,z
-x,-y,-z
loop_
_atom_site_type_symbol
_atom_site_label
_atom_site_fract_x
_atom_site_fract_y
_atom_site_fract_z
Si Si1 0.663501 0.871040 0.543759
Si Si2 0.488454 0.698906 0.134610
Si Si3 0.152575 0.579911 0.968810
Si Si4 0.376009 0.776232 0.618967
Si Si5 0.790078 0.550197 0.337622
Si Si6 0.028002 0.175439 0.367265
O O1 0.582523 0.830421 0.296198
O O2 0.538367 0.780328 0.628361
O O3 0.832767 0.819606 0.680810
O O4 0.681101 0.059133 0.524514
O O5 0.616753 0.596602 0.200771
O O6 0.335302 0.599677 0.163358
O O7 0.419963 0.764144 0.873098
O O8 0.153642 0.480475 0.814763
O O9 0.122310 0.761315 0.848201
O O10 0.000000 0.500000 0.000000
O O11 0.240901 0.624014 0.526723
O O12 0.904589 0.690531 0.477789
O O13 0.000000 0.000000 0.500000
#
# Coordination Sequence:
#
# PCOD9105667 Si02
#       6
#     2   2   2   2   2   2
#     4  10  23  38  67  92 123 172 213 258 308 390
#     4  10  22  41  64  90 128 165 216 258 310 377
#     4  11  24  39  64  97 130 161 210 265 323 373
#     4  10  20  39  65  94 122 160 225 254 310 366
#     4  10  23  42  68  86 126 172 209 257 312 386
#     4  11  24  42  63  92 133 165 209 262 330 369
#
# _framework density 23.231179999999998
#
# number of rings (size 3 to 8) (size 9 to 14) (size 15 to 20)
#    0.000    1.667    0.000    5.000    7.000    2.667 
#    3.000    0.833    0.000    0.000    0.000    0.000 
#    0.000    0.000    0.000    0.000    0.000    0.000 
#
# Total GULP energy -67101.655399 kJ/mol
# GULP energy per Si atom -5591.804617 kJ/mol
# Density = 2.317831 g / cm^3
# Si number density = 23.231180 Si / 1000 Ang^3
#
#
#
# Elastic Constant Matrix: (Units=GPa)
#
#
# Indices 1 2 3 4 5 6 
#
# 1 206.4902 41.3669 24.5532 -7.0594 12.1146 -8.7276
# 2 41.3669 137.2132 7.5957 -4.4413 -1.2773 4.7535
# 3 24.5532 7.5957 25.9052 -4.0268 10.0085 1.7045
# 4 -7.0594 -4.4413 -4.0268 19.3140 -0.1224 0.6042
# 5 12.1146 -1.2773 10.0085 -0.1224 42.9094 -5.6675
# 6 -8.7276 4.7535 1.7045 0.6042 -5.6675 27.9810
#
#
#
# Elastic Compliance Matrix: (Units=1/GPa)
#
#
# Indices 1 2 3 4 5 6 
#
# 1 0.005896 -0.001557 -0.005105 0.000658 -0.000207 0.002359
# 2 -0.001557 0.007903 -0.000803 0.001137 0.000645 -0.001673
# 3 -0.005105 -0.000803 0.049723 0.008462 -0.011069 -0.006909
# 4 0.000658 0.001137 0.008462 0.054094 -0.002252 -0.002128
# 5 -0.000207 0.000645 -0.011069 -0.002252 0.026746 0.005966
# 6 0.002359 -0.001673 -0.006909 -0.002128 0.005966 0.038434
#
#
# Mechanical properties :
#
#
# Convention : Reuss Voigt Hill
#
# Bulk Modulus (GPa) = 20.58002 57.40446 38.99224
# Shear Modulus (GPa) = 23.37284 37.78038 30.57661
#
# Velocity S-wave (km/s) = 3.17535 4.03709 3.63187
# Velocity P-wave (km/s) = 4.72459 6.81869 5.86585
#
# Compressibility (1/GPa) = 0.04859081
#
# Stress axis : x y z
#
# Youngs Moduli (GPa) = 169.60258 126.53956 20.11148
#
# Poissons Ratio (x) = 0.19706 0.10267
# Poissons Ratio (y) = 0.26413 0.01615
# Poissons Ratio (z) = 0.86579 0.10165
#
# Static dielectric constant tensor:
#      x y z
#    x 1.896860 0.033610 -0.006720 
#    y 0.033610 1.877030 -0.007950 
#    z -0.006720 -0.007950 1.903570 
# 
# From -- ./inp_files/147778.got.cif
#   From: 2010.05.17/outbox.cif.g08.bks.cpg/sg2_74_cif.got.tgz:147778.got - 2010.06.03 11:33:40.
