data_PCOD9105075
_publ_section_title
;
Structure prediction by ZEFSAII (Michael W. Deem and Ramdas Pophale) SiO2 
 PCOD9105075
Probable space group: P -1
;
_chemical_formula_sum "Si O2"
_cell_formula_units_Z 16
_cell_length_a 12.596996
_cell_length_b 7.383414
_cell_length_c 12.712584
_cell_angle_alpha 70.470750
_cell_angle_beta 109.493846
_cell_angle_gamma 143.613312
_cell_volume 656.648087
_symmetry_space_group_name_H-M "P -1"
_symmetry_group_IT_number 2
_symmetry_cell_setting 'triclinic'
loop_
_space_group_symop_operation_xyz
x,y,z
-x,-y,-z
loop_
_atom_site_type_symbol
_atom_site_label
_atom_site_fract_x
_atom_site_fract_y
_atom_site_fract_z
Si Si1 0.139206 0.441040 0.832200
Si Si2 0.773042 0.798448 0.582216
Si Si3 0.254121 0.164016 0.182844
Si Si4 0.123442 0.154794 0.705041
Si Si5 0.530813 0.258269 0.997753
Si Si6 0.862005 0.205356 0.089151
Si Si7 0.499002 0.808035 0.675497
Si Si8 0.410221 0.090712 0.549803
O O1 0.105298 0.338602 0.720691
O O2 0.162275 0.684194 0.839318
O O3 0.317844 0.558506 0.897971
O O4 0.945892 0.112267 0.877669
O O5 0.745647 0.795377 0.699524
O O6 0.601571 0.447656 0.559636
O O7 0.749550 0.968055 0.478779
O O8 0.962598 0.942962 0.610140
O O9 0.370903 0.484138 0.106953
O O10 0.356118 0.095951 0.219788
O O11 0.329682 0.436331 0.680377
O O12 0.087949 0.934948 0.818515
O O13 0.330250 0.073580 0.978696
O O14 0.500000 0.000000 0.000000
O O15 0.000000 0.500000 0.000000
O O16 0.596949 0.969559 0.564645
O O17 0.425596 0.920867 0.657070
#
# Coordination Sequence:
#
# PCOD9105075 Si02
#       8
#     2   2   2   2   2   2   2   2
#     4  10  25  41  62  90 128 168 202 259 307 357
#     4   9  21  38  63  90 120 162 202 254 313 377
#     4  10  20  39  63  90 126 160 210 254 305 371
#     4  11  24  42  62  95 124 164 211 253 307 371
#     4  10  22  39  61  89 125 169 205 253 305 363
#     4  11  26  42  61  93 127 168 214 253 305 364
#     4  10  21  39  63  92 124 157 206 257 310 380
#     4   9  20  41  62  89 120 160 198 258 327 361
#
# _framework density 24.366171999999999
#
# number of rings (size 3 to 8) (size 9 to 14) (size 15 to 20)
#    0.000    2.000    1.250    0.375   10.500    4.500 
#    2.250    0.000    0.000    0.000    0.000    0.000 
#    0.000    0.000    0.000    0.000    0.000    0.000 
#
# Total GULP energy -89274.902341 kJ/mol
# GULP energy per Si atom -5579.681396 kJ/mol
# Density = 2.431071 g / cm^3
# Si number density = 24.366172 Si / 1000 Ang^3
#
#
#
# Elastic Constant Matrix: (Units=GPa)
#
#
# Indices 1 2 3 4 5 6 
#
# 1 57.5598 23.5191 23.7502 0.2606 22.5878 1.2272
# 2 23.5191 104.2560 25.9975 3.8712 22.3807 21.2845
# 3 23.7502 25.9975 78.5579 4.1625 21.6407 -1.9316
# 4 0.2606 3.8712 4.1625 39.9297 1.7051 9.8898
# 5 22.5878 22.3807 21.6407 1.7051 43.5206 7.7363
# 6 1.2272 21.2845 -1.9316 9.8898 7.7363 47.6539
#
#
#
# Elastic Compliance Matrix: (Units=1/GPa)
#
#
# Indices 1 2 3 4 5 6 
#
# 1 0.023661 -0.002837 -0.003601 0.000414 -0.009394 0.001951
# 2 -0.002837 0.012554 -0.002707 0.000515 -0.002714 -0.005310
# 3 -0.003601 -0.002707 0.016384 -0.001998 -0.005386 0.003255
# 4 0.000414 0.000515 -0.001998 0.026648 0.000525 -0.005937
# 5 -0.009394 -0.002714 -0.005386 0.000525 0.032649 -0.004174
# 6 0.001951 -0.005310 0.003255 -0.005937 -0.004174 0.025348
#
#
# Mechanical properties :
#
#
# Convention : Reuss Voigt Hill
#
# Bulk Modulus (GPa) = 29.14643 42.98970 36.06806
# Shear Modulus (GPa) = 29.94557 37.36128 33.65342
#
# Velocity S-wave (km/s) = 3.50949 3.92002 3.72042
# Velocity P-wave (km/s) = 5.33008 6.17821 5.76975
#
# Compressibility (1/GPa) = 0.03430952
#
# Stress axis : x y z
#
# Youngs Moduli (GPa) = 42.26343 79.65308 61.03650
#
# Poissons Ratio (x) = 0.22596 0.21977
# Poissons Ratio (y) = 0.11989 0.16524
# Poissons Ratio (z) = 0.15218 0.21565
#
# Static dielectric constant tensor:
#      x y z
#    x 2.129440 0.062900 -0.065460 
#    y 0.062900 1.919000 0.005180 
#    z -0.065460 0.005180 1.958770 
# 
# From -- ./inp_files/343739.got.cif
#   From: 2010.05.17/outbox.cif.g08.bks.cpg/sg2_172_cif.got.tgz:343739.got - 2010.06.03 11:33:40.
