data_PCOD9105621
_publ_section_title
;
Structure prediction by ZEFSAII (Michael W. Deem and Ramdas Pophale) SiO2 
 PCOD9105621
Probable space group: P -1
;
_chemical_formula_sum "Si O2"
_cell_formula_units_Z 16
_cell_length_a 8.213359
_cell_length_b 11.462325
_cell_length_c 11.185954
_cell_angle_alpha 108.845589
_cell_angle_beta 64.164729
_cell_angle_gamma 123.329501
_cell_volume 787.034998
_symmetry_space_group_name_H-M "P -1"
_symmetry_group_IT_number 2
_symmetry_cell_setting 'triclinic'
loop_
_space_group_symop_operation_xyz
x,y,z
-x,-y,-z
loop_
_atom_site_type_symbol
_atom_site_label
_atom_site_fract_x
_atom_site_fract_y
_atom_site_fract_z
Si Si1 0.120393 0.133642 0.169303
Si Si2 0.719278 0.642752 0.618421
Si Si3 0.517799 0.125506 0.115420
Si Si4 0.990937 0.579623 0.331702
Si Si5 0.613281 0.275476 0.356890
Si Si6 0.079199 0.660649 0.062420
Si Si7 0.418172 0.659585 0.349151
Si Si8 0.818179 0.814279 0.110827
O O1 0.129014 0.254763 0.293095
O O2 0.293654 0.108505 0.169259
O O3 0.192693 0.190361 0.031135
O O4 0.926484 0.979343 0.167083
O O5 0.555628 0.686256 0.632788
O O6 0.586720 0.485007 0.657850
O O7 0.859246 0.635549 0.465822
O O8 0.589778 0.147319 0.238036
O O9 0.690956 0.260406 0.036806
O O10 0.500000 0.000000 0.000000
O O11 0.194934 0.610778 0.348273
O O12 0.836987 0.412034 0.313398
O O13 0.060182 0.657567 0.209722
O O14 0.566564 0.254838 0.505799
O O15 0.954544 0.738551 0.077965
O O16 0.000000 0.500000 0.000000
O O17 0.600969 0.738250 0.223052
#
# Coordination Sequence:
#
# PCOD9105621 Si02
#       8
#     2   2   2   2   2   2   2   2
#     4  10  24  43  64  91 127 173 204 260 319 378
#     4  10  21  39  66  92 125 165 211 255 322 371
#     4  11  22  43  63  96 127 169 208 252 319 378
#     4  11  22  40  61  98 126 161 213 261 315 371
#     4  10  20  39  65  92 129 164 206 260 319 369
#     4  12  24  39  69  94 127 166 211 262 312 370
#     4  11  23  39  65  94 126 165 212 264 309 371
#     4  11  24  44  62  92 132 164 213 260 314 375
#
# _framework density 20.329463000000001
#
# number of rings (size 3 to 8) (size 9 to 14) (size 15 to 20)
#    0.000    1.250    2.500    5.250    3.500    1.500 
#    2.250    2.500    0.000    0.000    0.000    0.000 
#    0.000    0.000    0.000    0.000    0.000    0.000 
#
# Total GULP energy -89326.362224 kJ/mol
# GULP energy per Si atom -5582.897639 kJ/mol
# Density = 2.028319 g / cm^3
# Si number density = 20.329463 Si / 1000 Ang^3
#
#
#
# Elastic Constant Matrix: (Units=GPa)
#
#
# Indices 1 2 3 4 5 6 
#
# 1 58.4112 1.0765 18.3261 4.2501 15.8246 18.1618
# 2 1.0765 62.9536 38.9932 18.8735 8.0863 13.8715
# 3 18.3261 38.9932 103.1783 16.6327 23.2136 13.3550
# 4 4.2501 18.8735 16.6327 40.8450 11.3287 1.1645
# 5 15.8246 8.0863 23.2136 11.3287 34.3848 -1.1565
# 6 18.1618 13.8715 13.3550 1.1645 -1.1565 24.6235
#
#
#
# Elastic Compliance Matrix: (Units=1/GPa)
#
#
# Indices 1 2 3 4 5 6 
#
# 1 0.030060 0.008774 -0.001471 -0.001573 -0.015293 -0.026961
# 2 0.008774 0.027369 -0.007478 -0.009185 -0.002989 -0.017540
# 3 -0.001471 -0.007478 0.014960 -0.000262 -0.007684 -0.003165
# 4 -0.001573 -0.009185 -0.000262 0.030784 -0.006924 0.004695
# 5 -0.015293 -0.002989 -0.007684 -0.006924 0.044951 0.019570
# 6 -0.026961 -0.017540 -0.003165 0.004695 0.019570 0.072791
#
#
# Mechanical properties :
#
#
# Convention : Reuss Voigt Hill
#
# Bulk Modulus (GPa) = 13.88150 37.92607 25.90379
# Shear Modulus (GPa) = 20.38489 31.04713 25.71601
#
# Velocity S-wave (km/s) = 3.17002 3.91218 3.56049
# Velocity P-wave (km/s) = 4.49909 6.25325 5.44724
#
# Compressibility (1/GPa) = 0.07203833
#
# Stress axis : x y z
#
# Youngs Moduli (GPa) = 33.26645 36.53753 66.84451
#
# Poissons Ratio (x) = -0.32057 0.09833
# Poissons Ratio (y) = -0.29187 0.49988
# Poissons Ratio (z) = 0.04893 0.27324
#
# Static dielectric constant tensor:
#      x y z
#    x 1.727840 -0.025620 -0.001550 
#    y -0.025620 1.761740 0.103730 
#    z -0.001550 0.103730 1.776690 
# 
# From -- ./inp_files/392730.got.cif
#   From: 2010.05.17/outbox.cif.g08.bks.cpg/sg2_197_cif.got.tgz:392730.got - 2010.06.03 11:33:40.
