data_PCOD9105540
_publ_section_title
;
Structure prediction by ZEFSAII (Michael W. Deem and Ramdas Pophale) SiO2 
 PCOD9105540
Probable space group: P -1
;
_chemical_formula_sum "Si O2"
_cell_formula_units_Z 16
_cell_length_a 7.777787
_cell_length_b 15.787740
_cell_length_c 15.248201
_cell_angle_alpha 141.151216
_cell_angle_beta 50.595305
_cell_angle_gamma 145.457996
_cell_volume 665.825842
_symmetry_space_group_name_H-M "P -1"
_symmetry_group_IT_number 2
_symmetry_cell_setting 'triclinic'
loop_
_space_group_symop_operation_xyz
x,y,z
-x,-y,-z
loop_
_atom_site_type_symbol
_atom_site_label
_atom_site_fract_x
_atom_site_fract_y
_atom_site_fract_z
Si Si1 0.830722 0.838667 0.541390
Si Si2 0.847504 0.635924 0.028097
Si Si3 0.079560 0.250877 0.180094
Si Si4 0.837861 0.539835 0.520121
Si Si5 0.138300 0.609421 0.768592
Si Si6 0.641440 0.873826 0.080094
Si Si7 0.143074 0.030997 0.188063
Si Si8 0.104793 0.828081 0.275291
O O1 0.511775 0.640004 0.503723
O O2 0.989685 0.812344 0.396661
O O3 0.977224 0.925589 0.657942
O O4 0.786126 0.975252 0.630778
O O5 0.067623 0.845655 0.089646
O O6 0.865012 0.672932 0.156120
O O7 0.500000 0.500000 0.000000
O O8 0.995848 0.565966 0.876400
O O9 0.104529 0.303988 0.316533
O O10 0.036484 0.353056 0.206999
O O11 0.763717 0.037756 0.106431
O O12 0.364581 0.272586 0.083641
O O13 0.914735 0.547994 0.399697
O O14 0.000000 0.500000 0.500000
O O15 0.498993 0.792828 0.799550
O O16 0.362799 0.821972 0.178655
O O17 0.918903 0.963523 0.127373
#
# Coordination Sequence:
#
# PCOD9105540 Si02
#       8
#     2   2   2   2   2   2   2   2
#     4   9  20  40  61  85 112 159 202 248 283 359
#     4  11  23  37  60  92 122 155 202 252 295 348
#     4  10  21  35  59  89 119 154 202 244 296 352
#     4   9  18  34  61  83 111 144 204 248 292 329
#     4  10  20  39  65  87 116 160 206 251 287 349
#     4  11  22  36  61  89 121 159 194 244 304 362
#     4  10  21  39  64  88 118 158 207 244 295 353
#     4  10  22  38  61  85 121 156 202 236 303 360
#
# _framework density 24.030306
#
# number of rings (size 3 to 8) (size 9 to 14) (size 15 to 20)
#    0.000    2.000    1.250    3.375    7.000    0.500 
#    2.250    5.000    0.000    0.000    0.000    0.000 
#    0.000    0.000    0.000    0.000    0.000    0.000 
#
# Total GULP energy -89289.480837 kJ/mol
# GULP energy per Si atom -5580.592552 kJ/mol
# Density = 2.397561 g / cm^3
# Si number density = 24.030306 Si / 1000 Ang^3
#
#
#
# Elastic Constant Matrix: (Units=GPa)
#
#
# Indices 1 2 3 4 5 6 
#
# 1 26.7737 18.6368 39.7285 -8.9429 8.6566 14.5137
# 2 18.6368 50.4171 36.3440 -17.6680 -3.0782 17.4894
# 3 39.7285 36.3440 209.6798 -40.5261 14.3753 21.2551
# 4 -8.9429 -17.6680 -40.5261 41.7636 3.2538 -2.5867
# 5 8.6566 -3.0782 14.3753 3.2538 33.3272 0.6297
# 6 14.5137 17.4894 21.2551 -2.5867 0.6297 30.9973
#
#
#
# Elastic Compliance Matrix: (Units=1/GPa)
#
#
# Indices 1 2 3 4 5 6 
#
# 1 0.079484 -0.016144 -0.008383 0.002132 -0.018317 -0.021809
# 2 -0.016144 0.033241 -0.000360 0.009093 0.006726 -0.010328
# 3 -0.008383 -0.000360 0.007684 0.005603 -0.001705 -0.000639
# 4 0.002132 0.009093 0.005603 0.033659 -0.005284 -0.007054
# 5 -0.018317 0.006726 -0.001705 -0.005284 0.036546 0.004767
# 6 -0.021809 -0.010328 -0.000639 -0.007054 0.004767 0.048052
#
#
# Mechanical properties :
#
#
# Convention : Reuss Voigt Hill
#
# Bulk Modulus (GPa) = 14.15705 52.92104 33.53904
# Shear Modulus (GPa) = 16.02633 34.02838 25.02736
#
# Velocity S-wave (km/s) = 2.58528 3.76714 3.23072
# Velocity P-wave (km/s) = 3.84912 6.40252 5.28242
#
# Compressibility (1/GPa) = 0.07063618
#
# Stress axis : x y z
#
# Youngs Moduli (GPa) = 12.58108 30.08309 130.13279
#
# Poissons Ratio (x) = 0.48567 1.09093
# Poissons Ratio (y) = 0.20311 0.04680
# Poissons Ratio (z) = 0.10547 0.01082
#
# Static dielectric constant tensor:
#      x y z
#    x 1.978090 -0.077240 -0.037290 
#    y -0.077240 1.908210 0.000590 
#    z -0.037290 0.000590 2.017540 
# 
# From -- ./inp_files/461515.got.cif
#   From: 2010.05.17/outbox.cif.g08.bks.cpg/sg2_231_cif.got.tgz:461515.got - 2010.06.03 11:33:40.
