data_PCOD9105500
_publ_section_title
;
Structure prediction by ZEFSAII (Michael W. Deem and Ramdas Pophale) SiO2 
 PCOD9105500
Probable space group: P -1
;
_chemical_formula_sum "Si O2"
_cell_formula_units_Z 16
_cell_length_a 5.134108
_cell_length_b 25.497170
_cell_length_c 5.264553
_cell_angle_alpha 89.270999
_cell_angle_beta 90.197852
_cell_angle_gamma 55.168939
_cell_volume 565.593790
_symmetry_space_group_name_H-M "P -1"
_symmetry_group_IT_number 2
_symmetry_cell_setting 'triclinic'
loop_
_space_group_symop_operation_xyz
x,y,z
-x,-y,-z
loop_
_atom_site_type_symbol
_atom_site_label
_atom_site_fract_x
_atom_site_fract_y
_atom_site_fract_z
Si Si1 0.627783 0.662743 0.611889
Si Si2 0.733692 0.897758 0.873244
Si Si3 0.057880 0.690619 0.873324
Si Si4 0.165192 0.586038 0.234610
Si Si5 0.248938 0.851649 0.492298
Si Si6 0.696448 0.541767 0.674904
Si Si7 0.877065 0.799909 0.243294
Si Si8 0.157281 0.018498 0.781477
O O1 0.736367 0.597007 0.762136
O O2 0.808259 0.636755 0.344452
O O3 0.254458 0.698516 0.655089
O O4 0.747455 0.700878 0.747270
O O5 0.078695 0.857450 0.753963
O O6 0.461647 0.951516 0.685724
O O7 0.668113 0.851225 0.014876
O O8 0.726036 0.941936 0.087479
O O9 0.221421 0.619935 0.004314
O O10 0.015544 0.733838 0.106737
O O11 0.393026 0.572884 0.479714
O O12 0.252620 0.516787 0.162258
O O13 0.621667 0.816567 0.458222
O O14 0.132380 0.814777 0.324532
O O15 0.085057 0.926393 0.414745
O O16 0.000000 0.500000 0.500000
O O17 0.000000 0.000000 0.000000
#
# Coordination Sequence:
#
# PCOD9105500 Si02
#       8
#     2   2   2   2   2   2   2   2
#     4  11  24  44  66 100 126 172 220 266 330 394
#     4  10  23  40  65  94 133 169 207 271 322 379
#     4  12  27  42  70  93 130 178 224 267 327 384
#     4  10  23  44  66  98 137 167 210 278 325 396
#     4  11  24  42  68  92 128 176 214 259 336 369
#     4   9  20  43  67  98 137 161 212 275 328 394
#     4  11  26  45  60  96 128 167 229 267 302 389
#     4  10  20  39  64  99 132 160 213 270 314 391
#
# _framework density 28.288855999999999
#
# number of rings (size 3 to 8) (size 9 to 14) (size 15 to 20)
#    0.000    1.500    2.500    1.125    5.250    3.500 
#    0.000    0.000    0.000    0.000    0.000    0.000 
#    0.000    0.000    0.000    0.000    0.000    0.000 
#
# Total GULP energy -89575.094154 kJ/mol
# GULP energy per Si atom -5598.443385 kJ/mol
# Density = 2.822447 g / cm^3
# Si number density = 28.288856 Si / 1000 Ang^3
#
#
#
# Elastic Constant Matrix: (Units=GPa)
#
#
# Indices 1 2 3 4 5 6 
#
# 1 170.9084 26.5868 35.9771 8.4704 -15.8146 6.5782
# 2 26.5868 98.9021 4.9688 -24.2468 6.8223 13.6855
# 3 35.9771 4.9688 89.0701 2.2886 -23.7748 9.7332
# 4 8.4704 -24.2468 2.2886 30.0125 7.3738 -16.7572
# 5 -15.8146 6.8223 -23.7748 7.3738 61.3620 10.8247
# 6 6.5782 13.6855 9.7332 -16.7572 10.8247 39.8354
#
#
#
# Elastic Compliance Matrix: (Units=1/GPa)
#
#
# Indices 1 2 3 4 5 6 
#
# 1 0.007575 -0.003656 -0.001242 -0.008166 0.003582 -0.004100
# 2 -0.003656 0.015400 -0.002208 0.018254 -0.006645 0.005337
# 3 -0.001242 -0.002208 0.015490 -0.010047 0.008800 -0.009438
# 4 -0.008166 0.018254 -0.010047 0.077382 -0.023772 0.036543
# 5 0.003582 -0.006645 0.008800 -0.023772 0.027382 -0.017899
# 6 -0.004100 0.005337 -0.009438 0.036543 -0.017899 0.046489
#
#
# Mechanical properties :
#
#
# Convention : Reuss Voigt Hill
#
# Bulk Modulus (GPa) = 41.23154 54.88289 48.05721
# Shear Modulus (GPa) = 23.58326 45.66516 34.62421
#
# Velocity S-wave (km/s) = 2.89045 4.02213 3.50230
# Velocity P-wave (km/s) = 5.07409 6.40414 5.77752
#
# Compressibility (1/GPa) = 0.02425328
#
# Stress axis : x y z
#
# Youngs Moduli (GPa) = 132.00995 64.93649 64.55688
#
# Poissons Ratio (x) = 0.23739 0.08016
# Poissons Ratio (y) = 0.48259 0.14257
# Poissons Ratio (z) = 0.16393 0.14341
#
# Static dielectric constant tensor:
#      x y z
#    x 2.302990 -0.156620 0.068780 
#    y -0.156620 2.416640 -0.055880 
#    z 0.068780 -0.055880 2.169860 
# 
# From -- ./inp_files/13995.got.cif
#   From: 2010.05.17/outbox.cif.g08.bks.cpg/sg2_7_cif.got.tgz:13995.got - 2010.06.03 11:33:40.
