data_PCOD9105041
_publ_section_title
;
Structure prediction by ZEFSAII (Michael W. Deem and Ramdas Pophale) SiO2 
 PCOD9105041
Probable space group: P -1
;
_chemical_formula_sum "Si O2"
_cell_formula_units_Z 12
_cell_length_a 12.620306
_cell_length_b 7.876156
_cell_length_c 8.825125
_cell_angle_alpha 106.352050
_cell_angle_beta 50.914949
_cell_angle_gamma 120.707086
_cell_volume 584.358106
_symmetry_space_group_name_H-M "P -1"
_symmetry_group_IT_number 2
_symmetry_cell_setting 'triclinic'
loop_
_space_group_symop_operation_xyz
x,y,z
-x,-y,-z
loop_
_atom_site_type_symbol
_atom_site_label
_atom_site_fract_x
_atom_site_fract_y
_atom_site_fract_z
Si Si1 0.817331 0.027332 0.112308
Si Si2 0.070532 0.976435 0.683502
Si Si3 0.869916 0.362804 0.963250
Si Si4 0.662405 0.561397 0.190976
Si Si5 0.319246 0.383660 0.454412
Si Si6 0.940821 0.629380 0.489495
O O1 0.716781 0.791302 0.157463
O O2 0.859395 0.103937 0.265799
O O3 0.761597 0.163408 0.102268
O O4 0.970661 0.056809 0.891803
O O5 0.966819 0.812582 0.619149
O O6 0.206378 0.151297 0.516265
O O7 0.779720 0.480138 0.011051
O O8 0.951049 0.309354 0.739416
O O9 0.000000 0.500000 0.000000
O O10 0.489209 0.436698 0.262865
O O11 0.666862 0.542269 0.365558
O O12 0.230381 0.466231 0.445582
O O13 0.000000 0.500000 0.500000
#
# Coordination Sequence:
#
# PCOD9105041 Si02
#       6
#     2   2   2   2   2   2
#     4  10  20  39  66  91 119 164 207 252 302 369
#     4  10  20  39  63  89 121 162 209 250 306 363
#     4  12  21  39  65  93 121 162 212 251 296 372
#     4  10  22  41  63  93 125 160 205 253 315 360
#     4  10  21  41  62  88 128 162 197 261 309 357
#     4  12  23  37  64  95 122 162 211 254 298 368
#
# _framework density 20.535352
#
# number of rings (size 3 to 8) (size 9 to 14) (size 15 to 20)
#    0.000    1.333    3.333    4.500    0.000    0.000 
#    3.000    6.667    0.000    0.000    0.000    0.000 
#    0.000    0.000    0.000    0.000    0.000    0.000 
#
# Total GULP energy -66982.961840 kJ/mol
# GULP energy per Si atom -5581.913487 kJ/mol
# Density = 2.048861 g / cm^3
# Si number density = 20.535352 Si / 1000 Ang^3
#
#
#
# Elastic Constant Matrix: (Units=GPa)
#
#
# Indices 1 2 3 4 5 6 
#
# 1 132.9395 45.5665 30.6109 -15.9026 0.9798 -2.7199
# 2 45.5665 63.6912 23.9806 -10.3037 -0.6286 -0.2475
# 3 30.6109 23.9806 56.7464 -4.9517 -0.1443 6.6282
# 4 -15.9026 -10.3037 -4.9517 32.4945 3.9706 0.9048
# 5 0.9798 -0.6286 -0.1443 3.9706 36.8154 -9.2330
# 6 -2.7199 -0.2475 6.6282 0.9048 -9.2330 27.2199
#
#
#
# Elastic Compliance Matrix: (Units=1/GPa)
#
#
# Indices 1 2 3 4 5 6 
#
# 1 0.010677 -0.005983 -0.003169 0.002839 -0.000307 0.001586
# 2 -0.005983 0.022893 -0.006299 0.003280 0.000471 0.001195
# 3 -0.003169 -0.006299 0.022771 0.000296 -0.001588 -0.006467
# 4 0.002839 0.003280 0.000296 0.033833 -0.004250 -0.002325
# 5 -0.000307 0.000471 -0.001588 -0.004250 0.030337 0.010792
# 6 0.001586 0.001195 -0.006467 -0.002325 0.010792 0.042220
#
#
# Mechanical properties :
#
#
# Convention : Reuss Voigt Hill
#
# Bulk Modulus (GPa) = 39.31149 50.41036 44.86092
# Shear Modulus (GPa) = 24.73859 29.52058 27.12959
#
# Velocity S-wave (km/s) = 3.47462 3.79562 3.63866
# Velocity P-wave (km/s) = 5.93988 6.61894 6.28858
#
# Compressibility (1/GPa) = 0.02543786
#
# Stress axis : x y z
#
# Youngs Moduli (GPa) = 93.65914 43.68186 43.91537
#
# Poissons Ratio (x) = 0.26135 0.13919
# Poissons Ratio (y) = 0.56036 0.27663
# Poissons Ratio (z) = 0.29685 0.27516
#
# Static dielectric constant tensor:
#      x y z
#    x 1.804470 -0.046480 0.011970 
#    y -0.046480 1.742720 -0.012660 
#    z 0.011970 -0.012660 1.731690 
# 
# From -- ./inp_files/145882.got.cif
#   From: 2010.05.17/outbox.cif.g08.bks.cpg/sg2_73_cif.got.tgz:145882.got - 2010.06.03 11:33:40.
