data_PCOD9105382
_publ_section_title
;
Structure prediction by ZEFSAII (Michael W. Deem and Ramdas Pophale) SiO2 
 PCOD9105382
Probable space group: P -1
;
_chemical_formula_sum "Si O2"
_cell_formula_units_Z 16
_cell_length_a 10.610566
_cell_length_b 13.293844
_cell_length_c 17.129819
_cell_angle_alpha 148.572070
_cell_angle_beta 51.757316
_cell_angle_gamma 147.143984
_cell_volume 641.376643
_symmetry_space_group_name_H-M "P -1"
_symmetry_group_IT_number 2
_symmetry_cell_setting 'triclinic'
loop_
_space_group_symop_operation_xyz
x,y,z
-x,-y,-z
loop_
_atom_site_type_symbol
_atom_site_label
_atom_site_fract_x
_atom_site_fract_y
_atom_site_fract_z
Si Si1 0.389593 0.481414 0.450103
Si Si2 0.176765 0.408434 0.255524
Si Si3 0.963301 0.200593 0.528843
Si Si4 0.380442 0.017985 0.847477
Si Si5 0.505104 0.918529 0.584969
Si Si6 0.922522 0.035148 0.886705
Si Si7 0.350798 0.347973 0.812185
Si Si8 0.289705 0.754053 0.856743
O O1 0.500000 0.500000 0.500000
O O2 0.548766 0.771357 0.527957
O O3 0.294308 0.218854 0.259735
O O4 0.141839 0.372108 0.498747
O O5 0.271112 0.645755 0.441786
O O6 0.121767 0.154043 0.151485
O O7 0.415913 0.583511 0.225931
O O8 0.914126 0.225525 0.202132
O O9 0.134563 0.413001 0.678735
O O10 0.739507 0.146036 0.588905
O O11 0.812794 0.868064 0.343241
O O12 0.461944 0.046701 0.747603
O O13 0.424137 0.897268 0.816114
O O14 0.529004 0.334542 0.032558
O O15 0.175499 0.205415 0.859845
O O16 0.899187 0.238269 0.051318
O O17 0.500000 0.000000 0.000000
#
# Coordination Sequence:
#
# PCOD9105382 Si02
#       8
#     2   2   2   2   2   2   2   2
#     4  10  20  39  64  92 128 172 212 264 319 377
#     4  10  22  43  67  97 132 169 211 271 325 381
#     4  10  22  44  63  92 132 166 215 266 320 381
#     4  12  23  43  68  94 134 171 216 267 322 384
#     4  10  22  41  65  97 131 167 214 264 324 381
#     4  10  22  40  65  93 130 167 217 263 322 382
#     4  10  22  42  67  99 127 169 218 262 324 387
#     4  12  25  44  67  95 132 173 216 268 323 380
#
# _framework density 24.946339999999999
#
# number of rings (size 3 to 8) (size 9 to 14) (size 15 to 20)
#    0.000    1.500    2.500    2.250    0.000    1.000 
#    6.750    2.500    0.000    0.000    0.000    0.000 
#    0.000    0.000    0.000    0.000    0.000    0.000 
#
# Total GULP energy -89331.015983 kJ/mol
# GULP energy per Si atom -5583.188499 kJ/mol
# Density = 2.488956 g / cm^3
# Si number density = 24.946340 Si / 1000 Ang^3
#
#
#
# Elastic Constant Matrix: (Units=GPa)
#
#
# Indices 1 2 3 4 5 6 
#
# 1 63.6056 17.4866 24.6647 0.5191 13.1847 -1.3501
# 2 17.4866 129.3649 35.9958 -14.6570 4.1839 15.6685
# 3 24.6647 35.9958 215.0237 5.0047 9.3501 7.6859
# 4 0.5191 -14.6570 5.0047 41.9912 5.1848 2.7138
# 5 13.1847 4.1839 9.3501 5.1848 25.7251 -5.0097
# 6 -1.3501 15.6685 7.6859 2.7138 -5.0097 19.1305
#
#
#
# Elastic Compliance Matrix: (Units=1/GPa)
#
#
# Indices 1 2 3 4 5 6 
#
# 1 0.018621 -0.001954 -0.001490 0.000232 -0.008486 0.001258
# 2 -0.001954 0.010060 -0.001102 0.004643 -0.002996 -0.009377
# 3 -0.001490 -0.001102 0.005120 -0.000756 -0.001043 -0.001425
# 4 0.000232 0.004643 -0.000756 0.027104 -0.007891 -0.009394
# 5 -0.008486 -0.002996 -0.001043 -0.007891 0.048829 0.016180
# 6 0.001258 -0.009377 -0.001425 -0.009394 0.016180 0.066184
#
#
# Mechanical properties :
#
#
# Convention : Reuss Voigt Hill
#
# Bulk Modulus (GPa) = 40.47437 62.69871 51.58654
# Shear Modulus (GPa) = 25.87369 39.35917 32.61643
#
# Velocity S-wave (km/s) = 3.22401 3.97640 3.61981
# Velocity P-wave (km/s) = 5.48806 6.80223 6.18018
#
# Compressibility (1/GPa) = 0.02470699
#
# Stress axis : x y z
#
# Youngs Moduli (GPa) = 53.70341 99.40707 195.31119
#
# Poissons Ratio (x) = 0.19425 0.29105
# Poissons Ratio (y) = 0.10494 0.21533
# Poissons Ratio (z) = 0.08003 0.10960
#
# Static dielectric constant tensor:
#      x y z
#    x 2.018110 0.026010 -0.037280 
#    y 0.026010 1.993170 0.027020 
#    z -0.037280 0.027020 2.030200 
# 
# From -- ./inp_files/187942.got.cif
#   From: 2010.05.17/outbox.cif.g08.bks.cpg/sg2_94_cif.got.tgz:187942.got - 2010.06.03 11:33:40.
