data_PCOD9105526
_publ_section_title
;
Structure prediction by ZEFSAII (Michael W. Deem and Ramdas Pophale) SiO2 
 PCOD9105526
Probable space group: P -1
;
_chemical_formula_sum "Si O2"
_cell_formula_units_Z 14
_cell_length_a 7.021799
_cell_length_b 17.066464
_cell_length_c 17.294817
_cell_angle_alpha 22.776392
_cell_angle_beta 45.715154
_cell_angle_gamma 56.187251
_cell_volume 545.152413
_symmetry_space_group_name_H-M "P -1"
_symmetry_group_IT_number 2
_symmetry_cell_setting 'triclinic'
loop_
_space_group_symop_operation_xyz
x,y,z
-x,-y,-z
loop_
_atom_site_type_symbol
_atom_site_label
_atom_site_fract_x
_atom_site_fract_y
_atom_site_fract_z
Si Si1 0.638767 0.326288 0.676816
Si Si2 0.156209 0.921394 0.435643
Si Si3 0.955429 0.308369 0.126317
Si Si4 0.794260 0.004294 0.812961
Si Si5 0.337394 0.253370 0.361728
Si Si6 0.904733 0.753280 0.273578
Si Si7 0.465846 0.620140 0.657527
O O1 0.740524 0.582277 0.410804
O O2 0.818476 0.289382 0.733884
O O3 0.734119 0.204202 0.690926
O O4 0.331355 0.190221 0.916999
O O5 0.346775 0.819235 0.523580
O O6 0.871567 0.734671 0.658665
O O7 0.326108 0.999026 0.236394
O O8 0.047418 0.116458 0.311069
O O9 0.629514 0.239264 0.259764
O O10 0.000000 0.500000 0.000000
O O11 0.197692 0.419542 0.894365
O O12 0.121712 0.055481 0.650712
O O13 0.412489 0.425838 0.252820
O O14 0.692091 0.692476 0.461478
O O15 0.000000 0.000000 0.000000
#
# Coordination Sequence:
#
# PCOD9105526 Si02
#       7
#     2   2   2   2   2   2   2
#     4  10  20  39  65  81 131 169 199 266 313 353
#     4  10  21  40  63  88 126 158 205 262 303 376
#     4  10  22  40  66  91 124 163 210 254 315 373
#     4   9  19  39  63  90 122 165 207 254 313 366
#     4   9  21  40  63  90 124 160 206 258 306 374
#     4  11  22  37  61  96 121 165 214 251 310 379
#     4  11  22  41  63  91 124 165 207 254 314 370
#
# _framework density 25.680890000000002
#
# number of rings (size 3 to 8) (size 9 to 14) (size 15 to 20)
#    0.857    1.143    1.429    2.143    0.000    4.000 
#    0.000   12.143    0.000    0.000    0.000    0.000 
#    0.000    0.000    0.000    0.000    0.000    0.000 
#
# Total GULP energy -78081.139098 kJ/mol
# GULP energy per Si atom -5577.224221 kJ/mol
# Density = 2.562244 g / cm^3
# Si number density = 25.680890 Si / 1000 Ang^3
#
#
#
# Elastic Constant Matrix: (Units=GPa)
#
#
# Indices 1 2 3 4 5 6 
#
# 1 52.4152 0.2369 10.9715 2.8077 -8.1199 -9.2983
# 2 0.2369 98.5108 32.0790 -3.0717 -8.3433 6.6663
# 3 10.9715 32.0790 148.6691 17.1396 -14.0770 -17.8216
# 4 2.8077 -3.0717 17.1396 51.4962 -12.6124 -11.4749
# 5 -8.1199 -8.3433 -14.0770 -12.6124 31.2697 6.1569
# 6 -9.2983 6.6663 -17.8216 -11.4749 6.1569 34.7480
#
#
#
# Elastic Compliance Matrix: (Units=1/GPa)
#
#
# Indices 1 2 3 4 5 6 
#
# 1 0.020731 0.000316 -0.000739 0.001348 0.004751 0.004711
# 2 0.000316 0.011655 -0.002853 0.001615 0.003280 -0.003663
# 3 -0.000739 -0.002853 0.008164 -0.001693 0.001301 0.003747
# 4 0.001348 0.001615 -0.001693 0.023246 0.008335 0.005382
# 5 0.004751 0.003280 0.001301 0.008335 0.038583 -0.002774
# 6 0.004711 -0.003663 0.003747 0.005382 -0.002774 0.034933
#
#
# Mechanical properties :
#
#
# Convention : Reuss Voigt Hill
#
# Bulk Modulus (GPa) = 29.41191 42.90774 36.15983
# Shear Modulus (GPa) = 32.21723 40.58997 36.40360
#
# Velocity S-wave (km/s) = 3.54577 3.97993 3.76910
# Velocity P-wave (km/s) = 5.31422 6.15338 5.74913
#
# Compressibility (1/GPa) = 0.03399983
#
# Stress axis : x y z
#
# Youngs Moduli (GPa) = 48.23639 85.79681 122.48755
#
# Poissons Ratio (x) = -0.02715 0.09052
# Poissons Ratio (y) = -0.01526 0.34945
# Poissons Ratio (z) = 0.03565 0.24477
#
# Static dielectric constant tensor:
#      x y z
#    x 2.128980 0.048290 -0.056080 
#    y 0.048290 2.098400 -0.002230 
#    z -0.056080 -0.002230 2.108280 
# 
# From -- ./inp_files/591580.got.cif
#   From: 2010.05.17/outbox.cif.g08.bks.cpg/sg2_296_cif.got.tgz:591580.got - 2010.06.03 11:33:40.
