data_PCOD9105475
_publ_section_title
;
Structure prediction by ZEFSAII (Michael W. Deem and Ramdas Pophale) SiO2 
 PCOD9105475
Probable space group: P -1
;
_chemical_formula_sum "Si O2"
_cell_formula_units_Z 16
_cell_length_a 13.651104
_cell_length_b 16.847372
_cell_length_c 9.830207
_cell_angle_alpha 89.949087
_cell_angle_beta 89.197194
_cell_angle_gamma 19.249663
_cell_volume 744.757402
_symmetry_space_group_name_H-M "P -1"
_symmetry_group_IT_number 2
_symmetry_cell_setting 'triclinic'
loop_
_space_group_symop_operation_xyz
x,y,z
-x,-y,-z
loop_
_atom_site_type_symbol
_atom_site_label
_atom_site_fract_x
_atom_site_fract_y
_atom_site_fract_z
Si Si1 0.698979 0.178348 0.883544
Si Si2 0.131740 0.568176 0.381968
Si Si3 0.437826 0.242738 0.741917
Si Si4 0.163266 0.585448 0.085521
Si Si5 0.342015 0.063437 0.108324
Si Si6 0.342211 0.944712 0.551254
Si Si7 0.833998 0.242171 0.943265
Si Si8 0.197112 0.271353 0.371616
O O1 0.504748 0.283413 0.774201
O O2 0.830945 0.164589 0.853945
O O3 0.499705 0.330290 0.025097
O O4 0.975903 0.914002 0.923579
O O5 0.110060 0.573527 0.219499
O O6 0.473432 0.278240 0.411744
O O7 0.917793 0.679759 0.485110
O O8 0.986065 0.768170 0.407361
O O9 0.649687 0.061392 0.611945
O O10 0.110292 0.471472 0.697418
O O11 0.508795 0.136100 0.872669
O O12 0.078395 0.741362 0.121869
O O13 0.974202 0.705756 0.957810
O O14 0.338996 0.104278 0.257748
O O15 0.500000 0.000000 0.000000
O O16 0.575854 0.831685 0.604104
O O17 0.500000 0.500000 0.000000
#
# Coordination Sequence:
#
# PCOD9105475 Si02
#       8
#     2   2   2   2   2   2   2   2
#     4  10  20  39  64  97 124 162 214 277 338 390
#     4  11  24  41  65  91 128 178 221 268 319 390
#     4  11  22  40  62  91 126 169 224 267 325 384
#     4  11  23  38  63  99 131 164 219 274 335 385
#     4  12  25  36  60  94 136 172 220 276 319 380
#     4  11  25  41  66  87 130 188 231 258 314 388
#     4   9  20  39  65  92 124 164 205 273 343 407
#     4  11  24  42  60  85 131 184 230 258 317 385
#
# _framework density 21.483505000000001
#
# number of rings (size 3 to 8) (size 9 to 14) (size 15 to 20)
#    0.000    1.250    3.750    2.625    7.000    1.500 
#    0.000    0.000    0.000    3.750    0.000    0.000 
#    0.000    0.000    0.000    0.000    0.000    0.000 
#
# Total GULP energy -89080.236972 kJ/mol
# GULP energy per Si atom -5567.514811 kJ/mol
# Density = 2.143461 g / cm^3
# Si number density = 21.483505 Si / 1000 Ang^3
#
#
#
# Elastic Constant Matrix: (Units=GPa)
#
#
# Indices 1 2 3 4 5 6 
#
# 1 73.2124 2.2224 34.4123 -3.2311 12.2742 0.3385
# 2 2.2224 90.1427 2.2443 -12.2136 0.6361 10.1625
# 3 34.4123 2.2443 93.4448 -7.6598 2.1256 6.0769
# 4 -3.2311 -12.2136 -7.6598 26.4480 7.3104 5.1694
# 5 12.2742 0.6361 2.1256 7.3104 13.3667 -0.5024
# 6 0.3385 10.1625 6.0769 5.1694 -0.5024 22.1380
#
#
#
# Elastic Compliance Matrix: (Units=1/GPa)
#
#
# Indices 1 2 3 4 5 6 
#
# 1 0.020718 0.000958 -0.006455 0.007475 -0.022178 -0.001234
# 2 0.000958 0.013574 0.000966 0.010623 -0.007834 -0.009170
# 3 -0.006455 0.000966 0.013713 0.004304 0.001156 -0.005088
# 4 0.007475 0.010623 0.004304 0.060653 -0.042026 -0.021289
# 5 -0.022178 -0.007834 0.001156 -0.042026 0.118958 0.016132
# 6 -0.001234 -0.009170 -0.005088 -0.021289 0.016132 0.056133
#
#
# Mechanical properties :
#
#
# Convention : Reuss Voigt Hill
#
# Bulk Modulus (GPa) = 25.67779 37.17308 31.42543
# Shear Modulus (GPa) = 16.35099 26.91860 21.63479
#
# Velocity S-wave (km/s) = 2.76179 3.54360 3.17684
# Velocity P-wave (km/s) = 4.70619 5.83810 5.30244
#
# Compressibility (1/GPa) = 0.03894416
#
# Stress axis : x y z
#
# Youngs Moduli (GPa) = 48.26779 73.66902 72.92409
#
# Poissons Ratio (x) = -0.07060 0.47073
# Poissons Ratio (y) = -0.04626 -0.07047
# Poissons Ratio (z) = 0.31157 -0.07119
#
# Static dielectric constant tensor:
#      x y z
#    x 1.839090 0.069370 0.027470 
#    y 0.069370 1.908780 0.016080 
#    z 0.027470 0.016080 1.768490 
# 
# From -- ./inp_files/80657.got.cif
#   From: 2010.05.17/outbox.cif.g08.bks.cpg/sg2_41_cif.got.tgz:80657.got - 2010.06.03 11:33:40.
