data_PCOD9105687
_publ_section_title
;
Structure prediction by ZEFSAII (Michael W. Deem and Ramdas Pophale) SiO2 
 PCOD9105687
Probable space group: P -1
;
_chemical_formula_sum "Si O2"
_cell_formula_units_Z 16
_cell_length_a 8.935981
_cell_length_b 13.235222
_cell_length_c 14.132668
_cell_angle_alpha 115.911632
_cell_angle_beta 151.262416
_cell_angle_gamma 65.177048
_cell_volume 720.247332
_symmetry_space_group_name_H-M "P -1"
_symmetry_group_IT_number 2
_symmetry_cell_setting 'triclinic'
loop_
_space_group_symop_operation_xyz
x,y,z
-x,-y,-z
loop_
_atom_site_type_symbol
_atom_site_label
_atom_site_fract_x
_atom_site_fract_y
_atom_site_fract_z
Si Si1 0.654996 0.615874 0.616855
Si Si2 0.810953 0.611316 0.481471
Si Si3 0.736734 0.935555 0.423141
Si Si4 0.908900 0.388465 0.958032
Si Si5 0.112875 0.840885 0.751373
Si Si6 0.237641 0.817692 0.545167
Si Si7 0.908894 0.011890 0.846046
Si Si8 0.304361 0.181546 0.027676
O O1 0.500000 0.500000 0.500000
O O2 0.787060 0.609258 0.581407
O O3 0.381838 0.718783 0.517158
O O4 0.918858 0.624203 0.848917
O O5 0.000000 0.500000 0.500000
O O6 0.985628 0.723045 0.603569
O O7 0.463013 0.615015 0.246749
O O8 0.428965 0.920392 0.307215
O O9 0.005929 0.932633 0.649424
O O10 0.874211 0.842457 0.385511
O O11 0.689859 0.059197 0.402378
O O12 0.047963 0.285216 0.927936
O O13 0.000000 0.500000 0.000000
O O14 0.488121 0.834674 0.957852
O O15 0.937325 0.887516 0.766818
O O16 0.438764 0.790580 0.740182
O O17 0.142108 0.078174 0.939870
O O18 0.000000 0.000000 0.000000
#
# Coordination Sequence:
#
# PCOD9105687 Si02
#       8
#     2   2   2   2   2   2   2   2
#     4  11  24  45  75 104 146 190 236 302 364 424
#     4  12  27  47  74 105 145 191 243 301 355 431
#     4  10  20  39  65  94 135 178 229 280 344 428
#     4  11  23  46  73 106 139 184 244 295 358 427
#     4  11  25  43  66  99 141 186 234 288 362 424
#     4   9  20  39  67  97 136 183 228 279 356 425
#     4  12  23  40  63 100 138 177 229 289 348 420
#     4  10  22  42  68  95 141 184 227 290 356 425
#
# _framework density 22.214590999999999
#
# number of rings (size 3 to 8) (size 9 to 14) (size 15 to 20)
#    0.000    1.250    2.500    3.000    5.250    1.500 
#    2.250    0.000    0.000    0.000    0.000    0.000 
#    0.000    0.000    0.000    0.000    0.000    0.000 
#
# Total GULP energy -89314.075852 kJ/mol
# GULP energy per Si atom -5582.129741 kJ/mol
# Density = 2.216403 g / cm^3
# Si number density = 22.214591 Si / 1000 Ang^3
#
#
#
# Elastic Constant Matrix: (Units=GPa)
#
#
# Indices 1 2 3 4 5 6 
#
# 1 129.3219 58.3196 55.9543 -5.9174 13.8710 -24.6976
# 2 58.3196 149.8753 47.9386 -14.1488 14.6318 -27.8097
# 3 55.9543 47.9386 101.4433 -9.1388 18.1249 -21.8304
# 4 -5.9174 -14.1488 -9.1388 25.9893 0.7310 15.0898
# 5 13.8710 14.6318 18.1249 0.7310 50.0385 -4.9049
# 6 -24.6976 -27.8097 -21.8304 15.0898 -4.9049 50.9921
#
#
#
# Elastic Compliance Matrix: (Units=1/GPa)
#
#
# Indices 1 2 3 4 5 6 
#
# 1 0.011343 -0.002607 -0.004549 -0.001971 -0.000444 0.002665
# 2 -0.002607 0.009027 -0.001994 0.002508 -0.001039 0.001965
# 3 -0.004549 -0.001994 0.014497 0.001878 -0.003234 0.002049
# 4 -0.001971 0.002508 0.001878 0.047801 -0.002860 -0.013203
# 5 -0.000444 -0.001039 -0.003234 -0.002860 0.021700 0.000768
# 6 0.002665 0.001965 0.002049 -0.013203 0.000768 0.026832
#
#
# Mechanical properties :
#
#
# Convention : Reuss Voigt Hill
#
# Bulk Modulus (GPa) = 60.35918 78.34063 69.34990
# Shear Modulus (GPa) = 32.25354 39.96584 36.10969
#
# Velocity S-wave (km/s) = 3.81452 4.24616 4.03612
# Velocity P-wave (km/s) = 6.82867 7.70596 7.28054
#
# Compressibility (1/GPa) = 0.01656749
#
# Stress axis : x y z
#
# Youngs Moduli (GPa) = 88.15935 110.77812 68.97965
#
# Poissons Ratio (x) = 0.28879 0.31382
# Poissons Ratio (y) = 0.22982 0.13751
# Poissons Ratio (z) = 0.40107 0.22084
#
# Static dielectric constant tensor:
#      x y z
#    x 1.902750 -0.014620 0.022180 
#    y -0.014620 1.818620 -0.003070 
#    z 0.022180 -0.003070 1.870470 
# 
# From -- ./inp_files/504223.got.cif
#   From: 2010.05.17/outbox.cif.g08.bks.cpg/sg2_253_cif.got.tgz:504223.got - 2010.06.03 11:33:40.
