data_PCOD9105809
_publ_section_title
;
Structure prediction by ZEFSAII (Michael W. Deem and Ramdas Pophale) SiO2 
 PCOD9105809
Probable space group: P -1
;
_chemical_formula_sum "Si O2"
_cell_formula_units_Z 14
_cell_length_a 14.375240
_cell_length_b 9.340434
_cell_length_c 11.823519
_cell_angle_alpha 101.842965
_cell_angle_beta 150.338784
_cell_angle_gamma 87.462676
_cell_volume 738.866448
_symmetry_space_group_name_H-M "P -1"
_symmetry_group_IT_number 2
_symmetry_cell_setting 'triclinic'
loop_
_space_group_symop_operation_xyz
x,y,z
-x,-y,-z
loop_
_atom_site_type_symbol
_atom_site_label
_atom_site_fract_x
_atom_site_fract_y
_atom_site_fract_z
Si Si1 0.541158 0.064234 0.368507
Si Si2 0.908420 0.098279 0.196777
Si Si3 0.608326 0.676045 0.656185
Si Si4 0.166875 0.120791 0.265421
Si Si5 0.912076 0.337261 0.436529
Si Si6 0.168869 0.225834 0.860363
Si Si7 0.540377 0.159892 0.134293
O O1 0.470661 0.789915 0.546613
O O2 0.672255 0.964558 0.541461
O O3 0.614080 0.128565 0.331798
O O4 0.314854 0.962860 0.096206
O O5 0.060732 0.164734 0.269696
O O6 0.915781 0.212832 0.324766
O O7 0.953687 0.945944 0.267132
O O8 0.500000 0.500000 0.500000
O O9 0.737749 0.740542 0.694088
O O10 0.737821 0.701112 0.911467
O O11 0.000000 0.000000 0.000000
O O12 0.000000 0.500000 0.500000
O O13 0.692661 0.290018 0.246475
O O14 0.045412 0.317302 0.678999
O O15 0.342588 0.205282 0.959399
O O16 0.500000 0.000000 0.000000
#
# Coordination Sequence:
#
# PCOD9105809 Si02
#       7
#     2   2   2   2   2   2   2
#     4  10  22  39  67  91 120 160 212 248 297 368
#     4  10  22  39  64  94 118 164 207 246 304 363
#     4  10  23  43  62  91 128 163 198 255 312 354
#     4  12  22  39  67  92 119 162 214 249 293 362
#     4  12  25  39  61  98 127 152 205 258 305 362
#     4  10  22  41  65  88 123 163 208 245 300 372
#     4  10  20  39  66  88 119 166 199 242 311 359
#
# _framework density 18.947944
#
# number of rings (size 3 to 8) (size 9 to 14) (size 15 to 20)
#    0.000    1.714    5.714    1.714    2.000    4.000 
#    0.000    0.714    0.000    0.000    0.000    0.000 
#    0.000    0.000    0.000    0.000    0.000    0.000 
#
# Total GULP energy -78179.667502 kJ/mol
# GULP energy per Si atom -5584.261964 kJ/mol
# Density = 1.890482 g / cm^3
# Si number density = 18.947944 Si / 1000 Ang^3
#
#
#
# Elastic Constant Matrix: (Units=GPa)
#
#
# Indices 1 2 3 4 5 6 
#
# 1 145.0460 31.8279 18.8943 18.6922 9.3642 25.6048
# 2 31.8279 76.2100 37.1973 24.1708 4.7917 23.3816
# 3 18.8943 37.1973 41.0721 0.5993 6.6678 7.4267
# 4 18.6922 24.1708 0.5993 36.4838 -1.2321 5.9954
# 5 9.3642 4.7917 6.6678 -1.2321 24.7378 9.1377
# 6 25.6048 23.3816 7.4267 5.9954 9.1377 29.1471
#
#
#
# Elastic Compliance Matrix: (Units=1/GPa)
#
#
# Indices 1 2 3 4 5 6 
#
# 1 0.008980 0.002743 -0.005150 -0.005056 0.000072 -0.007759
# 2 0.002743 0.050325 -0.042791 -0.028926 0.010047 -0.029077
# 3 -0.005150 -0.042791 0.063382 0.025939 -0.013536 0.021609
# 4 -0.005056 -0.028926 0.025939 0.046728 -0.001547 0.011910
# 5 0.000072 0.010047 -0.013536 -0.001547 0.049345 -0.019826
# 6 -0.007759 -0.029077 0.021609 0.011910 -0.019826 0.062710
#
#
# Mechanical properties :
#
#
# Convention : Reuss Voigt Hill
#
# Bulk Modulus (GPa) = 30.96771 48.68523 39.82647
# Shear Modulus (GPa) = 13.06740 29.70098 21.38419
#
# Velocity S-wave (km/s) = 2.62896 3.96347 3.36307
# Velocity P-wave (km/s) = 5.05908 6.83340 6.01206
#
# Compressibility (1/GPa) = 0.03229170
#
# Stress axis : x y z
#
# Youngs Moduli (GPa) = 111.35833 19.87071 15.77728
#
# Poissons Ratio (x) = -0.05451 0.08126
# Poissons Ratio (y) = -0.30547 0.67512
# Poissons Ratio (z) = 0.57352 0.85028
#
# Static dielectric constant tensor:
#      x y z
#    x 1.711690 0.005520 0.007320 
#    y 0.005520 1.623820 -0.013550 
#    z 0.007320 -0.013550 1.669810 
# 
# From -- ./inp_files/447702.got.cif
#   From: 2010.05.17/outbox.cif.g08.bks.cpg/sg2_224_cif.got.tgz:447702.got - 2010.06.03 11:33:40.
