data_PCOD9105812
_publ_section_title
;
Structure prediction by ZEFSAII (Michael W. Deem and Ramdas Pophale) SiO2 
 PCOD9105812
Probable space group: P -1
;
_chemical_formula_sum "Si O2"
_cell_formula_units_Z 12
_cell_length_a 7.827359
_cell_length_b 7.251464
_cell_length_c 16.878476
_cell_angle_alpha 46.273409
_cell_angle_beta 136.584267
_cell_angle_gamma 123.984336
_cell_volume 472.684944
_symmetry_space_group_name_H-M "P -1"
_symmetry_group_IT_number 2
_symmetry_cell_setting 'triclinic'
loop_
_space_group_symop_operation_xyz
x,y,z
-x,-y,-z
loop_
_atom_site_type_symbol
_atom_site_label
_atom_site_fract_x
_atom_site_fract_y
_atom_site_fract_z
Si Si1 0.016855 0.494510 0.231391
Si Si2 0.992627 0.101807 0.591254
Si Si3 0.754035 0.520908 0.303781
Si Si4 0.874318 0.689222 0.959390
Si Si5 0.394499 0.902459 0.075992
Si Si6 0.517358 0.064395 0.734194
O O1 0.867718 0.560825 0.082017
O O2 0.274460 0.688166 0.269483
O O3 0.852255 0.517111 0.248309
O O4 0.076664 0.200249 0.331164
O O5 0.785755 0.253207 0.435744
O O6 0.761286 0.867152 0.393745
O O7 0.070614 0.259905 0.651315
O O8 0.484831 0.619870 0.194358
O O9 0.102309 0.916504 0.976360
O O10 0.000000 0.500000 0.000000
O O11 0.641403 0.827401 0.809405
O O12 0.508295 0.033894 0.153731
O O13 0.500000 0.000000 0.000000
#
# Coordination Sequence:
#
# PCOD9105812 Si02
#       6
#     2   2   2   2   2   2
#     4  11  23  42  67  92 131 173 209 267 323 373
#     4  10  24  43  68  95 127 174 213 259 323 385
#     4  10  22  43  67  96 131 163 219 265 312 387
#     4  11  25  39  62  98 128 166 218 264 324 380
#     4  10  20  39  66  88 127 167 202 269 321 367
#     4  10  23  42  61  96 132 161 217 267 316 384
#
# _framework density 25.386889
#
# number of rings (size 3 to 8) (size 9 to 14) (size 15 to 20)
#    0.000    1.667    0.000    4.500    9.333    1.333 
#    0.000   13.333    0.000    0.000    0.000    0.000 
#    0.000    0.000    0.000    0.000    0.000    0.000 
#
# Total GULP energy -67095.552173 kJ/mol
# GULP energy per Si atom -5591.296014 kJ/mol
# Density = 2.532911 g / cm^3
# Si number density = 25.386889 Si / 1000 Ang^3
#
#
#
# Elastic Constant Matrix: (Units=GPa)
#
#
# Indices 1 2 3 4 5 6 
#
# 1 95.9002 24.3968 33.2110 -5.8494 5.1499 -18.8177
# 2 24.3968 86.3671 37.7155 -26.0554 4.0593 -11.9950
# 3 33.2110 37.7155 138.8974 -23.4576 36.0330 2.4977
# 4 -5.8494 -26.0554 -23.4576 47.5990 -1.2673 7.8133
# 5 5.1499 4.0593 36.0330 -1.2673 48.0801 -0.9718
# 6 -18.8177 -11.9950 2.4977 7.8133 -0.9718 60.6147
#
#
#
# Elastic Compliance Matrix: (Units=1/GPa)
#
#
# Indices 1 2 3 4 5 6 
#
# 1 0.012664 -0.002299 -0.003088 -0.001826 0.001182 0.003858
# 2 -0.002299 0.015690 -0.002980 0.006597 0.001363 0.001685
# 3 -0.003088 -0.002980 0.011530 0.003894 -0.008010 -0.002654
# 4 -0.001826 0.006597 0.003894 0.026722 -0.002634 -0.002909
# 5 0.001182 0.001363 -0.008010 -0.002634 0.026526 0.001732
# 6 0.003858 0.001685 -0.002654 -0.002909 0.001732 0.018541
#
#
# Mechanical properties :
#
#
# Convention : Reuss Voigt Hill
#
# Bulk Modulus (GPa) = 43.19916 56.86791 50.03353
# Shear Modulus (GPa) = 36.73120 46.31485 41.52302
#
# Velocity S-wave (km/s) = 3.80788 4.27589 4.04865
# Velocity P-wave (km/s) = 6.03213 6.84301 6.45032
#
# Compressibility (1/GPa) = 0.02314860
#
# Stress axis : x y z
#
# Youngs Moduli (GPa) = 78.96350 63.73660 86.72654
#
# Poissons Ratio (x) = 0.14656 0.26781
# Poissons Ratio (y) = 0.18157 0.25847
# Poissons Ratio (z) = 0.24384 0.18996
#
# Static dielectric constant tensor:
#      x y z
#    x 1.997770 0.012980 0.025180 
#    y 0.012980 2.342060 0.048660 
#    z 0.025180 0.048660 2.029420 
# 
# From -- ./inp_files/587725.got.cif
#   From: 2010.05.17/outbox.cif.g08.bks.cpg/sg2_294_cif.got.tgz:587725.got - 2010.06.03 11:33:40.
