data_PCOD9105312
_publ_section_title
;
Structure prediction by ZEFSAII (Michael W. Deem and Ramdas Pophale) SiO2 
 PCOD9105312
Probable space group: P -1
;
_chemical_formula_sum "Si O2"
_cell_formula_units_Z 14
_cell_length_a 6.764413
_cell_length_b 21.030070
_cell_length_c 6.287939
_cell_angle_alpha 118.804758
_cell_angle_beta 109.409801
_cell_angle_gamma 54.005696
_cell_volume 632.642361
_symmetry_space_group_name_H-M "P -1"
_symmetry_group_IT_number 2
_symmetry_cell_setting 'triclinic'
loop_
_space_group_symop_operation_xyz
x,y,z
-x,-y,-z
loop_
_atom_site_type_symbol
_atom_site_label
_atom_site_fract_x
_atom_site_fract_y
_atom_site_fract_z
Si Si1 0.766656 0.564438 0.236654
Si Si2 0.570930 0.316407 0.321870
Si Si3 0.302936 0.651947 0.991449
Si Si4 0.346028 0.064482 0.738697
Si Si5 0.840945 0.186853 0.561156
Si Si6 0.102931 0.372115 0.992000
Si Si7 0.767176 0.042952 0.145858
O O1 0.598700 0.612698 0.453552
O O2 0.563708 0.569535 0.007139
O O3 0.979150 0.468794 0.191786
O O4 0.868553 0.616228 0.229626
O O5 0.764419 0.231874 0.376604
O O6 0.363853 0.313391 0.101814
O O7 0.716501 0.343313 0.259940
O O8 0.304660 0.735355 0.204339
O O9 0.087523 0.654261 0.049459
O O10 0.120090 0.142820 0.666285
O O11 0.500000 0.000000 0.500000
O O12 0.242048 0.023295 0.802075
O O13 0.527294 0.081080 0.971615
O O14 0.775492 0.114091 0.404416
O O15 0.000000 0.000000 0.000000
#
# Coordination Sequence:
#
# PCOD9105312 Si02
#       7
#     2   2   2   2   2   2   2
#     4   9  20  40  61  90 127 170 218 270 311 375
#     4  10  23  39  59  94 129 168 213 263 322 378
#     4  10  23  39  59  94 129 168 214 263 325 378
#     4  11  25  45  70  99 123 170 219 257 326 385
#     4  11  25  43  64  95 140 163 210 272 321 383
#     4  10  20  39  64  89 128 174 215 262 322 379
#     4  11  25  45  70  97 126 167 218 264 317 388
#
# _framework density 22.129405999999999
#
# number of rings (size 3 to 8) (size 9 to 14) (size 15 to 20)
#    0.000    1.714    1.429    1.286    4.000    2.857 
#    5.143    0.000    0.000    0.000    0.000    0.000 
#    0.000    0.000    0.000    0.000    0.000    0.000 
#
# Total GULP energy -78129.407169 kJ/mol
# GULP energy per Si atom -5580.671941 kJ/mol
# Density = 2.207904 g / cm^3
# Si number density = 22.129406 Si / 1000 Ang^3
#
#
#
# Elastic Constant Matrix: (Units=GPa)
#
#
# Indices 1 2 3 4 5 6 
#
# 1 125.5182 52.5528 46.1973 -5.5619 -8.0871 2.2025
# 2 52.5528 112.6056 28.5495 -28.2731 6.0112 -25.5716
# 3 46.1973 28.5495 74.8150 -3.3603 -7.0631 4.3055
# 4 -5.5619 -28.2731 -3.3603 30.8804 -11.6872 7.5740
# 5 -8.0871 6.0112 -7.0631 -11.6872 35.9308 -13.8188
# 6 2.2025 -25.5716 4.3055 7.5740 -13.8188 32.8773
#
#
#
# Elastic Compliance Matrix: (Units=1/GPa)
#
#
# Indices 1 2 3 4 5 6 
#
# 1 0.012416 -0.006155 -0.005179 -0.002833 0.000281 -0.004170
# 2 -0.006155 0.019279 -0.003264 0.014529 0.005101 0.014632
# 3 -0.005179 -0.003264 0.018133 -0.000506 0.001275 -0.003914
# 4 -0.002833 0.014529 -0.000506 0.049327 0.015448 0.006686
# 5 0.000281 0.005101 0.001275 0.015448 0.038650 0.016468
# 6 -0.004170 0.014632 -0.003914 0.006686 0.016468 0.047970
#
#
# Mechanical properties :
#
#
# Convention : Reuss Voigt Hill
#
# Bulk Modulus (GPa) = 48.46854 63.05977 55.76416
# Shear Modulus (GPa) = 22.53809 32.31366 27.42588
#
# Velocity S-wave (km/s) = 3.19481 3.82542 3.52425
# Velocity P-wave (km/s) = 5.96313 6.93322 6.46639
#
# Compressibility (1/GPa) = 0.02063194
#
# Stress axis : x y z
#
# Youngs Moduli (GPa) = 80.54405 51.86987 55.14927
#
# Poissons Ratio (x) = 0.31924 0.28560
# Poissons Ratio (y) = 0.49572 0.18003
# Poissons Ratio (z) = 0.41710 0.16932
#
# Static dielectric constant tensor:
#      x y z
#    x 1.850030 0.011600 0.000980 
#    y 0.011600 1.844430 -0.026970 
#    z 0.000980 -0.026970 1.852000 
# 
# From -- ./inp_files/7825.got.cif
#   From: 2010.05.17/outbox.cif.g08.bks.cpg/sg2_4_cif.got.tgz:7825.got - 2010.06.03 11:33:40.
