data_PCOD9105243
_publ_section_title
;
Structure prediction by ZEFSAII (Michael W. Deem and Ramdas Pophale) SiO2 
 PCOD9105243
Probable space group: P -1
;
_chemical_formula_sum "Si O2"
_cell_formula_units_Z 16
_cell_length_a 13.633462
_cell_length_b 9.491471
_cell_length_c 7.362699
_cell_angle_alpha 109.141581
_cell_angle_beta 123.918863
_cell_angle_gamma 82.362937
_cell_volume 745.377494
_symmetry_space_group_name_H-M "P -1"
_symmetry_group_IT_number 2
_symmetry_cell_setting 'triclinic'
loop_
_space_group_symop_operation_xyz
x,y,z
-x,-y,-z
loop_
_atom_site_type_symbol
_atom_site_label
_atom_site_fract_x
_atom_site_fract_y
_atom_site_fract_z
Si Si1 0.322000 0.411243 0.551397
Si Si2 0.654040 0.682122 0.037168
Si Si3 0.154144 0.144795 0.190772
Si Si4 0.373164 0.956594 0.438365
Si Si5 0.389465 0.721738 0.856005
Si Si6 0.954750 0.021253 0.664819
Si Si7 0.287122 0.999796 0.738283
Si Si8 0.589726 0.368239 0.741881
O O1 0.326512 0.357110 0.745826
O O2 0.217818 0.307907 0.313918
O O3 0.311228 0.588403 0.621298
O O4 0.448878 0.383376 0.578302
O O5 0.730199 0.835047 0.134233
O O6 0.517339 0.721859 0.894145
O O7 0.661486 0.528951 0.867393
O O8 0.261930 0.030895 0.258367
O O9 0.085746 0.117483 0.302193
O O10 0.055970 0.109629 0.922029
O O11 0.376759 0.023586 0.672724
O O12 0.363272 0.776718 0.365115
O O13 0.500000 0.000000 0.500000
O O14 0.337097 0.881503 0.872638
O O15 0.403589 0.669032 0.053213
O O16 0.827119 0.080339 0.512085
O O17 0.000000 0.000000 0.500000
#
# Coordination Sequence:
#
# PCOD9105243 Si02
#       8
#     2   2   2   2   2   2   2   2
#     4   9  15  35  57  83 116 160 184 228 303 369
#     4   9  16  33  54  83 118 155 187 226 293 367
#     4  10  20  39  64  83 119 164 194 250 302 348
#     4  11  19  33  58  89 118 147 192 236 301 368
#     4   9  19  31  57  85 120 146 188 244 294 349
#     4  10  23  40  59  85 114 158 218 247 286 350
#     4  11  21  37  56  85 119 151 198 251 287 347
#     4   9  18  31  56  86 118 152 185 225 291 376
#
# _framework density 21.465634000000001
#
# number of rings (size 3 to 8) (size 9 to 14) (size 15 to 20)
#    0.000    2.250    3.750    2.625    1.750    0.000 
#    0.000    4.375    0.000    4.500    0.000    0.000 
#    0.000    0.000    0.000    0.000    0.000    0.000 
#
# Total GULP energy -89252.406264 kJ/mol
# GULP energy per Si atom -5578.275392 kJ/mol
# Density = 2.141678 g / cm^3
# Si number density = 21.465634 Si / 1000 Ang^3
#
#
#
# Elastic Constant Matrix: (Units=GPa)
#
#
# Indices 1 2 3 4 5 6 
#
# 1 72.5220 15.7089 26.5985 8.1093 -1.1358 13.5722
# 2 15.7089 102.7434 52.0616 22.3279 4.7775 -6.4968
# 3 26.5985 52.0616 129.1937 20.8625 17.2115 8.8263
# 4 8.1093 22.3279 20.8625 41.1556 1.6096 -10.4510
# 5 -1.1358 4.7775 17.2115 1.6096 28.1524 5.1963
# 6 13.5722 -6.4968 8.8263 -10.4510 5.1963 16.6288
#
#
#
# Elastic Compliance Matrix: (Units=1/GPa)
#
#
# Indices 1 2 3 4 5 6 
#
# 1 0.020442 -0.002639 -0.000973 -0.008678 0.006946 -0.024824
# 2 -0.002639 0.013852 -0.005261 -0.001897 -0.000875 0.009439
# 3 -0.000973 -0.005261 0.012205 -0.005442 -0.004497 -0.009754
# 4 -0.008678 -0.001897 -0.005442 0.039015 -0.005477 0.035462
# 5 0.006946 -0.000875 -0.004497 -0.005477 0.042784 -0.020436
# 6 -0.024824 0.009439 -0.009754 0.035462 -0.020436 0.117936
#
#
# Mechanical properties :
#
#
# Convention : Reuss Voigt Hill
#
# Bulk Modulus (GPa) = 34.77872 54.79968 44.78920
# Shear Modulus (GPa) = 18.27723 31.19337 24.73530
#
# Velocity S-wave (km/s) = 2.92115 3.81619 3.39827
# Velocity P-wave (km/s) = 5.25497 6.70837 6.02565
#
# Compressibility (1/GPa) = 0.02875322
#
# Stress axis : x y z
#
# Youngs Moduli (GPa) = 48.91813 72.19211 81.93477
#
# Poissons Ratio (x) = 0.19052 0.07974
# Poissons Ratio (y) = 0.12910 0.43102
# Poissons Ratio (z) = 0.04761 0.37977
#
# Static dielectric constant tensor:
#      x y z
#    x 1.868600 0.046580 -0.017330 
#    y 0.046580 1.819260 0.022150 
#    z -0.017330 0.022150 1.840540 
# 
# From -- ./inp_files/296256.got.cif
#   From: 2010.05.17/outbox.cif.g08.bks.cpg/sg2_149_cif.got.tgz:296256.got - 2010.06.03 11:33:40.
