data_PCOD9105616
_publ_section_title
;
Structure prediction by ZEFSAII (Michael W. Deem and Ramdas Pophale) SiO2 
 PCOD9105616
Probable space group: P -1
;
_chemical_formula_sum "Si O2"
_cell_formula_units_Z 14
_cell_length_a 10.922856
_cell_length_b 7.959603
_cell_length_c 12.697576
_cell_angle_alpha 97.859868
_cell_angle_beta 119.745706
_cell_angle_gamma 45.055500
_cell_volume 636.051742
_symmetry_space_group_name_H-M "P -1"
_symmetry_group_IT_number 2
_symmetry_cell_setting 'triclinic'
loop_
_space_group_symop_operation_xyz
x,y,z
-x,-y,-z
loop_
_atom_site_type_symbol
_atom_site_label
_atom_site_fract_x
_atom_site_fract_y
_atom_site_fract_z
Si Si1 0.515055 0.157329 0.269696
Si Si2 0.306627 0.543593 0.407309
Si Si3 0.359249 0.486219 0.876520
Si Si4 0.183051 0.593609 0.026893
Si Si5 0.278716 0.906653 0.135799
Si Si6 0.451270 0.163263 0.592516
Si Si7 0.891633 0.058619 0.346641
O O1 0.384167 0.367411 0.325592
O O2 0.333121 0.319672 0.118423
O O3 0.609419 0.908021 0.345280
O O4 0.706821 0.091172 0.296739
O O5 0.500000 0.500000 0.500000
O O6 0.295525 0.438662 0.499310
O O7 0.077626 0.831386 0.328303
O O8 0.536277 0.212592 0.876540
O O9 0.225796 0.683863 0.741102
O O10 0.500000 0.500000 0.000000
O O11 0.209695 0.552361 0.909224
O O12 0.254796 0.721860 0.105252
O O13 0.937635 0.813902 0.965576
O O14 0.353558 0.904753 0.281700
O O15 0.500000 0.000000 0.500000
O O16 0.000000 0.000000 0.500000
#
# Coordination Sequence:
#
# PCOD9105616 Si02
#       7
#     2   2   2   2   2   2   2
#     4  11  23  41  59  93 133 166 215 265 328 386
#     4  11  23  39  66  91 122 166 222 266 320 378
#     4  10  21  37  62  99 126 154 220 275 314 374
#     4  10  22  37  69  94 125 168 221 276 315 377
#     4  10  20  39  65  92 127 168 216 267 319 373
#     4  10  24  43  62  93 138 173 210 267 330 399
#     4  12  23  37  66  97 125 168 219 273 319 379
#
# _framework density 22.010788999999999
#
# number of rings (size 3 to 8) (size 9 to 14) (size 15 to 20)
#    0.000    1.429    4.286    1.714    8.000    1.143 
#    0.000    3.571    0.000    0.000    0.000    0.000 
#    0.000    0.000    0.000    0.000    0.000    0.000 
#
# Total GULP energy -78086.093318 kJ/mol
# GULP energy per Si atom -5577.578094 kJ/mol
# Density = 2.196069 g / cm^3
# Si number density = 22.010789 Si / 1000 Ang^3
#
#
#
# Elastic Constant Matrix: (Units=GPa)
#
#
# Indices 1 2 3 4 5 6 
#
# 1 79.3061 48.3484 28.3238 -13.4692 -22.6319 -20.5640
# 2 48.3484 80.1432 20.3841 -8.5289 6.4894 -32.7854
# 3 28.3238 20.3841 104.9023 -2.7532 -11.0892 -4.9280
# 4 -13.4692 -8.5289 -2.7532 46.9483 6.0570 6.0679
# 5 -22.6319 6.4894 -11.0892 6.0570 35.5326 -7.9015
# 6 -20.5640 -32.7854 -4.9280 6.0679 -7.9015 29.1968
#
#
#
# Elastic Compliance Matrix: (Units=1/GPa)
#
#
# Indices 1 2 3 4 5 6 
#
# 1 0.035851 -0.018416 -0.002612 0.001779 0.027575 0.011224
# 2 -0.018416 0.033757 -0.002078 -0.000180 -0.013872 0.020868
# 3 -0.002612 -0.002078 0.010730 -0.000493 0.001751 -0.001786
# 4 0.001779 -0.000180 -0.000493 0.022890 -0.003972 -0.004865
# 5 0.027575 -0.013872 0.001751 -0.003972 0.053806 0.019527
# 6 0.011224 0.020868 -0.001786 -0.004865 0.019527 0.071582
#
#
# Mechanical properties :
#
#
# Convention : Reuss Voigt Hill
#
# Bulk Modulus (GPa) = 29.30367 50.94047 40.12207
# Shear Modulus (GPa) = 17.47013 33.48858 25.47935
#
# Velocity S-wave (km/s) = 2.82034 3.90482 3.40602
# Velocity P-wave (km/s) = 4.89367 6.59726 5.80826
#
# Compressibility (1/GPa) = 0.03412542
#
# Stress axis : x y z
#
# Youngs Moduli (GPa) = 27.89331 29.62378 93.19573
#
# Poissons Ratio (x) = 0.54554 0.24347
# Poissons Ratio (y) = 0.51367 0.19366
# Poissons Ratio (z) = 0.07287 0.06156
#
# Static dielectric constant tensor:
#      x y z
#    x 1.818110 0.062130 0.059480 
#    y 0.062130 1.802960 0.004390 
#    z 0.059480 0.004390 1.799090 
# 
# From -- ./inp_files/158680.got.cif
#   From: 2010.05.17/outbox.cif.g08.bks.cpg/sg2_80_cif.got.tgz:158680.got - 2010.06.03 11:33:40.
