data_PCOD9105456
_publ_section_title
;
Structure prediction by ZEFSAII (Michael W. Deem and Ramdas Pophale) SiO2 
 PCOD9105456
Probable space group: P -1
;
_chemical_formula_sum "Si O2"
_cell_formula_units_Z 12
_cell_length_a 16.081448
_cell_length_b 9.111063
_cell_length_c 7.043061
_cell_angle_alpha 74.103553
_cell_angle_beta 120.025041
_cell_angle_gamma 146.888923
_cell_volume 464.489181
_symmetry_space_group_name_H-M "P -1"
_symmetry_group_IT_number 2
_symmetry_cell_setting 'triclinic'
loop_
_space_group_symop_operation_xyz
x,y,z
-x,-y,-z
loop_
_atom_site_type_symbol
_atom_site_label
_atom_site_fract_x
_atom_site_fract_y
_atom_site_fract_z
Si Si1 0.995867 0.279992 0.080288
Si Si2 0.578436 0.431601 0.623012
Si Si3 0.318645 0.922811 0.251343
Si Si4 0.525456 0.851413 0.055728
Si Si5 0.048422 0.035690 0.321409
Si Si6 0.904476 0.220654 0.435431
O O1 0.195933 0.612593 0.165585
O O2 0.966887 0.062877 0.095941
O O3 0.957480 0.255288 0.268425
O O4 0.839950 0.170128 0.849457
O O5 0.500000 0.500000 0.500000
O O6 0.621528 0.434053 0.886961
O O7 0.743873 0.660575 0.589285
O O8 0.451841 0.124690 0.506314
O O9 0.441494 0.125572 0.138731
O O10 0.698812 0.991480 0.283088
O O11 0.500000 0.000000 0.000000
O O12 0.024166 0.823399 0.341771
O O13 0.000000 0.000000 0.500000
O O14 0.000000 0.500000 0.500000
#
# Coordination Sequence:
#
# PCOD9105456 Si02
#       6
#     2   2   2   2   2   2
#     4   9  20  41  68  99 133 183 231 274 358 408
#     4  12  25  45  70 101 144 184 230 287 354 410
#     4  10  23  44  72  98 146 184 225 296 345 413
#     4  11  24  42  67 104 132 178 238 279 343 419
#     4  10  22  42  66 100 137 180 236 282 346 419
#     4  10  20  39  64  95 137 178 225 283 340 412
#
# _framework density 25.83483
#
# number of rings (size 3 to 8) (size 9 to 14) (size 15 to 20)
#    0.000    1.667    1.667    2.000    0.000    6.000 
#    3.000    0.833    0.000    0.000    0.000    0.000 
#    0.000    0.000    0.000    0.000    0.000    0.000 
#
# Total GULP energy -67010.542513 kJ/mol
# GULP energy per Si atom -5584.211876 kJ/mol
# Density = 2.577603 g / cm^3
# Si number density = 25.834830 Si / 1000 Ang^3
#
#
#
# Elastic Constant Matrix: (Units=GPa)
#
#
# Indices 1 2 3 4 5 6 
#
# 1 128.4805 53.8182 35.6836 -24.6491 2.7124 -3.1043
# 2 53.8182 148.1573 34.4792 -16.0764 5.5839 -3.8291
# 3 35.6836 34.4792 60.1285 -27.1870 6.8781 0.0040
# 4 -24.6491 -16.0764 -27.1870 48.9583 -2.2236 -0.8362
# 5 2.7124 5.5839 6.8781 -2.2236 54.2496 -27.0194
# 6 -3.1043 -3.8291 0.0040 -0.8362 -27.0194 64.6281
#
#
#
# Elastic Compliance Matrix: (Units=1/GPa)
#
#
# Indices 1 2 3 4 5 6 
#
# 1 0.010365 -0.002673 -0.003618 0.002371 0.000628 0.000633
# 2 -0.002673 0.008493 -0.003489 -0.000497 -0.000170 0.000297
# 3 -0.003618 -0.003489 0.026325 0.011485 -0.003086 -0.001524
# 4 0.002371 -0.000497 0.011485 0.027830 -0.000204 0.000358
# 5 0.000628 -0.000170 -0.003086 -0.000204 0.023758 0.009950
# 6 0.000633 0.000297 -0.001524 0.000358 0.009950 0.019686
#
#
# Mechanical properties :
#
#
# Convention : Reuss Voigt Hill
#
# Bulk Modulus (GPa) = 39.02883 64.96982 51.99932
# Shear Modulus (GPa) = 34.58827 47.75288 41.17058
#
# Velocity S-wave (km/s) = 3.66296 4.30396 3.99633
# Velocity P-wave (km/s) = 5.74714 7.06410 6.43937
#
# Compressibility (1/GPa) = 0.02562209
#
# Stress axis : x y z
#
# Youngs Moduli (GPa) = 96.48104 117.74866 37.98683
#
# Poissons Ratio (x) = 0.31475 0.13744
# Poissons Ratio (y) = 0.25790 0.13253
# Poissons Ratio (z) = 0.34909 0.41081
#
# Static dielectric constant tensor:
#      x y z
#    x 2.073600 -0.000570 0.024670 
#    y -0.000570 2.172260 -0.017380 
#    z 0.024670 -0.017380 2.066420 
# 
# From -- ./inp_files/295277.got.cif
#   From: 2010.05.17/outbox.cif.g08.bks.cpg/sg2_148_cif.got.tgz:295277.got - 2010.06.03 11:33:40.
