data_PCOD9105541
_publ_section_title
;
Structure prediction by ZEFSAII (Michael W. Deem and Ramdas Pophale) SiO2 
 PCOD9105541
Probable space group: P -1
;
_chemical_formula_sum "Si O2"
_cell_formula_units_Z 14
_cell_length_a 6.304406
_cell_length_b 21.182114
_cell_length_c 5.066708
_cell_angle_alpha 68.710613
_cell_angle_beta 98.755350
_cell_angle_gamma 122.454209
_cell_volume 531.194740
_symmetry_space_group_name_H-M "P -1"
_symmetry_group_IT_number 2
_symmetry_cell_setting 'triclinic'
loop_
_space_group_symop_operation_xyz
x,y,z
-x,-y,-z
loop_
_atom_site_type_symbol
_atom_site_label
_atom_site_fract_x
_atom_site_fract_y
_atom_site_fract_z
Si Si1 0.740111 0.334080 0.878152
Si Si2 0.174672 0.020595 0.251954
Si Si3 0.409987 0.260937 0.450463
Si Si4 0.244859 0.520225 0.185192
Si Si5 0.377490 0.902500 0.083780
Si Si6 0.245170 0.380774 0.208879
Si Si7 0.877792 0.135425 0.411577
O O1 0.619382 0.280846 0.679004
O O2 0.752192 0.418197 0.697144
O O3 0.549639 0.293053 0.149266
O O4 0.006130 0.350957 0.014255
O O5 0.248818 0.957135 0.429836
O O6 0.000000 0.000000 0.500000
O O7 0.421839 0.099021 0.074935
O O8 0.000000 0.000000 0.000000
O O9 0.272967 0.309709 0.426233
O O10 0.165521 0.174738 0.497185
O O11 0.224665 0.435794 0.347238
O O12 0.499121 0.567534 0.989699
O O13 0.000000 0.500000 0.000000
O O14 0.134436 0.857081 0.915439
O O15 0.293228 0.854015 0.416350
O O16 0.500000 0.000000 0.000000
#
# Coordination Sequence:
#
# PCOD9105541 Si02
#       7
#     2   2   2   2   2   2   2
#     4  10  22  40  62  92 129 166 217 264 310 374
#     4  11  21  37  61  92 119 148 201 263 310 362
#     4  11  24  42  62  89 132 173 209 260 316 388
#     4   8  16  36  66  96 124 164 214 271 310 367
#     4  10  20  39  65  87 117 160 202 254 311 378
#     4   9  19  39  64  93 128 169 214 258 325 372
#     4  11  22  41  61  86 125 163 206 253 320 379
#
# _framework density 26.355682999999999
#
# number of rings (size 3 to 8) (size 9 to 14) (size 15 to 20)
#    0.000    2.000    0.000    5.143    0.000    2.857 
#    7.714   24.286    0.000    0.000    0.000    0.000 
#    0.000    0.000    0.000    0.000    0.000    0.000 
#
# Total GULP energy -78028.300107 kJ/mol
# GULP energy per Si atom -5573.450008 kJ/mol
# Density = 2.629570 g / cm^3
# Si number density = 26.355683 Si / 1000 Ang^3
#
#
#
# Elastic Constant Matrix: (Units=GPa)
#
#
# Indices 1 2 3 4 5 6 
#
# 1 88.2583 32.7858 12.8297 -3.3271 -6.2906 25.5422
# 2 32.7858 103.4914 41.7926 14.9666 5.5880 34.2356
# 3 12.8297 41.7926 129.4291 27.6909 -12.3296 14.4787
# 4 -3.3271 14.9666 27.6909 38.7674 8.3925 7.4513
# 5 -6.2906 5.5880 -12.3296 8.3925 38.2837 -4.4354
# 6 25.5422 34.2356 14.4787 7.4513 -4.4354 47.9299
#
#
#
# Elastic Compliance Matrix: (Units=1/GPa)
#
#
# Indices 1 2 3 4 5 6 
#
# 1 0.014436 -0.003050 -0.000448 0.003594 0.001210 -0.005826
# 2 -0.003050 0.015453 -0.004069 -0.000613 -0.004923 -0.008543
# 3 -0.000448 -0.004069 0.011223 -0.008107 0.006095 0.001580
# 4 0.003594 -0.000613 -0.008107 0.035423 -0.010332 -0.005492
# 5 0.001210 -0.004923 0.006095 -0.010332 0.031914 0.005590
# 6 -0.005826 -0.008543 0.001580 -0.005492 0.005590 0.030965
#
#
# Mechanical properties :
#
#
# Convention : Reuss Voigt Hill
#
# Bulk Modulus (GPa) = 38.49621 55.11053 46.80337
# Shear Modulus (GPa) = 30.63565 40.58091 35.60828
#
# Velocity S-wave (km/s) = 3.41309 3.92821 3.67967
# Velocity P-wave (km/s) = 5.49275 6.44439 5.98751
#
# Compressibility (1/GPa) = 0.02597659
#
# Stress axis : x y z
#
# Youngs Moduli (GPa) = 69.26919 64.71255 89.10236
#
# Poissons Ratio (x) = 0.19740 0.03992
# Poissons Ratio (y) = 0.21130 0.36260
# Poissons Ratio (z) = 0.03104 0.26335
#
# Static dielectric constant tensor:
#      x y z
#    x 2.275870 -0.104900 -0.004830 
#    y -0.104900 2.221640 0.022170 
#    z -0.004830 0.022170 1.895690 
# 
# From -- ./inp_files/13154.got.cif
#   From: 2010.05.17/outbox.cif.g08.bks.cpg/sg2_7_cif.got.tgz:13154.got - 2010.06.03 11:33:40.
