data_PCOD9105046
_publ_section_title
;
Structure prediction by ZEFSAII (Michael W. Deem and Ramdas Pophale) SiO2 
 PCOD9105046
Probable space group: P -1
;
_chemical_formula_sum "Si O2"
_cell_formula_units_Z 16
_cell_length_a 19.211107
_cell_length_b 8.719482
_cell_length_c 12.463486
_cell_angle_alpha 128.760928
_cell_angle_beta 48.284362
_cell_angle_gamma 149.531183
_cell_volume 782.584340
_symmetry_space_group_name_H-M "P -1"
_symmetry_group_IT_number 2
_symmetry_cell_setting 'triclinic'
loop_
_space_group_symop_operation_xyz
x,y,z
-x,-y,-z
loop_
_atom_site_type_symbol
_atom_site_label
_atom_site_fract_x
_atom_site_fract_y
_atom_site_fract_z
Si Si1 0.675109 0.903527 0.714290
Si Si2 0.761283 0.035908 0.453444
Si Si3 0.066895 0.782132 0.125917
Si Si4 0.091530 0.115780 0.673498
Si Si5 0.378814 0.842327 0.706161
Si Si6 0.454656 0.221566 0.604029
Si Si7 0.006093 0.699415 0.396120
Si Si8 0.609323 0.838053 0.988077
O O1 0.603098 0.569829 0.635202
O O2 0.598736 0.860155 0.880777
O O3 0.674018 0.965423 0.618226
O O4 0.845814 0.183184 0.685928
O O5 0.868915 0.376269 0.449613
O O6 0.858329 0.001999 0.368522
O O7 0.646700 0.805743 0.376514
O O8 0.989960 0.675210 0.274444
O O9 0.035425 0.946591 0.179754
O O10 0.232377 0.996819 0.075170
O O11 0.000000 0.500000 0.000000
O O12 0.232806 0.481658 0.692625
O O13 0.041526 0.954109 0.537705
O O14 0.505716 0.903875 0.562871
O O15 0.376066 0.017125 0.700785
O O16 0.405097 0.982346 0.854587
O O17 0.500000 0.500000 0.000000
#
# Coordination Sequence:
#
# PCOD9105046 Si02
#       8
#     2   2   2   2   2   2   2   2
#     4  10  20  39  63  89 123 166 205 250 319 374
#     4  11  23  40  68  92 129 164 214 259 313 363
#     4  11  23  39  66  94 127 166 212 258 317 371
#     4  11  21  40  64  93 122 168 215 258 308 372
#     4  11  22  38  65  94 124 159 216 259 315 362
#     4  11  22  38  67  94 123 161 214 260 310 374
#     4  10  22  40  65  90 127 165 213 266 302 366
#     4  11  23  40  62  91 131 160 202 263 321 368
#
# _framework density 20.445079
#
# number of rings (size 3 to 8) (size 9 to 14) (size 15 to 20)
#    0.000    1.250    5.000    3.000    0.000    1.000 
#    0.000    1.250    2.750    0.000    0.000    0.000 
#    0.000    0.000    0.000    0.000    0.000    0.000 
#
# Total GULP energy -89192.369478 kJ/mol
# GULP energy per Si atom -5574.523092 kJ/mol
# Density = 2.039855 g / cm^3
# Si number density = 20.445079 Si / 1000 Ang^3
#
#
#
# Elastic Constant Matrix: (Units=GPa)
#
#
# Indices 1 2 3 4 5 6 
#
# 1 65.2317 -9.5972 14.4870 5.2174 6.7819 -1.9822
# 2 -9.5972 114.5171 30.8815 -0.3769 16.2901 -5.5393
# 3 14.4870 30.8815 133.8478 14.0163 11.7193 -17.6724
# 4 5.2174 -0.3769 14.0163 25.4173 -0.2374 5.8954
# 5 6.7819 16.2901 11.7193 -0.2374 21.6427 -5.3243
# 6 -1.9822 -5.5393 -17.6724 5.8954 -5.3243 15.1788
#
#
#
# Elastic Compliance Matrix: (Units=1/GPa)
#
#
# Indices 1 2 3 4 5 6 
#
# 1 0.016995 0.002790 -0.001625 -0.002627 -0.006558 0.000065
# 2 0.002790 0.010684 -0.002454 0.001310 -0.008046 -0.001925
# 3 -0.001625 -0.002454 0.011300 -0.009594 0.000014 0.015780
# 4 -0.002627 0.001310 -0.009594 0.052665 -0.002339 -0.032311
# 5 -0.006558 -0.008046 0.000014 -0.002339 0.058637 0.017701
# 6 0.000065 -0.001925 0.015780 -0.032311 0.017701 0.102318
#
#
# Mechanical properties :
#
#
# Convention : Reuss Voigt Hill
#
# Bulk Modulus (GPa) = 27.47159 42.79324 35.13242
# Shear Modulus (GPa) = 18.70476 30.96945 24.83710
#
# Velocity S-wave (km/s) = 3.02798 3.89622 3.48921
# Velocity P-wave (km/s) = 5.06861 6.42004 5.78393
#
# Compressibility (1/GPa) = 0.03640124
#
# Stress axis : x y z
#
# Youngs Moduli (GPa) = 58.83956 93.60131 88.49415
#
# Poissons Ratio (x) = -0.26115 0.14382
# Poissons Ratio (y) = -0.16416 0.21714
# Poissons Ratio (z) = 0.09563 0.22968
#
# Static dielectric constant tensor:
#      x y z
#    x 1.795080 -0.008660 -0.001270 
#    y -0.008660 1.695260 -0.023070 
#    z -0.001270 -0.023070 1.747440 
# 
# From -- ./inp_files/469581.got.cif
#   From: 2010.05.17/outbox.cif.g08.bks.cpg/sg2_235_cif.got.tgz:469581.got - 2010.06.03 11:33:40.
