data_PCOD9105614
_publ_section_title
;
Structure prediction by ZEFSAII (Michael W. Deem and Ramdas Pophale) SiO2 
 PCOD9105614
Probable space group: P -1
;
_chemical_formula_sum "Si O2"
_cell_formula_units_Z 16
_cell_length_a 13.939736
_cell_length_b 12.071561
_cell_length_c 15.724463
_cell_angle_alpha 44.091115
_cell_angle_beta 151.483954
_cell_angle_gamma 116.154754
_cell_volume 720.416272
_symmetry_space_group_name_H-M "P -1"
_symmetry_group_IT_number 2
_symmetry_cell_setting 'triclinic'
loop_
_space_group_symop_operation_xyz
x,y,z
-x,-y,-z
loop_
_atom_site_type_symbol
_atom_site_label
_atom_site_fract_x
_atom_site_fract_y
_atom_site_fract_z
Si Si1 0.481583 0.709445 0.322832
Si Si2 0.611990 0.748027 0.573617
Si Si3 0.652954 0.926722 0.073072
Si Si4 0.550393 0.636027 0.081405
Si Si5 0.884106 0.878250 0.986491
Si Si6 0.923623 0.860714 0.832888
Si Si7 0.196606 0.789103 0.564970
Si Si8 0.401632 0.546112 0.611290
O O1 0.639734 0.634558 0.572209
O O2 0.565195 0.570568 0.384206
O O3 0.208448 0.778694 0.097857
O O4 0.481514 0.892371 0.194537
O O5 0.843034 0.749936 0.773688
O O6 0.521748 0.663523 0.621369
O O7 0.379516 0.975571 0.257891
O O8 0.915242 0.887628 0.314900
O O9 0.675322 0.743370 0.149183
O O10 0.500000 0.000000 0.000000
O O11 0.347767 0.763685 0.781391
O O12 0.709228 0.422170 0.281576
O O13 0.469149 0.595207 0.130426
O O14 0.103380 0.688926 0.310961
O O15 0.851678 0.843449 0.882239
O O16 0.000000 0.000000 0.000000
O O17 0.791498 0.078439 0.570856
#
# Coordination Sequence:
#
# PCOD9105614 Si02
#       8
#     2   2   2   2   2   2   2   2
#     4  11  23  43  63  91 131 168 209 265 311 377
#     4  11  23  40  67  95 126 171 211 254 320 382
#     4  11  23  44  66  92 125 172 214 257 326 375
#     4  11  23  45  65  97 128 167 214 266 319 371
#     4  10  20  39  65  92 126 167 201 264 314 368
#     4  11  22  42  67  94 127 168 214 257 320 374
#     4  10  24  43  69  94 128 165 217 270 310 379
#     4  11  23  42  64  94 137 164 207 265 315 377
#
# _framework density 22.209382000000002
#
# number of rings (size 3 to 8) (size 9 to 14) (size 15 to 20)
#    0.000    1.250    3.750    3.375    1.750    1.000 
#    9.000    0.000    0.000    0.000    0.000    0.000 
#    0.000    0.000    0.000    0.000    0.000    0.000 
#
# Total GULP energy -89391.570756 kJ/mol
# GULP energy per Si atom -5586.973172 kJ/mol
# Density = 2.215883 g / cm^3
# Si number density = 22.209382 Si / 1000 Ang^3
#
#
#
# Elastic Constant Matrix: (Units=GPa)
#
#
# Indices 1 2 3 4 5 6 
#
# 1 70.9823 18.0985 15.2799 8.9041 -13.6325 -5.4442
# 2 18.0985 96.9173 20.7466 10.5328 -8.6168 1.4651
# 3 15.2799 20.7466 71.7712 7.7770 -19.1506 1.5365
# 4 8.9041 10.5328 7.7770 35.1577 -1.0493 -7.5933
# 5 -13.6325 -8.6168 -19.1506 -1.0493 29.9470 -0.9719
# 6 -5.4442 1.4651 1.5365 -7.5933 -0.9719 38.0779
#
#
#
# Elastic Compliance Matrix: (Units=1/GPa)
#
#
# Indices 1 2 3 4 5 6 
#
# 1 0.016532 -0.002052 -0.001006 -0.002708 0.006265 0.002103
# 2 -0.002052 0.011586 -0.002406 -0.002646 0.000731 -0.001151
# 3 -0.001006 -0.002406 0.017891 -0.002916 0.010153 -0.001096
# 4 -0.002708 -0.002646 -0.002916 0.031811 -0.002546 0.006111
# 5 0.006265 0.000731 0.010153 -0.002546 0.042892 0.001045
# 6 0.002103 -0.001151 -0.001096 0.006111 0.001045 0.027896
#
#
# Mechanical properties :
#
#
# Convention : Reuss Voigt Hill
#
# Bulk Modulus (GPa) = 28.50539 38.65784 33.58162
# Shear Modulus (GPa) = 29.20024 33.00625 31.10325
#
# Velocity S-wave (km/s) = 3.62991 3.85923 3.74633
# Velocity P-wave (km/s) = 5.51643 6.10754 5.81950
#
# Compressibility (1/GPa) = 0.03508108
#
# Stress axis : x y z
#
# Youngs Moduli (GPa) = 60.48808 86.30900 55.89283
#
# Poissons Ratio (x) = 0.17713 0.05624
# Poissons Ratio (y) = 0.12414 0.13447
# Poissons Ratio (z) = 0.06087 0.20765
#
# Static dielectric constant tensor:
#      x y z
#    x 1.824940 -0.034040 -0.022200 
#    y -0.034040 1.834480 -0.036820 
#    z -0.022200 -0.036820 1.852940 
# 
# From -- ./inp_files/531744.got.cif
#   From: 2010.05.17/outbox.cif.g08.bks.cpg/sg2_266_cif.got.tgz:531744.got - 2010.06.03 11:33:40.
