data_PCOD9105197
_publ_section_title
;
Structure prediction by ZEFSAII (Michael W. Deem and Ramdas Pophale) SiO2 
 PCOD9105197
Probable space group: P -1
;
_chemical_formula_sum "Si O2"
_cell_formula_units_Z 16
_cell_length_a 12.932667
_cell_length_b 20.872505
_cell_length_c 12.216438
_cell_angle_alpha 27.982595
_cell_angle_beta 156.025463
_cell_angle_gamma 147.277016
_cell_volume 618.392710
_symmetry_space_group_name_H-M "P -1"
_symmetry_group_IT_number 2
_symmetry_cell_setting 'triclinic'
loop_
_space_group_symop_operation_xyz
x,y,z
-x,-y,-z
loop_
_atom_site_type_symbol
_atom_site_label
_atom_site_fract_x
_atom_site_fract_y
_atom_site_fract_z
Si Si1 0.987329 0.227178 0.135347
Si Si2 0.990802 0.693032 0.608802
Si Si3 0.162942 0.655289 0.415991
Si Si4 0.331905 0.041442 0.643191
Si Si5 0.761933 0.407478 0.801866
Si Si6 0.649426 0.844870 0.168700
Si Si7 0.546397 0.154634 0.270156
Si Si8 0.302331 0.225969 0.138910
O O1 0.246074 0.171523 0.429104
O O2 0.834309 0.093371 0.255028
O O3 0.850662 0.277715 0.818985
O O4 0.979185 0.357810 0.010262
O O5 0.760404 0.569212 0.538481
O O6 0.919674 0.804638 0.457582
O O7 0.156388 0.771961 0.554083
O O8 0.173356 0.611237 0.979852
O O9 0.455473 0.675540 0.713175
O O10 0.000000 0.500000 0.500000
O O11 0.980591 0.738033 0.183677
O O12 0.281065 0.085293 0.403080
O O13 0.603809 0.982767 0.979755
O O14 0.506925 0.291067 0.715931
O O15 0.541024 0.850010 0.932967
O O16 0.389756 0.225540 0.099635
O O17 0.500000 0.000000 0.500000
#
# Coordination Sequence:
#
# PCOD9105197 Si02
#       8
#     2   2   2   2   2   2   2   2
#     4   9  20  41  69  90 135 175 222 284 343 409
#     4  10  22  38  64  94 130 171 218 279 337 412
#     4  11  26  47  68 101 138 180 232 286 342 413
#     4   9  19  42  62  99 128 171 228 277 342 404
#     4   9  20  41  61  96 128 166 221 270 347 402
#     4  10  20  39  63  95 129 167 218 280 336 414
#     4  11  24  40  61  94 133 175 223 270 349 399
#     4  11  25  45  70  98 140 181 229 289 338 409
#
# _framework density 25.873525000000001
#
# number of rings (size 3 to 8) (size 9 to 14) (size 15 to 20)
#    0.000    2.000    1.250    0.750    3.500    2.000 
#   15.750    1.250    0.000    0.000    0.000    0.000 
#    0.000    0.000    0.000    0.000    0.000    0.000 
#
# Total GULP energy -89262.472945 kJ/mol
# GULP energy per Si atom -5578.904559 kJ/mol
# Density = 2.581464 g / cm^3
# Si number density = 25.873525 Si / 1000 Ang^3
#
#
#
# Elastic Constant Matrix: (Units=GPa)
#
#
# Indices 1 2 3 4 5 6 
#
# 1 162.1715 51.6949 46.1226 -9.1915 17.2996 6.3891
# 2 51.6949 101.1666 25.8985 -23.9406 -20.9067 13.0568
# 3 46.1226 25.8985 71.7530 -12.1972 -3.4656 1.7526
# 4 -9.1915 -23.9406 -12.1972 35.1675 -5.2410 -5.5194
# 5 17.2996 -20.9067 -3.4656 -5.2410 47.6689 -1.5019
# 6 6.3891 13.0568 1.7526 -5.5194 -1.5019 47.0263
#
#
#
# Elastic Compliance Matrix: (Units=1/GPa)
#
#
# Indices 1 2 3 4 5 6 
#
# 1 0.010361 -0.006579 -0.005467 -0.004826 -0.007579 -0.000186
# 2 -0.006579 0.019025 0.000163 0.012690 0.012059 -0.002520
# 3 -0.005467 0.000163 0.018564 0.005857 0.004075 0.000823
# 4 -0.004826 0.012690 0.005857 0.039976 0.012201 0.001995
# 5 -0.007579 0.012059 0.004075 0.012201 0.030654 -0.000059
# 6 -0.000186 -0.002520 0.000823 0.001995 -0.000059 0.022191
#
#
# Mechanical properties :
#
#
# Convention : Reuss Voigt Hill
#
# Bulk Modulus (GPa) = 41.34841 64.72478 53.03660
# Shear Modulus (GPa) = 28.96903 40.06422 34.51662
#
# Velocity S-wave (km/s) = 3.34973 3.93932 3.65643
# Velocity P-wave (km/s) = 5.56566 6.76470 6.19426
#
# Compressibility (1/GPa) = 0.02418473
#
# Stress axis : x y z
#
# Youngs Moduli (GPa) = 96.51922 52.56209 53.86649
#
# Poissons Ratio (x) = 0.34580 0.29449
# Poissons Ratio (y) = 0.63499 -0.00879
# Poissons Ratio (z) = 0.52767 -0.00858
#
# Static dielectric constant tensor:
#      x y z
#    x 2.017570 -0.032980 -0.010030 
#    y -0.032980 2.190560 0.246930 
#    z -0.010030 0.246930 2.592910 
# 
# From -- ./inp_files/438616.got.cif
#   From: 2010.05.17/outbox.cif.g08.bks.cpg/sg2_220_cif.got.tgz:438616.got - 2010.06.03 11:33:40.
