data_PCOD9105368
_publ_section_title
;
Structure prediction by ZEFSAII (Michael W. Deem and Ramdas Pophale) SiO2 
 PCOD9105368
Probable space group: P -1
;
_chemical_formula_sum "Si O2"
_cell_formula_units_Z 16
_cell_length_a 8.175359
_cell_length_b 11.686657
_cell_length_c 14.906189
_cell_angle_alpha 40.749083
_cell_angle_beta 93.127571
_cell_angle_gamma 67.410355
_cell_volume 703.193976
_symmetry_space_group_name_H-M "P -1"
_symmetry_group_IT_number 2
_symmetry_cell_setting 'triclinic'
loop_
_space_group_symop_operation_xyz
x,y,z
-x,-y,-z
loop_
_atom_site_type_symbol
_atom_site_label
_atom_site_fract_x
_atom_site_fract_y
_atom_site_fract_z
Si Si1 0.360685 0.377742 0.444309
Si Si2 0.733228 0.825444 0.288179
Si Si3 0.242898 0.200902 0.044275
Si Si4 0.035438 0.125581 0.597257
Si Si5 0.852490 0.882942 0.733064
Si Si6 0.255140 0.189359 0.412856
Si Si7 0.239202 0.855378 0.133356
Si Si8 0.695725 0.633371 0.223397
O O1 0.252832 0.351060 0.539943
O O2 0.611075 0.139519 0.586354
O O3 0.247534 0.383180 0.347011
O O4 0.321464 0.609966 0.316108
O O5 0.740842 0.745776 0.235528
O O6 0.898058 0.851757 0.316047
O O7 0.492763 0.064928 0.155527
O O8 0.116835 0.268155 0.092736
O O9 0.233027 0.012120 0.113890
O O10 0.202175 0.363810 0.865853
O O11 0.013679 0.934029 0.708341
O O12 0.813873 0.375078 0.412123
O O13 0.200991 0.088785 0.550223
O O14 0.867001 0.776098 0.702133
O O15 0.500000 0.000000 0.500000
O O16 0.438936 0.779129 0.121243
O O17 0.000000 0.000000 0.000000
#
# Coordination Sequence:
#
# PCOD9105368 Si02
#       8
#     2   2   2   2   2   2   2   2
#     4   9  19  37  61  94 120 161 207 253 304 360
#     4   9  20  36  60  87 128 165 198 248 306 369
#     4  10  24  39  59  89 134 166 199 248 313 367
#     4  11  21  36  69  94 118 158 214 255 304 361
#     4  10  20  39  64  92 119 159 211 262 293 359
#     4   9  20  39  64  90 123 157 202 265 312 352
#     4  11  23  37  62  90 131 167 203 245 311 374
#     4  11  23  41  57  92 132 167 198 251 307 373
#
# _framework density 22.753323000000002
#
# number of rings (size 3 to 8) (size 9 to 14) (size 15 to 20)
#    0.000    2.000    1.250    3.000    5.250    3.500 
#    0.000    0.625    0.000    0.750    0.000    0.000 
#    0.000    0.000    0.000    0.000    0.000    0.000 
#
# Total GULP energy -89412.958051 kJ/mol
# GULP energy per Si atom -5588.309878 kJ/mol
# Density = 2.270154 g / cm^3
# Si number density = 22.753323 Si / 1000 Ang^3
#
#
#
# Elastic Constant Matrix: (Units=GPa)
#
#
# Indices 1 2 3 4 5 6 
#
# 1 113.4854 52.2567 30.6202 10.9088 6.1875 2.9703
# 2 52.2567 101.0842 32.8962 14.6257 -11.5276 -2.5255
# 3 30.6202 32.8962 70.2191 7.9013 -8.6257 9.6469
# 4 10.9088 14.6257 7.9013 30.1264 -8.3571 3.0203
# 5 6.1875 -11.5276 -8.6257 -8.3571 31.4305 -4.3457
# 6 2.9703 -2.5255 9.6469 3.0203 -4.3457 31.8178
#
#
#
# Elastic Compliance Matrix: (Units=1/GPa)
#
#
# Indices 1 2 3 4 5 6 
#
# 1 0.013165 -0.006186 -0.003167 -0.002629 -0.006624 -0.001415
# 2 -0.006186 0.015634 -0.004161 -0.003134 0.005548 0.004135
# 3 -0.003167 -0.004161 0.018742 -0.000269 0.003448 -0.005221
# 4 -0.002629 -0.003134 -0.000269 0.038527 0.009217 -0.002320
# 5 -0.006624 0.005548 0.003448 0.009217 0.039173 0.004489
# 6 -0.001415 0.004135 -0.005221 -0.002320 0.004489 0.034305
#
#
# Mechanical properties :
#
#
# Convention : Reuss Voigt Hill
#
# Bulk Modulus (GPa) = 48.74335 57.37054 53.05695
# Shear Modulus (GPa) = 25.85150 29.94264 27.89707
#
# Velocity S-wave (km/s) = 3.37436 3.63156 3.50532
# Velocity P-wave (km/s) = 6.05399 6.54624 6.30492
#
# Compressibility (1/GPa) = 0.02051562
#
# Stress axis : x y z
#
# Youngs Moduli (GPa) = 75.95629 63.96232 53.35557
#
# Poissons Ratio (x) = 0.39567 0.16895
# Poissons Ratio (y) = 0.46986 0.22200
# Poissons Ratio (z) = 0.24052 0.26613
#
# Static dielectric constant tensor:
#      x y z
#    x 1.872430 -0.027930 0.052150 
#    y -0.027930 1.834880 0.004740 
#    z 0.052150 0.004740 1.897110 
# 
# From -- ./inp_files/499494.got.cif
#   From: 2010.05.17/outbox.cif.g08.bks.cpg/sg2_250_cif.got.tgz:499494.got - 2010.06.03 11:33:40.
