data_PCOD9105873
_publ_section_title
;
Structure prediction by ZEFSAII (Michael W. Deem and Ramdas Pophale) SiO2 
 PCOD9105873
Probable space group: P -1
;
_chemical_formula_sum "Si O2"
_cell_formula_units_Z 16
_cell_length_a 21.898069
_cell_length_b 10.979450
_cell_length_c 8.781045
_cell_angle_alpha 103.168780
_cell_angle_beta 52.914409
_cell_angle_gamma 145.508601
_cell_volume 765.913939
_symmetry_space_group_name_H-M "P -1"
_symmetry_group_IT_number 2
_symmetry_cell_setting 'triclinic'
loop_
_space_group_symop_operation_xyz
x,y,z
-x,-y,-z
loop_
_atom_site_type_symbol
_atom_site_label
_atom_site_fract_x
_atom_site_fract_y
_atom_site_fract_z
Si Si1 0.724961 0.282668 0.689363
Si Si2 0.494540 0.197992 0.670034
Si Si3 0.052655 0.582235 0.769976
Si Si4 0.168873 0.314706 0.869087
Si Si5 0.675134 0.873447 0.346922
Si Si6 0.211876 0.635519 0.027710
Si Si7 0.335373 0.378014 0.878612
Si Si8 0.441499 0.700200 0.067918
O O1 0.865561 0.424932 0.417479
O O2 0.776625 0.371763 0.812832
O O3 0.669662 0.339480 0.734338
O O4 0.576227 0.965364 0.833075
O O5 0.685092 0.473774 0.415036
O O6 0.396366 0.127111 0.663745
O O7 0.483369 0.239552 0.869079
O O8 0.394090 0.924244 0.769769
O O9 0.902264 0.410499 0.845690
O O10 0.194168 0.889913 0.660501
O O11 0.000000 0.500000 0.000000
O O12 0.253897 0.369661 0.900202
O O13 0.135884 0.409302 0.990368
O O14 0.000000 0.000000 0.000000
O O15 0.520031 0.616034 0.612433
O O16 0.747426 0.869459 0.127196
O O17 0.351056 0.458664 0.045640
#
# Coordination Sequence:
#
# PCOD9105873 Si02
#       8
#     2   2   2   2   2   2   2   2
#     4  10  22  39  61  94 128 163 210 257 318 369
#     4  10  23  38  64  96 125 162 215 260 313 367
#     4  12  23  37  61  94 127 160 207 260 311 362
#     4  11  23  41  63  93 128 167 210 257 318 379
#     4  10  21  39  60  93 123 164 204 257 305 380
#     4  11  22  40  65  92 127 167 208 265 309 372
#     4  10  20  40  65  84 125 166 207 245 318 379
#     4  10  20  39  66  92 122 168 208 262 306 376
#
# _framework density 20.890075
#
# number of rings (size 3 to 8) (size 9 to 14) (size 15 to 20)
#    0.000    1.500    3.750    1.500    1.750    0.500 
#    0.000    1.875    0.000    0.000    0.000    0.000 
#    0.000    0.000    0.000    0.000    0.000    0.000 
#
# Total GULP energy -89190.233594 kJ/mol
# GULP energy per Si atom -5574.389600 kJ/mol
# Density = 2.084253 g / cm^3
# Si number density = 20.890075 Si / 1000 Ang^3
#
#
#
# Elastic Constant Matrix: (Units=GPa)
#
#
# Indices 1 2 3 4 5 6 
#
# 1 34.5375 -7.3135 15.0483 5.0787 -2.6241 12.7575
# 2 -7.3135 96.8341 28.2210 4.4860 -3.4550 -0.1280
# 3 15.0483 28.2210 85.0978 -0.2936 -13.1984 -7.4142
# 4 5.0787 4.4860 -0.2936 27.6259 0.2699 -7.7941
# 5 -2.6241 -3.4550 -13.1984 0.2699 28.7033 6.0907
# 6 12.7575 -0.1280 -7.4142 -7.7941 6.0907 28.9005
#
#
#
# Elastic Compliance Matrix: (Units=1/GPa)
#
#
# Indices 1 2 3 4 5 6 
#
# 1 0.053960 0.009573 -0.014756 -0.021522 0.006891 -0.034819
# 2 0.009573 0.013298 -0.006625 -0.006195 0.001138 -0.007777
# 3 -0.014756 -0.006625 0.018212 0.007453 0.003521 0.012424
# 4 -0.021522 -0.006195 0.007453 0.048499 -0.005164 0.025553
# 5 0.006891 0.001138 0.003521 -0.005164 0.039802 -0.011915
# 6 -0.034819 -0.007777 0.012424 0.025553 -0.011915 0.062527
#
#
# Mechanical properties :
#
#
# Convention : Reuss Voigt Hill
#
# Bulk Modulus (GPa) = 16.16720 32.04232 24.10476
# Shear Modulus (GPa) = 17.82317 29.08017 23.45167
#
# Velocity S-wave (km/s) = 2.92411 3.73508 3.35419
# Velocity P-wave (km/s) = 4.37682 5.82863 5.15410
#
# Compressibility (1/GPa) = 0.06185364
#
# Stress axis : x y z
#
# Youngs Moduli (GPa) = 18.53214 75.19872 54.90876
#
# Poissons Ratio (x) = -0.71986 0.81022
# Poissons Ratio (y) = -0.17740 0.36379
# Poissons Ratio (z) = 0.27346 0.49821
#
# Static dielectric constant tensor:
#      x y z
#    x 1.735230 -0.011710 -0.009350 
#    y -0.011710 1.934510 -0.086210 
#    z -0.009350 -0.086210 1.798180 
# 
# From -- ./inp_files/207121.got.cif
#   From: 2010.05.17/outbox.cif.g08.bks.cpg/sg2_104_cif.got.tgz:207121.got - 2010.06.03 11:33:40.
