data_PCOD9105707
_publ_section_title
;
Structure prediction by ZEFSAII (Michael W. Deem and Ramdas Pophale) SiO2 
 PCOD9105707
Probable space group: P -1
;
_chemical_formula_sum "Si O2"
_cell_formula_units_Z 14
_cell_length_a 6.851594
_cell_length_b 7.448383
_cell_length_c 13.335671
_cell_angle_alpha 96.824371
_cell_angle_beta 113.668975
_cell_angle_gamma 70.437360
_cell_volume 587.238238
_symmetry_space_group_name_H-M "P -1"
_symmetry_group_IT_number 2
_symmetry_cell_setting 'triclinic'
loop_
_space_group_symop_operation_xyz
x,y,z
-x,-y,-z
loop_
_atom_site_type_symbol
_atom_site_label
_atom_site_fract_x
_atom_site_fract_y
_atom_site_fract_z
Si Si1 0.407184 0.299631 0.043975
Si Si2 0.921384 0.475063 0.594487
Si Si3 0.455349 0.147530 0.408565
Si Si4 0.937527 0.946083 0.799195
Si Si5 0.789863 0.458618 0.154815
Si Si6 0.810514 0.927084 0.317988
Si Si7 0.386981 0.937472 0.116075
O O1 0.538891 0.442671 0.119271
O O2 0.357118 0.162140 0.107044
O O3 0.214658 0.408166 0.932958
O O4 0.571759 0.154745 0.989627
O O5 0.083925 0.517581 0.716041
O O6 0.983875 0.246638 0.607515
O O7 0.000000 0.500000 0.500000
O O8 0.673925 0.631182 0.572546
O O9 0.270627 0.088846 0.303074
O O10 0.500000 0.000000 0.500000
O O11 0.681186 0.087079 0.382990
O O12 0.068418 0.750275 0.863635
O O13 0.820490 0.094446 0.870436
O O14 0.092971 0.993773 0.751836
O O15 0.611766 0.856712 0.224360
#
# Coordination Sequence:
#
# PCOD9105707 Si02
#       7
#     2   2   2   2   2   2   2
#     4  10  20  39  65  95 130 173 214 278 323 393
#     4  11  22  42  70  97 129 178 221 270 335 394
#     4  10  22  42  66  93 129 172 221 280 327 379
#     4  10  23  40  62  94 130 175 214 267 334 397
#     4  10  21  39  62  96 130 168 220 269 327 391
#     4  11  21  44  65  94 139 167 220 274 326 395
#     4  10  21  40  66  92 130 174 215 267 335 390
#
# _framework density 23.840412000000001
#
# number of rings (size 3 to 8) (size 9 to 14) (size 15 to 20)
#    0.000    1.714    4.286    0.000    0.000    1.714 
#    2.571    2.143    0.000    0.000    0.000    0.000 
#    0.000    0.000    0.000    0.000    0.000    0.000 
#
# Total GULP energy -78066.712229 kJ/mol
# GULP energy per Si atom -5576.193731 kJ/mol
# Density = 2.378615 g / cm^3
# Si number density = 23.840412 Si / 1000 Ang^3
#
#
#
# Elastic Constant Matrix: (Units=GPa)
#
#
# Indices 1 2 3 4 5 6 
#
# 1 102.9553 52.6167 27.5599 3.4790 -32.9789 -34.0970
# 2 52.6167 109.8333 42.9138 -26.2770 -8.7319 -36.8889
# 3 27.5599 42.9138 112.4322 -20.9139 -0.7231 -14.8835
# 4 3.4790 -26.2770 -20.9139 46.1493 2.4706 1.6655
# 5 -32.9789 -8.7319 -0.7231 2.4706 40.7772 15.2596
# 6 -34.0970 -36.8889 -14.8835 1.6655 15.2596 32.0398
#
#
#
# Elastic Compliance Matrix: (Units=1/GPa)
#
#
# Indices 1 2 3 4 5 6 
#
# 1 0.021154 -0.007909 -0.002828 -0.008326 0.013607 0.006044
# 2 -0.007909 0.023013 -0.001695 0.012707 -0.010334 0.021553
# 3 -0.002828 -0.001695 0.011259 0.004470 -0.003328 0.001623
# 4 -0.008326 0.012707 0.004470 0.031695 -0.009946 0.010936
# 5 0.013607 -0.010334 -0.003328 -0.009946 0.040495 -0.017733
# 6 0.006044 0.021553 0.001623 0.010936 -0.017733 0.071090
#
#
# Mechanical properties :
#
#
# Convention : Reuss Voigt Hill
#
# Bulk Modulus (GPa) = 32.71904 63.48907 48.10405
# Shear Modulus (GPa) = 21.38968 37.26863 29.32915
#
# Velocity S-wave (km/s) = 2.99858 3.95809 3.51127
# Velocity P-wave (km/s) = 5.07372 6.89763 6.05475
#
# Compressibility (1/GPa) = 0.03056325
#
# Stress axis : x y z
#
# Youngs Moduli (GPa) = 47.27295 43.45294 88.81701
#
# Poissons Ratio (x) = 0.34368 0.25114
# Poissons Ratio (y) = 0.37389 0.15052
# Poissons Ratio (z) = 0.13367 0.07364
#
# Static dielectric constant tensor:
#      x y z
#    x 1.955760 -0.025440 0.047230 
#    y -0.025440 2.024900 0.028860 
#    z 0.047230 0.028860 1.924400 
# 
# From -- ./inp_files/214663.got.cif
#   From: 2010.05.17/outbox.cif.g08.bks.cpg/sg2_108_cif.got.tgz:214663.got - 2010.06.03 11:33:40.
