data_PCOD9105673
_publ_section_title
;
Structure prediction by ZEFSAII (Michael W. Deem and Ramdas Pophale) SiO2 
 PCOD9105673
Probable space group: P -1
;
_chemical_formula_sum "Si O2"
_cell_formula_units_Z 12
_cell_length_a 8.675405
_cell_length_b 7.977201
_cell_length_c 9.093887
_cell_angle_alpha 67.881456
_cell_angle_beta 71.370897
_cell_angle_gamma 111.592409
_cell_volume 459.137499
_symmetry_space_group_name_H-M "P -1"
_symmetry_group_IT_number 2
_symmetry_cell_setting 'triclinic'
loop_
_space_group_symop_operation_xyz
x,y,z
-x,-y,-z
loop_
_atom_site_type_symbol
_atom_site_label
_atom_site_fract_x
_atom_site_fract_y
_atom_site_fract_z
Si Si1 0.806509 0.233590 0.076456
Si Si2 0.698683 0.534556 0.863625
Si Si3 0.860286 0.006961 0.707585
Si Si4 0.289675 0.821528 0.555221
Si Si5 0.834076 0.656767 0.277753
Si Si6 0.580389 0.798825 0.145751
O O1 0.837790 0.235379 0.238651
O O2 0.616335 0.000691 0.161524
O O3 0.763190 0.413676 0.990368
O O4 0.988511 0.267770 0.917586
O O5 0.632408 0.392729 0.781331
O O6 0.843625 0.793162 0.720238
O O7 0.500000 0.500000 0.000000
O O8 0.784179 0.096342 0.578301
O O9 0.063335 0.192693 0.660230
O O10 0.708017 0.913413 0.921909
O O11 0.267053 0.599549 0.585790
O O12 0.500000 0.000000 0.500000
O O13 0.682022 0.700411 0.237150
#
# Coordination Sequence:
#
# PCOD9105673 Si02
#       6
#     2   2   2   2   2   2
#     4  11  23  41  69  98 126 171 218 261 318 387
#     4  10  20  39  65  94 127 169 214 259 312 383
#     4  10  21  39  62  92 128 166 208 265 317 367
#     4  12  24  41  64  97 133 168 210 270 326 375
#     4  11  24  45  68  94 129 172 217 263 318 388
#     4  10  21  43  68  95 127 172 219 262 313 388
#
# _framework density 26.135961000000002
#
# number of rings (size 3 to 8) (size 9 to 14) (size 15 to 20)
#    0.000    1.333    0.000    8.500    0.000    2.667 
#    0.000   14.167    0.000    2.000    0.000    0.000 
#    0.000    0.000    0.000    0.000    0.000    0.000 
#
# Total GULP energy -67341.949068 kJ/mol
# GULP energy per Si atom -5611.829089 kJ/mol
# Density = 2.607647 g / cm^3
# Si number density = 26.135961 Si / 1000 Ang^3
#
#
#
# Elastic Constant Matrix: (Units=GPa)
#
#
# Indices 1 2 3 4 5 6 
#
# 1 108.1193 35.1924 73.3074 -10.9448 45.4354 6.2244
# 2 35.1924 236.1287 93.4305 -27.3975 39.8760 23.5635
# 3 73.3074 93.4305 136.6029 -6.7001 56.8663 7.7670
# 4 -10.9448 -27.3975 -6.7001 56.8846 -5.2816 6.0754
# 5 45.4354 39.8760 56.8663 -5.2816 68.4740 3.3320
# 6 6.2244 23.5635 7.7670 6.0754 3.3320 45.7959
#
#
#
# Elastic Compliance Matrix: (Units=1/GPa)
#
#
# Indices 1 2 3 4 5 6 
#
# 1 0.016534 0.002071 -0.007790 0.002975 -0.005381 -0.001995
# 2 0.002071 0.006784 -0.005131 0.003354 -0.000644 -0.003300
# 3 -0.007790 -0.005131 0.017595 -0.002690 -0.006739 0.001562
# 4 0.002975 0.003354 -0.002690 0.019917 0.000054 -0.004320
# 5 -0.005381 -0.000644 -0.006739 0.000054 0.024129 0.000443
# 6 -0.001995 -0.003300 0.001562 -0.004320 0.000443 0.024081
#
#
# Mechanical properties :
#
#
# Convention : Reuss Voigt Hill
#
# Bulk Modulus (GPa) = 52.04837 98.30128 75.17482
# Shear Modulus (GPa) = 36.45845 52.82562 44.64203
#
# Velocity S-wave (km/s) = 3.73896 4.50064 4.13736
# Velocity P-wave (km/s) = 6.21268 8.04368 7.18673
#
# Compressibility (1/GPa) = 0.01921290
#
# Stress axis : x y z
#
# Youngs Moduli (GPa) = 60.48148 147.41180 56.83559
#
# Poissons Ratio (x) = -0.30529 0.44275
# Poissons Ratio (y) = -0.12526 0.29161
# Poissons Ratio (z) = 0.47115 0.75634
#
# Static dielectric constant tensor:
#      x y z
#    x 1.982940 0.016620 -0.094740 
#    y 0.016620 2.114910 0.008230 
#    z -0.094740 0.008230 2.090280 
# 
# From -- ./inp_files/156903.got.cif
#   From: 2010.05.17/outbox.cif.g08.bks.cpg/sg2_79_cif.got.tgz:156903.got - 2010.06.03 11:33:40.
