data_PCOD9105020
_publ_section_title
;
Structure prediction by ZEFSAII (Michael W. Deem and Ramdas Pophale) SiO2 
 PCOD9105020
Probable space group: P -1
;
_chemical_formula_sum "Si O2"
_cell_formula_units_Z 16
_cell_length_a 16.301039
_cell_length_b 8.346798
_cell_length_c 7.521021
_cell_angle_alpha 95.281169
_cell_angle_beta 109.176998
_cell_angle_gamma 130.163932
_cell_volume 669.964555
_symmetry_space_group_name_H-M "P -1"
_symmetry_group_IT_number 2
_symmetry_cell_setting 'triclinic'
loop_
_space_group_symop_operation_xyz
x,y,z
-x,-y,-z
loop_
_atom_site_type_symbol
_atom_site_label
_atom_site_fract_x
_atom_site_fract_y
_atom_site_fract_z
Si Si1 0.569695 0.735361 0.910232
Si Si2 0.320715 0.465976 0.114424
Si Si3 0.813051 0.205333 0.043261
Si Si4 0.629138 0.610147 0.507534
Si Si5 0.103897 0.344562 0.767741
Si Si6 0.542141 0.945547 0.190085
Si Si7 0.177374 0.661771 0.554126
Si Si8 0.863896 0.127662 0.718593
O O1 0.625153 0.632172 0.925512
O O2 0.429897 0.557552 0.718600
O O3 0.665513 0.974784 0.892660
O O4 0.571176 0.809721 0.112785
O O5 0.299865 0.406245 0.301894
O O6 0.422870 0.745246 0.203025
O O7 0.200469 0.340347 0.897365
O O8 0.877017 0.174703 0.943551
O O9 0.849771 0.438077 0.061121
O O10 0.833977 0.226496 0.273947
O O11 0.500000 0.500000 0.500000
O O12 0.724224 0.878500 0.559427
O O13 0.119821 0.427698 0.584490
O O14 0.962337 0.136105 0.704671
O O15 0.677945 0.182152 0.373621
O O16 0.500000 0.000000 0.000000
O O17 0.118044 0.677670 0.350144
#
# Coordination Sequence:
#
# PCOD9105020 Si02
#       8
#     2   2   2   2   2   2   2   2
#     4  10  20  39  63  88 125 161 205 254 314 378
#     4  11  20  38  59  90 129 159 203 257 308 384
#     4   9  20  39  59  93 115 164 215 250 315 361
#     4  10  21  37  60  92 118 163 211 244 317 368
#     4  10  23  39  58  92 125 162 213 259 313 365
#     4  11  20  39  63  92 123 159 204 260 320 356
#     4   9  21  37  62  91 118 157 212 258 311 362
#     4  12  20  40  67  85 125 173 209 260 309 373
#
# _framework density 23.881858000000001
#
# number of rings (size 3 to 8) (size 9 to 14) (size 15 to 20)
#    0.750    1.000    3.750    2.625    0.000    1.500 
#    2.250    1.250    0.000    3.750    0.000    0.000 
#    0.000    0.000    0.000    0.000    0.000    0.000 
#
# Total GULP energy -89202.495655 kJ/mol
# GULP energy per Si atom -5575.155978 kJ/mol
# Density = 2.382750 g / cm^3
# Si number density = 23.881858 Si / 1000 Ang^3
#
#
#
# Elastic Constant Matrix: (Units=GPa)
#
#
# Indices 1 2 3 4 5 6 
#
# 1 44.5260 17.0169 16.1675 -2.8152 21.6324 10.9393
# 2 17.0169 75.3756 21.4470 0.6762 2.0252 12.3153
# 3 16.1675 21.4470 61.9591 -15.6915 14.7545 5.2196
# 4 -2.8152 0.6762 -15.6915 31.2350 -3.5099 2.1580
# 5 21.6324 2.0252 14.7545 -3.5099 32.1918 -0.7876
# 6 10.9393 12.3153 5.2196 2.1580 -0.7876 28.8108
#
#
#
# Elastic Compliance Matrix: (Units=1/GPa)
#
#
# Indices 1 2 3 4 5 6 
#
# 1 0.042174 -0.006306 -0.000638 0.001462 -0.027836 -0.014073
# 2 -0.006306 0.016818 -0.005991 -0.003093 0.005506 -0.003327
# 3 -0.000638 -0.005991 0.023492 0.011057 -0.008818 -0.002523
# 4 0.001462 -0.003093 0.011057 0.037848 -0.001830 -0.004121
# 5 -0.027836 0.005506 -0.008818 -0.001830 0.053544 0.011414
# 6 -0.014073 -0.003327 -0.002523 -0.004121 0.011414 0.042553
#
#
# Mechanical properties :
#
#
# Convention : Reuss Voigt Hill
#
# Bulk Modulus (GPa) = 17.66255 32.34707 25.00481
# Shear Modulus (GPa) = 19.14457 26.92947 23.03702
#
# Velocity S-wave (km/s) = 2.83439 3.36164 3.10921
# Velocity P-wave (km/s) = 4.25718 5.35177 4.83555
#
# Compressibility (1/GPa) = 0.05661696
#
# Stress axis : x y z
#
# Youngs Moduli (GPa) = 23.71120 59.45842 42.56691
#
# Poissons Ratio (x) = 0.37493 0.02714
# Poissons Ratio (y) = 0.14952 0.25500
# Poissons Ratio (z) = 0.01512 0.35619
#
# Static dielectric constant tensor:
#      x y z
#    x 1.984380 0.026120 -0.034180 
#    y 0.026120 2.014310 0.022430 
#    z -0.034180 0.022430 1.965250 
# 
# From -- ./inp_files/327490.got.cif
#   From: 2010.05.17/outbox.cif.g08.bks.cpg/sg2_164_cif.got.tgz:327490.got - 2010.06.03 11:33:40.
