data_PCOD9105383
_publ_section_title
;
Structure prediction by ZEFSAII (Michael W. Deem and Ramdas Pophale) SiO2 
 PCOD9105383
Probable space group: P -1
;
_chemical_formula_sum "Si O2"
_cell_formula_units_Z 15
_cell_length_a 14.878170
_cell_length_b 19.339475
_cell_length_c 9.288186
_cell_angle_alpha 125.380612
_cell_angle_beta 127.101668
_cell_angle_gamma 20.411164
_cell_volume 742.486414
_symmetry_space_group_name_H-M "P -1"
_symmetry_group_IT_number 2
_symmetry_cell_setting 'triclinic'
loop_
_space_group_symop_operation_xyz
x,y,z
-x,-y,-z
loop_
_atom_site_type_symbol
_atom_site_label
_atom_site_fract_x
_atom_site_fract_y
_atom_site_fract_z
Si Si1 0.545168 0.379354 0.084114
Si Si2 0.763364 0.794501 0.922541
Si Si3 0.048930 0.425906 0.723196
Si Si4 0.070666 0.774354 0.910822
Si Si5 0.181612 0.552838 0.262926
Si Si6 0.457594 0.794944 0.990582
Si Si7 0.500000 0.500000 0.500000
Si Si8 0.782431 0.808260 0.618504
O O1 0.801952 0.240436 0.083708
O O2 0.542630 0.279814 0.980945
O O3 0.522433 0.434837 0.287718
O O4 0.300106 0.577855 0.991847
O O5 0.751854 0.825560 0.781444
O O6 0.838100 0.643506 0.814042
O O7 0.004349 0.676251 0.095685
O O8 0.500000 0.000000 0.000000
O O9 0.059395 0.379705 0.518331
O O10 0.990835 0.384854 0.718242
O O11 0.330677 0.277329 0.851184
O O12 0.937298 0.789217 0.710670
O O13 0.836651 0.970655 0.019216
O O14 0.434643 0.322197 0.190723
O O15 0.284912 0.573249 0.434579
O O16 0.500000 0.000000 0.500000
#
# Coordination Sequence:
#
# PCOD9105383 Si02
#       8
#     2   2   2   2   2   2   1   2
#     4  10  23  40  64  92 119 174 208 270 313 391
#     4  11  24  39  64  94 129 169 213 259 326 387
#     4  11  22  41  64  96 131 165 215 267 319 379
#     4  11  22  40  67  88 128 165 221 252 331 378
#     4  10  22  41  67  90 126 171 210 261 325 378
#     4  10  20  39  64  92 129 164 212 266 317 384
#     4  10  20  44  64  84 132 158 212 262 320 368
#     4  12  23  38  63  94 127 168 210 267 318 374
#
# _framework density 20.202390000000001
#
# number of rings (size 3 to 8) (size 9 to 14) (size 15 to 20)
#    0.000    1.333    1.333    6.400    1.867    0.000 
#    0.000    2.667   11.733    0.000    0.000    0.000 
#    0.000    0.000    0.000    0.000    0.000    0.000 
#
# Total GULP energy -83527.508225 kJ/mol
# GULP energy per Si atom -5568.500548 kJ/mol
# Density = 2.015641 g / cm^3
# Si number density = 20.202390 Si / 1000 Ang^3
#
#
#
# Elastic Constant Matrix: (Units=GPa)
#
#
# Indices 1 2 3 4 5 6 
#
# 1 145.8075 25.7960 45.1700 -23.0628 21.7522 -21.8267
# 2 25.7960 104.4600 37.4180 3.0247 11.9687 -15.0190
# 3 45.1700 37.4180 97.4227 2.6968 17.0472 -12.3561
# 4 -23.0628 3.0247 2.6968 20.6280 -7.9155 0.5697
# 5 21.7522 11.9687 17.0472 -7.9155 40.3191 -4.3747
# 6 -21.8267 -15.0190 -12.3561 0.5697 -4.3747 29.8200
#
#
#
# Elastic Compliance Matrix: (Units=1/GPa)
#
#
# Indices 1 2 3 4 5 6 
#
# 1 0.011418 -0.000643 -0.004516 0.012949 -0.000890 0.005784
# 2 -0.000643 0.011777 -0.003328 -0.002839 -0.001880 0.003860
# 3 -0.004516 -0.003328 0.014699 -0.008160 -0.004324 0.000631
# 4 0.012949 -0.002839 -0.008160 0.068647 0.011328 0.005018
# 5 -0.000890 -0.001880 -0.004324 0.011328 0.029978 0.000791
# 6 0.005784 0.003860 0.000631 0.005018 0.000791 0.039994
#
#
# Mechanical properties :
#
#
# Convention : Reuss Voigt Hill
#
# Bulk Modulus (GPa) = 47.80221 62.71758 55.25990
# Shear Modulus (GPa) = 24.94262 34.10717 29.52489
#
# Velocity S-wave (km/s) = 3.51755 4.11332 3.82705
# Velocity P-wave (km/s) = 6.34118 7.32606 6.85134
#
# Compressibility (1/GPa) = 0.02091953
#
# Stress axis : x y z
#
# Youngs Moduli (GPa) = 87.58054 84.91466 68.03204
#
# Poissons Ratio (x) = 0.05463 0.30723
# Poissons Ratio (y) = 0.05634 0.22639
# Poissons Ratio (z) = 0.39552 0.28257
#
# Static dielectric constant tensor:
#      x y z
#    x 1.772990 -0.006940 -0.010320 
#    y -0.006940 1.745800 0.034070 
#    z -0.010320 0.034070 1.696450 
# 
# From -- ./inp_files/319494.got.cif
#   From: 2010.05.17/outbox.cif.g08.bks.cpg/sg2_160_cif.got.tgz:319494.got - 2010.06.03 11:33:40.
