data_PCOD9105496
_publ_section_title
;
Structure prediction by ZEFSAII (Michael W. Deem and Ramdas Pophale) SiO2 
 PCOD9105496
Probable space group: P -1
;
_chemical_formula_sum "Si O2"
_cell_formula_units_Z 16
_cell_length_a 14.755808
_cell_length_b 11.506168
_cell_length_c 13.727643
_cell_angle_alpha 119.695770
_cell_angle_beta 29.060003
_cell_angle_gamma 137.492923
_cell_volume 681.561534
_symmetry_space_group_name_H-M "P -1"
_symmetry_group_IT_number 2
_symmetry_cell_setting 'triclinic'
loop_
_space_group_symop_operation_xyz
x,y,z
-x,-y,-z
loop_
_atom_site_type_symbol
_atom_site_label
_atom_site_fract_x
_atom_site_fract_y
_atom_site_fract_z
Si Si1 0.104974 0.956133 0.694458
Si Si2 0.731064 0.234070 0.587168
Si Si3 0.469237 0.394032 0.582444
Si Si4 0.371362 0.750810 0.020828
Si Si5 0.048577 0.632761 0.095603
Si Si6 0.224436 0.021272 0.106589
Si Si7 0.342368 0.430930 0.923194
Si Si8 0.885589 0.577215 0.520874
O O1 0.309104 0.938637 0.478869
O O2 0.959588 0.946744 0.732614
O O3 0.875837 0.777508 0.907036
O O4 0.271248 0.166800 0.665180
O O5 0.493912 0.166726 0.849253
O O6 0.768294 0.367173 0.527496
O O7 0.003094 0.362241 0.448584
O O8 0.500000 0.500000 0.500000
O O9 0.769199 0.491457 0.359869
O O10 0.358015 0.421108 0.788216
O O11 0.662617 0.926624 0.867692
O O12 0.309569 0.730681 0.956187
O O13 0.151085 0.732119 0.271301
O O14 0.296157 0.561341 0.042726
O O15 0.000000 0.500000 0.000000
O O16 0.091765 0.813228 0.109605
O O17 0.641462 0.549915 0.726609
#
# Coordination Sequence:
#
# PCOD9105496 Si02
#       8
#     2   2   2   2   2   2   2   2
#     4  12  24  42  70 106 136 180 230 285 351 408
#     4  10  21  38  65 101 135 171 217 274 347 414
#     4  12  26  47  66  94 141 186 237 282 334 416
#     4  11  24  43  70 104 137 179 231 285 349 409
#     4  12  25  48  72  95 137 192 237 282 342 409
#     4  11  24  43  71 103 141 178 228 292 341 412
#     4  12  24  43  69 103 139 180 225 290 350 407
#     4  10  20  39  64  98 138 171 213 277 346 413
#
# _framework density 23.475503
#
# number of rings (size 3 to 8) (size 9 to 14) (size 15 to 20)
#    0.000    0.750    5.000    3.000    0.000    1.000 
#    0.000    1.875    0.000    0.000    0.000    0.000 
#    0.000    0.000    0.000    0.000    0.000    0.000 
#
# Total GULP energy -89395.452215 kJ/mol
# GULP energy per Si atom -5587.215763 kJ/mol
# Density = 2.342207 g / cm^3
# Si number density = 23.475503 Si / 1000 Ang^3
#
#
#
# Elastic Constant Matrix: (Units=GPa)
#
#
# Indices 1 2 3 4 5 6 
#
# 1 79.1678 18.0607 0.3453 -4.0808 7.3580 -7.0793
# 2 18.0607 109.4055 6.5510 -9.8508 16.0842 -13.1979
# 3 0.3453 6.5510 41.6599 1.3006 -7.1245 -2.9795
# 4 -4.0808 -9.8508 1.3006 32.1383 -2.0902 -0.1770
# 5 7.3580 16.0842 -7.1245 -2.0902 27.2971 2.2086
# 6 -7.0793 -13.1979 -2.9795 -0.1770 2.2086 40.0648
#
#
#
# Elastic Compliance Matrix: (Units=1/GPa)
#
#
# Indices 1 2 3 4 5 6 
#
# 1 0.013473 -0.001427 -0.000278 0.001104 -0.002945 0.002057
# 2 -0.001427 0.011291 -0.002803 0.002953 -0.007070 0.003662
# 3 -0.000278 -0.002803 0.025954 -0.001399 0.008354 0.000491
# 4 0.001104 0.002953 -0.001399 0.032222 -0.000033 0.001208
# 5 -0.002945 -0.007070 0.008354 -0.000033 0.044149 -0.004662
# 6 0.002057 0.003662 0.000491 0.001208 -0.004662 0.026828
#
#
# Mechanical properties :
#
#
# Convention : Reuss Voigt Hill
#
# Bulk Modulus (GPa) = 23.97998 31.12748 27.55373
# Shear Modulus (GPa) = 28.27520 33.58513 30.93016
#
# Velocity S-wave (km/s) = 3.47429 3.78649 3.63375
# Velocity P-wave (km/s) = 5.13141 5.69254 5.41924
#
# Compressibility (1/GPa) = 0.04170145
#
# Stress axis : x y z
#
# Youngs Moduli (GPa) = 74.22384 88.56862 38.52909
#
# Poissons Ratio (x) = 0.12637 0.01073
# Poissons Ratio (y) = 0.10590 0.10800
# Poissons Ratio (z) = 0.02066 0.24826
#
# Static dielectric constant tensor:
#      x y z
#    x 1.961850 0.032870 -0.003310 
#    y 0.032870 1.943430 0.010190 
#    z -0.003310 0.010190 1.861770 
# 
# From -- ./inp_files/455800.got.cif
#   From: 2010.05.17/outbox.cif.g08.bks.cpg/sg2_228_cif.got.tgz:455800.got - 2010.06.03 11:33:40.
