data_PCOD9105681
_publ_section_title
;
Structure prediction by ZEFSAII (Michael W. Deem and Ramdas Pophale) SiO2 
 PCOD9105681
Probable space group: P -1
;
_chemical_formula_sum "Si O2"
_cell_formula_units_Z 12
_cell_length_a 14.155703
_cell_length_b 7.456376
_cell_length_c 12.906776
_cell_angle_alpha 62.058166
_cell_angle_beta 30.563050
_cell_angle_gamma 81.124847
_cell_volume 509.167979
_symmetry_space_group_name_H-M "P -1"
_symmetry_group_IT_number 2
_symmetry_cell_setting 'triclinic'
loop_
_space_group_symop_operation_xyz
x,y,z
-x,-y,-z
loop_
_atom_site_type_symbol
_atom_site_label
_atom_site_fract_x
_atom_site_fract_y
_atom_site_fract_z
Si Si1 0.443718 0.784421 0.190013
Si Si2 0.627844 0.425626 0.476536
Si Si3 0.143635 0.134534 0.691601
Si Si4 0.077844 0.620914 0.194809
Si Si5 0.244480 0.776681 0.772563
Si Si6 0.544908 0.441635 0.085510
O O1 0.471828 0.797722 0.284834
O O2 0.582839 0.669349 0.054710
O O3 0.174741 0.594042 0.480524
O O4 0.500000 0.000000 0.000000
O O5 0.500000 0.500000 0.500000
O O6 0.740731 0.651351 0.389482
O O7 0.752382 0.362030 0.292717
O O8 0.322432 0.214135 0.409235
O O9 0.933414 0.140073 0.852052
O O10 0.110652 0.898716 0.837362
O O11 0.142873 0.615904 0.015037
O O12 0.257647 0.600902 0.092157
O O13 0.500000 0.000000 0.500000
O O14 0.500000 0.500000 0.000000
#
# Coordination Sequence:
#
# PCOD9105681 Si02
#       6
#     2   2   2   2   2   2
#     4  10  25  42  63  94 131 172 221 271 326 385
#     4  10  20  39  65  94 131 167 216 273 315 386
#     4  10  23  39  61  99 128 168 216 270 322 386
#     4  10  22  42  64  92 135 164 219 272 318 394
#     4  12  20  37  70  95 128 173 211 265 337 382
#     4  10  21  40  67  89 129 172 216 264 324 394
#
# _framework density 23.56786
#
# number of rings (size 3 to 8) (size 9 to 14) (size 15 to 20)
#    0.000    2.000    3.333    1.500    2.333    6.000 
#    0.000    0.000    7.333    0.000    0.000    0.000 
#    0.000    0.000    0.000    0.000    0.000    0.000 
#
# Total GULP energy -66980.599073 kJ/mol
# GULP energy per Si atom -5581.716589 kJ/mol
# Density = 2.351422 g / cm^3
# Si number density = 23.567860 Si / 1000 Ang^3
#
#
#
# Elastic Constant Matrix: (Units=GPa)
#
#
# Indices 1 2 3 4 5 6 
#
# 1 141.7775 56.5512 56.4830 5.7309 -4.7224 -51.3049
# 2 56.5512 122.0829 38.0586 9.8329 -2.3419 -36.6313
# 3 56.4830 38.0586 109.1165 -1.4906 10.6074 -17.9434
# 4 5.7309 9.8329 -1.4906 39.0421 -21.7841 0.1742
# 5 -4.7224 -2.3419 10.6074 -21.7841 38.2453 2.3666
# 6 -51.3049 -36.6313 -17.9434 0.1742 2.3666 59.6720
#
#
#
# Elastic Compliance Matrix: (Units=1/GPa)
#
#
# Indices 1 2 3 4 5 6 
#
# 1 0.012825 -0.001847 -0.004819 -0.000530 0.001988 0.008366
# 2 -0.001847 0.011417 -0.002169 -0.003337 -0.001127 0.004823
# 3 -0.004819 -0.002169 0.012605 -0.000826 -0.004602 -0.001500
# 4 -0.000530 -0.003337 -0.000826 0.039027 0.022421 -0.003755
# 5 0.001988 -0.001127 -0.004602 0.022421 0.040497 -0.002038
# 6 0.008366 0.004823 -0.001500 -0.003755 -0.002038 0.026553
#
#
# Mechanical properties :
#
#
# Convention : Reuss Voigt Hill
#
# Bulk Modulus (GPa) = 52.14699 75.01805 63.58252
# Shear Modulus (GPa) = 29.94235 42.18415 36.06325
#
# Velocity S-wave (km/s) = 3.56824 4.23531 3.91601
# Velocity P-wave (km/s) = 6.25706 7.47107 6.89085
#
# Compressibility (1/GPa) = 0.01917656
#
# Stress axis : x y z
#
# Youngs Moduli (GPa) = 77.97096 87.58634 79.33329
#
# Poissons Ratio (x) = 0.16181 0.38232
# Poissons Ratio (y) = 0.14404 0.17207
# Poissons Ratio (z) = 0.37576 0.18997
#
# Static dielectric constant tensor:
#      x y z
#    x 1.870840 0.052760 -0.091950 
#    y 0.052760 1.931940 -0.046380 
#    z -0.091950 -0.046380 2.044390 
# 
# From -- ./inp_files/444106.got.cif
#   From: 2010.05.17/outbox.cif.g08.bks.cpg/sg2_223_cif.got.tgz:444106.got - 2010.06.03 11:33:40.
