data_PCOD9105219
_publ_section_title
;
Structure prediction by ZEFSAII (Michael W. Deem and Ramdas Pophale) SiO2 
 PCOD9105219
Probable space group: P -1
;
_chemical_formula_sum "Si O2"
_cell_formula_units_Z 16
_cell_length_a 15.535492
_cell_length_b 9.197203
_cell_length_c 22.964420
_cell_angle_alpha 130.119882
_cell_angle_beta 162.385558
_cell_angle_gamma 49.120596
_cell_volume 747.694568
_symmetry_space_group_name_H-M "P -1"
_symmetry_group_IT_number 2
_symmetry_cell_setting 'triclinic'
loop_
_space_group_symop_operation_xyz
x,y,z
-x,-y,-z
loop_
_atom_site_type_symbol
_atom_site_label
_atom_site_fract_x
_atom_site_fract_y
_atom_site_fract_z
Si Si1 0.784896 0.178298 0.975522
Si Si2 0.830631 0.178044 0.475424
Si Si3 0.306232 0.472397 0.157528
Si Si4 0.206536 0.910187 0.437671
Si Si5 0.846531 0.576843 0.087789
Si Si6 0.668650 0.112157 0.748853
Si Si7 0.571311 0.707558 0.113966
Si Si8 0.656574 0.161100 0.114467
O O1 0.677163 0.153023 0.834276
O O2 0.531898 0.222729 0.870720
O O3 0.948779 0.362371 0.122848
O O4 0.011254 0.988796 0.089111
O O5 0.554040 0.304981 0.299109
O O6 0.741625 0.117580 0.466913
O O7 0.091910 0.297953 0.682416
O O8 0.000000 0.000000 0.500000
O O9 0.413763 0.680485 0.281059
O O10 0.228550 0.428399 0.029742
O O11 0.000000 0.500000 0.000000
O O12 0.060136 0.728060 0.276673
O O13 0.465897 0.950735 0.574781
O O14 0.976865 0.107653 0.330390
O O15 0.539271 0.645397 0.939393
O O16 0.500000 0.500000 0.000000
O O17 0.382395 0.848128 0.981926
O O18 0.500000 0.000000 0.000000
#
# Coordination Sequence:
#
# PCOD9105219 Si02
#       8
#     2   2   2   2   2   2   2   2
#     4  10  22  42  68  95 138 183 228 278 347 406
#     4  12  26  43  72 106 132 182 235 282 342 413
#     4  11  28  47  69  99 143 182 230 284 350 411
#     4  11  23  43  69  99 136 175 235 276 344 419
#     4  10  21  44  67  97 135 184 217 288 348 399
#     4  10  25  44  66  97 136 187 226 277 348 419
#     4  12  23  42  70 101 137 174 231 290 337 403
#     4  10  20  39  63  97 136 170 214 280 353 385
#
# _framework density 21.399111000000001
#
# number of rings (size 3 to 8) (size 9 to 14) (size 15 to 20)
#    0.000    1.250    3.750    1.500   10.500    0.500 
#    2.250    4.375    0.000    0.000    0.000    0.000 
#    0.000    0.000    0.000    0.000    0.000    0.000 
#
# Total GULP energy -89307.635869 kJ/mol
# GULP energy per Si atom -5581.727242 kJ/mol
# Density = 2.135041 g / cm^3
# Si number density = 21.399111 Si / 1000 Ang^3
#
#
#
# Elastic Constant Matrix: (Units=GPa)
#
#
# Indices 1 2 3 4 5 6 
#
# 1 77.5056 20.7335 28.1741 -11.5352 4.8928 6.6842
# 2 20.7335 105.4042 42.5157 -16.1295 -4.3539 14.0023
# 3 28.1741 42.5157 55.6893 -6.9772 6.5698 13.8034
# 4 -11.5352 -16.1295 -6.9772 44.4245 4.4347 2.5600
# 5 4.8928 -4.3539 6.5698 4.4347 31.9375 1.7762
# 6 6.6842 14.0023 13.8034 2.5600 1.7762 27.9678
#
#
#
# Elastic Compliance Matrix: (Units=1/GPa)
#
#
# Indices 1 2 3 4 5 6 
#
# 1 0.016263 0.000528 -0.007962 0.003312 -0.001217 -0.000448
# 2 0.000528 0.014871 -0.010945 0.003591 0.003852 -0.002743
# 3 -0.007962 -0.010945 0.033326 0.000361 -0.006696 -0.008673
# 4 0.003312 0.003591 0.000361 0.025345 -0.003340 -0.004875
# 5 -0.001217 0.003852 -0.006696 -0.003340 0.033874 -0.000179
# 6 -0.000448 -0.002743 -0.008673 -0.004875 -0.000179 0.041974
#
#
# Mechanical properties :
#
#
# Convention : Reuss Voigt Hill
#
# Bulk Modulus (GPa) = 36.09742 46.82731 41.46237
# Shear Modulus (GPa) = 23.62449 30.67769 27.15109
#
# Velocity S-wave (km/s) = 3.32625 3.79039 3.56588
# Velocity P-wave (km/s) = 5.62647 6.40987 6.03090
#
# Compressibility (1/GPa) = 0.02770281
#
# Stress axis : x y z
#
# Youngs Moduli (GPa) = 61.48752 67.24370 30.00683
#
# Poissons Ratio (x) = -0.03553 0.23891
# Poissons Ratio (y) = -0.03249 0.32843
# Poissons Ratio (z) = 0.48956 0.73600
#
# Static dielectric constant tensor:
#      x y z
#    x 1.788940 -0.008210 0.016650 
#    y -0.008210 1.848740 0.010740 
#    z 0.016650 0.010740 1.802250 
# 
# From -- ./inp_files/597449.got.cif
#   From: 2010.05.17/outbox.cif.g08.bks.cpg/sg2_299_cif.got.tgz:597449.got - 2010.06.03 11:33:40.
