data_PCOD9105993
_publ_section_title
;
Structure prediction by ZEFSAII (Michael W. Deem and Ramdas Pophale) SiO2 
 PCOD9105993
Probable space group: P -1
;
_chemical_formula_sum "Si O2"
_cell_formula_units_Z 16
_cell_length_a 9.634408
_cell_length_b 12.108069
_cell_length_c 11.189265
_cell_angle_alpha 86.614604
_cell_angle_beta 52.754492
_cell_angle_gamma 120.169642
_cell_volume 763.016727
_symmetry_space_group_name_H-M "P -1"
_symmetry_group_IT_number 2
_symmetry_cell_setting 'triclinic'
loop_
_space_group_symop_operation_xyz
x,y,z
-x,-y,-z
loop_
_atom_site_type_symbol
_atom_site_label
_atom_site_fract_x
_atom_site_fract_y
_atom_site_fract_z
Si Si1 0.205946 0.361997 0.375439
Si Si2 0.885447 0.370197 0.669177
Si Si3 0.534602 0.885243 0.514951
Si Si4 0.415805 0.087952 0.022170
Si Si5 0.991620 0.385700 0.253925
Si Si6 0.716100 0.861752 0.663664
Si Si7 0.659902 0.614238 0.023541
Si Si8 0.017903 0.030619 0.127996
O O1 0.296863 0.276154 0.332233
O O2 0.449990 0.536453 0.233442
O O3 0.037842 0.324894 0.574164
O O4 0.051369 0.327821 0.339048
O O5 0.000000 0.500000 0.500000
O O6 0.920116 0.455916 0.764913
O O7 0.607939 0.224044 0.822380
O O8 0.284495 0.726712 0.618227
O O9 0.596111 0.878427 0.618602
O O10 0.500000 0.000000 0.500000
O O11 0.759186 0.940282 0.319941
O O12 0.397326 0.144354 0.153866
O O13 0.152495 0.983706 0.115340
O O14 0.500000 0.000000 0.000000
O O15 0.143249 0.397011 0.067542
O O16 0.000000 0.000000 0.500000
O O17 0.500000 0.500000 0.000000
O O18 0.813288 0.792666 0.931676
O O19 0.000000 0.000000 0.000000
#
# Coordination Sequence:
#
# PCOD9105993 Si02
#       8
#     2   2   2   2   2   2   2   2
#     4  10  21  39  70  97 130 177 237 290 350 417
#     4  10  22  40  70 103 137 179 240 290 351 431
#     4  12  26  44  69 101 140 189 235 292 361 433
#     4  12  26  45  70 105 140 187 238 299 359 423
#     4  10  20  39  66  98 132 175 233 288 345 421
#     4  12  24  45  68  97 140 187 239 293 354 429
#     4  10  20  41  69  98 135 184 236 281 342 432
#     4  12  27  43  70 107 146 179 235 301 365 417
#
# _framework density 20.969396
#
# number of rings (size 3 to 8) (size 9 to 14) (size 15 to 20)
#    0.000    1.000    2.500    6.000    7.000    0.000 
#    0.000    4.375    0.000    0.000    0.000    0.000 
#    0.000    0.000    0.000    0.000    0.000    0.000 
#
# Total GULP energy -89254.208882 kJ/mol
# GULP energy per Si atom -5578.388055 kJ/mol
# Density = 2.092167 g / cm^3
# Si number density = 20.969396 Si / 1000 Ang^3
#
#
#
# Elastic Constant Matrix: (Units=GPa)
#
#
# Indices 1 2 3 4 5 6 
#
# 1 134.7532 33.0849 47.6511 11.3139 -21.7428 -4.6870
# 2 33.0849 60.0806 18.3378 10.1804 -14.2872 -7.4577
# 3 47.6511 18.3378 155.5089 7.9054 -34.9357 -2.1971
# 4 11.3139 10.1804 7.9054 47.8506 2.1306 -13.8696
# 5 -21.7428 -14.2872 -34.9357 2.1306 42.5048 3.4025
# 6 -4.6870 -7.4577 -2.1971 -13.8696 3.4025 27.2673
#
#
#
# Elastic Compliance Matrix: (Units=1/GPa)
#
#
# Indices 1 2 3 4 5 6 
#
# 1 0.009506 -0.004004 -0.001921 -0.001328 0.002049 -0.000547
# 2 -0.004004 0.020852 0.000060 -0.002863 0.004917 0.002949
# 3 -0.001921 0.000060 0.008461 -0.001580 0.006168 -0.001206
# 4 -0.001328 -0.002863 -0.001580 0.026013 -0.005266 0.012750
# 5 0.002049 0.004917 0.006168 -0.005266 0.031918 -0.004467
# 6 -0.000547 0.002949 -0.001206 0.012750 -0.004467 0.044332
#
#
# Mechanical properties :
#
#
# Convention : Reuss Voigt Hill
#
# Bulk Modulus (GPa) = 36.91543 60.94336 48.92940
# Shear Modulus (GPa) = 30.89437 40.27579 35.58508
#
# Velocity S-wave (km/s) = 3.84253 4.38733 4.12394
# Velocity P-wave (km/s) = 6.10978 7.40209 6.78676
#
# Compressibility (1/GPa) = 0.02708894
#
# Stress axis : x y z
#
# Youngs Moduli (GPa) = 105.19254 47.95763 118.19137
#
# Poissons Ratio (x) = 0.19204 0.22702
# Poissons Ratio (y) = 0.42123 -0.00711
# Poissons Ratio (z) = 0.20205 -0.00288
#
# Static dielectric constant tensor:
#      x y z
#    x 1.795840 0.002260 0.063410 
#    y 0.002260 1.919160 0.052460 
#    z 0.063410 0.052460 1.856340 
# 
# From -- ./inp_files/392563.got.cif
#   From: 2010.05.17/outbox.cif.g08.bks.cpg/sg2_197_cif.got.tgz:392563.got - 2010.06.03 11:33:40.
