data_PCOD9105392
_publ_section_title
;
Structure prediction by ZEFSAII (Michael W. Deem and Ramdas Pophale) SiO2 
 PCOD9105392
Probable space group: P -1
;
_chemical_formula_sum "Si O2"
_cell_formula_units_Z 16
_cell_length_a 17.749399
_cell_length_b 9.313846
_cell_length_c 11.334372
_cell_angle_alpha 102.718093
_cell_angle_beta 27.003375
_cell_angle_gamma 109.682674
_cell_volume 786.924542
_symmetry_space_group_name_H-M "P -1"
_symmetry_group_IT_number 2
_symmetry_cell_setting 'triclinic'
loop_
_space_group_symop_operation_xyz
x,y,z
-x,-y,-z
loop_
_atom_site_type_symbol
_atom_site_label
_atom_site_fract_x
_atom_site_fract_y
_atom_site_fract_z
Si Si1 0.310822 0.401399 0.297738
Si Si2 0.864523 0.594882 0.696978
Si Si3 0.955398 0.321542 0.068050
Si Si4 0.798827 0.859936 0.424666
Si Si5 0.047694 0.209771 0.157247
Si Si6 0.484549 0.555984 0.297942
Si Si7 0.418178 0.820586 0.550332
Si Si8 0.598210 0.722714 0.470927
O O1 0.165330 0.378531 0.395649
O O2 0.286391 0.231342 0.354957
O O3 0.328693 0.503119 0.410304
O O4 0.500000 0.500000 0.000000
O O5 0.000000 0.500000 0.500000
O O6 0.933218 0.727986 0.724610
O O7 0.661005 0.520859 0.007650
O O8 0.970622 0.303181 0.184947
O O9 0.769753 0.224306 0.254347
O O10 0.000000 0.500000 0.000000
O O11 0.083953 0.236316 0.815018
O O12 0.648783 0.839377 0.532330
O O13 0.920718 0.033980 0.301359
O O14 0.238358 0.226398 0.838430
O O15 0.519486 0.736641 0.306180
O O16 0.422912 0.446381 0.477548
O O17 0.428352 0.734892 0.644044
O O18 0.500000 0.000000 0.500000
#
# Coordination Sequence:
#
# PCOD9105392 Si02
#       8
#     2   2   2   2   2   2   2   2
#     4   9  21  43  64  87 117 172 225 252 307 367
#     4  11  25  39  65  89 119 169 227 262 296 372
#     4  11  24  36  62 101 133 164 204 257 332 398
#     4  10  21  40  65  90 130 167 198 265 328 383
#     4  11  22  40  62  93 133 161 206 266 329 374
#     4  10  22  41  66  85 127 165 202 265 310 378
#     4  12  22  34  60  99 131 157 197 254 327 388
#     4  10  20  39  64  93 123 165 204 246 329 394
#
# _framework density 20.332318999999998
#
# number of rings (size 3 to 8) (size 9 to 14) (size 15 to 20)
#    0.000    1.500    1.250    5.625    5.250    0.500 
#    0.000    0.000    5.500    2.250    0.000    0.000 
#    0.000    0.000    0.000    0.000    0.000    0.000 
#
# Total GULP energy -89089.375897 kJ/mol
# GULP energy per Si atom -5568.085994 kJ/mol
# Density = 2.028604 g / cm^3
# Si number density = 20.332319 Si / 1000 Ang^3
#
#
#
# Elastic Constant Matrix: (Units=GPa)
#
#
# Indices 1 2 3 4 5 6 
#
# 1 185.5217 44.0240 13.6085 -0.7772 -10.2809 13.1288
# 2 44.0240 118.7359 15.8274 -18.6215 10.1924 17.3757
# 3 13.6085 15.8274 55.8915 -1.9521 -4.3329 -0.9118
# 4 -0.7772 -18.6215 -1.9521 18.5010 -1.0250 -2.2645
# 5 -10.2809 10.1924 -4.3329 -1.0250 29.8880 -3.2370
# 6 13.1288 17.3757 -0.9118 -2.2645 -3.2370 29.0546
#
#
#
# Elastic Compliance Matrix: (Units=1/GPa)
#
#
# Indices 1 2 3 4 5 6 
#
# 1 0.006309 -0.002723 -0.000655 -0.002528 0.002795 -0.001128
# 2 -0.002723 0.013185 -0.003252 0.011669 -0.006213 -0.006540
# 3 -0.000655 -0.003252 0.019314 -0.000643 0.004013 0.003244
# 4 -0.002528 0.011669 -0.000643 0.065334 -0.002818 -0.001078
# 5 0.002795 -0.006213 0.004013 -0.002818 0.037734 0.006563
# 6 -0.001128 -0.006540 0.003244 -0.001078 0.006563 0.039588
#
#
# Mechanical properties :
#
#
# Convention : Reuss Voigt Hill
#
# Bulk Modulus (GPa) = 39.14120 56.34099 47.74110
# Shear Modulus (GPa) = 24.60158 34.60133 29.60146
#
# Velocity S-wave (km/s) = 3.48224 4.12975 3.81974
# Velocity P-wave (km/s) = 5.95488 7.10704 6.55632
#
# Compressibility (1/GPa) = 0.02554852
#
# Stress axis : x y z
#
# Youngs Moduli (GPa) = 158.51509 75.84089 51.77694
#
# Poissons Ratio (x) = 0.20651 0.03391
# Poissons Ratio (y) = 0.43163 0.16836
# Poissons Ratio (z) = 0.10382 0.24661
#
# Static dielectric constant tensor:
#      x y z
#    x 1.819010 0.026580 0.018100 
#    y 0.026580 1.747730 0.024590 
#    z 0.018100 0.024590 1.778320 
# 
# From -- ./inp_files/462183.got.cif
#   From: 2010.05.17/outbox.cif.g08.bks.cpg/sg2_232_cif.got.tgz:462183.got - 2010.06.03 11:33:40.
