data_PCOD9105293
_publ_section_title
;
Structure prediction by ZEFSAII (Michael W. Deem and Ramdas Pophale) SiO2 
 PCOD9105293
Probable space group: P -1
;
_chemical_formula_sum "Si O2"
_cell_formula_units_Z 16
_cell_length_a 10.944116
_cell_length_b 12.151405
_cell_length_c 8.728980
_cell_angle_alpha 116.538954
_cell_angle_beta 60.179162
_cell_angle_gamma 137.225882
_cell_volume 677.327069
_symmetry_space_group_name_H-M "P -1"
_symmetry_group_IT_number 2
_symmetry_cell_setting 'triclinic'
loop_
_space_group_symop_operation_xyz
x,y,z
-x,-y,-z
loop_
_atom_site_type_symbol
_atom_site_label
_atom_site_fract_x
_atom_site_fract_y
_atom_site_fract_z
Si Si1 0.497706 0.783394 0.522057
Si Si2 0.070823 0.456488 0.290670
Si Si3 0.787716 0.363408 0.982360
Si Si4 0.855980 0.768243 0.808697
Si Si5 0.289897 0.862728 0.864710
Si Si6 0.667085 0.497831 0.358972
Si Si7 0.816360 0.817213 0.521202
Si Si8 0.273014 0.086448 0.835662
O O1 0.453290 0.889991 0.684729
O O2 0.327716 0.594561 0.560491
O O3 0.660998 0.810742 0.532591
O O4 0.561142 0.826434 0.335503
O O5 0.193924 0.608388 0.191698
O O6 0.172089 0.391442 0.244705
O O7 0.000000 0.500000 0.500000
O O8 0.897585 0.298244 0.202407
O O9 0.711687 0.193646 0.998608
O O10 0.669340 0.408553 0.157237
O O11 0.000000 0.500000 0.000000
O O12 0.783527 0.769789 0.690330
O O13 0.758997 0.793733 0.015213
O O14 0.078644 0.929266 0.779350
O O15 0.298118 0.011651 0.919717
O O16 0.500000 0.500000 0.500000
O O17 0.834583 0.691504 0.357658
O O18 0.000000 0.000000 0.500000
#
# Coordination Sequence:
#
# PCOD9105293 Si02
#       8
#     2   2   2   2   2   2   2   2
#     4  10  20  39  64  88 125 170 210 258 329 382
#     4  10  22  38  61  94 127 163 217 271 313 376
#     4   9  19  36  61  89 119 171 210 255 320 381
#     4  10  23  37  60  92 126 157 220 266 313 377
#     4   9  20  39  62  90 123 168 215 253 323 392
#     4   9  21  36  62  89 124 163 213 257 318 385
#     4  11  22  38  61  91 124 165 215 266 312 375
#     4  10  20  40  61  91 124 169 208 262 321 386
#
# _framework density 23.622266
#
# number of rings (size 3 to 8) (size 9 to 14) (size 15 to 20)
#    0.000    2.250    1.250    0.375    8.750    2.000 
#    0.000    5.000    0.000    1.500    0.000    0.000 
#    0.000    0.000    0.000    0.000    0.000    0.000 
#
# Total GULP energy -89378.018256 kJ/mol
# GULP energy per Si atom -5586.126141 kJ/mol
# Density = 2.356850 g / cm^3
# Si number density = 23.622266 Si / 1000 Ang^3
#
#
#
# Elastic Constant Matrix: (Units=GPa)
#
#
# Indices 1 2 3 4 5 6 
#
# 1 85.6837 35.8146 27.7764 0.2857 6.7357 -25.1200
# 2 35.8146 85.7644 46.4114 -7.8783 0.2176 -32.8856
# 3 27.7764 46.4114 128.0362 -24.1394 5.4610 -31.2396
# 4 0.2857 -7.8783 -24.1394 34.7549 -7.6442 3.8374
# 5 6.7357 0.2176 5.4610 -7.6442 34.1780 1.6654
# 6 -25.1200 -32.8856 -31.2396 3.8374 1.6654 32.6379
#
#
#
# Elastic Compliance Matrix: (Units=1/GPa)
#
#
# Indices 1 2 3 4 5 6 
#
# 1 0.016278 -0.003199 -0.000488 -0.003181 -0.004281 0.009431
# 2 -0.003199 0.020502 -0.002794 0.001136 0.000452 0.015365
# 3 -0.000488 -0.002794 0.012097 0.006783 -0.000673 0.007625
# 4 -0.003181 0.001136 0.006783 0.035323 0.007404 0.000658
# 5 -0.004281 0.000452 -0.000673 0.007404 0.032155 -0.005995
# 6 0.009431 0.015365 0.007625 0.000658 -0.005995 0.060906
#
#
# Mechanical properties :
#
#
# Convention : Reuss Voigt Hill
#
# Bulk Modulus (GPa) = 27.84279 57.72101 42.78190
# Shear Modulus (GPa) = 24.72860 32.94629 28.83745
#
# Velocity S-wave (km/s) = 3.23899 3.73864 3.49775
# Velocity P-wave (km/s) = 5.07940 6.56693 5.87047
#
# Compressibility (1/GPa) = 0.03591593
#
# Stress axis : x y z
#
# Youngs Moduli (GPa) = 61.43267 48.77462 82.66677
#
# Poissons Ratio (x) = 0.15601 0.04034
# Poissons Ratio (y) = 0.19650 0.23098
# Poissons Ratio (z) = 0.02998 0.13628
#
# Static dielectric constant tensor:
#      x y z
#    x 1.973270 0.127580 -0.012280 
#    y 0.127580 2.018240 -0.032910 
#    z -0.012280 -0.032910 1.869240 
# 
# From -- ./inp_files/259440.got.cif
#   From: 2010.05.17/outbox.cif.g08.bks.cpg/sg2_130_cif.got.tgz:259440.got - 2010.06.03 11:33:40.
