data_PCOD9105787
_publ_section_title
;
Structure prediction by ZEFSAII (Michael W. Deem and Ramdas Pophale) SiO2 
 PCOD9105787
Probable space group: P -1
;
_chemical_formula_sum "Si O2"
_cell_formula_units_Z 16
_cell_length_a 12.500823
_cell_length_b 5.425617
_cell_length_c 12.347232
_cell_angle_alpha 102.127123
_cell_angle_beta 82.792471
_cell_angle_gamma 123.001218
_cell_volume 686.596898
_symmetry_space_group_name_H-M "P -1"
_symmetry_group_IT_number 2
_symmetry_cell_setting 'triclinic'
loop_
_space_group_symop_operation_xyz
x,y,z
-x,-y,-z
loop_
_atom_site_type_symbol
_atom_site_label
_atom_site_fract_x
_atom_site_fract_y
_atom_site_fract_z
Si Si1 0.019779 0.983337 0.734666
Si Si2 0.647357 0.118696 0.492621
Si Si3 0.420765 0.633237 0.072362
Si Si4 0.887771 0.148676 0.081562
Si Si5 0.874589 0.230508 0.861614
Si Si6 0.666486 0.284929 0.133055
Si Si7 0.272074 0.336817 0.627467
Si Si8 0.253165 0.608729 0.262349
O O1 0.098903 0.030958 0.839951
O O2 0.892247 0.658081 0.720834
O O3 0.122506 0.084845 0.637954
O O4 0.963830 0.192022 0.764487
O O5 0.711986 0.408430 0.432833
O O6 0.694066 0.222043 0.617854
O O7 0.500000 0.000000 0.500000
O O8 0.666118 0.851254 0.431465
O O9 0.339744 0.507884 0.181978
O O10 0.531177 0.971482 0.120756
O O11 0.500000 0.500000 0.000000
O O12 0.331650 0.603148 0.979038
O O13 0.783104 0.232714 0.130371
O O14 0.034195 0.428352 0.080818
O O15 0.851570 0.035427 0.953055
O O16 0.755251 0.185207 0.808932
O O17 0.672785 0.492286 0.248991
#
# Coordination Sequence:
#
# PCOD9105787 Si02
#       8
#     2   2   2   2   2   2   2   2
#     4  11  25  40  75 109 150 200 246 323 386 461
#     4  12  30  55  82 110 151 211 264 323 375 458
#     4  11  27  44  72 109 151 203 246 323 387 462
#     4  10  20  39  66 107 149 196 247 299 386 461
#     4  10  21  40  65 104 152 192 244 308 385 458
#     4  11  24  44  71 109 150 194 255 317 383 455
#     4  12  28  51  81 114 150 203 267 318 380 457
#     4  11  27  47  71 110 154 201 259 318 393 457
#
# _framework density 23.303336999999999
#
# number of rings (size 3 to 8) (size 9 to 14) (size 15 to 20)
#    0.000    1.000    2.500    2.250   10.500    1.000 
#    0.000    0.000    0.000    0.000    0.000    0.000 
#    0.000    0.000    0.000    0.000    0.000    0.000 
#
# Total GULP energy -89424.360307 kJ/mol
# GULP energy per Si atom -5589.022519 kJ/mol
# Density = 2.325030 g / cm^3
# Si number density = 23.303337 Si / 1000 Ang^3
#
#
#
# Elastic Constant Matrix: (Units=GPa)
#
#
# Indices 1 2 3 4 5 6 
#
# 1 120.7234 28.6678 64.9234 20.2155 -6.0411 -1.2596
# 2 28.6678 79.3041 48.1330 13.8914 7.2444 4.0394
# 3 64.9234 48.1330 151.9567 30.5054 1.5639 3.4300
# 4 20.2155 13.8914 30.5054 39.3197 -4.2223 3.3542
# 5 -6.0411 7.2444 1.5639 -4.2223 41.7074 7.1647
# 6 -1.2596 4.0394 3.4300 3.3542 7.1647 34.3582
#
#
#
# Elastic Compliance Matrix: (Units=1/GPa)
#
#
# Indices 1 2 3 4 5 6 
#
# 1 0.011190 -0.001494 -0.003928 -0.002068 0.001675 0.000831
# 2 -0.001494 0.016286 -0.004052 -0.002099 -0.002979 -0.000739
# 3 -0.003928 -0.004052 0.010510 -0.004773 -0.000725 -0.000100
# 4 -0.002068 -0.002099 -0.004773 0.031651 0.004011 -0.003279
# 5 0.001675 -0.002979 -0.000725 0.004011 0.026089 -0.005348
# 6 0.000831 -0.000739 -0.000100 -0.003279 -0.005348 0.030668
#
#
# Mechanical properties :
#
#
# Convention : Reuss Voigt Hill
#
# Bulk Modulus (GPa) = 52.52490 70.60364 61.56427
# Shear Modulus (GPa) = 32.96247 37.09437 35.02842
#
# Velocity S-wave (km/s) = 3.76506 3.99407 3.88125
# Velocity P-wave (km/s) = 6.44123 7.18565 6.82360
#
# Compressibility (1/GPa) = 0.01903859
#
# Stress axis : x y z
#
# Youngs Moduli (GPa) = 89.36881 61.40104 95.14330
#
# Poissons Ratio (x) = 0.09171 0.37376
# Poissons Ratio (y) = 0.13349 0.38551
# Poissons Ratio (z) = 0.35107 0.24879
#
# Static dielectric constant tensor:
#      x y z
#    x 1.928360 -0.016000 -0.008330 
#    y -0.016000 1.965060 -0.044970 
#    z -0.008330 -0.044970 1.881000 
# 
# From -- ./inp_files/410788.got.cif
#   From: 2010.05.17/outbox.cif.g08.bks.cpg/sg2_206_cif.got.tgz:410788.got - 2010.06.03 11:33:40.
