data_PCOD9105702
_publ_section_title
;
Structure prediction by ZEFSAII (Michael W. Deem and Ramdas Pophale) SiO2 
 PCOD9105702
Probable space group: P -1
;
_chemical_formula_sum "Si O2"
_cell_formula_units_Z 16
_cell_length_a 21.494632
_cell_length_b 11.824882
_cell_length_c 16.326342
_cell_angle_alpha 154.835560
_cell_angle_beta 23.820208
_cell_angle_gamma 141.298094
_cell_volume 684.731975
_symmetry_space_group_name_H-M "P -1"
_symmetry_group_IT_number 2
_symmetry_cell_setting 'triclinic'
loop_
_space_group_symop_operation_xyz
x,y,z
-x,-y,-z
loop_
_atom_site_type_symbol
_atom_site_label
_atom_site_fract_x
_atom_site_fract_y
_atom_site_fract_z
Si Si1 0.166124 0.759320 0.630121
Si Si2 0.888962 0.707487 0.708277
Si Si3 0.933607 0.633632 0.327450
Si Si4 0.543054 0.216272 0.312608
Si Si5 0.766562 0.783967 0.219133
Si Si6 0.357710 0.274598 0.844802
Si Si7 0.091318 0.924251 0.203757
Si Si8 0.393795 0.395587 0.244665
O O1 0.132380 0.475642 0.462131
O O2 0.294353 0.652249 0.475963
O O3 0.245819 0.890589 0.548031
O O4 0.000000 0.000000 0.000000
O O5 0.000000 0.500000 0.500000
O O6 0.964053 0.932573 0.723600
O O7 0.728005 0.762452 0.990604
O O8 0.754345 0.598501 0.510462
O O9 0.997986 0.721487 0.222006
O O10 0.917986 0.868369 0.571002
O O11 0.076054 0.384733 0.031782
O O12 0.500000 0.500000 0.500000
O O13 0.396166 0.260025 0.580038
O O14 0.719694 0.193013 0.118328
O O15 0.559980 0.919127 0.052866
O O16 0.759782 0.723877 0.090217
O O17 0.440700 0.521618 0.888535
O O18 0.500000 0.000000 0.500000
#
# Coordination Sequence:
#
# PCOD9105702 Si02
#       8
#     2   2   2   2   2   2   2   2
#     4  12  22  40  68 101 137 181 235 285 346 423
#     4  12  25  42  69 104 142 176 229 292 354 413
#     4  10  20  39  69  92 127 180 232 270 328 422
#     4  11  22  41  69  99 135 179 237 285 341 412
#     4  12  23  40  68 100 135 181 229 282 350 411
#     4  12  26  41  66 104 146 179 221 295 354 403
#     4  10  20  39  65  95 128 177 227 276 337 408
#     4  11  24  43  67 105 136 180 234 285 348 411
#
# _framework density 23.366807000000001
#
# number of rings (size 3 to 8) (size 9 to 14) (size 15 to 20)
#    0.000    0.750    6.250    3.000    0.000    1.000 
#    0.000    0.625    2.750    2.250    0.000    0.000 
#    0.000    0.000    0.000    0.000    0.000    0.000 
#
# Total GULP energy -89110.366184 kJ/mol
# GULP energy per Si atom -5569.397886 kJ/mol
# Density = 2.331362 g / cm^3
# Si number density = 23.366807 Si / 1000 Ang^3
#
#
#
# Elastic Constant Matrix: (Units=GPa)
#
#
# Indices 1 2 3 4 5 6 
#
# 1 60.1634 48.1053 18.3677 -7.1932 -3.7788 -6.6636
# 2 48.1053 161.1508 33.4704 -16.2352 7.5378 -40.9330
# 3 18.3677 33.4704 98.3521 -9.4100 8.9473 -11.7138
# 4 -7.1932 -16.2352 -9.4100 41.2028 -6.7486 5.7157
# 5 -3.7788 7.5378 8.9473 -6.7486 21.8332 0.5632
# 6 -6.6636 -40.9330 -11.7138 5.7157 0.5632 37.2018
#
#
#
# Elastic Compliance Matrix: (Units=1/GPa)
#
#
# Indices 1 2 3 4 5 6 
#
# 1 0.024560 -0.008515 -0.003064 0.002679 0.009442 -0.006489
# 2 -0.008515 0.012151 -0.000594 0.000646 -0.005526 0.011642
# 3 -0.003064 -0.000594 0.011760 0.000761 -0.004973 0.002459
# 4 0.002679 0.000646 0.000761 0.026922 0.008324 -0.002832
# 5 0.009442 -0.005526 -0.004973 0.008324 0.054162 -0.008054
# 6 -0.006489 0.011642 0.002459 -0.002832 -0.008054 0.039859
#
#
# Mechanical properties :
#
#
# Convention : Reuss Voigt Hill
#
# Bulk Modulus (GPa) = 41.45137 57.72812 49.58974
# Shear Modulus (GPa) = 24.77658 34.69575 29.73616
#
# Velocity S-wave (km/s) = 3.25981 3.85753 3.57120
# Velocity P-wave (km/s) = 5.65211 6.67829 6.18651
#
# Compressibility (1/GPa) = 0.02412466
#
# Stress axis : x y z
#
# Youngs Moduli (GPa) = 40.71660 82.29602 85.03387
#
# Poissons Ratio (x) = 0.70075 0.26058
# Poissons Ratio (y) = 0.34670 0.05050
# Poissons Ratio (z) = 0.12477 0.04888
#
# Static dielectric constant tensor:
#      x y z
#    x 1.677080 -0.216210 0.227800 
#    y -0.216210 1.793740 0.218970 
#    z 0.227800 0.218970 1.723870 
# 
# From -- ./inp_files/579250.got.cif
#   From: 2010.05.17/outbox.cif.g08.bks.cpg/sg2_290_cif.got.tgz:579250.got - 2010.06.03 11:33:40.
