data_PCOD9105658
_publ_section_title
;
Structure prediction by ZEFSAII (Michael W. Deem and Ramdas Pophale) SiO2 
 PCOD9105658
Probable space group: P -1
;
_chemical_formula_sum "Si O2"
_cell_formula_units_Z 16
_cell_length_a 8.042668
_cell_length_b 19.371605
_cell_length_c 24.681075
_cell_angle_alpha 160.392692
_cell_angle_beta 32.691394
_cell_angle_gamma 140.173884
_cell_volume 690.393037
_symmetry_space_group_name_H-M "P -1"
_symmetry_group_IT_number 2
_symmetry_cell_setting 'triclinic'
loop_
_space_group_symop_operation_xyz
x,y,z
-x,-y,-z
loop_
_atom_site_type_symbol
_atom_site_label
_atom_site_fract_x
_atom_site_fract_y
_atom_site_fract_z
Si Si1 0.711926 0.493030 0.651355
Si Si2 0.692159 0.949388 0.119497
Si Si3 0.294578 0.314141 0.554597
Si Si4 0.783641 0.622392 0.079270
Si Si5 0.538521 0.450470 0.123239
Si Si6 0.200036 0.779624 0.297497
Si Si7 0.575823 0.592436 0.605791
Si Si8 0.652953 0.945796 0.997220
O O1 0.548831 0.326867 0.541301
O O2 0.071903 0.496100 0.542644
O O3 0.666074 0.460375 0.703810
O O4 0.553833 0.723778 0.847311
O O5 0.632491 0.723332 0.987239
O O6 0.411449 0.113427 0.338608
O O7 0.696700 0.935426 0.042644
O O8 0.020591 0.023392 0.097494
O O9 0.330432 0.508246 0.650322
O O10 0.974661 0.304656 0.665298
O O11 0.556297 0.775684 0.216560
O O12 0.136920 0.659109 0.019897
O O13 0.634489 0.608456 0.169432
O O14 0.805023 0.393628 0.876115
O O15 0.000000 0.000000 0.500000
O O16 0.500000 0.500000 0.500000
O O17 0.560765 0.839065 0.794774
#
# Coordination Sequence:
#
# PCOD9105658 Si02
#       8
#     2   2   2   2   2   2   2   2
#     4  11  24  44  63  98 144 167 220 279 329 403
#     4  10  20  39  65  93 135 173 215 268 330 397
#     4  12  24  43  67  98 135 178 216 281 342 388
#     4  10  23  46  71  96 133 176 229 287 343 395
#     4  10  21  43  73 100 131 181 227 280 341 405
#     4  11  25  47  68 102 135 174 227 289 340 401
#     4  12  23  40  67  99 132 176 226 264 332 410
#     4  10  21  40  62  93 132 177 217 262 316 404
#
# _framework density 23.175204999999998
#
# number of rings (size 3 to 8) (size 9 to 14) (size 15 to 20)
#    0.000    1.250    3.750    2.625    3.500    0.500 
#    4.500    5.625    0.000    0.000    0.000    0.000 
#    0.000    0.000    0.000    0.000    0.000    0.000 
#
# Total GULP energy -89434.031652 kJ/mol
# GULP energy per Si atom -5589.626978 kJ/mol
# Density = 2.312246 g / cm^3
# Si number density = 23.175205 Si / 1000 Ang^3
#
#
#
# Elastic Constant Matrix: (Units=GPa)
#
#
# Indices 1 2 3 4 5 6 
#
# 1 52.0145 0.5416 19.1021 -10.7740 -9.3505 12.8761
# 2 0.5416 72.9529 6.9577 -18.0971 -2.1363 -8.0765
# 3 19.1021 6.9577 70.9069 2.0316 -19.3809 -4.8063
# 4 -10.7740 -18.0971 2.0316 25.3792 -5.8118 -2.1190
# 5 -9.3505 -2.1363 -19.3809 -5.8118 22.9458 -3.5707
# 6 12.8761 -8.0765 -4.8063 -2.1190 -3.5707 28.1817
#
#
#
# Elastic Compliance Matrix: (Units=1/GPa)
#
#
# Indices 1 2 3 4 5 6 
#
# 1 0.029744 0.003659 -0.007196 0.016900 0.008895 -0.011371
# 2 0.003659 0.018980 -0.000769 0.017470 0.007961 0.005959
# 3 -0.007196 -0.000769 0.021072 -0.000931 0.015898 0.008606
# 4 0.016900 0.017470 -0.000931 0.065286 0.025074 0.005212
# 5 0.008895 0.007961 0.015898 0.025074 0.069535 0.011625
# 6 -0.011371 0.005959 0.008606 0.005212 0.011625 0.045719
#
#
# Mechanical properties :
#
#
# Convention : Reuss Voigt Hill
#
# Bulk Modulus (GPa) = 16.34363 27.67525 22.00944
# Shear Modulus (GPa) = 17.89916 26.58620 22.24268
#
# Velocity S-wave (km/s) = 2.78212 3.39068 3.10136
# Velocity P-wave (km/s) = 4.16986 5.22462 4.72675
#
# Compressibility (1/GPa) = 0.06118593
#
# Stress axis : x y z
#
# Youngs Moduli (GPa) = 33.61980 52.68680 47.45554
#
# Poissons Ratio (x) = -0.19280 0.34149
# Poissons Ratio (y) = -0.12303 0.03649
# Poissons Ratio (z) = 0.24193 0.04051
#
# Static dielectric constant tensor:
#      x y z
#    x 1.900490 -0.017340 -0.012970 
#    y -0.017340 1.864990 0.014890 
#    z -0.012970 0.014890 1.868590 
# 
# From -- ./inp_files/617550.got.cif
#   From: 2010.05.17/outbox.cif.g08.bks.cpg/sg2_309_cif.got.tgz:617550.got - 2010.06.03 11:33:40.
