data_PCOD9105855
_publ_section_title
;
Structure prediction by ZEFSAII (Michael W. Deem and Ramdas Pophale) SiO2 
 PCOD9105855
Probable space group: P -1
;
_chemical_formula_sum "Si O2"
_cell_formula_units_Z 14
_cell_length_a 5.858802
_cell_length_b 5.391126
_cell_length_c 26.828515
_cell_angle_alpha 128.322422
_cell_angle_beta 120.885774
_cell_angle_gamma 76.189631
_cell_volume 566.532382
_symmetry_space_group_name_H-M "P -1"
_symmetry_group_IT_number 2
_symmetry_cell_setting 'triclinic'
loop_
_space_group_symop_operation_xyz
x,y,z
-x,-y,-z
loop_
_atom_site_type_symbol
_atom_site_label
_atom_site_fract_x
_atom_site_fract_y
_atom_site_fract_z
Si Si1 0.636306 0.682286 0.989601
Si Si2 0.194326 0.114436 0.252005
Si Si3 0.877640 0.878243 0.868426
Si Si4 0.557665 0.598884 0.242774
Si Si5 0.951407 0.367251 0.631386
Si Si6 0.180430 0.383026 0.459641
Si Si7 0.272058 0.336988 0.833641
O O1 0.553020 0.439494 0.904868
O O2 0.500000 0.500000 0.000000
O O3 0.500000 0.000000 0.000000
O O4 0.944909 0.815112 0.051725
O O5 0.252584 0.118822 0.200692
O O6 0.219885 0.432314 0.325935
O O7 0.357775 0.857844 0.264278
O O8 0.881902 0.972727 0.196932
O O9 0.617105 0.695486 0.842515
O O10 0.090472 0.620192 0.857914
O O11 0.741433 0.737959 0.235273
O O12 0.745738 0.565114 0.305943
O O13 0.941916 0.498606 0.590842
O O14 0.851576 0.996571 0.581904
O O15 0.500000 0.500000 0.500000
O O16 0.000000 0.500000 0.500000
#
# Coordination Sequence:
#
# PCOD9105855 Si02
#       7
#     2   2   2   2   2   2   2
#     4  10  20  39  66  90 138 205 255 318 397 440
#     4  11  24  43  71 107 150 194 256 318 385 456
#     4  10  22  39  66  98 146 196 258 326 378 457
#     4  11  26  42  71 112 148 196 256 323 381 460
#     4  12  28  52  84 117 159 206 248 317 388 468
#     4  12  31  59  89 124 166 209 258 313 386 482
#     4  10  21  43  62  98 147 196 259 323 383 452
#
# _framework density 24.711736999999999
#
# number of rings (size 3 to 8) (size 9 to 14) (size 15 to 20)
#    0.000    1.143    2.857    1.714    8.000    0.571 
#    0.000    0.714    0.000    0.000    0.000    0.000 
#    0.000    0.000    0.000    0.000    0.000    0.000 
#
# Total GULP energy -78194.741496 kJ/mol
# GULP energy per Si atom -5585.338678 kJ/mol
# Density = 2.465549 g / cm^3
# Si number density = 24.711737 Si / 1000 Ang^3
#
#
#
# Elastic Constant Matrix: (Units=GPa)
#
#
# Indices 1 2 3 4 5 6 
#
# 1 79.7830 23.0114 47.6183 -3.7886 6.9802 -0.2293
# 2 23.0114 119.3723 54.6787 -4.9608 -6.6109 11.2528
# 3 47.6183 54.6787 123.5636 1.0559 -9.0063 10.9419
# 4 -3.7886 -4.9608 1.0559 65.9817 -3.8354 -4.2675
# 5 6.9802 -6.6109 -9.0063 -3.8354 43.8437 -7.7032
# 6 -0.2293 11.2528 10.9419 -4.2675 -7.7032 43.9467
#
#
#
# Elastic Compliance Matrix: (Units=1/GPa)
#
#
# Indices 1 2 3 4 5 6 
#
# 1 0.017111 -0.000492 -0.006783 0.000913 -0.003881 0.001313
# 2 -0.000492 0.010677 -0.004368 0.000784 0.000602 -0.001467
# 3 -0.006783 -0.004368 0.013001 -0.000883 0.002705 -0.001766
# 4 0.000913 0.000784 -0.000883 0.015481 0.001459 0.001783
# 5 -0.003881 0.000602 0.002705 0.001459 0.024841 0.003648
# 6 0.001313 -0.001467 -0.001766 0.001783 0.003648 0.024390
#
#
# Mechanical properties :
#
#
# Convention : Reuss Voigt Hill
#
# Bulk Modulus (GPa) = 57.13522 63.70398 60.41960
# Shear Modulus (GPa) = 37.14077 43.91512 40.52795
#
# Velocity S-wave (km/s) = 3.88101 4.22013 4.05412
# Velocity P-wave (km/s) = 6.57677 7.04137 6.81303
#
# Compressibility (1/GPa) = 0.01750234
#
# Stress axis : x y z
#
# Youngs Moduli (GPa) = 58.44070 93.65901 76.91641
#
# Poissons Ratio (x) = 0.04609 0.52176
# Poissons Ratio (y) = 0.02876 0.33597
# Poissons Ratio (z) = 0.39643 0.40910
#
# Static dielectric constant tensor:
#      x y z
#    x 1.942920 0.017440 0.040360 
#    y 0.017440 1.933040 0.020880 
#    z 0.040360 0.020880 1.936240 
# 
# From -- ./inp_files/10185.got.cif
#   From: 2010.05.17/outbox.cif.g08.bks.cpg/sg2_6_cif.got.tgz:10185.got - 2010.06.03 11:33:40.
