data_PCOD9105115
_publ_section_title
;
Structure prediction by ZEFSAII (Michael W. Deem and Ramdas Pophale) SiO2 
 PCOD9105115
Probable space group: P -1
;
_chemical_formula_sum "Si O2"
_cell_formula_units_Z 14
_cell_length_a 16.908379
_cell_length_b 23.365454
_cell_length_c 5.241936
_cell_angle_alpha 93.027317
_cell_angle_beta 94.564620
_cell_angle_gamma 18.003223
_cell_volume 636.275801
_symmetry_space_group_name_H-M "P -1"
_symmetry_group_IT_number 2
_symmetry_cell_setting 'triclinic'
loop_
_space_group_symop_operation_xyz
x,y,z
-x,-y,-z
loop_
_atom_site_type_symbol
_atom_site_label
_atom_site_fract_x
_atom_site_fract_y
_atom_site_fract_z
Si Si1 0.025627 0.197557 0.490474
Si Si2 0.352276 0.962021 0.021377
Si Si3 0.533129 0.233174 0.781327
Si Si4 0.188332 0.531261 0.429209
Si Si5 0.375255 0.115036 0.750499
Si Si6 0.976005 0.110396 0.496078
Si Si7 0.717127 0.187558 0.184934
O O1 0.874502 0.243810 0.549724
O O2 0.870628 0.362983 0.486790
O O3 0.119864 0.126009 0.205344
O O4 0.248226 0.049809 0.733699
O O5 0.458839 0.823671 0.026273
O O6 0.554023 0.867160 0.179120
O O7 0.258982 0.438219 0.649765
O O8 0.742217 0.069534 0.590614
O O9 0.652329 0.212310 0.891631
O O10 0.928039 0.687458 0.275097
O O11 0.448184 0.356630 0.291340
O O12 0.500000 0.000000 0.500000
O O13 0.500000 0.000000 0.000000
O O14 0.801897 0.192762 0.280899
O O15 0.055521 0.012235 0.717033
#
# Coordination Sequence:
#
# PCOD9105115 Si02
#       7
#     2   2   2   2   2   2   2
#     4  11  22  41  66  95 125 171 215 261 313 382
#     4  11  22  43  67  91 126 173 215 255 315 390
#     4  10  22  39  64  93 131 167 212 265 317 376
#     4  11  25  38  63  96 130 159 218 272 320 362
#     4  12  24  43  68  94 125 172 213 258 326 383
#     4   9  20  39  64  91 123 179 212 249 321 392
#     4  10  20  39  63  91 132 164 214 263 318 375
#
# _framework density 22.003038
#
# number of rings (size 3 to 8) (size 9 to 14) (size 15 to 20)
#    0.000    1.429    4.286    0.429    4.000    1.143 
#    0.000    1.429    0.000    0.000    0.000    0.000 
#    0.000    0.000    0.000    0.000    0.000    0.000 
#
# Total GULP energy -78011.892386 kJ/mol
# GULP energy per Si atom -5572.278028 kJ/mol
# Density = 2.195296 g / cm^3
# Si number density = 22.003038 Si / 1000 Ang^3
#
#
#
# Elastic Constant Matrix: (Units=GPa)
#
#
# Indices 1 2 3 4 5 6 
#
# 1 96.1965 28.3941 4.4687 0.8433 24.9955 10.1896
# 2 28.3941 70.9814 26.9645 -12.0349 -1.9926 7.0126
# 3 4.4687 26.9645 95.2783 -1.9718 8.2679 1.3742
# 4 0.8433 -12.0349 -1.9718 21.8167 6.7373 0.3439
# 5 24.9955 -1.9926 8.2679 6.7373 41.0807 -2.7538
# 6 10.1896 7.0126 1.3742 0.3439 -2.7538 26.6247
#
#
#
# Elastic Compliance Matrix: (Units=1/GPa)
#
#
# Indices 1 2 3 4 5 6 
#
# 1 0.015685 -0.007053 0.002232 -0.000958 -0.010535 -0.005338
# 2 -0.007053 0.021172 -0.005830 0.010008 0.004701 -0.002219
# 3 0.002232 -0.005830 0.012374 -0.000943 -0.004000 -0.000359
# 4 -0.000958 0.010008 -0.000943 0.053780 -0.007812 -0.003724
# 5 -0.010535 0.004701 -0.004000 -0.007812 0.033507 0.006567
# 6 -0.005338 -0.002219 -0.000359 -0.003724 0.006567 0.040932
#
#
# Mechanical properties :
#
#
# Convention : Reuss Voigt Hill
#
# Bulk Modulus (GPa) = 35.80554 42.45676 39.13115
# Shear Modulus (GPa) = 24.03129 31.41301 27.72215
#
# Velocity S-wave (km/s) = 3.30840 3.78255 3.55339
# Velocity P-wave (km/s) = 5.55899 6.19795 5.88715
#
# Compressibility (1/GPa) = 0.02792864
#
# Stress axis : x y z
#
# Youngs Moduli (GPa) = 63.75611 47.23144 80.81704
#
# Poissons Ratio (x) = 0.33312 -0.18036
# Poissons Ratio (y) = 0.44966 0.47116
# Poissons Ratio (z) = -0.14229 0.27536
#
# Static dielectric constant tensor:
#      x y z
#    x 1.884280 -0.004840 -0.007840 
#    y -0.004840 1.831950 0.021470 
#    z -0.007840 0.021470 1.889710 
# 
# From -- ./inp_files/112925.got.cif
#   From: 2010.05.17/outbox.cif.g08.bks.cpg/sg2_57_cif.got.tgz:112925.got - 2010.06.03 11:33:40.
