data_PCOD9105536
_publ_section_title
;
Structure prediction by ZEFSAII (Michael W. Deem and Ramdas Pophale) SiO2 
 PCOD9105536
Probable space group: P -1
;
_chemical_formula_sum "Si O2"
_cell_formula_units_Z 16
_cell_length_a 8.931261
_cell_length_b 22.691933
_cell_length_c 12.825715
_cell_angle_alpha 29.304907
_cell_angle_beta 147.090527
_cell_angle_gamma 137.121580
_cell_volume 691.240696
_symmetry_space_group_name_H-M "P -1"
_symmetry_group_IT_number 2
_symmetry_cell_setting 'triclinic'
loop_
_space_group_symop_operation_xyz
x,y,z
-x,-y,-z
loop_
_atom_site_type_symbol
_atom_site_label
_atom_site_fract_x
_atom_site_fract_y
_atom_site_fract_z
Si Si1 0.619574 0.810823 0.063760
Si Si2 0.876065 0.375071 0.894491
Si Si3 0.685821 0.399191 0.518998
Si Si4 0.449502 0.631966 0.943761
Si Si5 0.850342 0.615621 0.633496
Si Si6 0.678571 0.880500 0.769417
Si Si7 0.728210 0.953605 0.467115
Si Si8 0.487782 0.295421 0.363359
O O1 0.352452 0.719175 0.049290
O O2 0.829705 0.743848 0.365327
O O3 0.774426 0.836491 0.005997
O O4 0.489758 0.937744 0.824242
O O5 0.873548 0.372854 0.769503
O O6 0.803652 0.506773 0.692533
O O7 0.190100 0.344596 0.151739
O O8 0.388517 0.379383 0.430071
O O9 0.695027 0.318471 0.544974
O O10 0.677240 0.537577 0.261850
O O11 0.508449 0.765985 0.807333
O O12 0.426935 0.634049 0.801499
O O13 0.159378 0.599006 0.877599
O O14 0.840554 0.915149 0.706882
O O15 0.500000 0.000000 0.500000
O O16 0.580104 0.840907 0.499219
O O17 0.000000 0.000000 0.500000
#
# Coordination Sequence:
#
# PCOD9105536 Si02
#       8
#     2   2   2   2   2   2   2   2
#     4  10  20  40  62  90 121 157 210 252 300 362
#     4  11  22  39  65  91 125 159 208 253 303 359
#     4  11  23  39  63  92 123 164 206 246 313 358
#     4  11  22  39  59  90 129 158 203 250 309 365
#     4  11  23  38  63  92 122 161 202 259 299 361
#     4   9  20  36  61  88 114 159 206 242 303 355
#     4  10  20  39  65  86 122 164 203 253 305 365
#     4  11  24  41  60  92 125 162 204 253 307 367
#
# _framework density 23.146784
#
# number of rings (size 3 to 8) (size 9 to 14) (size 15 to 20)
#    0.000    1.500    2.500    3.750    1.750    0.500 
#    4.500    8.125    2.750    0.000    0.000    0.000 
#    0.000    0.000    0.000    0.000    0.000    0.000 
#
# Total GULP energy -89382.414526 kJ/mol
# GULP energy per Si atom -5586.400908 kJ/mol
# Density = 2.309410 g / cm^3
# Si number density = 23.146784 Si / 1000 Ang^3
#
#
#
# Elastic Constant Matrix: (Units=GPa)
#
#
# Indices 1 2 3 4 5 6 
#
# 1 87.8015 22.9251 17.5094 -10.9872 -19.8486 -10.1471
# 2 22.9251 67.2233 29.6422 -18.7385 -7.7174 -24.9906
# 3 17.5094 29.6422 93.5219 -13.9322 -16.1834 -18.6423
# 4 -10.9872 -18.7385 -13.9322 38.4539 -1.4516 -0.7747
# 5 -19.8486 -7.7174 -16.1834 -1.4516 45.6792 3.6610
# 6 -10.1471 -24.9906 -18.6423 -0.7747 3.6610 42.6484
#
#
#
# Elastic Compliance Matrix: (Units=1/GPa)
#
#
# Indices 1 2 3 4 5 6 
#
# 1 0.013881 -0.002852 -0.000096 0.002773 0.005510 0.001167
# 2 -0.002852 0.025020 -0.003076 0.010565 0.001214 0.012726
# 3 -0.000096 -0.003076 0.013718 0.003677 0.004104 0.003886
# 4 0.002773 0.010565 0.003677 0.033629 0.004667 0.008668
# 5 0.005510 0.001214 0.004104 0.004667 0.025960 0.001673
# 6 0.001167 0.012726 0.003886 0.008668 0.001673 0.032894
#
#
# Mechanical properties :
#
#
# Convention : Reuss Voigt Hill
#
# Bulk Modulus (GPa) = 24.64752 43.18891 33.91821
# Shear Modulus (GPa) = 29.29597 37.25431 33.27514
#
# Velocity S-wave (km/s) = 3.56147 4.01619 3.79564
# Velocity P-wave (km/s) = 5.25201 6.34078 5.82190
#
# Compressibility (1/GPa) = 0.04057204
#
# Stress axis : x y z
#
# Youngs Moduli (GPa) = 72.04279 39.96834 72.89660
#
# Poissons Ratio (x) = 0.11400 0.00696
# Poissons Ratio (y) = 0.20548 0.22419
# Poissons Ratio (z) = 0.00688 0.12292
#
# Static dielectric constant tensor:
#      x y z
#    x 1.909840 -0.030490 -0.027890 
#    y -0.030490 1.906810 0.013390 
#    z -0.027890 0.013390 1.885570 
# 
# From -- ./inp_files/181543.got.cif
#   From: 2010.05.17/outbox.cif.g08.bks.cpg/sg2_91_cif.got.tgz:181543.got - 2010.06.03 11:33:40.
