data_PCOD9105003
_publ_section_title
;
Structure prediction by ZEFSAII (Michael W. Deem and Ramdas Pophale) SiO2 
 PCOD9105003
Probable space group: P -1
;
_chemical_formula_sum "Si O2"
_cell_formula_units_Z 16
_cell_length_a 7.623277
_cell_length_b 19.534482
_cell_length_c 19.036246
_cell_angle_alpha 158.427342
_cell_angle_beta 129.782133
_cell_angle_gamma 48.238103
_cell_volume 775.304694
_symmetry_space_group_name_H-M "P -1"
_symmetry_group_IT_number 2
_symmetry_cell_setting 'triclinic'
loop_
_space_group_symop_operation_xyz
x,y,z
-x,-y,-z
loop_
_atom_site_type_symbol
_atom_site_label
_atom_site_fract_x
_atom_site_fract_y
_atom_site_fract_z
Si Si1 0.026526 0.795726 0.015403
Si Si2 0.961512 0.275410 0.357928
Si Si3 0.902148 0.839934 0.281670
Si Si4 0.776143 0.510749 0.021860
Si Si5 0.331199 0.411395 0.772661
Si Si6 0.924217 0.722965 0.761439
Si Si7 0.629015 0.954075 0.662466
Si Si8 0.599450 0.104676 0.188299
O O1 0.237165 0.889315 0.180395
O O2 0.102999 0.573002 0.842735
O O3 0.784871 0.935830 0.115621
O O4 0.993076 0.807069 0.932518
O O5 0.973252 0.495690 0.570541
O O6 0.754092 0.237956 0.319177
O O7 0.937249 0.229587 0.225642
O O8 0.207307 0.150931 0.332697
O O9 0.895215 0.668569 0.170683
O O10 0.638299 0.943157 0.289194
O O11 0.000000 0.000000 0.500000
O O12 0.063910 0.708661 0.138611
O O13 0.685231 0.597471 0.156412
O O14 0.566154 0.486327 0.893528
O O15 0.360826 0.210249 0.549860
O O16 0.642996 0.786916 0.733820
O O17 0.500000 0.000000 0.000000
#
# Coordination Sequence:
#
# PCOD9105003 Si02
#       8
#     2   2   2   2   2   2   2   2
#     4  10  21  38  62  88 125 160 199 254 303 359
#     4  10  21  37  63  92 118 166 205 253 308 363
#     4  11  22  41  62  91 125 158 199 254 305 367
#     4  10  24  39  64  88 120 161 201 250 312 362
#     4  11  21  41  62  90 120 158 205 253 302 366
#     4  10  20  39  63  87 125 162 207 251 309 364
#     4  11  22  37  65  89 124 159 203 252 304 367
#     4   9  20  35  58  86 120 160 200 251 299 361
#
# _framework density 20.637046999999999
#
# number of rings (size 3 to 8) (size 9 to 14) (size 15 to 20)
#    0.000    1.750    3.750    0.375    0.000    7.000 
#    0.000    2.500    0.000    0.000    0.000    0.000 
#    0.000    0.000    0.000    0.000    0.000    0.000 
#
# Total GULP energy -89191.766397 kJ/mol
# GULP energy per Si atom -5574.485400 kJ/mol
# Density = 2.059008 g / cm^3
# Si number density = 20.637047 Si / 1000 Ang^3
#
#
#
# Elastic Constant Matrix: (Units=GPa)
#
#
# Indices 1 2 3 4 5 6 
#
# 1 39.5070 10.6386 10.3815 6.3945 5.9563 -6.1776
# 2 10.6386 65.5574 20.4217 6.3496 -6.9610 -30.3929
# 3 10.3815 20.4217 114.8269 6.9031 -0.7259 -1.1356
# 4 6.3945 6.3496 6.9031 31.7506 -13.2401 -13.2112
# 5 5.9563 -6.9610 -0.7259 -13.2401 15.0824 -8.0295
# 6 -6.1776 -30.3929 -1.1356 -13.2112 -8.0295 32.1033
#
#
#
# Elastic Compliance Matrix: (Units=1/GPa)
#
#
# Indices 1 2 3 4 5 6 
#
# 1 0.021918 0.010634 -0.004340 0.014328 0.022245 0.025592
# 2 0.010634 -0.004121 0.001428 -0.038865 -0.057249 -0.032118
# 3 -0.004340 0.001428 0.008624 0.005873 0.011154 0.006029
# 4 0.014328 -0.038865 0.005873 -0.022498 -0.076140 -0.062132
# 5 0.022245 -0.057249 0.011154 -0.076140 -0.090274 -0.103436
# 6 0.025592 -0.032118 0.006029 -0.062132 -0.103436 -0.045558
#
#
# Mechanical properties :
#
#
# Convention : Reuss Voigt Hill
#
# Bulk Modulus (GPa) = 23.88637 33.64165 28.76401
# Shear Modulus (GPa) = -37.48146 27.68390 -4.89878
#
# Velocity S-wave (km/s) = -4.26634 3.66658 -1.54238
# Velocity P-wave (km/s) = 3.55939 5.85338 3.28579
#
# Compressibility (1/GPa) = 0.04186488
#
# Stress axis : x y z
#
# Youngs Moduli (GPa) = 45.62497 -242.64253 115.95317
#
# Poissons Ratio (x) = 2.58028 0.50329
# Poissons Ratio (y) = -0.48518 -0.16564
# Poissons Ratio (z) = 0.19803 0.34661
#
# Static dielectric constant tensor:
#      x y z
#    x 1.833510 -0.024050 -0.001700 
#    y -0.024050 1.768360 0.032780 
#    z -0.001700 0.032780 1.737290 
# 
# From -- ./inp_files/539454.got.cif
#   From: 2010.05.17/outbox.cif.g08.bks.cpg/sg2_270_cif.got.tgz:539454.got - 2010.06.03 11:33:40.
