data_PCOD9105237
_publ_section_title
;
Structure prediction by ZEFSAII (Michael W. Deem and Ramdas Pophale) SiO2 
 PCOD9105237
Probable space group: P -1
;
_chemical_formula_sum "Si O2"
_cell_formula_units_Z 12
_cell_length_a 10.293225
_cell_length_b 12.337090
_cell_length_c 6.476779
_cell_angle_alpha 57.680194
_cell_angle_beta 137.553614
_cell_angle_gamma 116.313681
_cell_volume 467.375214
_symmetry_space_group_name_H-M "P -1"
_symmetry_group_IT_number 2
_symmetry_cell_setting 'triclinic'
loop_
_space_group_symop_operation_xyz
x,y,z
-x,-y,-z
loop_
_atom_site_type_symbol
_atom_site_label
_atom_site_fract_x
_atom_site_fract_y
_atom_site_fract_z
Si Si1 0.378203 0.937023 0.108244
Si Si2 0.941656 0.637901 0.863909
Si Si3 0.700102 0.653705 0.924827
Si Si4 0.870831 0.190753 0.401842
Si Si5 0.232755 0.064259 0.190536
Si Si6 0.258821 0.625158 0.590264
O O1 0.546633 0.910173 0.491626
O O2 0.245568 0.018080 0.015996
O O3 0.250945 0.836822 0.923560
O O4 0.500000 0.000000 0.000000
O O5 0.098743 0.665711 0.202433
O O6 0.736859 0.639115 0.738008
O O7 0.948852 0.732057 0.581185
O O8 0.000000 0.500000 0.000000
O O9 0.776510 0.525955 0.244190
O O10 0.819041 0.789468 0.986827
O O11 0.475241 0.646035 0.731870
O O12 0.764188 0.287062 0.324930
O O13 0.865352 0.053797 0.661975
#
# Coordination Sequence:
#
# PCOD9105237 Si02
#       6
#     2   2   2   2   2   2
#     4   9  18  37  66  98 140 180 217 273 342 401
#     4  12  26  47  69  99 138 184 229 282 342 405
#     4  11  24  45  72 103 135 179 226 287 341 401
#     4  11  22  42  70  97 140 185 219 280 349 399
#     4  10  20  39  64 104 140 172 226 283 334 407
#     4  11  25  48  70 100 139 179 230 285 338 407
#
# _framework density 25.675303
#
# number of rings (size 3 to 8) (size 9 to 14) (size 15 to 20)
#    0.000    1.333    1.667    5.500    0.000    1.333 
#   12.000    3.333    0.000    0.000    0.000    0.000 
#    0.000    0.000    0.000    0.000    0.000    0.000 
#
# Total GULP energy -67015.865101 kJ/mol
# GULP energy per Si atom -5584.655425 kJ/mol
# Density = 2.561686 g / cm^3
# Si number density = 25.675303 Si / 1000 Ang^3
#
#
#
# Elastic Constant Matrix: (Units=GPa)
#
#
# Indices 1 2 3 4 5 6 
#
# 1 227.1241 90.9402 56.4086 -23.9344 -29.2124 -20.7593
# 2 90.9402 190.1241 62.1686 -12.9249 -33.6420 -10.5689
# 3 56.4086 62.1686 100.7333 -13.5260 -14.9052 -20.2386
# 4 -23.9344 -12.9249 -13.5260 49.7918 -2.9616 -26.2700
# 5 -29.2124 -33.6420 -14.9052 -2.9616 29.0973 0.6090
# 6 -20.7593 -10.5689 -20.2386 -26.2700 0.6090 50.2662
#
#
#
# Elastic Compliance Matrix: (Units=1/GPa)
#
#
# Indices 1 2 3 4 5 6 
#
# 1 0.006960 -0.001547 -0.000121 0.006255 0.005654 0.005701
# 2 -0.001547 0.008248 -0.003006 0.001199 0.006557 0.000432
# 3 -0.000121 -0.003006 0.016061 0.009474 0.005371 0.010671
# 4 0.006255 0.001199 0.009474 0.041895 0.016190 0.028349
# 5 0.005654 0.006557 0.005371 0.016190 0.051737 0.013711
# 6 0.005701 0.000432 0.010671 0.028349 0.013711 0.041285
#
#
# Mechanical properties :
#
#
# Convention : Reuss Voigt Hill
#
# Bulk Modulus (GPa) = 45.61763 104.11293 74.86528
# Shear Modulus (GPa) = 27.34604 46.39535 36.87070
#
# Velocity S-wave (km/s) = 3.26708 4.25550 3.79362
# Velocity P-wave (km/s) = 5.66017 8.04882 6.95777
#
# Compressibility (1/GPa) = 0.02192135
#
# Stress axis : x y z
#
# Youngs Moduli (GPa) = 143.68358 121.23607 62.26269
#
# Poissons Ratio (x) = 0.18753 0.00751
# Poissons Ratio (y) = 0.22225 0.18719
# Poissons Ratio (z) = 0.01733 0.36449
#
# Static dielectric constant tensor:
#      x y z
#    x 2.057140 0.054760 0.159440 
#    y 0.054760 2.100280 0.001150 
#    z 0.159440 0.001150 2.173520 
# 
# From -- ./inp_files/26604.got.cif
#   From: 2010.05.17/outbox.cif.g08.bks.cpg/sg2_14_cif.got.tgz:26604.got - 2010.06.03 11:33:40.
