data_PCOD9105203
_publ_section_title
;
Structure prediction by ZEFSAII (Michael W. Deem and Ramdas Pophale) SiO2 
 PCOD9105203
Probable space group: P -1
;
_chemical_formula_sum "Si O2"
_cell_formula_units_Z 12
_cell_length_a 12.566765
_cell_length_b 9.895516
_cell_length_c 7.618575
_cell_angle_alpha 100.290404
_cell_angle_beta 53.485629
_cell_angle_gamma 133.826335
_cell_volume 502.861098
_symmetry_space_group_name_H-M "P -1"
_symmetry_group_IT_number 2
_symmetry_cell_setting 'triclinic'
loop_
_space_group_symop_operation_xyz
x,y,z
-x,-y,-z
loop_
_atom_site_type_symbol
_atom_site_label
_atom_site_fract_x
_atom_site_fract_y
_atom_site_fract_z
Si Si1 0.553344 0.981918 0.157186
Si Si2 0.809114 0.179748 0.306749
Si Si3 0.135975 0.298133 0.550961
Si Si4 0.026978 0.094088 0.223927
Si Si5 0.448972 0.337601 0.876814
Si Si6 0.096836 0.610186 0.240664
O O1 0.689730 0.090964 0.224237
O O2 0.343704 0.876790 0.410649
O O3 0.558246 0.821633 0.068938
O O4 0.670841 0.176947 0.956309
O O5 0.885857 0.089754 0.263705
O O6 0.010757 0.422735 0.163490
O O7 0.080688 0.203530 0.386137
O O8 0.361395 0.516794 0.399122
O O9 0.003451 0.328026 0.711077
O O10 0.082481 0.132122 0.687860
O O11 0.242073 0.220999 0.968442
O O12 0.500000 0.500000 0.000000
O O13 0.000000 0.500000 0.500000
#
# Coordination Sequence:
#
# PCOD9105203 Si02
#       6
#     2   2   2   2   2   2
#     4  11  25  45  66  97 138 175 217 275 327 394
#     4  11  25  44  68  97 137 177 219 263 335 400
#     4  10  20  39  63  95 133 161 221 275 319 384
#     4  10  21  40  64  95 129 172 213 274 327 381
#     4  10  21  39  67  91 132 170 216 272 325 379
#     4  12  23  42  69  98 128 177 223 274 328 385
#
# _framework density 23.86345
#
# number of rings (size 3 to 8) (size 9 to 14) (size 15 to 20)
#    0.000    1.333    5.000    0.500    0.000    2.667 
#    6.000    0.833    0.000    0.000    0.000    0.000 
#    0.000    0.000    0.000    0.000    0.000    0.000 
#
# Total GULP energy -67088.304132 kJ/mol
# GULP energy per Si atom -5590.692011 kJ/mol
# Density = 2.380914 g / cm^3
# Si number density = 23.863450 Si / 1000 Ang^3
#
#
#
# Elastic Constant Matrix: (Units=GPa)
#
#
# Indices 1 2 3 4 5 6 
#
# 1 85.7108 27.4338 33.7498 -3.6356 -15.2579 -19.2390
# 2 27.4338 130.9569 34.8765 -19.6469 6.6102 -20.4867
# 3 33.7498 34.8765 111.9227 -23.4963 -18.2672 2.3323
# 4 -3.6356 -19.6469 -23.4963 45.5246 6.4754 -5.5166
# 5 -15.2579 6.6102 -18.2672 6.4754 40.9820 0.6352
# 6 -19.2390 -20.4867 2.3323 -5.5166 0.6352 38.6968
#
#
#
# Elastic Compliance Matrix: (Units=1/GPa)
#
#
# Indices 1 2 3 4 5 6 
#
# 1 0.016135 -0.001605 -0.004037 -0.001268 0.004556 0.007160
# 2 -0.001605 0.010403 -0.002669 0.004257 -0.004224 0.005546
# 3 -0.004037 -0.002669 0.012542 0.003993 0.003944 -0.003671
# 4 -0.001268 0.004257 0.003993 0.026932 -0.003716 0.005283
# 5 0.004556 -0.004224 0.003944 -0.003716 0.029142 -0.001217
# 6 0.007160 0.005546 -0.003671 0.005283 -0.001217 0.033332
#
#
# Mechanical properties :
#
#
# Convention : Reuss Voigt Hill
#
# Bulk Modulus (GPa) = 44.52820 57.85671 51.19246
# Shear Modulus (GPa) = 32.76670 40.54269 36.65470
#
# Velocity S-wave (km/s) = 3.70954 4.12630 3.92346
# Velocity P-wave (km/s) = 6.08668 6.85561 6.48256
#
# Compressibility (1/GPa) = 0.02245768
#
# Stress axis : x y z
#
# Youngs Moduli (GPa) = 61.97743 96.13021 79.73023
#
# Poissons Ratio (x) = 0.15429 0.32188
# Poissons Ratio (y) = 0.09948 0.21279
# Poissons Ratio (z) = 0.25021 0.25656
#
# Static dielectric constant tensor:
#      x y z
#    x 1.890910 0.049460 0.042970 
#    y 0.049460 1.263470 0.003830 
#    z 0.042970 0.003830 2.033100 
# 
# From -- ./inp_files/204634.got.cif
#   From: 2010.05.17/outbox.cif.g08.bks.cpg/sg2_103_cif.got.tgz:204634.got - 2010.06.03 11:33:40.
