data_PCOD9105635
_publ_section_title
;
Structure prediction by ZEFSAII (Michael W. Deem and Ramdas Pophale) SiO2 
 PCOD9105635
Probable space group: P -1
;
_chemical_formula_sum "Si O2"
_cell_formula_units_Z 16
_cell_length_a 15.705905
_cell_length_b 8.933698
_cell_length_c 9.038260
_cell_angle_alpha 46.474117
_cell_angle_beta 118.261623
_cell_angle_gamma 133.868627
_cell_volume 662.883584
_symmetry_space_group_name_H-M "P -1"
_symmetry_group_IT_number 2
_symmetry_cell_setting 'triclinic'
loop_
_space_group_symop_operation_xyz
x,y,z
-x,-y,-z
loop_
_atom_site_type_symbol
_atom_site_label
_atom_site_fract_x
_atom_site_fract_y
_atom_site_fract_z
Si Si1 0.287857 0.187626 0.014449
Si Si2 0.929802 0.208840 0.390971
Si Si3 0.362579 0.681241 0.816703
Si Si4 0.067722 0.045725 0.736773
Si Si5 0.133389 0.452258 0.971414
Si Si6 0.323348 0.098249 0.440714
Si Si7 0.470962 0.674374 0.223716
Si Si8 0.672031 0.130547 0.948823
O O1 0.373712 0.492603 0.851329
O O2 0.166971 0.111084 0.890196
O O3 0.319049 0.011220 0.082652
O O4 0.292516 0.143056 0.221419
O O5 0.914123 0.062648 0.324782
O O6 0.954434 0.478478 0.200367
O O7 0.801879 0.047574 0.476139
O O8 0.044138 0.252770 0.534597
O O9 0.228205 0.514110 0.883159
O O10 0.374091 0.926078 0.596971
O O11 0.436046 0.717729 0.000022
O O12 0.940478 0.828530 0.843962
O O13 0.205539 0.642459 0.036434
O O14 0.420728 0.382249 0.389119
O O15 0.607548 0.909151 0.172933
O O16 0.398426 0.742526 0.220748
#
# Coordination Sequence:
#
# PCOD9105635 Si02
#       8
#     2   2   2   2   2   2   2   2
#     4  11  23  39  60  93 127 156 203 252 301 357
#     4  10  21  37  59  86 119 158 206 243 293 358
#     4   9  21  40  61  88 127 162 199 248 302 366
#     4  11  22  37  62  89 119 164 203 250 298 348
#     4  10  20  40  61  83 124 166 202 243 300 358
#     4  10  22  43  62  89 126 165 196 247 310 363
#     4   9  20  42  67  86 121 163 198 248 313 359
#     4  10  20  39  65  93 118 157 205 255 298 362
#
# _framework density 24.136970000000002
#
# number of rings (size 3 to 8) (size 9 to 14) (size 15 to 20)
#    0.000    2.000    1.250    2.625    0.000    5.000 
#    4.500   16.250    0.000    0.000    0.000    0.000 
#    0.000    0.000    0.000    0.000    0.000    0.000 
#
# Total GULP energy -89407.232084 kJ/mol
# GULP energy per Si atom -5587.952005 kJ/mol
# Density = 2.408203 g / cm^3
# Si number density = 24.136970 Si / 1000 Ang^3
#
#
#
# Elastic Constant Matrix: (Units=GPa)
#
#
# Indices 1 2 3 4 5 6 
#
# 1 39.7264 16.2209 -0.3056 7.2493 16.7516 -3.1596
# 2 16.2209 90.5016 17.6038 -1.2294 7.4494 -19.7692
# 3 -0.3056 17.6038 74.4955 -5.8215 19.2396 -2.0997
# 4 7.2493 -1.2294 -5.8215 33.7286 -3.8784 10.2556
# 5 16.7516 7.4494 19.2396 -3.8784 28.2829 -4.5237
# 6 -3.1596 -19.7692 -2.0997 10.2556 -4.5237 30.2902
#
#
#
# Elastic Compliance Matrix: (Units=1/GPa)
#
#
# Indices 1 2 3 4 5 6 
#
# 1 0.043766 -0.007243 0.009220 -0.011645 -0.031939 -0.000350
# 2 -0.007243 0.014975 -0.004651 -0.001116 0.004926 0.009809
# 3 0.009220 -0.004651 0.019054 0.000148 -0.017729 -0.003451
# 4 -0.011645 -0.001116 0.000148 0.037264 0.010115 -0.013039
# 5 -0.031939 0.004926 -0.017729 0.010115 0.067268 0.005276
# 6 -0.000350 0.009809 -0.003451 -0.013039 0.005276 0.044343
#
#
# Mechanical properties :
#
#
# Convention : Reuss Voigt Hill
#
# Bulk Modulus (GPa) = 13.80366 30.19577 21.99971
# Shear Modulus (GPa) = 19.51859 29.87397 24.69628
#
# Velocity S-wave (km/s) = 2.84678 3.52189 3.20218
# Velocity P-wave (km/s) = 4.06655 5.39218 4.77559
#
# Compressibility (1/GPa) = 0.07244457
#
# Stress axis : x y z
#
# Youngs Moduli (GPa) = 22.84890 66.77991 52.48343
#
# Poissons Ratio (x) = 0.48372 -0.48390
# Poissons Ratio (y) = 0.16551 0.24412
# Poissons Ratio (z) = -0.21067 0.31061
#
# Static dielectric constant tensor:
#      x y z
#    x 1.971000 0.008950 -0.000310 
#    y 0.008950 1.957820 0.030160 
#    z -0.000310 0.030160 1.945050 
# 
# From -- ./inp_files/328472.got.cif
#   From: 2010.05.17/outbox.cif.g08.bks.cpg/sg2_165_cif.got.tgz:328472.got - 2010.06.03 11:33:40.
