data_PCOD9105902
_publ_section_title
;
Structure prediction by ZEFSAII (Michael W. Deem and Ramdas Pophale) SiO2 
 PCOD9105902
Probable space group: P -1
;
_chemical_formula_sum "Si O2"
_cell_formula_units_Z 14
_cell_length_a 14.372288
_cell_length_b 10.495765
_cell_length_c 7.148156
_cell_angle_alpha 133.887456
_cell_angle_beta 79.131056
_cell_angle_gamma 130.171448
_cell_volume 524.252923
_symmetry_space_group_name_H-M "P -1"
_symmetry_group_IT_number 2
_symmetry_cell_setting 'triclinic'
loop_
_space_group_symop_operation_xyz
x,y,z
-x,-y,-z
loop_
_atom_site_type_symbol
_atom_site_label
_atom_site_fract_x
_atom_site_fract_y
_atom_site_fract_z
Si Si1 0.399841 0.001831 0.731587
Si Si2 0.545906 0.870691 0.595118
Si Si3 0.048000 0.407128 0.706828
Si Si4 0.240279 0.112260 0.538810
Si Si5 0.106720 0.119577 0.270703
Si Si6 0.107776 0.464778 0.159192
Si Si7 0.673301 0.710853 0.907558
O O1 0.505795 0.015800 0.808363
O O2 0.249874 0.704479 0.453845
O O3 0.454573 0.116354 0.618759
O O4 0.376084 0.159701 0.992736
O O5 0.684011 0.946422 0.653949
O O6 0.427260 0.579450 0.413756
O O7 0.095077 0.314389 0.460586
O O8 0.011347 0.546773 0.774542
O O9 0.135940 0.520047 0.980519
O O10 0.899456 0.146477 0.578772
O O11 0.203109 0.209653 0.504037
O O12 0.323083 0.290555 0.869031
O O13 0.180295 0.129151 0.077906
O O14 0.964956 0.821765 0.066879
#
# Coordination Sequence:
#
# PCOD9105902 Si02
#       7
#     2   2   2   2   2   2   2
#     4  10  21  40  66  96 123 169 217 258 319 369
#     4  10  22  40  67  91 125 172 215 257 315 373
#     4  10  21  40  64  97 125 168 213 256 323 374
#     4  10  20  44  64  90 128 162 218 257 303 383
#     4  11  26  40  66  98 130 167 208 258 329 374
#     4  10  20  39  66  93 130 164 213 265 310 381
#     4  11  24  43  62  99 131 164 214 259 311 390
#
# _framework density 26.704667000000001
#
# number of rings (size 3 to 8) (size 9 to 14) (size 15 to 20)
#    0.000    1.714    2.857    3.429    4.000    2.857 
#    0.000    0.714    0.000    0.000    0.000    0.000 
#    0.000    0.000    0.000    0.000    0.000    0.000 
#
# Total GULP energy -78389.841823 kJ/mol
# GULP energy per Si atom -5599.274416 kJ/mol
# Density = 2.664389 g / cm^3
# Si number density = 26.704667 Si / 1000 Ang^3
#
#
#
# Elastic Constant Matrix: (Units=GPa)
#
#
# Indices 1 2 3 4 5 6 
#
# 1 89.5233 1.1548 42.7782 -24.0049 -36.4300 18.8218
# 2 1.1548 78.0959 33.1266 -0.5534 2.9849 8.0514
# 3 42.7782 33.1266 62.2126 -2.5979 -30.9904 -16.7341
# 4 -24.0049 -0.5534 -2.5979 44.1666 -0.7684 10.1596
# 5 -36.4300 2.9849 -30.9904 -0.7684 52.1620 -0.4208
# 6 18.8218 8.0514 -16.7341 10.1596 -0.4208 4.4500
#
#
#
# Elastic Compliance Matrix: (Units=1/GPa)
#
#
# Indices 1 2 3 4 5 6 
#
# 1 0.006999 -0.006655 0.009616 -0.000086 0.011141 0.019848
# 2 -0.006655 0.012448 -0.001822 -0.006862 -0.006432 0.013831
# 3 0.009616 -0.001822 0.009766 0.012368 0.012581 -0.027697
# 4 -0.000086 -0.006862 0.012368 0.020141 0.008091 0.014067
# 5 0.011141 -0.006432 0.012581 0.008091 0.034886 -0.003345
# 6 0.019848 0.013831 -0.027697 0.014067 -0.003345 -0.020838
#
#
# Mechanical properties :
#
#
# Convention : Reuss Voigt Hill
#
# Bulk Modulus (GPa) = 31.75706 42.66124 37.20915
# Shear Modulus (GPa) = 69.81181 30.34052 50.07616
#
# Velocity S-wave (km/s) = 5.11849 3.37434 4.33504
# Velocity P-wave (km/s) = 6.84468 5.58493 6.24664
#
# Compressibility (1/GPa) = 0.03148906
#
# Stress axis : x y z
#
# Youngs Moduli (GPa) = 142.88152 80.33702 102.39739
#
# Poissons Ratio (x) = 0.53464 -0.98464
# Poissons Ratio (y) = 0.95087 0.18662
# Poissons Ratio (z) = -1.37393 0.14641
#
# Static dielectric constant tensor:
#      x y z
#    x 2.135450 0.007950 0.047620 
#    y 0.007950 2.016730 -0.025040 
#    z 0.047620 -0.025040 2.148470 
# 
# From -- ./inp_files/306980.got.cif
#   From: 2010.05.17/outbox.cif.g08.bks.cpg/sg2_154_cif.got.tgz:306980.got - 2010.06.03 11:33:40.
