data_PCOD9105638
_publ_section_title
;
Structure prediction by ZEFSAII (Michael W. Deem and Ramdas Pophale) SiO2 
 PCOD9105638
Probable space group: P -1
;
_chemical_formula_sum "Si O2"
_cell_formula_units_Z 16
_cell_length_a 13.976865
_cell_length_b 7.948611
_cell_length_c 8.430965
_cell_angle_alpha 123.734748
_cell_angle_beta 91.679733
_cell_angle_gamma 58.213794
_cell_volume 614.497524
_symmetry_space_group_name_H-M "P -1"
_symmetry_group_IT_number 2
_symmetry_cell_setting 'triclinic'
loop_
_space_group_symop_operation_xyz
x,y,z
-x,-y,-z
loop_
_atom_site_type_symbol
_atom_site_label
_atom_site_fract_x
_atom_site_fract_y
_atom_site_fract_z
Si Si1 0.397192 0.024460 0.296548
Si Si2 0.476683 0.341207 0.618723
Si Si3 0.947297 0.772190 0.059970
Si Si4 0.373480 0.275262 0.056041
Si Si5 0.677439 0.115216 0.238145
Si Si6 0.847216 0.252963 0.791021
Si Si7 0.971146 0.761622 0.688307
Si Si8 0.203092 0.511221 0.419435
O O1 0.447723 0.780690 0.280091
O O2 0.413787 0.207765 0.500571
O O3 0.509664 0.096914 0.910901
O O4 0.260722 0.223822 0.332081
O O5 0.581190 0.235484 0.437893
O O6 0.377991 0.647448 0.760850
O O7 0.058543 0.776215 0.098026
O O8 0.813283 0.990588 0.236838
O O9 0.926522 0.804459 0.887620
O O10 0.000000 0.500000 0.000000
O O11 0.291465 0.515171 0.058528
O O12 0.332987 0.421899 0.301939
O O13 0.319667 0.118986 0.948468
O O14 0.869573 0.336943 0.666914
O O15 0.880246 0.978646 0.670150
O O16 0.000000 0.500000 0.500000
O O17 0.105832 0.691606 0.642239
#
# Coordination Sequence:
#
# PCOD9105638 Si02
#       8
#     2   2   2   2   2   2   2   2
#     4  10  20  39  65  93 121 171 211 266 329 377
#     4   9  22  37  62  95 127 159 217 273 314 388
#     4  12  24  41  70  96 132 180 212 267 327 392
#     4   9  20  40  63  86 130 162 210 260 321 386
#     4  10  20  40  61  90 131 166 210 266 323 378
#     4  10  24  44  65  98 130 178 214 266 324 397
#     4  12  26  44  64  97 135 171 222 267 325 384
#     4  10  23  42  66  89 132 167 216 267 321 387
#
# _framework density 26.037531999999999
#
# number of rings (size 3 to 8) (size 9 to 14) (size 15 to 20)
#    0.750    1.000    1.250    2.625    5.250    1.000 
#    0.000    1.875    0.000    0.000    0.000    0.000 
#    0.000    0.000    0.000    0.000    0.000    0.000 
#
# Total GULP energy -89213.677811 kJ/mol
# GULP energy per Si atom -5575.854863 kJ/mol
# Density = 2.597827 g / cm^3
# Si number density = 26.037532 Si / 1000 Ang^3
#
#
#
# Elastic Constant Matrix: (Units=GPa)
#
#
# Indices 1 2 3 4 5 6 
#
# 1 69.0314 20.5936 9.7408 15.6224 -2.6721 -10.3090
# 2 20.5936 217.1170 36.3804 28.8221 -11.2929 -14.4225
# 3 9.7408 36.3804 50.6646 14.4426 -16.2467 1.6900
# 4 15.6224 28.8221 14.4426 56.1679 -5.7830 -5.8718
# 5 -2.6721 -11.2929 -16.2467 -5.7830 42.2517 8.5256
# 6 -10.3090 -14.4225 1.6900 -5.8718 8.5256 34.2702
#
#
#
# Elastic Compliance Matrix: (Units=1/GPa)
#
#
# Indices 1 2 3 4 5 6 
#
# 1 0.016366 -0.000460 -0.002478 -0.003342 -0.001434 0.004636
# 2 -0.000460 0.005614 -0.003773 -0.001610 -0.000664 0.002299
# 3 -0.002478 -0.003773 0.027643 -0.004151 0.010303 -0.006971
# 4 -0.003342 -0.001610 -0.004151 0.020862 0.000205 0.002045
# 5 -0.001434 -0.000664 0.010303 0.000205 0.029088 -0.008420
# 6 0.004636 0.002299 -0.006971 0.002045 -0.008420 0.034331
#
#
# Mechanical properties :
#
#
# Convention : Reuss Voigt Hill
#
# Bulk Modulus (GPa) = 27.62395 52.24916 39.93655
# Shear Modulus (GPa) = 31.36917 44.54452 37.95685
#
# Velocity S-wave (km/s) = 3.47474 4.14065 3.82222
# Velocity P-wave (km/s) = 5.17018 6.55518 5.90344
#
# Compressibility (1/GPa) = 0.03620048
#
# Stress axis : x y z
#
# Youngs Moduli (GPa) = 61.10173 178.13684 36.17590
#
# Poissons Ratio (x) = 0.08197 0.08964
# Poissons Ratio (y) = 0.02812 0.13649
# Poissons Ratio (z) = 0.15140 0.67211
#
# Static dielectric constant tensor:
#      x y z
#    x 2.231930 0.112950 0.093600 
#    y 0.112950 2.228500 0.048160 
#    z 0.093600 0.048160 2.055330 
# 
# From -- ./inp_files/342936.got.cif
#   From: 2010.05.17/outbox.cif.g08.bks.cpg/sg2_172_cif.got.tgz:342936.got - 2010.06.03 11:33:40.
