data_PCOD9105213
_publ_section_title
;
Structure prediction by ZEFSAII (Michael W. Deem and Ramdas Pophale) SiO2 
 PCOD9105213
Probable space group: P -1
;
_chemical_formula_sum "Si O2"
_cell_formula_units_Z 14
_cell_length_a 15.368130
_cell_length_b 9.814283
_cell_length_c 8.220623
_cell_angle_alpha 103.244821
_cell_angle_beta 33.868366
_cell_angle_gamma 113.766898
_cell_volume 618.693982
_symmetry_space_group_name_H-M "P -1"
_symmetry_group_IT_number 2
_symmetry_cell_setting 'triclinic'
loop_
_space_group_symop_operation_xyz
x,y,z
-x,-y,-z
loop_
_atom_site_type_symbol
_atom_site_label
_atom_site_fract_x
_atom_site_fract_y
_atom_site_fract_z
Si Si1 0.230751 0.531445 0.718200
Si Si2 0.466447 0.333763 0.924733
Si Si3 0.817300 0.788723 0.891322
Si Si4 0.116966 0.973140 0.671180
Si Si5 0.782698 0.307002 0.530773
Si Si6 0.245579 0.560002 0.059730
Si Si7 0.345617 0.265198 0.530804
O O1 0.430591 0.623495 0.393475
O O2 0.152182 0.574540 0.689805
O O3 0.190899 0.582727 0.968926
O O4 0.232987 0.364143 0.688914
O O5 0.278743 0.226343 0.134544
O O6 0.580280 0.260800 0.820084
O O7 0.500000 0.500000 0.000000
O O8 0.813271 0.619298 0.869951
O O9 0.709179 0.800049 0.220593
O O10 0.002335 0.917561 0.672236
O O11 0.163771 0.832207 0.610295
O O12 0.283331 0.127123 0.462473
O O13 0.000000 0.000000 0.000000
O O14 0.824631 0.376145 0.663948
O O15 0.452928 0.635715 0.759984
#
# Coordination Sequence:
#
# PCOD9105213 Si02
#       7
#     2   2   2   2   2   2   2
#     4   9  18  33  63  94 112 148 212 262 284 340
#     4  10  16  33  61  95 110 145 207 256 284 341
#     4  10  17  35  59  90 120 162 197 247 309 362
#     4  10  24  39  57  86 135 168 190 242 328 371
#     4  10  21  37  63  95 116 162 207 253 300 363
#     4  11  17  34  65  91 118 152 216 255 294 352
#     4  10  17  34  59  89 123 164 192 250 310 362
#
# _framework density 22.628312000000001
#
# number of rings (size 3 to 8) (size 9 to 14) (size 15 to 20)
#    0.857    1.143    4.286    0.857    0.000    1.143 
#    0.000   12.857    0.000   17.143    0.000    0.000 
#    0.000    0.000    0.000    0.000    0.000    0.000 
#
# Total GULP energy -77991.228819 kJ/mol
# GULP energy per Si atom -5570.802059 kJ/mol
# Density = 2.257681 g / cm^3
# Si number density = 22.628312 Si / 1000 Ang^3
#
#
#
# Elastic Constant Matrix: (Units=GPa)
#
#
# Indices 1 2 3 4 5 6 
#
# 1 177.4618 65.4466 52.8856 9.7499 -1.8975 25.8285
# 2 65.4466 99.4259 48.6871 15.4952 -13.2924 27.8403
# 3 52.8856 48.6871 76.3625 11.5295 14.1103 4.8469
# 4 9.7499 15.4952 11.5295 33.3820 6.7866 -10.2977
# 5 -1.8975 -13.2924 14.1103 6.7866 45.9722 -8.0287
# 6 25.8285 27.8403 4.8469 -10.2977 -8.0287 37.2696
#
#
#
# Elastic Compliance Matrix: (Units=1/GPa)
#
#
# Indices 1 2 3 4 5 6 
#
# 1 0.008252 -0.002100 -0.004015 -0.001350 0.000484 -0.003897
# 2 -0.002100 0.028367 -0.015170 -0.015732 0.011672 -0.019595
# 3 -0.004015 -0.015170 0.026457 0.004337 -0.011679 0.009356
# 4 -0.001350 -0.015732 0.004337 0.044899 -0.008604 0.022676
# 5 0.000484 0.011672 -0.011679 -0.008604 0.029376 -0.003585
# 6 -0.003897 -0.019595 0.009356 0.022676 -0.003585 0.048446
#
#
# Mechanical properties :
#
#
# Convention : Reuss Voigt Hill
#
# Bulk Modulus (GPa) = 48.76154 76.36543 62.56348
# Shear Modulus (GPa) = 21.25818 35.74016 28.49917
#
# Velocity S-wave (km/s) = 3.06837 3.97853 3.55272
# Velocity P-wave (km/s) = 5.84371 7.41121 6.67364
#
# Compressibility (1/GPa) = 0.02050797
#
# Stress axis : x y z
#
# Youngs Moduli (GPa) = 121.17705 35.25166 37.79660
#
# Poissons Ratio (x) = 0.07402 0.15175
# Poissons Ratio (y) = 0.25445 0.57337
# Poissons Ratio (z) = 0.48651 0.53477
#
# Static dielectric constant tensor:
#      x y z
#    x 1.959350 0.027930 -0.012510 
#    y 0.027930 1.821920 -0.048260 
#    z -0.012510 -0.048260 1.910380 
# 
# From -- ./inp_files/295699.got.cif
#   From: 2010.05.17/outbox.cif.g08.bks.cpg/sg2_148_cif.got.tgz:295699.got - 2010.06.03 11:33:40.
