data_PCOD9105849
_publ_section_title
;
Structure prediction by ZEFSAII (Michael W. Deem and Ramdas Pophale) SiO2 
 PCOD9105849
Probable space group: P -1
;
_chemical_formula_sum "Si O2"
_cell_formula_units_Z 16
_cell_length_a 8.334418
_cell_length_b 12.501782
_cell_length_c 8.882123
_cell_angle_alpha 123.291345
_cell_angle_beta 115.688173
_cell_angle_gamma 60.659282
_cell_volume 656.946597
_symmetry_space_group_name_H-M "P -1"
_symmetry_group_IT_number 2
_symmetry_cell_setting 'triclinic'
loop_
_space_group_symop_operation_xyz
x,y,z
-x,-y,-z
loop_
_atom_site_type_symbol
_atom_site_label
_atom_site_fract_x
_atom_site_fract_y
_atom_site_fract_z
Si Si1 0.676559 0.412303 0.137204
Si Si2 0.212579 0.353779 0.799066
Si Si3 0.643773 0.763378 0.628147
Si Si4 0.985907 0.979519 0.659349
Si Si5 0.673626 0.016828 0.993570
Si Si6 0.404995 0.800746 0.281787
Si Si7 0.417254 0.319712 0.132060
Si Si8 0.979971 0.318805 0.450765
O O1 0.709233 0.533829 0.153256
O O2 0.492363 0.435388 0.186229
O O3 0.833121 0.365974 0.294454
O O4 0.666988 0.306007 0.921783
O O5 0.385938 0.214326 0.712490
O O6 0.004732 0.385242 0.671568
O O7 0.230437 0.337803 0.972620
O O8 0.461595 0.779931 0.464785
O O9 0.618866 0.693781 0.719329
O O10 0.828426 0.677674 0.547768
O O11 0.687732 0.903439 0.785775
O O12 0.021868 0.825455 0.602658
O O13 0.141402 0.018733 0.853543
O O14 0.774707 0.064654 0.691108
O O15 0.000000 0.000000 0.500000
O O16 0.589893 0.178108 0.049963
O O17 0.500000 0.000000 0.000000
#
# Coordination Sequence:
#
# PCOD9105849 Si02
#       8
#     2   2   2   2   2   2   2   2
#     4  11  22  46  67  93 133 178 232 267 321 384
#     4  10  24  43  69  94 129 183 223 272 320 389
#     4  10  23  39  61 101 136 170 215 266 337 394
#     4  12  25  40  67 103 136 169 215 276 337 403
#     4  10  21  37  61  92 134 167 206 260 333 395
#     4  10  23  40  67  97 134 166 222 264 330 385
#     4  10  20  39  66  90 130 177 219 266 323 389
#     4  11  25  41  68  96 135 170 219 277 334 388
#
# _framework density 24.355098000000002
#
# number of rings (size 3 to 8) (size 9 to 14) (size 15 to 20)
#    0.000    1.500    1.250    4.125    8.750    2.000 
#    0.000    6.250    2.750    0.000    0.000    0.000 
#    0.000    0.000    0.000    0.000    0.000    0.000 
#
# Total GULP energy -89192.332365 kJ/mol
# GULP energy per Si atom -5574.520773 kJ/mol
# Density = 2.429966 g / cm^3
# Si number density = 24.355098 Si / 1000 Ang^3
#
#
#
# Elastic Constant Matrix: (Units=GPa)
#
#
# Indices 1 2 3 4 5 6 
#
# 1 37.6477 31.7743 37.7675 -14.6716 9.7241 17.4569
# 2 31.7743 104.6589 62.4603 -43.8874 10.3847 15.6603
# 3 37.7675 62.4603 177.9553 -52.7355 24.7152 -1.7342
# 4 -14.6716 -43.8874 -52.7355 59.4741 -8.5775 6.1181
# 5 9.7241 10.3847 24.7152 -8.5775 36.6590 -10.2364
# 6 17.4569 15.6603 -1.7342 6.1181 -10.2364 32.2440
#
#
#
# Elastic Compliance Matrix: (Units=1/GPa)
#
#
# Indices 1 2 3 4 5 6 
#
# 1 0.065607 -0.003411 -0.007813 0.008063 -0.021158 -0.042530
# 2 -0.003411 0.018593 -0.001976 0.011746 -0.003225 -0.010542
# 3 -0.007813 -0.001976 0.009529 0.004391 -0.001542 0.004379
# 4 0.008063 0.011746 0.004391 0.032357 -0.005833 -0.017825
# 5 -0.021158 -0.003225 -0.001542 -0.005833 0.041039 0.027074
# 6 -0.042530 -0.010542 0.004379 -0.017825 0.027074 0.071372
#
#
# Mechanical properties :
#
#
# Convention : Reuss Voigt Hill
#
# Bulk Modulus (GPa) = 14.85248 64.91846 39.88547
# Shear Modulus (GPa) = 17.40105 38.22606 27.81356
#
# Velocity S-wave (km/s) = 2.67586 3.96603 3.38302
# Velocity P-wave (km/s) = 3.95709 6.90546 5.62778
#
# Compressibility (1/GPa) = 0.06732884
#
# Stress axis : x y z
#
# Youngs Moduli (GPa) = 15.24237 53.78498 104.94076
#
# Poissons Ratio (x) = 0.18345 0.81990
# Poissons Ratio (y) = 0.05199 0.20735
# Poissons Ratio (z) = 0.11909 0.10627
#
# Static dielectric constant tensor:
#      x y z
#    x 0.027850 0.405620 3.913580 
#    y 0.405620 1.961330 -0.884580 
#    z 3.913580 -0.884580 -5.917240 
# 
# From -- ./inp_files/190375.got.cif
#   From: 2010.05.17/outbox.cif.g08.bks.cpg/sg2_96_cif.got.tgz:190375.got - 2010.06.03 11:33:40.
