data_PCOD9105422
_publ_section_title
;
Structure prediction by ZEFSAII (Michael W. Deem and Ramdas Pophale) SiO2 
 PCOD9105422
Probable space group: P -1
;
_chemical_formula_sum "Si O2"
_cell_formula_units_Z 12
_cell_length_a 10.993074
_cell_length_b 22.190718
_cell_length_c 8.071459
_cell_angle_alpha 147.818076
_cell_angle_beta 143.159947
_cell_angle_gamma 25.227290
_cell_volume 441.721813
_symmetry_space_group_name_H-M "P -1"
_symmetry_group_IT_number 2
_symmetry_cell_setting 'triclinic'
loop_
_space_group_symop_operation_xyz
x,y,z
-x,-y,-z
loop_
_atom_site_type_symbol
_atom_site_label
_atom_site_fract_x
_atom_site_fract_y
_atom_site_fract_z
Si Si1 0.827657 0.180927 0.197954
Si Si2 0.219648 0.690536 0.232770
Si Si3 0.226499 0.441609 0.752542
Si Si4 0.671075 0.119725 0.355227
Si Si5 0.079154 0.192131 0.173431
Si Si6 0.252498 0.501789 0.274215
O O1 0.932977 0.225262 0.560258
O O2 0.908005 0.184065 0.105809
O O3 0.480249 0.316418 0.148625
O O4 0.000000 0.000000 0.000000
O O5 0.365555 0.757274 0.519930
O O6 0.363569 0.509623 0.002647
O O7 0.026222 0.755290 0.008809
O O8 0.446478 0.248668 0.549573
O O9 0.000000 0.500000 0.500000
O O10 0.116906 0.515463 0.986561
O O11 0.000000 0.000000 0.500000
O O12 0.640892 0.002596 0.988577
O O13 0.982394 0.349282 0.515339
O O14 0.500000 0.500000 0.500000
#
# Coordination Sequence:
#
# PCOD9105422 Si02
#       6
#     2   2   2   2   2   2
#     4  11  21  34  65 106 131 163 228 290 323 374
#     4  11  22  37  70  96 132 175 228 271 333 389
#     4  12  26  44  66 100 144 180 212 281 356 392
#     4  10  21  37  68 100 126 167 235 272 312 399
#     4  10  21  36  61 101 129 159 226 284 320 383
#     4  10  20  39  64  94 130 170 227 271 315 404
#
# _framework density 27.166419999999999
#
# number of rings (size 3 to 8) (size 9 to 14) (size 15 to 20)
#    0.000    1.333    5.000    4.500    4.667    0.000 
#    0.000    5.000    0.000    0.000    0.000    0.000 
#    0.000    0.000    0.000    0.000    0.000    0.000 
#
# Total GULP energy -66835.450739 kJ/mol
# GULP energy per Si atom -5569.620895 kJ/mol
# Density = 2.710459 g / cm^3
# Si number density = 27.166420 Si / 1000 Ang^3
#
#
#
# Elastic Constant Matrix: (Units=GPa)
#
#
# Indices 1 2 3 4 5 6 
#
# 1 77.3050 35.5812 58.0841 0.8515 -6.4567 1.7462
# 2 35.5812 133.5677 100.9674 19.6524 -15.6835 13.2338
# 3 58.0841 100.9674 252.5736 31.2382 -42.3908 11.0558
# 4 0.8515 19.6524 31.2382 88.8238 18.1355 -6.7264
# 5 -6.4567 -15.6835 -42.3908 18.1355 58.7968 0.1488
# 6 1.7462 13.2338 11.0558 -6.7264 0.1488 37.7152
#
#
#
# Elastic Compliance Matrix: (Units=1/GPa)
#
#
# Indices 1 2 3 4 5 6 
#
# 1 0.016446 -0.002460 -0.003465 0.002130 -0.002009 0.001505
# 2 -0.002460 0.011472 -0.003551 -0.001659 0.000750 -0.003170
# 3 -0.003465 -0.003551 0.007415 -0.002891 0.004913 -0.001302
# 4 0.002130 -0.001659 -0.002891 0.014287 -0.006709 0.003905
# 5 -0.002009 0.000750 0.004913 -0.006709 0.022606 -0.002896
# 6 0.001505 -0.003170 -0.001302 0.003905 -0.002896 0.028647
#
#
# Mechanical properties :
#
#
# Convention : Reuss Voigt Hill
#
# Bulk Modulus (GPa) = 61.04414 94.74577 77.89496
# Shear Modulus (GPa) = 39.90886 54.98806 47.44846
#
# Velocity S-wave (km/s) = 3.83698 4.50390 4.18375
# Velocity P-wave (km/s) = 6.49223 7.87392 7.21622
#
# Compressibility (1/GPa) = 0.01638159
#
# Stress axis : x y z
#
# Youngs Moduli (GPa) = 60.80339 87.16573 134.87006
#
# Poissons Ratio (x) = 0.21444 0.46735
# Poissons Ratio (y) = 0.14958 0.47887
# Poissons Ratio (z) = 0.21070 0.30949
#
# Static dielectric constant tensor:
#      x y z
#    x 2.432870 -0.005090 0.065080 
#    y -0.005090 2.104350 0.048940 
#    z 0.065080 0.048940 2.249680 
# 
# From -- ./inp_files/338935.got.cif
#   From: 2010.05.17/outbox.cif.g08.bks.cpg/sg2_170_cif.got.tgz:338935.got - 2010.06.03 11:33:40.
