data_PCOD9105176
_publ_section_title
;
Structure prediction by ZEFSAII (Michael W. Deem and Ramdas Pophale) SiO2 
 PCOD9105176
Probable space group: P -1
;
_chemical_formula_sum "Si O2"
_cell_formula_units_Z 12
_cell_length_a 15.596601
_cell_length_b 17.272606
_cell_length_c 5.819198
_cell_angle_alpha 110.018080
_cell_angle_beta 118.610694
_cell_angle_gamma 23.162148
_cell_volume 519.090247
_symmetry_space_group_name_H-M "P -1"
_symmetry_group_IT_number 2
_symmetry_cell_setting 'triclinic'
loop_
_space_group_symop_operation_xyz
x,y,z
-x,-y,-z
loop_
_atom_site_type_symbol
_atom_site_label
_atom_site_fract_x
_atom_site_fract_y
_atom_site_fract_z
Si Si1 0.504877 0.066428 0.880218
Si Si2 0.169829 0.911013 0.435724
Si Si3 0.638153 0.393579 0.825228
Si Si4 0.271312 0.508891 0.142717
Si Si5 0.095946 0.154149 0.590782
Si Si6 0.886727 0.715078 0.628496
O O1 0.234216 0.271379 0.632498
O O2 0.694406 0.888546 0.752586
O O3 0.646030 0.035006 0.133986
O O4 0.500000 0.000000 0.000000
O O5 0.213090 0.806150 0.197877
O O6 0.442168 0.718030 0.683012
O O7 0.070086 0.078336 0.415336
O O8 0.000000 0.000000 0.500000
O O9 0.500000 0.500000 0.500000
O O10 0.500000 0.500000 0.000000
O O11 0.768545 0.380760 0.959464
O O12 0.147827 0.523474 0.889784
O O13 0.126020 0.645913 0.326731
O O14 0.115302 0.208637 0.478052
#
# Coordination Sequence:
#
# PCOD9105176 Si02
#       6
#     2   2   2   2   2   2
#     4   8  16  35  62  92 122 160 209 261 327 391
#     4  11  23  42  64  93 132 176 221 271 327 388
#     4  10  23  43  64  89 132 177 222 274 331 391
#     4  10  22  38  62  89 131 170 219 267 328 382
#     4  10  20  39  63  94 128 167 217 266 325 393
#     4   9  18  34  64  91 122 167 208 265 326 391
#
# _framework density 23.117369
#
# number of rings (size 3 to 8) (size 9 to 14) (size 15 to 20)
#    0.000    2.333    1.667    0.000    4.667    0.000 
#   12.000    5.000    0.000   34.000    0.000    0.000 
#    0.000    0.000    0.000    0.000    0.000    0.000 
#
# Total GULP energy -66870.856334 kJ/mol
# GULP energy per Si atom -5572.571361 kJ/mol
# Density = 2.306475 g / cm^3
# Si number density = 23.117369 Si / 1000 Ang^3
#
#
#
# Elastic Constant Matrix: (Units=GPa)
#
#
# Indices 1 2 3 4 5 6 
#
# 1 120.5334 59.6662 44.2713 37.4177 -5.4967 -26.3076
# 2 59.6662 126.4649 62.3507 -9.8057 -2.7246 -20.2203
# 3 44.2713 62.3507 99.3500 12.8424 11.2718 -16.3332
# 4 37.4177 -9.8057 12.8424 52.6889 -14.7612 4.7233
# 5 -5.4967 -2.7246 11.2718 -14.7612 62.2292 6.4087
# 6 -26.3076 -20.2203 -16.3332 4.7233 6.4087 46.6626
#
#
#
# Elastic Compliance Matrix: (Units=1/GPa)
#
#
# Indices 1 2 3 4 5 6 
#
# 1 0.021356 -0.011262 0.002500 -0.020227 -0.004966 0.010764
# 2 -0.011262 0.019053 -0.010389 0.016126 0.005977 -0.004183
# 3 0.002500 -0.010389 0.018467 -0.010547 -0.006632 0.005350
# 4 -0.020227 0.016126 -0.010547 0.043748 0.012677 -0.014277
# 5 -0.004966 0.005977 -0.006632 0.012677 0.020788 -0.006669
# 6 0.010764 -0.004183 0.005350 -0.014277 -0.006669 0.029920
#
#
# Mechanical properties :
#
#
# Convention : Reuss Voigt Hill
#
# Bulk Modulus (GPa) = 48.60991 75.43609 62.02300
# Shear Modulus (GPa) = 25.18972 44.32013 34.75493
#
# Velocity S-wave (km/s) = 3.30456 4.38331 3.88159
# Velocity P-wave (km/s) = 5.96936 7.63679 6.85397
#
# Compressibility (1/GPa) = 0.02057194
#
# Stress axis : x y z
#
# Youngs Moduli (GPa) = 46.82623 52.48385 54.14995
#
# Poissons Ratio (x) = 0.59108 -0.13535
# Poissons Ratio (y) = 0.52737 0.56259
# Poissons Ratio (z) = -0.11704 0.54528
#
# Static dielectric constant tensor:
#      x y z
#    x 1.641060 0.083330 0.086270 
#    y 0.083330 1.868090 -0.155000 
#    z 0.086270 -0.155000 2.029980 
# 
# From -- ./inp_files/99905.got.cif
#   From: 2010.05.17/outbox.cif.g08.bks.cpg/sg2_50_cif.got.tgz:99905.got - 2010.06.03 11:33:40.
