data_PCOD9105963
_publ_section_title
;
Structure prediction by ZEFSAII (Michael W. Deem and Ramdas Pophale) SiO2 
 PCOD9105963
Probable space group: P -1
;
_chemical_formula_sum "Si O2"
_cell_formula_units_Z 12
_cell_length_a 12.927270
_cell_length_b 8.825864
_cell_length_c 14.673782
_cell_angle_alpha 130.498691
_cell_angle_beta 39.170837
_cell_angle_gamma 149.864414
_cell_volume 529.734676
_symmetry_space_group_name_H-M "P -1"
_symmetry_group_IT_number 2
_symmetry_cell_setting 'triclinic'
loop_
_space_group_symop_operation_xyz
x,y,z
-x,-y,-z
loop_
_atom_site_type_symbol
_atom_site_label
_atom_site_fract_x
_atom_site_fract_y
_atom_site_fract_z
Si Si1 0.229891 0.304485 0.410196
Si Si2 0.513186 0.268368 0.799608
Si Si3 0.945568 0.407320 0.628580
Si Si4 0.851012 0.968248 0.887287
Si Si5 0.298945 0.100184 0.676666
Si Si6 0.725513 0.069701 0.839183
O O1 0.076984 0.331107 0.468478
O O2 0.442188 0.618298 0.441844
O O3 0.362948 0.230419 0.251080
O O4 0.000000 0.000000 0.500000
O O5 0.670395 0.616182 0.845918
O O6 0.395055 0.169460 0.741921
O O7 0.698307 0.255503 0.688696
O O8 0.292066 0.059780 0.942848
O O9 0.868798 0.298532 0.744923
O O10 0.150676 0.766777 0.624336
O O11 0.882309 0.147548 0.851399
O O12 0.107156 0.103848 0.795587
O O13 0.500000 0.000000 0.000000
#
# Coordination Sequence:
#
# PCOD9105963 Si02
#       6
#     2   2   2   2   2   2
#     4  10  23  44  66  90 132 170 209 267 321 376
#     4  10  20  39  66  96 130 169 204 267 318 375
#     4  10  23  42  66  98 130 165 217 256 319 382
#     4  10  21  38  65  97 132 163 214 263 315 374
#     4  11  22  41  66  97 125 169 216 261 316 383
#     4  11  21  43  67  93 131 174 208 262 319 373
#
# _framework density 22.652849
#
# number of rings (size 3 to 8) (size 9 to 14) (size 15 to 20)
#    0.000    1.667    3.333    1.000    0.000    2.000 
#    9.000    3.333    0.000    0.000    0.000    0.000 
#    0.000    0.000    0.000    0.000    0.000    0.000 
#
# Total GULP energy -66980.462849 kJ/mol
# GULP energy per Si atom -5581.705237 kJ/mol
# Density = 2.260129 g / cm^3
# Si number density = 22.652849 Si / 1000 Ang^3
#
#
#
# Elastic Constant Matrix: (Units=GPa)
#
#
# Indices 1 2 3 4 5 6 
#
# 1 174.3299 46.1617 59.7674 -15.2388 -20.2126 0.4708
# 2 46.1617 79.8869 37.3298 -21.5326 -9.0681 -8.0230
# 3 59.7674 37.3298 129.0061 -0.3935 -28.1531 -11.0176
# 4 -15.2388 -21.5326 -0.3935 28.7274 -10.2201 2.2707
# 5 -20.2126 -9.0681 -28.1531 -10.2201 52.9015 -3.3636
# 6 0.4708 -8.0230 -11.0176 2.2707 -3.3636 30.9154
#
#
#
# Elastic Compliance Matrix: (Units=1/GPa)
#
#
# Indices 1 2 3 4 5 6 
#
# 1 0.007743 -0.002421 -0.002683 0.002955 0.001575 -0.001748
# 2 -0.002421 0.020441 -0.003640 0.015062 0.003765 0.003348
# 3 -0.002683 -0.003640 0.011235 -0.002866 0.004015 0.003748
# 4 0.002955 0.015062 -0.002866 0.051956 0.012246 0.000359
# 5 0.001575 0.003765 0.004015 0.012246 0.024919 0.004195
# 6 -0.001748 0.003348 0.003748 0.000359 0.004195 0.035007
#
#
# Mechanical properties :
#
#
# Convention : Reuss Voigt Hill
#
# Bulk Modulus (GPa) = 45.59720 74.41563 60.00642
# Shear Modulus (GPa) = 28.39305 38.50648 33.44976
#
# Velocity S-wave (km/s) = 3.54418 4.12740 3.84686
# Velocity P-wave (km/s) = 6.07624 7.45893 6.80280
#
# Compressibility (1/GPa) = 0.02193117
#
# Stress axis : x y z
#
# Youngs Moduli (GPa) = 129.15281 48.92229 89.00407
#
# Poissons Ratio (x) = 0.11842 0.23882
# Poissons Ratio (y) = 0.31262 0.32397
# Poissons Ratio (z) = 0.34655 0.17808
#
# Static dielectric constant tensor:
#      x y z
#    x 1.872590 -0.055540 0.052780 
#    y -0.055540 1.857890 -0.013540 
#    z 0.052780 -0.013540 1.898890 
# 
# From -- ./inp_files/22608.got.cif
#   From: 2010.05.17/outbox.cif.g08.bks.cpg/sg2_12_cif.got.tgz:22608.got - 2010.06.03 11:33:40.
