data_PCOD9105717
_publ_section_title
;
Structure prediction by ZEFSAII (Michael W. Deem and Ramdas Pophale) SiO2 
 PCOD9105717
Probable space group: P -1
;
_chemical_formula_sum "Si O2"
_cell_formula_units_Z 16
_cell_length_a 11.453162
_cell_length_b 28.253565
_cell_length_c 5.503738
_cell_angle_alpha 78.490630
_cell_angle_beta 77.358299
_cell_angle_gamma 22.592363
_cell_volume 667.597222
_symmetry_space_group_name_H-M "P -1"
_symmetry_group_IT_number 2
_symmetry_cell_setting 'triclinic'
loop_
_space_group_symop_operation_xyz
x,y,z
-x,-y,-z
loop_
_atom_site_type_symbol
_atom_site_label
_atom_site_fract_x
_atom_site_fract_y
_atom_site_fract_z
Si Si1 0.636833 0.192254 0.554187
Si Si2 0.894754 0.306396 0.868842
Si Si3 0.759391 0.065112 0.273130
Si Si4 0.248603 0.109814 0.193901
Si Si5 0.693052 0.525772 0.167532
Si Si6 0.492096 0.074562 0.525804
Si Si7 0.775721 0.721435 0.055379
Si Si8 0.321060 0.408059 0.400396
O O1 0.753695 0.119673 0.339354
O O2 0.332377 0.278278 0.701056
O O3 0.566979 0.273352 0.444757
O O4 0.904298 0.082671 0.743281
O O5 0.561444 0.422019 0.797331
O O6 0.164548 0.190305 0.682312
O O7 0.005032 0.317746 0.899376
O O8 0.935114 0.249064 0.110433
O O9 0.603002 0.086554 0.514906
O O10 0.538108 0.144755 0.062885
O O11 0.412096 0.093531 0.266973
O O12 0.249942 0.061207 0.401725
O O13 0.500000 0.000000 0.000000
O O14 0.642711 0.570468 0.402825
O O15 0.676141 0.567314 0.892844
O O16 0.025717 0.378269 0.142398
O O17 0.000000 0.500000 0.500000
#
# Coordination Sequence:
#
# PCOD9105717 Si02
#       8
#     2   2   2   2   2   2   2   2
#     4  11  26  44  74 106 146 191 257 302 375 436
#     4  11  24  43  67 109 142 193 240 305 368 448
#     4  11  24  43  71 108 140 198 245 309 373 443
#     4   9  20  37  62  94 140 188 235 285 369 426
#     4  12  30  47  82 109 151 195 258 297 377 439
#     4  10  20  39  65  95 147 188 236 299 361 442
#     4  12  24  48  70 105 149 195 240 316 367 446
#     4  12  27  54  78 109 148 202 245 316 362 441
#
# _framework density 23.966548
#
# number of rings (size 3 to 8) (size 9 to 14) (size 15 to 20)
#    0.000    1.000    3.750    1.875    5.250    2.000 
#    0.000    1.875    0.000    0.000    0.000    0.000 
#    0.000    0.000    0.000    0.000    0.000    0.000 
#
# Total GULP energy -89265.354463 kJ/mol
# GULP energy per Si atom -5579.084654 kJ/mol
# Density = 2.391200 g / cm^3
# Si number density = 23.966548 Si / 1000 Ang^3
#
#
#
# Elastic Constant Matrix: (Units=GPa)
#
#
# Indices 1 2 3 4 5 6 
#
# 1 69.1626 17.1621 29.5315 -6.2760 10.2028 -7.0561
# 2 17.1621 76.3376 4.8933 -5.2740 -1.1806 -8.3102
# 3 29.5315 4.8933 65.7332 -0.8406 12.1690 0.1279
# 4 -6.2760 -5.2740 -0.8406 23.3932 -2.0880 4.3470
# 5 10.2028 -1.1806 12.1690 -2.0880 35.5985 8.5817
# 6 -7.0561 -8.3102 0.1279 4.3470 8.5817 43.9540
#
#
#
# Elastic Compliance Matrix: (Units=1/GPa)
#
#
# Indices 1 2 3 4 5 6 
#
# 1 0.019850 -0.003455 -0.007959 0.003397 -0.003588 0.002921
# 2 -0.003455 0.014202 0.000322 0.002061 0.001058 0.001719
# 3 -0.007959 0.000322 0.019565 -0.001712 -0.004440 -0.000238
# 4 0.003397 0.002061 -0.001712 0.045135 0.003333 -0.004175
# 5 -0.003588 0.001058 -0.004440 0.003333 0.032568 -0.007051
# 6 0.002921 0.001719 -0.000238 -0.004175 -0.007051 0.025335
#
#
# Mechanical properties :
#
#
# Convention : Reuss Voigt Hill
#
# Bulk Modulus (GPa) = 31.81308 34.93412 33.37360
# Shear Modulus (GPa) = 26.41091 31.23224 28.82157
#
# Velocity S-wave (km/s) = 3.32323 3.61385 3.47158
# Velocity P-wave (km/s) = 5.29414 5.65871 5.47946
#
# Compressibility (1/GPa) = 0.03143361
#
# Stress axis : x y z
#
# Youngs Moduli (GPa) = 50.37810 70.41382 51.11173
#
# Poissons Ratio (x) = 0.24330 0.40678
# Poissons Ratio (y) = 0.17407 -0.01648
# Poissons Ratio (z) = 0.40094 -0.02270
#
# Static dielectric constant tensor:
#      x y z
#    x 1.938440 -0.002470 -0.071020 
#    y -0.002470 2.057250 -0.067920 
#    z -0.071020 -0.067920 2.114140 
# 
# From -- ./inp_files/85392.got.cif
#   From: 2010.05.17/outbox.cif.g08.bks.cpg/sg2_43_cif.got.tgz:85392.got - 2010.06.03 11:33:40.
