data_PCOD9105653
_publ_section_title
;
Structure prediction by ZEFSAII (Michael W. Deem and Ramdas Pophale) SiO2 
 PCOD9105653
Probable space group: P -1
;
_chemical_formula_sum "Si O2"
_cell_formula_units_Z 14
_cell_length_a 13.614351
_cell_length_b 10.411047
_cell_length_c 9.436535
_cell_angle_alpha 131.544257
_cell_angle_beta 141.815797
_cell_angle_gamma 69.810728
_cell_volume 572.236093
_symmetry_space_group_name_H-M "P -1"
_symmetry_group_IT_number 2
_symmetry_cell_setting 'triclinic'
loop_
_space_group_symop_operation_xyz
x,y,z
-x,-y,-z
loop_
_atom_site_type_symbol
_atom_site_label
_atom_site_fract_x
_atom_site_fract_y
_atom_site_fract_z
Si Si1 0.127156 0.741879 0.893791
Si Si2 0.384312 0.319367 0.098366
Si Si3 0.033749 0.655040 0.031999
Si Si4 0.638163 0.843835 0.447699
Si Si5 0.328511 0.334377 0.365849
Si Si6 0.217223 0.420321 0.755850
Si Si7 0.619085 0.012193 0.278891
O O1 0.243737 0.629564 0.893786
O O2 0.980432 0.709988 0.589112
O O3 0.032992 0.622680 0.838635
O O4 0.212918 0.954128 0.196032
O O5 0.387370 0.295756 0.250512
O O6 0.576600 0.441065 0.351174
O O7 0.276404 0.431438 0.994241
O O8 0.292010 0.124221 0.776684
O O9 0.228642 0.794541 0.383091
O O10 0.000000 0.500000 0.000000
O O11 0.876011 0.726472 0.915639
O O12 0.599313 0.757453 0.497089
O O13 0.684913 0.682026 0.303858
O O14 0.539317 0.917833 0.270121
O O15 0.500000 0.000000 0.000000
#
# Coordination Sequence:
#
# PCOD9105653 Si02
#       7
#     2   2   2   2   2   2   2
#     4  10  21  39  65  98 133 166 216 274 329 396
#     4  10  24  43  63  90 137 172 220 283 328 383
#     4  11  22  39  66  95 132 175 217 268 331 397
#     4  10  22  41  69  93 134 174 215 271 330 397
#     4  11  23  42  64  94 129 178 220 268 340 383
#     4  10  20  39  65  93 130 172 211 267 330 390
#     4  10  23  43  66  96 133 173 217 273 333 394
#
# _framework density 24.465426000000001
#
# number of rings (size 3 to 8) (size 9 to 14) (size 15 to 20)
#    0.000    1.714    1.429    2.143    4.000    6.286 
#    7.714    1.429    0.000    0.000    0.000    0.000 
#    0.000    0.000    0.000    0.000    0.000    0.000 
#
# Total GULP energy -77987.055436 kJ/mol
# GULP energy per Si atom -5570.503960 kJ/mol
# Density = 2.440974 g / cm^3
# Si number density = 24.465426 Si / 1000 Ang^3
#
#
#
# Elastic Constant Matrix: (Units=GPa)
#
#
# Indices 1 2 3 4 5 6 
#
# 1 50.7486 53.7800 32.0451 3.1683 -11.8559 23.6421
# 2 53.7800 132.3882 39.1158 -23.3607 1.3984 42.5177
# 3 32.0451 39.1158 100.7257 -31.9910 -13.6453 24.6067
# 4 3.1683 -23.3607 -31.9910 54.6430 -8.5285 -12.6972
# 5 -11.8559 1.3984 -13.6453 -8.5285 26.4950 -8.8105
# 6 23.6421 42.5177 24.6067 -12.6972 -8.8105 47.3738
#
#
#
# Elastic Compliance Matrix: (Units=1/GPa)
#
#
# Indices 1 2 3 4 5 6 
#
# 1 0.056695 -0.020821 -0.013141 -0.019449 0.011493 -0.005857
# 2 -0.020821 0.019302 0.002102 0.007400 -0.009465 -0.007801
# 3 -0.013141 0.002102 0.018817 0.014013 0.008274 0.000192
# 4 -0.019449 0.007400 0.014013 0.034243 0.011508 0.007105
# 5 0.011493 -0.009465 0.008274 0.011508 0.055284 0.011828
# 6 -0.005857 -0.007801 0.000192 0.007105 0.011828 0.035037
#
#
# Mechanical properties :
#
#
# Convention : Reuss Voigt Hill
#
# Bulk Modulus (GPa) = 32.16020 59.30492 45.73256
# Shear Modulus (GPa) = 17.03794 36.29713 26.66753
#
# Velocity S-wave (km/s) = 2.64182 3.85594 3.30511
# Velocity P-wave (km/s) = 4.74123 6.64209 5.77047
#
# Compressibility (1/GPa) = 0.03109434
#
# Stress axis : x y z
#
# Youngs Moduli (GPa) = 17.63817 51.80910 53.14348
#
# Poissons Ratio (x) = 1.07871 0.69836
# Poissons Ratio (y) = 0.36724 -0.11171
# Poissons Ratio (z) = 0.23178 -0.10891
#
# Static dielectric constant tensor:
#      x y z
#    x 2.047650 -0.064580 0.005540 
#    y -0.064580 2.091230 -0.001170 
#    z 0.005540 -0.001170 1.938300 
# 
# From -- ./inp_files/299593.got.cif
#   From: 2010.05.17/outbox.cif.g08.bks.cpg/sg2_150_cif.got.tgz:299593.got - 2010.06.03 11:33:40.
