data_PCOD9105826
_publ_section_title
;
Structure prediction by ZEFSAII (Michael W. Deem and Ramdas Pophale) SiO2 
 PCOD9105826
Probable space group: P -1
;
_chemical_formula_sum "Si O2"
_cell_formula_units_Z 15
_cell_length_a 13.495479
_cell_length_b 8.607546
_cell_length_c 13.019059
_cell_angle_alpha 86.164951
_cell_angle_beta 148.028604
_cell_angle_gamma 115.019461
_cell_volume 575.915673
_symmetry_space_group_name_H-M "P -1"
_symmetry_group_IT_number 2
_symmetry_cell_setting 'triclinic'
loop_
_space_group_symop_operation_xyz
x,y,z
-x,-y,-z
loop_
_atom_site_type_symbol
_atom_site_label
_atom_site_fract_x
_atom_site_fract_y
_atom_site_fract_z
Si Si1 0.138866 0.010518 0.829719
Si Si2 0.611558 0.521953 0.711354
Si Si3 0.637913 0.908400 0.401536
Si Si4 0.133064 0.431096 0.361882
Si Si5 0.539801 0.137246 0.437054
Si Si6 0.707891 0.402009 0.286141
Si Si7 0.000000 0.000000 0.000000
Si Si8 0.854722 0.144909 0.378209
O O1 0.109408 0.937012 0.688498
O O2 0.911447 0.988149 0.675593
O O3 0.100167 0.818939 0.857379
O O4 0.411478 0.251237 0.062742
O O5 0.500000 0.500000 0.500000
O O6 0.582740 0.326714 0.731357
O O7 0.386488 0.466014 0.587898
O O8 0.891767 0.761028 0.946056
O O9 0.602218 0.062602 0.400190
O O10 0.690225 0.951316 0.324128
O O11 0.128483 0.504284 0.467174
O O12 0.212624 0.607312 0.344310
O O13 0.500000 0.000000 0.500000
O O14 0.283380 0.094466 0.208009
O O15 0.716353 0.235982 0.248405
O O16 0.854176 0.625752 0.344587
#
# Coordination Sequence:
#
# PCOD9105826 Si02
#       8
#     2   2   2   2   2   2   1   2
#     4  10  22  39  67  93 125 177 214 255 330 397
#     4  10  22  42  66  94 130 172 218 273 328 392
#     4  11  22  40  63  97 133 161 216 281 314 379
#     4   9  20  39  62  89 131 167 209 269 321 377
#     4  11  23  43  66  97 133 170 223 282 329 394
#     4  10  20  39  66  89 128 179 213 253 329 394
#     4  10  24  46  70  88 130 180 212 268 352 380
#     4  10  21  40  61  94 138 163 207 277 317 381
#
# _framework density 26.045477999999999
#
# number of rings (size 3 to 8) (size 9 to 14) (size 15 to 20)
#    0.000    1.867    1.333    2.400    0.000    7.467 
#    2.400    1.333    0.000    0.000    0.000    0.000 
#    0.000    0.000    0.000    0.000    0.000    0.000 
#
# Total GULP energy -83509.254127 kJ/mol
# GULP energy per Si atom -5567.283608 kJ/mol
# Density = 2.598620 g / cm^3
# Si number density = 26.045478 Si / 1000 Ang^3
#
#
#
# Elastic Constant Matrix: (Units=GPa)
#
#
# Indices 1 2 3 4 5 6 
#
# 1 109.4204 20.7259 22.1143 1.7444 9.1524 -7.6539
# 2 20.7259 134.9453 33.7597 21.7620 7.8125 22.2444
# 3 22.1143 33.7597 95.4007 29.5433 23.8981 -1.7113
# 4 1.7444 21.7620 29.5433 33.6305 6.3113 17.4831
# 5 9.1524 7.8125 23.8981 6.3113 36.7668 3.5717
# 6 -7.6539 22.2444 -1.7113 17.4831 3.5717 44.9796
#
#
#
# Elastic Compliance Matrix: (Units=1/GPa)
#
#
# Indices 1 2 3 4 5 6 
#
# 1 0.010033 -0.001553 -0.001767 0.001246 -0.001431 0.002037
# 2 -0.001553 0.009255 -0.002855 -0.001206 0.000925 -0.004554
# 3 -0.001767 -0.002855 0.020732 -0.019790 -0.010041 0.010390
# 4 0.001246 -0.001206 -0.019790 0.059007 0.004941 -0.023272
# 5 -0.001431 0.000925 -0.010041 0.004941 0.033587 -0.005671
# 6 0.002037 -0.004554 0.010390 -0.023272 -0.005671 0.034723
#
#
# Mechanical properties :
#
#
# Convention : Reuss Voigt Hill
#
# Bulk Modulus (GPa) = 36.14029 54.77402 45.45716
# Shear Modulus (GPa) = 26.46764 40.61982 33.54373
#
# Velocity S-wave (km/s) = 3.19126 3.95343 3.59261
# Velocity P-wave (km/s) = 5.24260 6.47420 5.89067
#
# Compressibility (1/GPa) = 0.02766995
#
# Stress axis : x y z
#
# Youngs Moduli (GPa) = 99.67491 108.05148 48.23365
#
# Poissons Ratio (x) = 0.16778 0.08524
# Poissons Ratio (y) = 0.15477 0.13771
# Poissons Ratio (z) = 0.17614 0.30850
#
# Static dielectric constant tensor:
#      x y z
#    x 1.116040 0.071500 -0.107550 
#    y 0.071500 2.106050 -0.027160 
#    z -0.107550 -0.027160 2.100400 
# 
# From -- ./inp_files/528532.got.cif
#   From: 2010.05.17/outbox.cif.g08.bks.cpg/sg2_265_cif.got.tgz:528532.got - 2010.06.03 11:33:40.
