data_PCOD9105566
_publ_section_title
;
Structure prediction by ZEFSAII (Michael W. Deem and Ramdas Pophale) SiO2 
 PCOD9105566
Probable space group: P -1
;
_chemical_formula_sum "Si O2"
_cell_formula_units_Z 16
_cell_length_a 14.506911
_cell_length_b 27.423311
_cell_length_c 16.048486
_cell_angle_alpha 22.180412
_cell_angle_beta 149.958126
_cell_angle_gamma 162.128557
_cell_volume 732.896173
_symmetry_space_group_name_H-M "P -1"
_symmetry_group_IT_number 2
_symmetry_cell_setting 'triclinic'
loop_
_space_group_symop_operation_xyz
x,y,z
-x,-y,-z
loop_
_atom_site_type_symbol
_atom_site_label
_atom_site_fract_x
_atom_site_fract_y
_atom_site_fract_z
Si Si1 0.362538 0.096187 0.845812
Si Si2 0.265435 0.789091 0.886908
Si Si3 0.013990 0.500178 0.384072
Si Si4 0.415851 0.411350 0.441294
Si Si5 0.895302 0.588846 0.673619
Si Si6 0.828674 0.612245 0.171339
Si Si7 0.604449 0.181980 0.418027
Si Si8 0.585058 0.458038 0.933557
O O1 0.648528 0.259922 0.748460
O O2 0.287766 0.202915 0.640387
O O3 0.491507 0.102572 0.021090
O O4 0.079486 0.861947 0.958969
O O5 0.948207 0.655962 0.891317
O O6 0.397294 0.966402 0.645792
O O7 0.197855 0.612972 0.069943
O O8 0.040415 0.405181 0.624494
O O9 0.807326 0.502135 0.252266
O O10 0.877863 0.368475 0.401374
O O11 0.677316 0.525853 0.531037
O O12 0.175328 0.367879 0.368730
O O13 0.539550 0.553960 0.231613
O O14 0.231047 0.778440 0.598623
O O15 0.527873 0.511987 0.129008
O O16 0.469468 0.247751 0.188685
#
# Coordination Sequence:
#
# PCOD9105566 Si02
#       8
#     2   2   2   2   2   2   2   2
#     4  11  20  42  63  87 122 158 201 253 296 356
#     4  10  22  39  62  85 126 165 195 238 309 354
#     4  11  21  42  62  89 122 158 206 248 298 357
#     4  10  20  39  65  89 123 152 201 256 294 345
#     4   9  20  42  62  89 120 160 199 250 294 355
#     4  11  24  37  67  90 116 161 208 250 295 352
#     4  11  21  40  61  85 129 165 192 241 309 360
#     4  11  23  40  59  91 127 154 197 256 294 355
#
# _framework density 21.831195999999998
#
# number of rings (size 3 to 8) (size 9 to 14) (size 15 to 20)
#    0.000    1.500    6.250    0.375    1.750    2.500 
#    2.250    3.750    0.000    0.000    0.000    0.000 
#    0.000    0.000    0.000    0.000    0.000    0.000 
#
# Total GULP energy -89481.894596 kJ/mol
# GULP energy per Si atom -5592.618412 kJ/mol
# Density = 2.178151 g / cm^3
# Si number density = 21.831196 Si / 1000 Ang^3
#
#
#
# Elastic Constant Matrix: (Units=GPa)
#
#
# Indices 1 2 3 4 5 6 
#
# 1 117.7870 17.9050 28.9535 -1.1222 25.8999 45.7500
# 2 17.9050 39.5100 29.5932 -2.6284 7.9341 13.5793
# 3 28.9535 29.5932 133.6661 -6.3492 -5.6580 25.5234
# 4 -1.1222 -2.6284 -6.3492 22.5357 14.4171 -3.1506
# 5 25.8999 7.9341 -5.6580 14.4171 33.9617 12.1811
# 6 45.7500 13.5793 25.5234 -3.1506 12.1811 38.7308
#
#
#
# Elastic Compliance Matrix: (Units=1/GPa)
#
#
# Indices 1 2 3 4 5 6 
#
# 1 0.017140 0.000764 -0.000884 0.004260 -0.009221 -0.016685
# 2 0.000764 0.034855 -0.007297 0.009778 -0.012844 -0.003479
# 3 -0.000884 -0.007297 0.010640 -0.003937 0.008071 -0.006268
# 4 0.004260 0.009778 -0.003937 0.073468 -0.042174 0.013375
# 5 -0.009221 -0.012844 0.008071 -0.042174 0.063505 -0.013327
# 6 -0.016685 -0.003479 -0.006268 0.013375 -0.013327 0.056158
#
#
# Mechanical properties :
#
#
# Convention : Reuss Voigt Hill
#
# Bulk Modulus (GPa) = 20.92010 49.31850 35.11930
# Shear Modulus (GPa) = 17.45004 33.34640 25.39822
#
# Velocity S-wave (km/s) = 2.83029 3.91252 3.41455
# Velocity P-wave (km/s) = 4.50379 6.56127 5.62736
#
# Compressibility (1/GPa) = 0.04780092
#
# Stress axis : x y z
#
# Youngs Moduli (GPa) = 58.34365 28.69039 93.98706
#
# Poissons Ratio (x) = -0.02193 0.08307
# Poissons Ratio (y) = -0.04459 0.68584
# Poissons Ratio (z) = 0.05157 0.20936
#
# Static dielectric constant tensor:
#      x y z
#    x 1.786280 0.010610 -0.000330 
#    y 0.010610 1.809060 0.031700 
#    z -0.000330 0.031700 1.781490 
# 
# From -- ./inp_files/349557.got.cif
#   From: 2010.05.17/outbox.cif.g08.bks.cpg/sg2_175_cif.got.tgz:349557.got - 2010.06.03 11:33:40.
