data_PCOD9105322
_publ_section_title
;
Structure prediction by ZEFSAII (Michael W. Deem and Ramdas Pophale) SiO2 
 PCOD9105322
Probable space group: P -1
;
_chemical_formula_sum "Si O2"
_cell_formula_units_Z 16
_cell_length_a 12.100402
_cell_length_b 24.899934
_cell_length_c 9.014277
_cell_angle_alpha 123.997374
_cell_angle_beta 59.832372
_cell_angle_gamma 162.214544
_cell_volume 682.988571
_symmetry_space_group_name_H-M "P -1"
_symmetry_group_IT_number 2
_symmetry_cell_setting 'triclinic'
loop_
_space_group_symop_operation_xyz
x,y,z
-x,-y,-z
loop_
_atom_site_type_symbol
_atom_site_label
_atom_site_fract_x
_atom_site_fract_y
_atom_site_fract_z
Si Si1 0.481819 0.825446 0.969037
Si Si2 0.601290 0.435776 0.973317
Si Si3 0.527170 0.633668 0.384039
Si Si4 0.362792 0.639120 0.908702
Si Si5 0.874414 0.336225 0.536988
Si Si6 0.447607 0.898504 0.366024
Si Si7 0.677119 0.581859 0.345403
Si Si8 0.637172 0.832068 0.580845
O O1 0.566669 0.797206 0.948510
O O2 0.624762 0.881360 0.792414
O O3 0.622450 0.946444 0.178664
O O4 0.039002 0.627446 0.949089
O O5 0.467988 0.320576 0.008191
O O6 0.488353 0.452559 0.140898
O O7 0.428427 0.348760 0.794104
O O8 0.775656 0.700818 0.408798
O O9 0.578267 0.733392 0.538176
O O10 0.120792 0.417151 0.373268
O O11 0.190692 0.510517 0.703388
O O12 0.000000 0.500000 0.000000
O O13 0.567117 0.150769 0.548829
O O14 0.683327 0.304140 0.530340
O O15 0.018946 0.697343 0.309390
O O16 0.500000 0.000000 0.500000
O O17 0.500000 0.500000 0.500000
O O18 0.000000 0.000000 0.500000
#
# Coordination Sequence:
#
# PCOD9105322 Si02
#       8
#     2   2   2   2   2   2   2   2
#     4  10  20  41  67  90 129 172 218 264 328 385
#     4  10  20  37  64 101 127 163 221 269 326 379
#     4  12  23  39  68  96 135 171 211 277 324 390
#     4  10  16  33  67  97 117 160 223 268 301 387
#     4  12  21  41  70  95 124 176 218 262 328 389
#     4  11  25  44  70  93 133 179 216 262 324 402
#     4  11  22  42  64  99 131 168 226 267 313 386
#     4  12  27  42  62 101 135 166 216 278 336 384
#
# _framework density 23.426455000000001
#
# number of rings (size 3 to 8) (size 9 to 14) (size 15 to 20)
#    0.000    1.000    7.500    2.250    1.750    0.000 
#    2.250    1.250    0.000    0.000    0.000    0.000 
#    0.000    0.000    0.000    0.000    0.000    0.000 
#
# Total GULP energy -89200.069658 kJ/mol
# GULP energy per Si atom -5575.004354 kJ/mol
# Density = 2.337314 g / cm^3
# Si number density = 23.426455 Si / 1000 Ang^3
#
#
#
# Elastic Constant Matrix: (Units=GPa)
#
#
# Indices 1 2 3 4 5 6 
#
# 1 129.8213 14.7934 38.2199 -7.1618 -2.9331 -27.4719
# 2 14.7934 46.8639 34.3094 -19.0594 0.1672 -9.8684
# 3 38.2199 34.3094 175.2204 -21.3446 -7.5618 -25.9217
# 4 -7.1618 -19.0594 -21.3446 31.3625 -6.2674 -5.9436
# 5 -2.9331 0.1672 -7.5618 -6.2674 35.8057 -2.0786
# 6 -27.4719 -9.8684 -25.9217 -5.9436 -2.0786 33.1633
#
#
#
# Elastic Compliance Matrix: (Units=1/GPa)
#
#
# Indices 1 2 3 4 5 6 
#
# 1 0.009970 0.001022 -0.000306 0.004887 0.002145 0.009334
# 2 0.001022 0.035151 -0.001850 0.023986 0.004566 0.014446
# 3 -0.000306 -0.001850 0.008028 0.006185 0.003155 0.006777
# 4 0.004887 0.023986 0.006185 0.059743 0.013653 0.027583
# 5 0.002145 0.004566 0.003155 0.013653 0.031722 0.010037
# 6 0.009334 0.014446 0.006777 0.027583 0.010037 0.053055
#
#
# Mechanical properties :
#
#
# Convention : Reuss Voigt Hill
#
# Bulk Modulus (GPa) = 19.65327 58.50567 39.07947
# Shear Modulus (GPa) = 23.05252 37.70516 30.37884
#
# Velocity S-wave (km/s) = 3.14034 4.01622 3.60498
# Velocity P-wave (km/s) = 4.64290 6.82167 5.83488
#
# Compressibility (1/GPa) = 0.05088212
#
# Stress axis : x y z
#
# Youngs Moduli (GPa) = 100.30312 28.44891 124.56025
#
# Poissons Ratio (x) = -0.02909 0.03813
# Poissons Ratio (y) = -0.10255 0.23039
# Poissons Ratio (z) = 0.03070 0.05262
#
# Static dielectric constant tensor:
#      x y z
#    x 1.910010 0.024160 0.083230 
#    y 0.024160 2.007520 0.124580 
#    z 0.083230 0.124580 2.022820 
# 
# From -- ./inp_files/285185.got.cif
#   From: 2010.05.17/outbox.cif.g08.bks.cpg/sg2_143_cif.got.tgz:285185.got - 2010.06.03 11:33:40.
