data_PCOD9105995
_publ_section_title
;
Structure prediction by ZEFSAII (Michael W. Deem and Ramdas Pophale) SiO2 
 PCOD9105995
Probable space group: P -1
;
_chemical_formula_sum "Si O2"
_cell_formula_units_Z 16
_cell_length_a 12.384728
_cell_length_b 6.149623
_cell_length_c 10.158866
_cell_angle_alpha 113.957944
_cell_angle_beta 95.910454
_cell_angle_gamma 61.942149
_cell_volume 620.227479
_symmetry_space_group_name_H-M "P -1"
_symmetry_group_IT_number 2
_symmetry_cell_setting 'triclinic'
loop_
_space_group_symop_operation_xyz
x,y,z
-x,-y,-z
loop_
_atom_site_type_symbol
_atom_site_label
_atom_site_fract_x
_atom_site_fract_y
_atom_site_fract_z
Si Si1 0.933575 0.527260 0.219261
Si Si2 0.454891 0.288340 0.888596
Si Si3 0.201425 0.738099 0.946273
Si Si4 0.845720 0.912811 0.539316
Si Si5 0.315049 0.216998 0.330129
Si Si6 0.853058 0.357925 0.787507
Si Si7 0.707609 0.946002 0.116193
Si Si8 0.361080 0.640550 0.563798
O O1 0.912771 0.264195 0.145930
O O2 0.918516 0.653530 0.393459
O O3 0.051941 0.524465 0.170046
O O4 0.822301 0.733757 0.163562
O O5 0.326859 0.481521 0.847734
O O6 0.562289 0.053721 0.760251
O O7 0.395164 0.148697 0.943159
O O8 0.500000 0.500000 0.000000
O O9 0.234265 0.976565 0.980668
O O10 0.182112 0.701541 0.088156
O O11 0.789220 0.849692 0.645610
O O12 0.911527 0.082693 0.641517
O O13 0.731405 0.125818 0.488894
O O14 0.265585 0.423356 0.252477
O O15 0.329008 0.394853 0.493344
O O16 0.646236 0.206175 0.265755
O O17 0.500000 0.500000 0.500000
#
# Coordination Sequence:
#
# PCOD9105995 Si02
#       8
#     2   2   2   2   2   2   2   2
#     4  10  23  45  68  99 134 172 234 287 335 401
#     4  11  25  42  63  94 138 177 218 272 333 408
#     4  11  25  42  67  97 131 183 231 273 341 401
#     4  10  23  40  66 103 132 178 222 277 347 406
#     4  11  24  41  67 100 139 176 222 275 345 405
#     4  11  25  44  66  98 137 179 228 283 338 404
#     4  10  23  43  67 100 135 177 225 281 337 401
#     4  10  20  39  66  98 136 171 221 272 335 403
#
# _framework density 25.796989
#
# number of rings (size 3 to 8) (size 9 to 14) (size 15 to 20)
#    0.000    1.500    1.250    2.250    1.750    8.500 
#    0.000    0.000    0.000    2.250    0.000    0.000 
#    0.000    0.000    0.000    0.000    0.000    0.000 
#
# Total GULP energy -89503.513535 kJ/mol
# GULP energy per Si atom -5593.969596 kJ/mol
# Density = 2.573827 g / cm^3
# Si number density = 25.796989 Si / 1000 Ang^3
#
#
#
# Elastic Constant Matrix: (Units=GPa)
#
#
# Indices 1 2 3 4 5 6 
#
# 1 117.7037 47.9908 45.8569 10.4292 3.5850 35.0343
# 2 47.9908 83.0809 56.0375 5.4453 -6.2913 29.6626
# 3 45.8569 56.0375 158.3155 23.5089 -11.3000 21.5294
# 4 10.4292 5.4453 23.5089 48.5741 8.8528 2.7013
# 5 3.5850 -6.2913 -11.3000 8.8528 41.4040 6.1678
# 6 35.0343 29.6626 21.5294 2.7013 6.1678 51.2709
#
#
#
# Elastic Compliance Matrix: (Units=1/GPa)
#
#
# Indices 1 2 3 4 5 6 
#
# 1 0.012509 -0.004555 -0.001218 -0.001096 -0.001097 -0.005211
# 2 -0.004555 0.020775 -0.004961 0.000891 0.003085 -0.007241
# 3 -0.001218 -0.004961 0.009291 -0.004176 0.002828 -0.000319
# 4 -0.001096 0.000891 -0.004176 0.023795 -0.006218 0.001482
# 5 -0.001097 0.003085 0.002828 -0.006218 0.027594 -0.005215
# 6 -0.005211 -0.007241 -0.000319 0.001482 -0.005215 0.027938
#
#
# Mechanical properties :
#
#
# Convention : Reuss Voigt Hill
#
# Bulk Modulus (GPa) = 47.37934 73.20783 60.29359
# Shear Modulus (GPa) = 33.24352 42.19747 37.72049
#
# Velocity S-wave (km/s) = 3.59368 4.04883 3.82803
# Velocity P-wave (km/s) = 5.96871 7.09207 6.55450
#
# Compressibility (1/GPa) = 0.02110624
#
# Stress axis : x y z
#
# Youngs Moduli (GPa) = 79.94066 48.13567 107.63358
#
# Poissons Ratio (x) = 0.21925 0.13109
# Poissons Ratio (y) = 0.36412 0.53401
# Poissons Ratio (z) = 0.09736 0.23882
#
# Static dielectric constant tensor:
#      x y z
#    x 2.009190 0.042860 0.079380 
#    y 0.042860 2.130490 0.062790 
#    z 0.079380 0.062790 2.098240 
# 
# From -- ./inp_files/411260.got.cif
#   From: 2010.05.17/outbox.cif.g08.bks.cpg/sg2_206_cif.got.tgz:411260.got - 2010.06.03 11:33:40.
