data_PCOD9105991
_publ_section_title
;
Structure prediction by ZEFSAII (Michael W. Deem and Ramdas Pophale) SiO2 
 PCOD9105991
Probable space group: P -1
;
_chemical_formula_sum "Si O2"
_cell_formula_units_Z 16
_cell_length_a 29.482492
_cell_length_b 14.356129
_cell_length_c 7.862927
_cell_angle_alpha 137.204330
_cell_angle_beta 130.613226
_cell_angle_gamma 19.964019
_cell_volume 761.135813
_symmetry_space_group_name_H-M "P -1"
_symmetry_group_IT_number 2
_symmetry_cell_setting 'triclinic'
loop_
_space_group_symop_operation_xyz
x,y,z
-x,-y,-z
loop_
_atom_site_type_symbol
_atom_site_label
_atom_site_fract_x
_atom_site_fract_y
_atom_site_fract_z
Si Si1 0.445103 0.490073 0.733716
Si Si2 0.883039 0.228429 0.879857
Si Si3 0.632878 0.170089 0.291098
Si Si4 0.282228 0.207833 0.572858
Si Si5 0.261714 0.619527 0.534648
Si Si6 0.707272 0.746679 0.732110
Si Si7 0.107724 0.395478 0.597953
Si Si8 0.008264 0.815724 0.173148
O O1 0.347952 0.765433 0.732815
O O2 0.368589 0.521280 0.676121
O O3 0.576252 0.151375 0.513788
O O4 0.500000 0.500000 0.000000
O O5 0.793982 0.284817 0.667543
O O6 0.965486 0.090068 0.720563
O O7 0.769803 0.568666 0.125347
O O8 0.000000 0.000000 0.000000
O O9 0.500000 0.500000 0.500000
O O10 0.759791 0.909717 0.376934
O O11 0.619706 0.043788 0.010543
O O12 0.303762 0.222950 0.457295
O O13 0.167036 0.326637 0.470594
O O14 0.311705 0.366534 0.386104
O O15 0.134614 0.918464 0.741567
O O16 0.861176 0.476438 0.784597
O O17 0.000000 0.500000 0.500000
O O18 0.031442 0.678304 0.878117
#
# Coordination Sequence:
#
# PCOD9105991 Si02
#       8
#     2   2   2   2   2   2   2   2
#     4  12  27  45  65  97 136 187 229 277 335 411
#     4  10  20  39  66  98 131 169 218 286 344 394
#     4  11  23  44  67  92 138 183 217 281 349 399
#     4  11  22  41  67  93 137 172 224 284 332 399
#     4  11  24  41  67 101 133 176 229 273 346 411
#     4  10  21  42  67  97 131 174 221 282 341 399
#     4  10  23  39  67 100 131 179 228 278 343 406
#     4   9  20  37  62  94 130 165 214 285 336 394
#
# _framework density 21.021214000000001
#
# number of rings (size 3 to 8) (size 9 to 14) (size 15 to 20)
#    0.000    1.500    2.500    3.750    1.750    4.000 
#    0.000    2.500    0.000    0.000    0.000    0.000 
#    0.000    0.000    0.000    0.000    0.000    0.000 
#
# Total GULP energy -89131.164485 kJ/mol
# GULP energy per Si atom -5570.697780 kJ/mol
# Density = 2.097337 g / cm^3
# Si number density = 21.021214 Si / 1000 Ang^3
#
#
#
# Elastic Constant Matrix: (Units=GPa)
#
#
# Indices 1 2 3 4 5 6 
#
# 1 114.4022 45.7589 42.4179 -5.3994 11.2560 -13.0982
# 2 45.7589 61.1624 40.6094 4.3884 0.7064 -9.8791
# 3 42.4179 40.6094 106.1572 24.1866 -1.4702 -19.6886
# 4 -5.3994 4.3884 24.1866 38.2209 -1.1671 -2.8992
# 5 11.2560 0.7064 -1.4702 -1.1671 31.4717 -3.8318
# 6 -13.0982 -9.8791 -19.6886 -2.8992 -3.8318 45.8664
#
#
#
# Elastic Compliance Matrix: (Units=1/GPa)
#
#
# Indices 1 2 3 4 5 6 
#
# 1 0.014254 -0.008511 -0.003561 0.005146 -0.004805 0.000632
# 2 -0.008511 0.027418 -0.006973 0.000180 0.002192 0.000676
# 3 -0.003561 -0.006973 0.016544 -0.009784 0.002347 0.004160
# 4 0.005146 0.000180 -0.009784 0.032973 -0.001165 -0.000705
# 5 -0.004805 0.002192 0.002347 -0.001165 0.033859 0.002862
# 6 0.000632 0.000676 0.004160 -0.000705 0.002862 0.024109
#
#
# Mechanical properties :
#
#
# Convention : Reuss Voigt Hill
#
# Bulk Modulus (GPa) = 49.68942 59.92157 54.80549
# Shear Modulus (GPa) = 25.77900 33.30752 29.54326
#
# Velocity S-wave (km/s) = 3.50570 3.98486 3.75294
# Velocity P-wave (km/s) = 6.33053 7.05261 6.70131
#
# Compressibility (1/GPa) = 0.02012501
#
# Stress axis : x y z
#
# Youngs Moduli (GPa) = 70.15599 36.47182 60.44546
#
# Poissons Ratio (x) = 0.31042 0.21527
# Poissons Ratio (y) = 0.59711 0.42149
# Poissons Ratio (z) = 0.24985 0.25432
#
# Static dielectric constant tensor:
#      x y z
#    x 1.862640 0.008510 0.059400 
#    y 0.008510 1.804910 -0.041430 
#    z 0.059400 -0.041430 1.849570 
# 
# From -- ./inp_files/358830.got.cif
#   From: 2010.05.17/outbox.cif.g08.bks.cpg/sg2_180_cif.got.tgz:358830.got - 2010.06.03 11:33:40.
