data_PCOD9105297
_publ_section_title
;
Structure prediction by ZEFSAII (Michael W. Deem and Ramdas Pophale) SiO2 
 PCOD9105297
Probable space group: P -1
;
_chemical_formula_sum "Si O2"
_cell_formula_units_Z 16
_cell_length_a 8.017860
_cell_length_b 13.977409
_cell_length_c 14.470210
_cell_angle_alpha 44.542832
_cell_angle_beta 47.540249
_cell_angle_gamma 38.883502
_cell_volume 686.901833
_symmetry_space_group_name_H-M "P -1"
_symmetry_group_IT_number 2
_symmetry_cell_setting 'triclinic'
loop_
_space_group_symop_operation_xyz
x,y,z
-x,-y,-z
loop_
_atom_site_type_symbol
_atom_site_label
_atom_site_fract_x
_atom_site_fract_y
_atom_site_fract_z
Si Si1 0.189135 0.604869 0.001276
Si Si2 0.325571 0.294919 0.068721
Si Si3 0.716497 0.990242 0.696471
Si Si4 0.222004 0.761733 0.192037
Si Si5 0.133455 0.302092 0.760185
Si Si6 0.790933 0.414018 0.501416
Si Si7 0.817934 0.946143 0.478108
Si Si8 0.746348 0.113479 0.209047
O O1 0.174477 0.488942 0.013345
O O2 0.964741 0.648208 0.132905
O O3 0.500000 0.500000 0.000000
O O4 0.159477 0.771635 0.870024
O O5 0.525030 0.206961 0.145666
O O6 0.185406 0.195896 0.186477
O O7 0.511594 0.256678 0.935569
O O8 0.428390 0.128405 0.757045
O O9 0.931158 0.032379 0.614854
O O10 0.670574 0.004703 0.592208
O O11 0.255367 0.644672 0.343605
O O12 0.088216 0.720517 0.188214
O O13 0.004159 0.947571 0.181352
O O14 0.138921 0.450514 0.611022
O O15 0.500000 0.500000 0.500000
O O16 0.028433 0.248593 0.471165
O O17 0.658291 0.058080 0.370500
#
# Coordination Sequence:
#
# PCOD9105297 Si02
#       8
#     2   2   2   2   2   2   2   2
#     4  10  21  38  63  93 130 155 197 263 315 358
#     4  11  21  41  64  95 124 160 205 263 309 368
#     4  11  23  41  66  89 127 169 212 253 305 377
#     4  11  22  40  65  96 124 161 210 255 311 371
#     4  12  21  41  67  92 123 167 208 257 312 365
#     4  11  24  44  62  94 129 165 204 261 309 369
#     4  10  24  45  60  90 129 170 208 254 312 368
#     4  10  20  39  64  88 129 160 203 257 310 363
#
# _framework density 23.292994
#
# number of rings (size 3 to 8) (size 9 to 14) (size 15 to 20)
#    0.000    1.250    5.000    2.250    0.000    1.500 
#    6.750    2.500    0.000    0.000    0.000    0.000 
#    0.000    0.000    0.000    0.000    0.000    0.000 
#
# Total GULP energy -89567.042371 kJ/mol
# GULP energy per Si atom -5597.940148 kJ/mol
# Density = 2.323998 g / cm^3
# Si number density = 23.292994 Si / 1000 Ang^3
#
#
#
# Elastic Constant Matrix: (Units=GPa)
#
#
# Indices 1 2 3 4 5 6 
#
# 1 68.9336 13.6896 -1.5230 -5.4812 -0.9740 13.5366
# 2 13.6896 96.3166 43.6221 -2.4449 3.2359 27.5176
# 3 -1.5230 43.6221 86.1173 -7.6427 -4.1764 16.0909
# 4 -5.4812 -2.4449 -7.6427 52.0478 7.0766 -10.8402
# 5 -0.9740 3.2359 -4.1764 7.0766 28.4555 -10.1317
# 6 13.5366 27.5176 16.0909 -10.8402 -10.1317 28.1622
#
#
#
# Elastic Compliance Matrix: (Units=1/GPa)
#
#
# Indices 1 2 3 4 5 6 
#
# 1 0.016516 -0.000602 0.002266 0.000429 -0.002477 -0.009371
# 2 -0.000602 0.019288 -0.006927 -0.002878 -0.009298 -0.019052
# 3 0.002266 -0.006927 0.015770 0.001530 0.002091 -0.001990
# 4 0.000429 -0.002878 0.001530 0.021519 -0.001398 0.009512
# 5 -0.002477 -0.009298 0.002091 -0.001398 0.045661 0.024970
# 6 -0.009371 -0.019052 -0.001990 0.009512 0.024970 0.072410
#
#
# Mechanical properties :
#
#
# Convention : Reuss Voigt Hill
#
# Bulk Modulus (GPa) = 24.36278 40.32722 32.34500
# Shear Modulus (GPa) = 23.21555 34.77169 28.99362
#
# Velocity S-wave (km/s) = 3.16044 3.86786 3.53191
# Velocity P-wave (km/s) = 4.87851 6.10719 5.52710
#
# Compressibility (1/GPa) = 0.04104621
#
# Stress axis : x y z
#
# Youngs Moduli (GPa) = 60.54869 51.84580 63.41095
#
# Poissons Ratio (x) = 0.03123 -0.14369
# Poissons Ratio (y) = 0.03648 0.43927
# Poissons Ratio (z) = -0.13721 0.35916
#
# Static dielectric constant tensor:
#      x y z
#    x 1.957220 -0.035340 0.029460 
#    y -0.035340 1.835310 -0.019940 
#    z 0.029460 -0.019940 1.919610 
# 
# From -- ./inp_files/503762.got.cif
#   From: 2010.05.17/outbox.cif.g08.bks.cpg/sg2_252_cif.got.tgz:503762.got - 2010.06.03 11:33:40.
