data_PCOD9105207
_publ_section_title
;
Structure prediction by ZEFSAII (Michael W. Deem and Ramdas Pophale) SiO2 
 PCOD9105207
Probable space group: P -1
;
_chemical_formula_sum "Si O2"
_cell_formula_units_Z 14
_cell_length_a 8.116950
_cell_length_b 13.230739
_cell_length_c 11.323854
_cell_angle_alpha 39.569258
_cell_angle_beta 122.103250
_cell_angle_gamma 122.737578
_cell_volume 636.549094
_symmetry_space_group_name_H-M "P -1"
_symmetry_group_IT_number 2
_symmetry_cell_setting 'triclinic'
loop_
_space_group_symop_operation_xyz
x,y,z
-x,-y,-z
loop_
_atom_site_type_symbol
_atom_site_label
_atom_site_fract_x
_atom_site_fract_y
_atom_site_fract_z
Si Si1 0.152669 0.172271 0.435516
Si Si2 0.522901 0.096576 0.541792
Si Si3 0.666059 0.500851 0.744468
Si Si4 0.261297 0.566918 0.435691
Si Si5 0.069651 0.765406 0.339640
Si Si6 0.571489 0.149414 0.049979
Si Si7 0.799153 0.948978 0.179979
O O1 0.337661 0.175749 0.416327
O O2 0.146069 0.361665 0.258687
O O3 0.194851 0.159451 0.603272
O O4 0.000000 0.000000 0.500000
O O5 0.741677 0.216970 0.518042
O O6 0.500000 0.000000 0.500000
O O7 0.497206 0.977107 0.754665
O O8 0.465495 0.568144 0.584132
O O9 0.704552 0.440054 0.683201
O O10 0.615144 0.333050 0.948499
O O11 0.170048 0.720849 0.296903
O O12 0.107473 0.394881 0.563100
O O13 0.984328 0.924110 0.192768
O O14 0.759104 0.107816 0.088384
O O15 0.392422 0.119473 0.913562
#
# Coordination Sequence:
#
# PCOD9105207 Si02
#       7
#     2   2   2   2   2   2   2
#     4  11  22  41  70  90 123 180 219 246 317 403
#     4  11  25  42  63  89 131 173 215 259 323 394
#     4  11  19  41  63  95 128 166 217 265 312 380
#     4  10  21  34  65  99 128 165 209 267 322 370
#     4  11  20  37  61  99 131 168 209 262 317 382
#     4  10  23  39  64  95 131 170 213 269 319 366
#     4  10  20  39  63  96 131 165 221 250 311 383
#
# _framework density 21.993590000000001
#
# number of rings (size 3 to 8) (size 9 to 14) (size 15 to 20)
#    0.000    1.429    4.286    1.714    4.000    0.571 
#    0.000    3.571    0.000    0.000    0.000    0.000 
#    0.000    0.000    0.000    0.000    0.000    0.000 
#
# Total GULP energy -77964.002828 kJ/mol
# GULP energy per Si atom -5568.857345 kJ/mol
# Density = 2.194353 g / cm^3
# Si number density = 21.993590 Si / 1000 Ang^3
#
#
#
# Elastic Constant Matrix: (Units=GPa)
#
#
# Indices 1 2 3 4 5 6 
#
# 1 108.7037 28.9586 3.3212 -3.5727 25.4772 -21.4822
# 2 28.9586 123.1153 7.0906 -15.4008 -2.1689 -1.3377
# 3 3.3212 7.0906 40.3390 -17.4563 -0.2061 -7.5309
# 4 -3.5727 -15.4008 -17.4563 28.4536 -5.2398 -7.1085
# 5 25.4772 -2.1689 -0.2061 -5.2398 32.8089 -8.9236
# 6 -21.4822 -1.3377 -7.5309 -7.1085 -8.9236 45.6597
#
#
#
# Elastic Compliance Matrix: (Units=1/GPa)
#
#
# Indices 1 2 3 4 5 6 
#
# 1 0.013057 -0.003310 -0.000246 -0.001042 -0.009438 0.003999
# 2 -0.003310 0.009781 0.001868 0.007147 0.004659 0.001061
# 3 -0.000246 0.001868 0.040203 0.030574 0.009010 0.013091
# 4 -0.001042 0.007147 0.030574 0.065297 0.016858 0.018222
# 5 -0.009438 0.004659 0.009010 0.016858 0.043104 0.008231
# 6 0.003999 0.001061 0.013091 0.018222 0.008231 0.030418
#
#
# Mechanical properties :
#
#
# Convention : Reuss Voigt Hill
#
# Bulk Modulus (GPa) = 16.76040 38.98875 27.87457
# Shear Modulus (GPa) = 22.20999 36.90362 29.55680
#
# Velocity S-wave (km/s) = 3.18124 4.10069 3.66988
# Velocity P-wave (km/s) = 4.59683 6.33930 5.53704
#
# Compressibility (1/GPa) = 0.05966445
#
# Stress axis : x y z
#
# Youngs Moduli (GPa) = 76.58928 102.23733 24.87405
#
# Poissons Ratio (x) = 0.33842 0.00611
# Poissons Ratio (y) = 0.25352 -0.04646
# Poissons Ratio (z) = 0.01883 -0.19098
#
# Static dielectric constant tensor:
#      x y z
#    x 1.852280 0.004670 0.043940 
#    y 0.004670 1.831720 -0.035640 
#    z 0.043940 -0.035640 1.873170 
# 
# From -- ./inp_files/388935.got.cif
#   From: 2010.05.17/outbox.cif.g08.bks.cpg/sg2_195_cif.got.tgz:388935.got - 2010.06.03 11:33:40.
