data_PCOD9105549
_publ_section_title
;
Structure prediction by ZEFSAII (Michael W. Deem and Ramdas Pophale) SiO2 
 PCOD9105549
Probable space group: P -1
;
_chemical_formula_sum "Si O2"
_cell_formula_units_Z 16
_cell_length_a 5.676481
_cell_length_b 16.012844
_cell_length_c 16.065638
_cell_angle_alpha 34.879681
_cell_angle_beta 75.603475
_cell_angle_gamma 60.483155
_cell_volume 690.292257
_symmetry_space_group_name_H-M "P -1"
_symmetry_group_IT_number 2
_symmetry_cell_setting 'triclinic'
loop_
_space_group_symop_operation_xyz
x,y,z
-x,-y,-z
loop_
_atom_site_type_symbol
_atom_site_label
_atom_site_fract_x
_atom_site_fract_y
_atom_site_fract_z
Si Si1 0.894629 0.691105 0.376477
Si Si2 0.582301 0.040562 0.061548
Si Si3 0.797300 0.095964 0.174250
Si Si4 0.449821 0.034041 0.573249
Si Si5 0.644621 0.322733 0.745455
Si Si6 0.885005 0.404003 0.347043
Si Si7 0.943667 0.323913 0.889192
Si Si8 0.639681 0.181088 0.560562
O O1 0.667940 0.741217 0.430466
O O2 0.000000 0.500000 0.500000
O O3 0.189579 0.690734 0.342093
O O4 0.708683 0.840786 0.203555
O O5 0.685060 0.053856 0.134484
O O6 0.677932 0.141764 0.911157
O O7 0.245386 0.147828 0.000424
O O8 0.111813 0.935811 0.299875
O O9 0.779906 0.272963 0.011281
O O10 0.607727 0.098579 0.265219
O O11 0.685123 0.049697 0.590861
O O12 0.176828 0.223093 0.459597
O O13 0.500000 0.000000 0.500000
O O14 0.314421 0.477684 0.654292
O O15 0.793839 0.354016 0.787619
O O16 0.979428 0.536863 0.200558
O O17 0.682781 0.330001 0.398041
#
# Coordination Sequence:
#
# PCOD9105549 Si02
#       8
#     2   2   2   2   2   2   2   2
#     4  12  22  37  60  92 130 170 214 252 301 367
#     4  10  21  40  58  89 128 173 211 256 299 361
#     4  10  20  40  68  87 123 163 208 256 314 364
#     4  11  24  43  70  94 121 159 206 262 322 375
#     4  10  22  38  59  89 127 175 211 249 306 359
#     4  10  22  39  62  93 126 162 201 259 309 371
#     4  10  20  39  65  87 128 172 208 254 307 364
#     4  11  22  42  60  91 132 160 207 258 310 369
#
# _framework density 23.178587
#
# number of rings (size 3 to 8) (size 9 to 14) (size 15 to 20)
#    0.000    1.500    3.750    1.125    0.000    2.500 
#    4.500    2.500    0.000   11.250    0.000    0.000 
#    0.000    0.000    0.000    0.000    0.000    0.000 
#
# Total GULP energy -89145.047985 kJ/mol
# GULP energy per Si atom -5571.565499 kJ/mol
# Density = 2.312583 g / cm^3
# Si number density = 23.178587 Si / 1000 Ang^3
#
#
#
# Elastic Constant Matrix: (Units=GPa)
#
#
# Indices 1 2 3 4 5 6 
#
# 1 81.7208 55.8510 48.1806 16.9062 -7.1833 10.9345
# 2 55.8510 69.6210 57.3178 22.7619 5.8738 15.9932
# 3 48.1806 57.3178 153.7462 10.8510 -46.7608 18.5840
# 4 16.9062 22.7619 10.8510 38.7112 -4.0161 7.1547
# 5 -7.1833 5.8738 -46.7608 -4.0161 61.5931 -10.3210
# 6 10.9345 15.9932 18.5840 7.1547 -10.3210 19.8940
#
#
#
# Elastic Compliance Matrix: (Units=1/GPa)
#
#
# Indices 1 2 3 4 5 6 
#
# 1 0.031870 -0.035500 0.005716 0.004724 0.013599 0.011039
# 2 -0.035500 0.083381 -0.025977 -0.023837 -0.039238 -0.035037
# 3 0.005716 -0.025977 0.018770 0.008172 0.019132 0.007195
# 4 0.004724 -0.023837 0.008172 0.036352 0.011724 0.001942
# 5 0.013599 -0.039238 0.019132 0.011724 0.040725 0.023109
# 6 0.011039 -0.035037 0.007195 0.001942 0.023109 0.076936
#
#
# Mechanical properties :
#
#
# Convention : Reuss Voigt Hill
#
# Bulk Modulus (GPa) = 44.44667 69.75408 57.10038
# Shear Modulus (GPa) = 12.28334 33.62222 22.95278
#
# Velocity S-wave (km/s) = 2.30455 3.81277 3.15025
# Velocity P-wave (km/s) = 5.12822 7.03864 6.15797
#
# Compressibility (1/GPa) = 0.02249888
#
# Stress axis : x y z
#
# Youngs Moduli (GPa) = 31.37758 11.99318 53.27674
#
# Poissons Ratio (x) = 0.42575 -0.30451
# Poissons Ratio (y) = 1.11390 1.38396
# Poissons Ratio (z) = -0.17934 0.31154
#
# Static dielectric constant tensor:
#      x y z
#    x 2.029110 0.000590 -0.000750 
#    y 0.000590 1.823400 0.009740 
#    z -0.000750 0.009740 1.941640 
# 
# From -- ./inp_files/484217.got.cif
#   From: 2010.05.17/outbox.cif.g08.bks.cpg/sg2_243_cif.got.tgz:484217.got - 2010.06.03 11:33:40.
