data_PCOD9105875
_publ_section_title
;
Structure prediction by ZEFSAII (Michael W. Deem and Ramdas Pophale) SiO2 
 PCOD9105875
Probable space group: P -1
;
_chemical_formula_sum "Si O2"
_cell_formula_units_Z 16
_cell_length_a 12.083653
_cell_length_b 10.038402
_cell_length_c 8.972503
_cell_angle_alpha 44.029203
_cell_angle_beta 91.565752
_cell_angle_gamma 96.999999
_cell_volume 747.931982
_symmetry_space_group_name_H-M "P -1"
_symmetry_group_IT_number 2
_symmetry_cell_setting 'triclinic'
loop_
_space_group_symop_operation_xyz
x,y,z
-x,-y,-z
loop_
_atom_site_type_symbol
_atom_site_label
_atom_site_fract_x
_atom_site_fract_y
_atom_site_fract_z
Si Si1 0.634905 0.333725 0.095848
Si Si2 0.045521 0.589540 0.773456
Si Si3 0.018299 0.316279 0.744168
Si Si4 0.465678 0.508522 0.738199
Si Si5 0.645130 0.714998 0.366213
Si Si6 0.209721 0.939092 0.608482
Si Si7 0.158120 0.990869 0.893209
Si Si8 0.198903 0.358614 0.307354
O O1 0.596614 0.408704 0.192637
O O2 0.671333 0.125382 0.294568
O O3 0.544905 0.371196 0.936031
O O4 0.748540 0.462709 0.935775
O O5 0.075976 0.414179 0.816553
O O6 0.140760 0.775028 0.636272
O O7 0.931372 0.654159 0.656601
O O8 0.000000 0.500000 0.000000
O O9 0.090641 0.160632 0.808054
O O10 0.000000 0.500000 0.500000
O O11 0.895607 0.198799 0.869446
O O12 0.540422 0.677039 0.507218
O O13 0.389083 0.392317 0.702821
O O14 0.710086 0.927425 0.156935
O O15 0.736462 0.630112 0.541837
O O16 0.140468 0.941740 0.757929
O O17 0.222339 0.162405 0.382598
#
# Coordination Sequence:
#
# PCOD9105875 Si02
#       8
#     2   2   2   2   2   2   2   2
#     4  10  20  39  66  92 124 159 208 262 320 361
#     4  12  22  40  65  90 127 174 210 248 315 379
#     4  11  23  40  60  91 125 166 205 253 305 373
#     4   9  20  39  65  93 121 165 209 266 312 372
#     4   9  19  39  64  86 122 169 202 250 322 366
#     4  11  22  40  64  92 126 170 207 258 311 377
#     4  10  22  39  62  88 127 163 204 255 307 367
#     4  10  21  38  61  91 127 164 206 258 308 373
#
# _framework density 21.392320000000002
#
# number of rings (size 3 to 8) (size 9 to 14) (size 15 to 20)
#    0.000    1.750    2.500    1.875    1.750    1.000 
#    2.250   12.500    0.000    3.000    0.000    0.000 
#    0.000    0.000    0.000    0.000    0.000    0.000 
#
# Total GULP energy -89210.448738 kJ/mol
# GULP energy per Si atom -5575.653046 kJ/mol
# Density = 2.134363 g / cm^3
# Si number density = 21.392320 Si / 1000 Ang^3
#
#
#
# Elastic Constant Matrix: (Units=GPa)
#
#
# Indices 1 2 3 4 5 6 
#
# 1 66.5819 36.6936 0.8946 0.4895 1.8267 12.6037
# 2 36.6936 117.3152 24.1672 7.2948 3.5235 8.2684
# 3 0.8946 24.1672 64.4530 -1.2543 -12.8016 10.7917
# 4 0.4895 7.2948 -1.2543 35.6009 -0.1922 -0.9550
# 5 1.8267 3.5235 -12.8016 -0.1922 31.6244 -10.3331
# 6 12.6037 8.2684 10.7917 -0.9550 -10.3331 37.6163
#
#
#
# Elastic Compliance Matrix: (Units=1/GPa)
#
#
# Indices 1 2 3 4 5 6 
#
# 1 0.019712 -0.006337 0.002927 0.000952 -0.001331 -0.006393
# 2 -0.006337 0.011769 -0.004974 -0.002513 -0.002944 0.000091
# 3 0.002927 -0.004974 0.019359 0.001607 0.007105 -0.003449
# 4 0.000952 -0.002513 0.001607 0.028678 0.001333 0.000867
# 5 -0.001331 -0.002944 0.007105 0.001333 0.038025 0.009534
# 6 -0.006393 0.000091 -0.003449 0.000867 0.009534 0.032337
#
#
# Mechanical properties :
#
#
# Convention : Reuss Voigt Hill
#
# Bulk Modulus (GPa) = 29.34892 41.31787 35.33339
# Shear Modulus (GPa) = 28.08901 33.40797 30.74849
#
# Velocity S-wave (km/s) = 3.62752 3.95610 3.79537
# Velocity P-wave (km/s) = 5.59414 6.34223 5.97989
#
# Compressibility (1/GPa) = 0.03407281
#
# Stress axis : x y z
#
# Youngs Moduli (GPa) = 50.73107 84.96852 51.65440
#
# Poissons Ratio (x) = 0.53845 -0.15120
# Poissons Ratio (y) = 0.32149 0.25692
# Poissons Ratio (z) = -0.14850 0.42262
#
# Static dielectric constant tensor:
#      x y z
#    x 1.973380 0.030400 -0.068090 
#    y 0.030400 1.802180 0.012210 
#    z -0.068090 0.012210 1.875710 
# 
# From -- ./inp_files/216041.got.cif
#   From: 2010.05.17/outbox.cif.g08.bks.cpg/sg2_109_cif.got.tgz:216041.got - 2010.06.03 11:33:40.
