data_PCOD9105304
_publ_section_title
;
Structure prediction by ZEFSAII (Michael W. Deem and Ramdas Pophale) SiO2 
 PCOD9105304
Probable space group: P -1
;
_chemical_formula_sum "Si O2"
_cell_formula_units_Z 14
_cell_length_a 8.330245
_cell_length_b 7.280674
_cell_length_c 11.259027
_cell_angle_alpha 74.004022
_cell_angle_beta 107.064331
_cell_angle_gamma 122.135204
_cell_volume 546.729952
_symmetry_space_group_name_H-M "P -1"
_symmetry_group_IT_number 2
_symmetry_cell_setting 'triclinic'
loop_
_space_group_symop_operation_xyz
x,y,z
-x,-y,-z
loop_
_atom_site_type_symbol
_atom_site_label
_atom_site_fract_x
_atom_site_fract_y
_atom_site_fract_z
Si Si1 0.981912 0.382823 0.390537
Si Si2 0.879529 0.530064 0.859664
Si Si3 0.311474 0.261587 0.515199
Si Si4 0.408066 0.764761 0.757263
Si Si5 0.239385 0.249621 0.759835
Si Si6 0.518229 0.302760 0.972709
Si Si7 0.189721 0.061724 0.279886
O O1 0.053982 0.496592 0.253787
O O2 0.118066 0.278749 0.457448
O O3 0.000000 0.500000 0.500000
O O4 0.756598 0.217197 0.351188
O O5 0.658897 0.369869 0.878941
O O6 0.872020 0.758722 0.807880
O O7 0.000000 0.500000 0.000000
O O8 0.500000 0.500000 0.500000
O O9 0.305232 0.193827 0.661364
O O10 0.289986 0.120176 0.420549
O O11 0.350537 0.514476 0.749369
O O12 0.634401 0.921387 0.760514
O O13 0.389793 0.775072 0.892434
O O14 0.305213 0.158242 0.901225
O O15 0.012538 0.157504 0.725666
O O16 0.500000 0.500000 0.000000
#
# Coordination Sequence:
#
# PCOD9105304 Si02
#       7
#     2   2   2   2   2   2   2
#     4  11  21  36  67  93 125 170 214 257 324 381
#     4  11  21  38  65  91 126 171 210 263 323 379
#     4  11  20  40  67  92 125 171 209 261 324 379
#     4  11  21  41  62  88 130 165 210 262 318 377
#     4  11  21  38  65  91 126 163 218 261 319 376
#     4  10  20  39  64  89 123 168 210 259 318 380
#     4  11  23  38  64  95 120 169 214 262 321 381
#
# _framework density 25.60679
#
# number of rings (size 3 to 8) (size 9 to 14) (size 15 to 20)
#    0.000    1.143    7.143    1.286    0.000    0.571 
#    0.000    1.429   12.571    0.000    0.000    0.000 
#    0.000    0.000    0.000    0.000    0.000    0.000 
#
# Total GULP energy -78164.089609 kJ/mol
# GULP energy per Si atom -5583.149258 kJ/mol
# Density = 2.554851 g / cm^3
# Si number density = 25.606790 Si / 1000 Ang^3
#
#
#
# Elastic Constant Matrix: (Units=GPa)
#
#
# Indices 1 2 3 4 5 6 
#
# 1 102.1806 37.6732 40.1692 2.9920 -9.3215 24.6429
# 2 37.6732 64.9702 43.1374 9.6367 1.1469 22.0937
# 3 40.1692 43.1374 206.5254 10.9190 7.2240 11.2099
# 4 2.9920 9.6367 10.9190 26.8053 10.8185 12.1547
# 5 -9.3215 1.1469 7.2240 10.8185 55.2636 7.6413
# 6 24.6429 22.0937 11.2099 12.1547 7.6413 48.6314
#
#
#
# Elastic Compliance Matrix: (Units=1/GPa)
#
#
# Indices 1 2 3 4 5 6 
#
# 1 0.013912 -0.005747 -0.001448 0.002248 0.002924 -0.005126
# 2 -0.005747 0.023569 -0.003284 -0.003947 0.000593 -0.006145
# 3 -0.001448 -0.003284 0.005836 -0.001291 -0.000872 0.001340
# 4 0.002248 -0.003947 -0.001291 0.046158 -0.007097 -0.009470
# 5 0.002924 0.000593 -0.000872 -0.007097 0.020494 -0.002997
# 6 -0.005126 -0.006145 0.001340 -0.009470 -0.002997 0.028481
#
#
# Mechanical properties :
#
#
# Convention : Reuss Voigt Hill
#
# Bulk Modulus (GPa) = 44.72581 68.40397 56.56489
# Shear Modulus (GPa) = 29.96518 42.98649 36.47583
#
# Velocity S-wave (km/s) = 3.42454 4.10166 3.77830
# Velocity P-wave (km/s) = 5.75681 7.01446 6.41652
#
# Compressibility (1/GPa) = 0.02235845
#
# Stress axis : x y z
#
# Youngs Moduli (GPa) = 71.88006 42.42854 171.36282
#
# Poissons Ratio (x) = 0.24384 0.24819
# Poissons Ratio (y) = 0.41311 0.56269
# Poissons Ratio (z) = 0.10411 0.13932
#
# Static dielectric constant tensor:
#      x y z
#    x 2.002570 -0.100200 0.027940 
#    y -0.100200 2.196540 -0.055450 
#    z 0.027940 -0.055450 1.901170 
# 
# From -- ./inp_files/225624.got.cif
#   From: 2010.05.17/outbox.cif.g08.bks.cpg/sg2_113_cif.got.tgz:225624.got - 2010.06.03 11:33:40.
