data_PCOD9105582
_publ_section_title
;
Structure prediction by ZEFSAII (Michael W. Deem and Ramdas Pophale) SiO2 
 PCOD9105582
Probable space group: P -1
;
_chemical_formula_sum "Si O2"
_cell_formula_units_Z 16
_cell_length_a 13.140284
_cell_length_b 14.587398
_cell_length_c 12.284833
_cell_angle_alpha 40.876335
_cell_angle_beta 144.860064
_cell_angle_gamma 150.289732
_cell_volume 662.992151
_symmetry_space_group_name_H-M "P -1"
_symmetry_group_IT_number 2
_symmetry_cell_setting 'triclinic'
loop_
_space_group_symop_operation_xyz
x,y,z
-x,-y,-z
loop_
_atom_site_type_symbol
_atom_site_label
_atom_site_fract_x
_atom_site_fract_y
_atom_site_fract_z
Si Si1 0.069520 0.989375 0.347366
Si Si2 0.604359 0.301525 0.311347
Si Si3 0.858349 0.777800 0.000554
Si Si4 0.441822 0.848743 0.378410
Si Si5 0.650435 0.177465 0.116953
Si Si6 0.826872 0.070894 0.200299
Si Si7 0.995130 0.299947 0.597015
Si Si8 0.061536 0.405023 0.930760
O O1 0.348505 0.144336 0.479815
O O2 0.936837 0.981542 0.341344
O O3 0.006322 0.801631 0.416947
O O4 0.028867 0.063595 0.136325
O O5 0.529801 0.144537 0.474374
O O6 0.798144 0.318131 0.396826
O O7 0.759204 0.493965 0.344455
O O8 0.366921 0.260562 0.110215
O O9 0.796572 0.609002 0.024191
O O10 0.027742 0.809322 0.215570
O O11 0.182344 0.674586 0.267868
O O12 0.506472 0.032691 0.220252
O O13 0.817088 0.145075 0.239885
O O14 0.788975 0.389197 0.077042
O O15 0.447033 0.095882 0.923268
O O16 0.967824 0.254060 0.080388
#
# Coordination Sequence:
#
# PCOD9105582 Si02
#       8
#     2   2   2   2   2   2   2   2
#     4  10  23  39  61  88 130 163 204 265 311 363
#     4  10  23  39  58  92 132 156 218 263 295 385
#     4  10  21  40  59  92 128 162 215 255 302 382
#     4  10  22  40  58  93 129 156 212 262 301 382
#     4  10  21  38  71  88 121 171 201 257 328 363
#     4   9  21  42  59  99 123 151 224 256 296 396
#     4  11  22  40  63  88 125 177 203 258 321 360
#     4  10  20  39  65  90 129 166 201 260 314 367
#
# _framework density 24.133016999999999
#
# number of rings (size 3 to 8) (size 9 to 14) (size 15 to 20)
#    0.000    2.000    1.250    1.125    3.500    2.500 
#    6.750    0.625    0.000    0.000    0.000    0.000 
#    0.000    0.000    0.000    0.000    0.000    0.000 
#
# Total GULP energy -89368.972506 kJ/mol
# GULP energy per Si atom -5585.560782 kJ/mol
# Density = 2.407809 g / cm^3
# Si number density = 24.133017 Si / 1000 Ang^3
#
#
#
# Elastic Constant Matrix: (Units=GPa)
#
#
# Indices 1 2 3 4 5 6 
#
# 1 110.9422 59.9900 38.8862 -3.4222 29.1344 -22.3924
# 2 59.9900 157.1387 33.5020 -2.9863 16.4531 -39.0026
# 3 38.8862 33.5020 97.7582 0.4349 31.1547 -13.1791
# 4 -3.4222 -2.9863 0.4349 28.6291 2.7455 5.2567
# 5 29.1344 16.4531 31.1547 2.7455 50.7634 -6.4085
# 6 -22.3924 -39.0026 -13.1791 5.2567 -6.4085 40.1791
#
#
#
# Elastic Compliance Matrix: (Units=1/GPa)
#
#
# Indices 1 2 3 4 5 6 
#
# 1 0.013571 -0.003552 -0.002265 0.001327 -0.005016 0.002398
# 2 -0.003552 0.009681 -0.001093 -0.000779 0.000529 0.007246
# 3 -0.002265 -0.001093 0.013780 -0.000169 -0.006648 0.001159
# 4 0.001327 -0.000779 -0.000169 0.036274 -0.003036 -0.005303
# 5 -0.005016 0.000529 -0.006648 -0.003036 0.026675 0.000189
# 6 0.002398 0.007246 0.001159 -0.005303 0.000189 0.034363
#
#
# Mechanical properties :
#
#
# Convention : Reuss Voigt Hill
#
# Bulk Modulus (GPa) = 43.08022 70.06617 56.57319
# Shear Modulus (GPa) = 32.07160 39.47838 35.77499
#
# Velocity S-wave (km/s) = 3.64943 4.04897 3.85438
# Velocity P-wave (km/s) = 5.97057 7.13829 6.58039
#
# Compressibility (1/GPa) = 0.02321251
#
# Stress axis : x y z
#
# Youngs Moduli (GPa) = 73.68847 103.29266 72.56732
#
# Poissons Ratio (x) = 0.36692 0.16434
# Poissons Ratio (y) = 0.26176 0.07931
# Poissons Ratio (z) = 0.16688 0.11289
#
# Static dielectric constant tensor:
#      x y z
#    x 1.994190 0.036210 -0.020250 
#    y 0.036210 1.930330 -0.048230 
#    z -0.020250 -0.048230 2.014650 
# 
# From -- ./inp_files/533704.got.cif
#   From: 2010.05.17/outbox.cif.g08.bks.cpg/sg2_267_cif.got.tgz:533704.got - 2010.06.03 11:33:40.
