data_PCOD9105501
_publ_section_title
;
Structure prediction by ZEFSAII (Michael W. Deem and Ramdas Pophale) SiO2 
 PCOD9105501
Probable space group: P -1
;
_chemical_formula_sum "Si O2"
_cell_formula_units_Z 11
_cell_length_a 8.304418
_cell_length_b 6.839509
_cell_length_c 15.663473
_cell_angle_alpha 52.770923
_cell_angle_beta 32.680585
_cell_angle_gamma 61.765685
_cell_volume 381.130705
_symmetry_space_group_name_H-M "P -1"
_symmetry_group_IT_number 2
_symmetry_cell_setting 'triclinic'
loop_
_space_group_symop_operation_xyz
x,y,z
-x,-y,-z
loop_
_atom_site_type_symbol
_atom_site_label
_atom_site_fract_x
_atom_site_fract_y
_atom_site_fract_z
Si Si1 0.378412 0.447481 0.180682
Si Si2 0.527223 0.470136 0.294355
Si Si3 0.500000 0.500000 0.500000
Si Si4 0.927282 0.854948 0.837550
Si Si5 0.262909 0.970421 0.955853
Si Si6 0.877377 0.125565 0.438970
O O1 0.341799 0.384826 0.314932
O O2 0.053879 0.407696 0.289483
O O3 0.551840 0.240540 0.109110
O O4 0.615921 0.685364 0.007566
O O5 0.449821 0.437658 0.436067
O O6 0.557822 0.763523 0.191117
O O7 0.834072 0.332266 0.187816
O O8 0.545978 0.201756 0.574962
O O9 0.041833 0.965850 0.666482
O O10 0.870379 0.051460 0.883332
O O11 0.000000 0.000000 0.000000
O O12 0.000000 0.000000 0.500000
#
# Coordination Sequence:
#
# PCOD9105501 Si02
#       6
#     2   2   1   2   2   2
#     4  11  21  39  69  98 132 177 223 283 338 398
#     4  10  20  39  64  99 134 173 227 273 336 411
#     4  10  24  46  64  90 140 186 218 278 342 394
#     4  10  21  40  66 100 136 173 223 280 341 404
#     4  11  18  35  67 103 131 169 219 279 339 394
#     4  11  25  46  66  99 141 177 234 280 331 413
#
# _framework density 28.86149
#
# number of rings (size 3 to 8) (size 9 to 14) (size 15 to 20)
#    0.000    1.455    3.636    2.727    0.000    1.455 
#    3.273    4.545    0.000    0.000    0.000    0.000 
#    0.000    0.000    0.000    0.000    0.000    0.000 
#
# Total GULP energy -61398.654718 kJ/mol
# GULP energy per Si atom -5581.695883 kJ/mol
# Density = 2.879580 g / cm^3
# Si number density = 28.861490 Si / 1000 Ang^3
#
#
#
# Elastic Constant Matrix: (Units=GPa)
#
#
# Indices 1 2 3 4 5 6 
#
# 1 117.9793 24.6319 30.3657 4.4935 48.0356 56.7209
# 2 24.6319 150.5459 34.7781 24.2712 17.2083 27.2441
# 3 30.3657 34.7781 113.5937 18.6174 48.7650 29.3209
# 4 4.4935 24.2712 18.6174 43.1728 10.6169 15.4890
# 5 48.0356 17.2083 48.7650 10.6169 83.2636 8.4919
# 6 56.7209 27.2441 29.3209 15.4890 8.4919 62.4038
#
#
#
# Elastic Compliance Matrix: (Units=1/GPa)
#
#
# Indices 1 2 3 4 5 6 
#
# 1 0.026118 -0.000313 0.005634 0.008499 -0.016726 -0.026084
# 2 -0.000313 0.007828 -0.001312 -0.003164 -0.000090 -0.001719
# 3 0.005634 -0.001312 0.014885 -0.000027 -0.010665 -0.010084
# 4 0.008499 -0.003164 -0.000027 0.030383 -0.006787 -0.012949
# 5 -0.016726 -0.000090 -0.010665 -0.006787 0.026926 0.018274
# 6 -0.026084 -0.001719 -0.010084 -0.012949 0.018274 0.045949
#
#
# Mechanical properties :
#
#
# Convention : Reuss Voigt Hill
#
# Bulk Modulus (GPa) = 17.59034 62.40780 39.99907
# Shear Modulus (GPa) = 30.67106 57.25760 43.96433
#
# Velocity S-wave (km/s) = 3.26344 4.45890 3.90716
# Velocity P-wave (km/s) = 4.50645 6.94113 5.85181
#
# Compressibility (1/GPa) = 0.05684938
#
# Stress axis : x y z
#
# Youngs Moduli (GPa) = 38.28779 127.74200 67.18378
#
# Poissons Ratio (x) = 0.03998 -0.37853
# Poissons Ratio (y) = 0.01198 0.08815
# Poissons Ratio (z) = -0.21573 0.16761
#
# Static dielectric constant tensor:
#      x y z
#    x 2.156890 0.075280 0.012840 
#    y 0.075280 2.301660 -0.236700 
#    z 0.012840 -0.236700 2.307070 
# 
# From -- ./inp_files/17828.got.cif
#   From: 2010.05.17/outbox.cif.g08.bks.cpg/sg2_9_cif.got.tgz:17828.got - 2010.06.03 11:33:40.
