data_PCOD9105051
_publ_section_title
;
Structure prediction by ZEFSAII (Michael W. Deem and Ramdas Pophale) SiO2 
 PCOD9105051
Probable space group: P -1
;
_chemical_formula_sum "Si O2"
_cell_formula_units_Z 16
_cell_length_a 15.000568
_cell_length_b 15.277803
_cell_length_c 8.474046
_cell_angle_alpha 104.669462
_cell_angle_beta 113.970252
_cell_angle_gamma 27.031784
_cell_volume 778.424336
_symmetry_space_group_name_H-M "P -1"
_symmetry_group_IT_number 2
_symmetry_cell_setting 'triclinic'
loop_
_space_group_symop_operation_xyz
x,y,z
-x,-y,-z
loop_
_atom_site_type_symbol
_atom_site_label
_atom_site_fract_x
_atom_site_fract_y
_atom_site_fract_z
Si Si1 0.168649 0.436622 0.159591
Si Si2 0.922670 0.144744 0.362662
Si Si3 0.010331 0.585916 0.455521
Si Si4 0.520209 0.547527 0.880854
Si Si5 0.830141 0.229246 0.686682
Si Si6 0.895333 0.337840 0.206147
Si Si7 0.391433 0.003243 0.842576
Si Si8 0.085353 0.180350 0.961417
O O1 0.148598 0.453478 0.339676
O O2 0.089311 0.600232 0.119614
O O3 0.411241 0.215144 0.186157
O O4 0.000000 0.500000 0.000000
O O5 0.728180 0.234005 0.237422
O O6 0.867749 0.231960 0.534504
O O7 0.928977 0.219508 0.276926
O O8 0.128163 0.911607 0.374163
O O9 0.115996 0.570244 0.641734
O O10 0.000000 0.500000 0.500000
O O11 0.787181 0.813669 0.328259
O O12 0.624178 0.416765 0.737164
O O13 0.500000 0.500000 0.000000
O O14 0.675938 0.499813 0.024221
O O15 0.004303 0.145115 0.867631
O O16 0.091334 0.191029 0.157920
O O17 0.279766 0.039875 0.920265
O O18 0.500000 0.000000 0.000000
#
# Coordination Sequence:
#
# PCOD9105051 Si02
#       8
#     2   2   2   2   2   2   2   2
#     4  11  21  42  64  88 124 165 209 266 317 376
#     4  10  20  39  63  89 125 163 214 261 316 371
#     4  11  24  42  65  95 131 163 210 269 320 372
#     4   9  20  37  59  87 119 161 204 250 316 372
#     4  10  21  38  62  90 126 165 208 265 313 379
#     4  10  22  41  60  90 130 165 207 268 317 376
#     4  11  23  42  68  91 120 171 220 253 317 391
#     4  10  22  39  62  90 127 168 213 259 322 376
#
# _framework density 20.55434
#
# number of rings (size 3 to 8) (size 9 to 14) (size 15 to 20)
#    0.000    1.750    2.500    2.625    0.000    7.000 
#    0.000   11.250    0.000    0.000    0.000    0.000 
#    0.000    0.000    0.000    0.000    0.000    0.000 
#
# Total GULP energy -89129.161147 kJ/mol
# GULP energy per Si atom -5570.572572 kJ/mol
# Density = 2.050756 g / cm^3
# Si number density = 20.554340 Si / 1000 Ang^3
#
#
#
# Elastic Constant Matrix: (Units=GPa)
#
#
# Indices 1 2 3 4 5 6 
#
# 1 105.9071 40.0834 22.9850 20.1922 -24.8090 -10.9798
# 2 40.0834 123.5391 27.4468 30.2022 -15.6312 -24.6182
# 3 22.9850 27.4468 98.3754 31.8779 -10.3879 -8.3419
# 4 20.1922 30.2022 31.8779 24.2626 -8.5390 -2.9826
# 5 -24.8090 -15.6312 -10.3879 -8.5390 42.1078 8.0648
# 6 -10.9798 -24.6182 -8.3419 -2.9826 8.0648 29.3515
#
#
#
# Elastic Compliance Matrix: (Units=1/GPa)
#
#
# Indices 1 2 3 4 5 6 
#
# 1 0.012678 -0.001470 0.000514 -0.007358 0.005279 0.001457
# 2 -0.001470 0.015187 0.004098 -0.021968 -0.000847 0.011353
# 3 0.000514 0.004098 0.019119 -0.030154 -0.000764 0.006209
# 4 -0.007358 -0.021968 -0.030154 0.114335 0.007103 -0.020081
# 5 0.005279 -0.000847 -0.000764 0.007103 0.028983 -0.006194
# 6 0.001457 0.011353 0.006209 -0.020081 -0.006194 0.045563
#
#
# Mechanical properties :
#
#
# Convention : Reuss Voigt Hill
#
# Bulk Modulus (GPa) = 18.77341 56.53912 37.65627
# Shear Modulus (GPa) = 20.21528 34.96482 27.59005
#
# Velocity S-wave (km/s) = 3.13949 4.12890 3.66771
# Velocity P-wave (km/s) = 4.72178 7.09206 6.02464
#
# Compressibility (1/GPa) = 0.05326682
#
# Stress axis : x y z
#
# Youngs Moduli (GPa) = 78.87719 65.84572 52.30443
#
# Poissons Ratio (x) = 0.09681 -0.02686
# Poissons Ratio (y) = 0.11597 -0.21436
# Poissons Ratio (z) = -0.04051 -0.26985
#
# Static dielectric constant tensor:
#      x y z
#    x 1.774520 -0.025530 -0.048110 
#    y -0.025530 1.851310 0.019260 
#    z -0.048110 0.019260 1.809730 
# 
# From -- ./inp_files/315670.got.cif
#   From: 2010.05.17/outbox.cif.g08.bks.cpg/sg2_158_cif.got.tgz:315670.got - 2010.06.03 11:33:40.
