data_PCOD9105872
_publ_section_title
;
Structure prediction by ZEFSAII (Michael W. Deem and Ramdas Pophale) SiO2 
 PCOD9105872
Probable space group: P -1
;
_chemical_formula_sum "Si O2"
_cell_formula_units_Z 16
_cell_length_a 12.769684
_cell_length_b 11.399383
_cell_length_c 6.925735
_cell_angle_alpha 88.791942
_cell_angle_beta 129.326203
_cell_angle_gamma 85.124114
_cell_volume 773.354171
_symmetry_space_group_name_H-M "P -1"
_symmetry_group_IT_number 2
_symmetry_cell_setting 'triclinic'
loop_
_space_group_symop_operation_xyz
x,y,z
-x,-y,-z
loop_
_atom_site_type_symbol
_atom_site_label
_atom_site_fract_x
_atom_site_fract_y
_atom_site_fract_z
Si Si1 0.283405 0.305112 0.797385
Si Si2 0.645003 0.139038 0.066509
Si Si3 0.647648 0.922403 0.341299
Si Si4 0.073057 0.954626 0.782564
Si Si5 0.440084 0.624009 0.828078
Si Si6 0.085999 0.400786 0.891125
Si Si7 0.216988 0.496958 0.391732
Si Si8 0.895801 0.847200 0.878671
O O1 0.293353 0.168074 0.757392
O O2 0.157042 0.356593 0.777706
O O3 0.276043 0.378689 0.584450
O O4 0.421569 0.324209 0.074133
O O5 0.775873 0.104905 0.089140
O O6 0.626811 0.275440 0.105777
O O7 0.658153 0.054284 0.274893
O O8 0.506508 0.104574 0.810660
O O9 0.740820 0.888447 0.634201
O O10 0.988197 0.866185 0.801070
O O11 0.000000 0.000000 0.500000
O O12 0.070705 0.067202 0.914669
O O13 0.324643 0.590201 0.548345
O O14 0.500000 0.500000 0.000000
O O15 0.931490 0.461599 0.689735
O O16 0.181079 0.476816 0.127045
O O17 0.080209 0.285688 0.019476
#
# Coordination Sequence:
#
# PCOD9105872 Si02
#       8
#     2   2   2   2   2   2   2   2
#     4  10  20  41  64  88 123 166 204 258 320 358
#     4  10  21  39  67  92 121 169 205 253 321 369
#     4  10  20  39  66  92 122 158 211 257 306 383
#     4  11  24  41  63  93 128 168 200 253 323 372
#     4   9  21  40  64  89 123 163 208 257 305 369
#     4  11  23  37  62  93 121 166 210 259 310 361
#     4  10  22  40  59  89 126 162 216 258 299 376
#     4  11  24  40  62  93 130 160 212 260 306 377
#
# _framework density 20.689097
#
# number of rings (size 3 to 8) (size 9 to 14) (size 15 to 20)
#    0.000    1.750    2.500    1.125    1.750    1.000 
#    9.000    1.250    0.000    0.000    0.000    0.000 
#    0.000    0.000    0.000    0.000    0.000    0.000 
#
# Total GULP energy -89339.497079 kJ/mol
# GULP energy per Si atom -5583.718567 kJ/mol
# Density = 2.064201 g / cm^3
# Si number density = 20.689097 Si / 1000 Ang^3
#
#
#
# Elastic Constant Matrix: (Units=GPa)
#
#
# Indices 1 2 3 4 5 6 
#
# 1 56.3802 19.2054 21.3295 -8.3257 8.7987 -23.1131
# 2 19.2054 68.9079 28.4321 7.6393 1.3948 3.8236
# 3 21.3295 28.4321 84.5353 -2.5937 17.3690 6.0896
# 4 -8.3257 7.6393 -2.5937 18.8256 1.3306 2.2482
# 5 8.7987 1.3948 17.3690 1.3306 27.1202 -0.3447
# 6 -23.1131 3.8236 6.0896 2.2482 -0.3447 23.4311
#
#
#
# Elastic Compliance Matrix: (Units=1/GPa)
#
#
# Indices 1 2 3 4 5 6 
#
# 1 0.057353 -0.017909 -0.009469 0.025092 -0.012098 0.059373
# 2 -0.017909 0.024016 -0.004347 -0.016587 0.007935 -0.018747
# 3 -0.009469 -0.004347 0.018579 0.002416 -0.008897 -0.013822
# 4 0.025092 -0.016587 0.002416 0.069744 -0.012003 0.019962
# 5 -0.012098 0.007935 -0.008897 -0.012003 0.046562 -0.009080
# 6 0.059373 -0.018747 -0.013822 0.019962 -0.009080 0.105848
#
#
# Mechanical properties :
#
#
# Convention : Reuss Voigt Hill
#
# Bulk Modulus (GPa) = 27.40003 38.63972 33.01988
# Shear Modulus (GPa) = 12.57171 23.26578 17.91875
#
# Velocity S-wave (km/s) = 2.46773 3.35706 2.94614
# Velocity P-wave (km/s) = 4.62515 5.80890 5.25050
#
# Compressibility (1/GPa) = 0.03649631
#
# Stress axis : x y z
#
# Youngs Moduli (GPa) = 17.43589 41.63894 53.82559
#
# Poissons Ratio (x) = 0.74573 0.50966
# Poissons Ratio (y) = 0.31227 0.23400
# Poissons Ratio (z) = 0.16510 0.18102
#
# Static dielectric constant tensor:
#      x y z
#    x 1.735060 0.012460 0.023830 
#    y 0.012460 1.745300 0.019840 
#    z 0.023830 0.019840 1.758990 
# 
# From -- ./inp_files/70285.got.cif
#   From: 2010.05.17/outbox.cif.g08.bks.cpg/sg2_36_cif.got.tgz:70285.got - 2010.06.03 11:33:40.
