data_PCOD9105196
_publ_section_title
;
Structure prediction by ZEFSAII (Michael W. Deem and Ramdas Pophale) SiO2 
 PCOD9105196
Probable space group: P -1
;
_chemical_formula_sum "Si O2"
_cell_formula_units_Z 16
_cell_length_a 9.179507
_cell_length_b 23.003629
_cell_length_c 15.853677
_cell_angle_alpha 161.275095
_cell_angle_beta 110.884227
_cell_angle_gamma 58.465233
_cell_volume 789.276277
_symmetry_space_group_name_H-M "P -1"
_symmetry_group_IT_number 2
_symmetry_cell_setting 'triclinic'
loop_
_space_group_symop_operation_xyz
x,y,z
-x,-y,-z
loop_
_atom_site_type_symbol
_atom_site_label
_atom_site_fract_x
_atom_site_fract_y
_atom_site_fract_z
Si Si1 0.795112 0.548600 0.008900
Si Si2 0.442937 0.413475 0.613150
Si Si3 0.387481 0.668134 0.285555
Si Si4 0.489666 0.059196 0.373933
Si Si5 0.813446 0.498749 0.461212
Si Si6 0.302084 0.434184 0.181043
Si Si7 0.570927 0.977052 0.873508
Si Si8 0.998727 0.207032 0.257762
O O1 0.638764 0.756076 0.324928
O O2 0.794867 0.333133 0.733350
O O3 0.739050 0.599897 0.969615
O O4 0.000000 0.500000 0.000000
O O5 0.465300 0.454156 0.771362
O O6 0.237426 0.555452 0.713935
O O7 0.583437 0.454513 0.649490
O O8 0.498242 0.161312 0.288019
O O9 0.353302 0.900989 0.572494
O O10 0.500000 0.500000 0.000000
O O11 0.375987 0.098972 0.318127
O O12 0.575597 0.811444 0.085919
O O13 0.000000 0.500000 0.500000
O O14 0.871481 0.320782 0.302772
O O15 0.610331 0.751267 0.789370
O O16 0.108515 0.604065 0.430900
O O17 0.775909 0.889961 0.838201
O O18 0.000000 0.000000 0.000000
#
# Coordination Sequence:
#
# PCOD9105196 Si02
#       8
#     2   2   2   2   2   2   2   2
#     4  10  20  39  63  95 128 166 213 269 331 391
#     4  10  22  39  65  90 130 170 215 267 324 386
#     4   8  18  38  64  89 122 171 209 262 329 382
#     4  10  20  39  65  90 127 169 215 266 323 389
#     4  12  25  43  66  96 128 174 229 268 326 393
#     4  11  23  41  63  97 127 171 222 268 331 391
#     4  11  23  44  64  92 131 174 215 274 325 388
#     4  12  27  42  65  95 133 174 222 272 329 387
#
# _framework density 20.271736000000001
#
# number of rings (size 3 to 8) (size 9 to 14) (size 15 to 20)
#    0.000    1.500    2.500    2.250    3.500    1.000 
#    0.000    1.875    0.000    0.000    0.000    0.000 
#    0.000    0.000    0.000    0.000    0.000    0.000 
#
# Total GULP energy -89217.931664 kJ/mol
# GULP energy per Si atom -5576.120729 kJ/mol
# Density = 2.022560 g / cm^3
# Si number density = 20.271736 Si / 1000 Ang^3
#
#
#
# Elastic Constant Matrix: (Units=GPa)
#
#
# Indices 1 2 3 4 5 6 
#
# 1 116.6774 69.3701 42.7623 10.8516 14.3748 -6.2324
# 2 69.3701 149.6030 47.8103 3.2822 9.8073 4.6974
# 3 42.7623 47.8103 85.3768 16.5226 10.3509 4.8554
# 4 10.8516 3.2822 16.5226 38.7530 13.2638 6.6613
# 5 14.3748 9.8073 10.3509 13.2638 35.5822 0.6642
# 6 -6.2324 4.6974 4.8554 6.6613 0.6642 38.4011
#
#
#
# Elastic Compliance Matrix: (Units=1/GPa)
#
#
# Indices 1 2 3 4 5 6 
#
# 1 0.013519 -0.005053 -0.003529 -0.001610 -0.002509 0.003581
# 2 -0.005053 0.010194 -0.003485 0.002632 -0.000697 -0.002071
# 3 -0.003529 -0.003485 0.016606 -0.005440 -0.000393 -0.001296
# 4 -0.001610 0.002632 -0.005440 0.032935 -0.010669 -0.005424
# 5 -0.002509 -0.000697 -0.000393 -0.010669 0.033382 0.001001
# 6 0.003581 -0.002071 -0.001296 -0.005424 0.001001 0.027963
#
#
# Mechanical properties :
#
#
# Convention : Reuss Voigt Hill
#
# Bulk Modulus (GPa) = 61.78853 74.61585 68.20219
# Shear Modulus (GPa) = 30.46408 35.32822 32.89615
#
# Velocity S-wave (km/s) = 3.88078 4.17913 4.03272
# Velocity P-wave (km/s) = 7.11526 7.75723 7.44317
#
# Compressibility (1/GPa) = 0.01618423
#
# Stress axis : x y z
#
# Youngs Moduli (GPa) = 73.97233 98.09544 60.21992
#
# Poissons Ratio (x) = 0.49570 0.21253
# Poissons Ratio (y) = 0.37380 0.20985
# Poissons Ratio (z) = 0.26106 0.34183
#
# Static dielectric constant tensor:
#      x y z
#    x 1.748900 0.027280 0.017790 
#    y 0.027280 1.759850 -0.059500 
#    z 0.017790 -0.059500 1.750220 
# 
# From -- ./inp_files/228005.got.cif
#   From: 2010.05.17/outbox.cif.g08.bks.cpg/sg2_115_cif.got.tgz:228005.got - 2010.06.03 11:33:40.
