data_PCOD9105414
_publ_section_title
;
Structure prediction by ZEFSAII (Michael W. Deem and Ramdas Pophale) SiO2 
 PCOD9105414
Probable space group: P -1
;
_chemical_formula_sum "Si O2"
_cell_formula_units_Z 16
_cell_length_a 7.811517
_cell_length_b 5.151365
_cell_length_c 18.567469
_cell_angle_alpha 89.931875
_cell_angle_beta 115.951033
_cell_angle_gamma 85.391667
_cell_volume 669.094927
_symmetry_space_group_name_H-M "P -1"
_symmetry_group_IT_number 2
_symmetry_cell_setting 'triclinic'
loop_
_space_group_symop_operation_xyz
x,y,z
-x,-y,-z
loop_
_atom_site_type_symbol
_atom_site_label
_atom_site_fract_x
_atom_site_fract_y
_atom_site_fract_z
Si Si1 0.455664 0.263977 0.715189
Si Si2 0.757407 0.225947 0.561619
Si Si3 0.713138 0.727413 0.757174
Si Si4 0.053626 0.406600 0.872000
Si Si5 0.002056 0.973949 0.269460
Si Si6 0.406401 0.260552 0.020926
Si Si7 0.327949 0.648774 0.811901
Si Si8 0.318299 0.262942 0.538157
O O1 0.584078 0.497297 0.713398
O O2 0.368155 0.394562 0.771256
O O3 0.313730 0.233198 0.623041
O O4 0.585043 0.993901 0.751277
O O5 0.544586 0.236900 0.557667
O O6 0.764967 0.462942 0.508541
O O7 0.779661 0.961521 0.520543
O O8 0.910706 0.217104 0.653499
O O9 0.859190 0.592498 0.843716
O O10 0.844830 0.814220 0.716015
O O11 0.191911 0.578236 0.852039
O O12 0.014636 0.174225 0.809814
O O13 0.179900 0.299079 0.962813
O O14 0.799400 0.123725 0.252182
O O15 0.481482 0.264328 0.116249
O O16 0.500000 0.500000 0.000000
O O17 0.500000 0.000000 0.000000
#
# Coordination Sequence:
#
# PCOD9105414 Si02
#       8
#     2   2   2   2   2   2   2   2
#     4  12  24  42  61  92 131 165 198 252 328 364
#     4  10  21  34  60  87 115 154 215 252 292 353
#     4  11  23  38  65  90 123 166 206 254 299 371
#     4  10  21  41  69  93 120 162 215 257 294 360
#     4  11  21  40  65  95 118 163 213 255 298 364
#     4  10  20  39  64  94 121 159 209 252 296 359
#     4  10  25  39  66  94 127 164 202 254 312 375
#     4  10  21  36  57  87 119 157 202 258 300 359
#
# _framework density 23.912901999999999
#
# number of rings (size 3 to 8) (size 9 to 14) (size 15 to 20)
#    0.000    1.500    3.750    0.750    8.750    0.000 
#    0.000    2.500    0.000    0.000    0.000    0.000 
#    0.000    0.000    0.000    0.000    0.000    0.000 
#
# Total GULP energy -89515.052328 kJ/mol
# GULP energy per Si atom -5594.690770 kJ/mol
# Density = 2.385848 g / cm^3
# Si number density = 23.912902 Si / 1000 Ang^3
#
#
#
# Elastic Constant Matrix: (Units=GPa)
#
#
# Indices 1 2 3 4 5 6 
#
# 1 53.6836 20.3252 20.2998 -1.5342 2.7806 -12.8282
# 2 20.3252 161.3220 35.4263 -4.0238 7.5619 -17.0813
# 3 20.2998 35.4263 100.8097 -10.6232 15.5668 -16.6620
# 4 -1.5342 -4.0238 -10.6232 33.9840 -3.6359 6.5198
# 5 2.7806 7.5619 15.5668 -3.6359 19.9876 -2.1270
# 6 -12.8282 -17.0813 -16.6620 6.5198 -2.1270 38.3003
#
#
#
# Elastic Compliance Matrix: (Units=1/GPa)
#
#
# Indices 1 2 3 4 5 6 
#
# 1 0.021621 -0.001513 -0.003101 -0.001179 0.000344 0.005438
# 2 -0.001513 0.007004 -0.001731 -0.000236 -0.000937 0.001852
# 3 -0.003101 -0.001731 0.013208 0.002289 -0.008457 0.003076
# 4 -0.001179 -0.000236 0.002289 0.031343 0.003679 -0.004635
# 5 0.000344 -0.000937 -0.008457 0.003679 0.057442 -0.001418
# 6 0.005438 0.001852 0.003076 -0.004635 -0.001418 0.030805
#
#
# Mechanical properties :
#
#
# Convention : Reuss Voigt Hill
#
# Bulk Modulus (GPa) = 34.31231 51.99087 43.15159
# Shear Modulus (GPa) = 27.19974 34.43864 30.81919
#
# Velocity S-wave (km/s) = 3.37627 3.79907 3.59389
# Velocity P-wave (km/s) = 5.43865 6.40569 5.94188
#
# Compressibility (1/GPa) = 0.02914406
#
# Stress axis : x y z
#
# Youngs Moduli (GPa) = 46.25162 142.78432 75.71357
#
# Poissons Ratio (x) = 0.21602 0.23476
# Poissons Ratio (y) = 0.06997 0.13103
# Poissons Ratio (z) = 0.14341 0.24709
#
# Static dielectric constant tensor:
#      x y z
#    x 1.994040 -0.017960 -0.026150 
#    y -0.017960 1.956550 0.084560 
#    z -0.026150 0.084560 2.071890 
# 
# From -- ./inp_files/53772.got.cif
#   From: 2010.05.17/outbox.cif.g08.bks.cpg/sg2_27_cif.got.tgz:53772.got - 2010.06.03 11:33:40.
