data_PCOD9105531
_publ_section_title
;
Structure prediction by ZEFSAII (Michael W. Deem and Ramdas Pophale) SiO2 
 PCOD9105531
Probable space group: P -1
;
_chemical_formula_sum "Si O2"
_cell_formula_units_Z 14
_cell_length_a 8.735916
_cell_length_b 16.719751
_cell_length_c 11.512053
_cell_angle_alpha 41.195220
_cell_angle_beta 88.731647
_cell_angle_gamma 59.491474
_cell_volume 737.716863
_symmetry_space_group_name_H-M "P -1"
_symmetry_group_IT_number 2
_symmetry_cell_setting 'triclinic'
loop_
_space_group_symop_operation_xyz
x,y,z
-x,-y,-z
loop_
_atom_site_type_symbol
_atom_site_label
_atom_site_fract_x
_atom_site_fract_y
_atom_site_fract_z
Si Si1 0.581451 0.453872 0.183882
Si Si2 0.549019 0.747226 0.943414
Si Si3 0.858398 0.700480 0.825923
Si Si4 0.240658 0.215599 0.904779
Si Si5 0.177312 0.547872 0.200223
Si Si6 0.700315 0.794378 0.356320
Si Si7 0.094250 0.139043 0.555536
O O1 0.400560 0.493534 0.226325
O O2 0.836032 0.249198 0.418415
O O3 0.500000 0.500000 0.000000
O O4 0.603757 0.579538 0.087666
O O5 0.625629 0.788352 0.790452
O O6 0.282464 0.922374 0.785352
O O7 0.692750 0.712367 0.089152
O O8 0.841218 0.805279 0.608946
O O9 0.000000 0.500000 0.000000
O O10 0.008622 0.666777 0.963990
O O11 0.259034 0.242035 0.741874
O O12 0.985078 0.326348 0.824581
O O13 0.439914 0.996739 0.160559
O O14 0.248542 0.364147 0.410945
O O15 0.863569 0.804222 0.392892
#
# Coordination Sequence:
#
# PCOD9105531 Si02
#       7
#     2   2   2   2   2   2   2
#     4  12  24  39  52  83 127 155 182 225 279 348
#     4  10  22  37  59  82 112 150 191 235 280 330
#     4  11  17  36  57  82 113 142 193 241 275 330
#     4   9  21  40  62  88 108 140 198 244 275 329
#     4  11  21  35  58  83 116 152 184 230 285 335
#     4  10  20  39  65  85 109 145 191 243 284 321
#     4  11  21  37  59  83 112 152 189 231 285 330
#
# _framework density 18.977471000000001
#
# number of rings (size 3 to 8) (size 9 to 14) (size 15 to 20)
#    0.000    1.429    4.286    1.714    0.000    1.714 
#    0.000    2.857    0.000    5.143    0.000    0.000 
#    0.000    0.000    0.000    0.000    0.000    0.000 
#
# Total GULP energy -78146.328032 kJ/mol
# GULP energy per Si atom -5581.880574 kJ/mol
# Density = 1.893428 g / cm^3
# Si number density = 18.977471 Si / 1000 Ang^3
#
#
#
# Elastic Constant Matrix: (Units=GPa)
#
#
# Indices 1 2 3 4 5 6 
#
# 1 57.0121 36.7510 10.2587 -13.8052 21.2993 -25.0399
# 2 36.7510 95.6088 15.9431 -3.9914 9.6705 -2.2665
# 3 10.2587 15.9431 50.0350 -6.0165 15.3024 -5.0463
# 4 -13.8052 -3.9914 -6.0165 24.0445 -6.9409 11.9869
# 5 21.2993 9.6705 15.3024 -6.9409 25.3770 -9.2523
# 6 -25.0399 -2.2665 -5.0463 11.9869 -9.2523 30.2638
#
#
#
# Elastic Compliance Matrix: (Units=1/GPa)
#
#
# Indices 1 2 3 4 5 6 
#
# 1 0.056458 -0.018882 0.008008 0.004778 -0.030838 0.035314
# 2 -0.018882 0.017515 -0.005409 -0.000826 0.007633 -0.012552
# 3 0.008008 -0.005409 0.026444 0.003132 -0.018374 0.003772
# 4 0.004778 -0.000826 0.003132 0.053874 0.003354 -0.015899
# 5 -0.030838 0.007633 -0.018374 0.003354 0.071670 -0.007425
# 6 0.035314 -0.012552 0.003772 -0.015899 -0.007425 0.065977
#
#
# Mechanical properties :
#
#
# Convention : Reuss Voigt Hill
#
# Bulk Modulus (GPa) = 14.73788 36.50683 25.62236
# Shear Modulus (GPa) = 14.40417 25.25061 19.82739
#
# Velocity S-wave (km/s) = 2.75801 3.65164 3.23582
# Velocity P-wave (km/s) = 4.23379 6.08753 5.24323
#
# Compressibility (1/GPa) = 0.06785236
#
# Stress axis : x y z
#
# Youngs Moduli (GPa) = 17.71217 57.09345 37.81548
#
# Poissons Ratio (x) = 1.07802 -0.30283
# Poissons Ratio (y) = 0.33443 0.20456
# Poissons Ratio (z) = -0.14184 0.30884
#
# Static dielectric constant tensor:
#      x y z
#    x 1.644020 -0.007530 0.026210 
#    y -0.007530 1.686840 -0.016450 
#    z 0.026210 -0.016450 1.670550 
# 
# From -- ./inp_files/246463.got.cif
#   From: 2010.05.17/outbox.cif.g08.bks.cpg/sg2_124_cif.got.tgz:246463.got - 2010.06.03 11:33:40.
