data_PCOD9105607
_publ_section_title
;
Structure prediction by ZEFSAII (Michael W. Deem and Ramdas Pophale) SiO2 
 PCOD9105607
Probable space group: P -1
;
_chemical_formula_sum "Si O2"
_cell_formula_units_Z 14
_cell_length_a 17.894040
_cell_length_b 7.292434
_cell_length_c 12.370388
_cell_angle_alpha 59.274818
_cell_angle_beta 157.827872
_cell_angle_gamma 121.264983
_cell_volume 518.421392
_symmetry_space_group_name_H-M "P -1"
_symmetry_group_IT_number 2
_symmetry_cell_setting 'triclinic'
loop_
_space_group_symop_operation_xyz
x,y,z
-x,-y,-z
loop_
_atom_site_type_symbol
_atom_site_label
_atom_site_fract_x
_atom_site_fract_y
_atom_site_fract_z
Si Si1 0.513484 0.869620 0.344356
Si Si2 0.080383 0.468864 0.237173
Si Si3 0.887568 0.834448 0.982584
Si Si4 0.163176 0.130107 0.861052
Si Si5 0.388888 0.781413 0.805043
Si Si6 0.540043 0.433630 0.824149
Si Si7 0.835987 0.682397 0.402006
O O1 0.655063 0.842668 0.643117
O O2 0.457843 0.651266 0.268637
O O3 0.321978 0.969230 0.097998
O O4 0.633041 0.024973 0.364986
O O5 0.323274 0.506509 0.538432
O O6 0.069213 0.268068 0.367714
O O7 0.000000 0.500000 0.000000
O O8 0.952550 0.615237 0.092491
O O9 0.943008 0.912177 0.154233
O O10 0.000000 0.000000 0.000000
O O11 0.296771 0.362725 0.997282
O O12 0.049663 0.194321 0.581954
O O13 0.223454 0.575092 0.618961
O O14 0.411017 0.759360 0.971521
O O15 0.613352 0.744249 0.084013
#
# Coordination Sequence:
#
# PCOD9105607 Si02
#       7
#     2   2   2   2   2   2   2
#     4  11  20  37  62  94 124 160 201 258 304 363
#     4  11  21  39  59  93 130 163 200 242 305 381
#     4  12  25  41  61  88 125 169 202 253 322 376
#     4  10  23  42  63  92 121 160 215 261 303 359
#     4   8  15  31  60  93 116 154 207 250 299 357
#     4  10  20  39  65  92 123 161 207 255 302 364
#     4   8  16  34  62  84 121 165 201 252 300 354
#
# _framework density 27.00506
#
# number of rings (size 3 to 8) (size 9 to 14) (size 15 to 20)
#    0.000    2.000    1.429    5.143    0.000    1.143 
#    2.571    0.000    0.000    0.857    0.000    0.000 
#    0.000    0.000    0.000    0.000    0.000    0.000 
#
# Total GULP energy -78239.555554 kJ/mol
# GULP energy per Si atom -5588.539682 kJ/mol
# Density = 2.694360 g / cm^3
# Si number density = 27.005060 Si / 1000 Ang^3
#
#
#
# Elastic Constant Matrix: (Units=GPa)
#
#
# Indices 1 2 3 4 5 6 
#
# 1 181.1494 22.7819 63.9283 7.6299 -25.9756 -7.3160
# 2 22.7819 41.2253 17.3389 1.7644 6.4507 -4.8518
# 3 63.9283 17.3389 140.6548 -1.9799 -31.1732 -0.3472
# 4 7.6299 1.7644 -1.9799 19.0634 -9.1896 -8.6631
# 5 -25.9756 6.4507 -31.1732 -9.1896 66.2523 -1.0540
# 6 -7.3160 -4.8518 -0.3472 -8.6631 -1.0540 50.1012
#
#
#
# Elastic Compliance Matrix: (Units=1/GPa)
#
#
# Indices 1 2 3 4 5 6 
#
# 1 0.007121 -0.002999 -0.002526 -0.001837 0.001648 0.000449
# 2 -0.002999 0.028764 -0.003620 -0.004176 -0.006236 0.001469
# 3 -0.002526 -0.003620 0.009797 0.004714 0.004630 0.000261
# 4 -0.001837 -0.004176 0.004714 0.064223 0.010983 0.010696
# 5 0.001648 -0.006236 0.004630 0.010983 0.020080 0.001990
# 6 0.000449 0.001469 0.000261 0.010696 0.001990 0.022061
#
#
# Mechanical properties :
#
#
# Convention : Reuss Voigt Hill
#
# Bulk Modulus (GPa) = 36.50750 63.45865 49.98307
# Shear Modulus (GPa) = 27.86034 44.34874 36.10454
#
# Velocity S-wave (km/s) = 3.21545 4.05685 3.66041
# Velocity P-wave (km/s) = 5.22815 6.74491 6.03438
#
# Compressibility (1/GPa) = 0.02739163
#
# Stress axis : x y z
#
# Youngs Moduli (GPa) = 140.43485 34.76561 102.07011
#
# Poissons Ratio (x) = 0.10426 0.25786
# Poissons Ratio (y) = 0.42114 0.36949
# Poissons Ratio (z) = 0.35479 0.12585
#
# Static dielectric constant tensor:
#      x y z
#    x 2.140430 0.029600 -0.070070 
#    y 0.029600 2.131960 0.070660 
#    z -0.070070 0.070660 2.120080 
# 
# From -- ./inp_files/460454.got.cif
#   From: 2010.05.17/outbox.cif.g08.bks.cpg/sg2_231_cif.got.tgz:460454.got - 2010.06.03 11:33:40.
