data_PCOD9105031
_publ_section_title
;
Structure prediction by ZEFSAII (Michael W. Deem and Ramdas Pophale) SiO2 
 PCOD9105031
Probable space group: P -1
;
_chemical_formula_sum "Si O2"
_cell_formula_units_Z 14
_cell_length_a 8.653002
_cell_length_b 13.607167
_cell_length_c 9.002064
_cell_angle_alpha 49.192853
_cell_angle_beta 74.172390
_cell_angle_gamma 54.060043
_cell_volume 638.836886
_symmetry_space_group_name_H-M "P -1"
_symmetry_group_IT_number 2
_symmetry_cell_setting 'triclinic'
loop_
_space_group_symop_operation_xyz
x,y,z
-x,-y,-z
loop_
_atom_site_type_symbol
_atom_site_label
_atom_site_fract_x
_atom_site_fract_y
_atom_site_fract_z
Si Si1 0.521001 0.129853 0.949182
Si Si2 0.580855 0.430137 0.307539
Si Si3 0.647304 0.922798 0.676399
Si Si4 0.949918 0.385681 0.196370
Si Si5 0.436714 0.237595 0.559053
Si Si6 0.980863 0.640613 0.460038
Si Si7 0.740577 0.262218 0.745378
O O1 0.418085 0.263248 0.716889
O O2 0.726223 0.113611 0.922928
O O3 0.425398 0.152654 0.111288
O O4 0.500000 0.000000 0.000000
O O5 0.450570 0.369343 0.345537
O O6 0.694618 0.311713 0.534547
O O7 0.435674 0.601250 0.244190
O O8 0.745272 0.414822 0.174876
O O9 0.866710 0.791351 0.704428
O O10 0.500000 0.000000 0.500000
O O11 0.621291 0.070285 0.625459
O O12 0.927739 0.422175 0.341130
O O13 0.000000 0.500000 0.000000
O O14 0.247695 0.240126 0.568128
O O15 0.000000 0.500000 0.500000
O O16 0.077991 0.725160 0.281743
#
# Coordination Sequence:
#
# PCOD9105031 Si02
#       7
#     2   2   2   2   2   2   2
#     4   9  20  37  62  84 114 162 207 242 294 362
#     4   9  18  34  58  87 116 155 204 247 301 356
#     4  11  22  40  60  85 128 162 192 248 315 362
#     4  11  24  39  61  88 121 164 204 244 306 369
#     4  10  20  39  63  89 118 159 205 253 301 357
#     4  11  21  36  63  93 122 154 204 259 304 352
#     4   9  17  33  59  88 118 153 201 260 295 347
#
# _framework density 21.914826000000001
#
# number of rings (size 3 to 8) (size 9 to 14) (size 15 to 20)
#    0.000    2.000    2.857    0.857    4.000    0.571 
#    0.000    5.000    3.143    0.000    0.000    0.000 
#    0.000    0.000    0.000    0.000    0.000    0.000 
#
# Total GULP energy -77954.098835 kJ/mol
# GULP energy per Si atom -5568.149917 kJ/mol
# Density = 2.186495 g / cm^3
# Si number density = 21.914826 Si / 1000 Ang^3
#
#
#
# Elastic Constant Matrix: (Units=GPa)
#
#
# Indices 1 2 3 4 5 6 
#
# 1 122.8577 36.4109 42.8063 2.9548 -55.8820 -5.6425
# 2 36.4109 119.1131 19.4923 1.7280 -19.8994 -1.7147
# 3 42.8063 19.4923 83.6065 12.1772 -31.2645 0.9083
# 4 2.9548 1.7280 12.1772 23.9348 2.0040 -3.9598
# 5 -55.8820 -19.8994 -31.2645 2.0040 48.9543 2.2514
# 6 -5.6425 -1.7147 0.9083 -3.9598 2.2514 29.7458
#
#
#
# Elastic Compliance Matrix: (Units=1/GPa)
#
#
# Indices 1 2 3 4 5 6 
#
# 1 0.017880 -0.002055 -0.001257 -0.002743 0.018815 0.001522
# 2 -0.002055 0.009309 -0.000743 -0.000108 0.000964 0.000082
# 3 -0.001257 -0.000743 0.018256 -0.010458 0.010490 -0.003025
# 4 -0.002743 -0.000108 -0.010458 0.049684 -0.012225 0.007332
# 5 0.018815 0.000964 0.010490 -0.012225 0.049592 -0.002077
# 6 0.001522 0.000082 -0.003025 0.007332 -0.002077 0.035137
#
#
# Mechanical properties :
#
#
# Convention : Reuss Voigt Hill
#
# Bulk Modulus (GPa) = 26.78352 58.11069 42.44711
# Shear Modulus (GPa) = 24.94846 35.65150 30.29998
#
# Velocity S-wave (km/s) = 3.37772 4.03776 3.72240
# Velocity P-wave (km/s) = 5.24025 6.95070 6.15518
#
# Compressibility (1/GPa) = 0.03733639
#
# Stress axis : x y z
#
# Youngs Moduli (GPa) = 55.92747 107.42310 54.77603
#
# Poissons Ratio (x) = 0.22076 0.06884
# Poissons Ratio (y) = 0.11493 0.04068
# Poissons Ratio (z) = 0.07029 0.07978
#
# Static dielectric constant tensor:
#      x y z
#    x 2.034370 -0.018390 0.002770 
#    y -0.018390 1.850380 -0.035160 
#    z 0.002770 -0.035160 1.859970 
# 
# From -- ./inp_files/199320.got.cif
#   From: 2010.05.17/outbox.cif.g08.bks.cpg/sg2_100_cif.got.tgz:199320.got - 2010.06.03 11:33:40.
