data_PCOD9105998
_publ_section_title
;
Structure prediction by ZEFSAII (Michael W. Deem and Ramdas Pophale) SiO2 
 PCOD9105998
Probable space group: P -1
;
_chemical_formula_sum "Si O2"
_cell_formula_units_Z 14
_cell_length_a 14.688167
_cell_length_b 14.957404
_cell_length_c 9.266011
_cell_angle_alpha 39.963394
_cell_angle_beta 141.133602
_cell_angle_gamma 152.931200
_cell_volume 561.917014
_symmetry_space_group_name_H-M "P -1"
_symmetry_group_IT_number 2
_symmetry_cell_setting 'triclinic'
loop_
_space_group_symop_operation_xyz
x,y,z
-x,-y,-z
loop_
_atom_site_type_symbol
_atom_site_label
_atom_site_fract_x
_atom_site_fract_y
_atom_site_fract_z
Si Si1 0.964833 0.116033 0.005915
Si Si2 0.492459 0.858252 0.764339
Si Si3 0.346066 0.562920 0.385216
Si Si4 0.901642 0.092817 0.642954
Si Si5 0.459017 0.632998 0.756724
Si Si6 0.301087 0.810054 0.891486
Si Si7 0.211851 0.225040 0.433722
O O1 0.991063 0.203663 0.772174
O O2 0.735135 0.992120 0.935521
O O3 0.146137 0.268241 0.157894
O O4 0.968520 0.951725 0.188889
O O5 0.395479 0.669301 0.778487
O O6 0.375219 0.812440 0.822071
O O7 0.500000 0.000000 0.500000
O O8 0.326163 0.547040 0.552273
O O9 0.277083 0.373375 0.457720
O O10 0.595246 0.738861 0.423663
O O11 0.230155 0.618567 0.116415
O O12 0.857264 0.174808 0.363344
O O13 0.674258 0.866407 0.688163
O O14 0.500000 0.500000 0.000000
O O15 0.500000 0.000000 0.000000
O O16 0.000000 0.000000 0.500000
#
# Coordination Sequence:
#
# PCOD9105998 Si02
#       7
#     2   2   2   2   2   2   2
#     4  10  20  39  66  98 140 176 247 284 361 431
#     4  11  22  40  71 107 136 196 244 294 375 436
#     4  11  25  43  70 106 144 191 245 302 371 439
#     4  10  21  39  67 102 137 194 229 302 369 428
#     4  11  23  41  68 107 144 188 250 296 358 445
#     4  12  21  42  71 104 147 189 245 304 371 441
#     4  11  24  42  69 104 143 191 243 307 367 434
#
# _framework density 24.914709999999999
#
# number of rings (size 3 to 8) (size 9 to 14) (size 15 to 20)
#    0.000    1.143    5.714    0.857    8.000    0.000 
#    0.000    0.714    9.429    6.857    0.000    0.000 
#    0.000    0.000    0.000    0.000    0.000    0.000 
#
# Total GULP energy -78426.005491 kJ/mol
# GULP energy per Si atom -5601.857535 kJ/mol
# Density = 2.485800 g / cm^3
# Si number density = 24.914710 Si / 1000 Ang^3
#
#
#
# Elastic Constant Matrix: (Units=GPa)
#
#
# Indices 1 2 3 4 5 6 
#
# 1 111.9188 35.9568 41.1253 3.8508 -5.0042 -21.7554
# 2 35.9568 82.4233 27.9284 1.7204 -4.9424 -8.5257
# 3 41.1253 27.9284 194.5184 1.6842 -7.1285 0.1911
# 4 3.8508 1.7204 1.6842 43.9134 0.9913 -2.0504
# 5 -5.0042 -4.9424 -7.1285 0.9913 54.1163 11.0163
# 6 -21.7554 -8.5257 0.1911 -2.0504 11.0163 44.9489
#
#
#
# Elastic Compliance Matrix: (Units=1/GPa)
#
#
# Indices 1 2 3 4 5 6 
#
# 1 0.011947 -0.004036 -0.001967 -0.000562 -0.000558 0.005137
# 2 -0.004036 0.014403 -0.001190 -0.000151 0.000663 0.000614
# 3 -0.001967 -0.001190 0.005757 -0.000084 0.000752 -0.001390
# 4 -0.000562 -0.000151 -0.000084 0.022888 -0.000681 0.000911
# 5 -0.000558 0.000663 0.000752 -0.000681 0.019614 -0.004986
# 6 0.005137 0.000614 -0.001390 0.000911 -0.004986 0.026120
#
#
# Mechanical properties :
#
#
# Convention : Reuss Voigt Hill
#
# Bulk Modulus (GPa) = 56.42680 66.54237 61.48459
# Shear Modulus (GPa) = 41.31483 47.51906 44.41694
#
# Velocity S-wave (km/s) = 4.07658 4.37197 4.22685
# Velocity P-wave (km/s) = 6.69740 7.22852 6.96802
#
# Compressibility (1/GPa) = 0.01772208
#
# Stress axis : x y z
#
# Youngs Moduli (GPa) = 83.70053 69.43158 173.69392
#
# Poissons Ratio (x) = 0.28022 0.34167
# Poissons Ratio (y) = 0.33781 0.20663
# Poissons Ratio (z) = 0.16465 0.08260
#
# Static dielectric constant tensor:
#      x y z
#    x 1.972060 0.046950 -0.051800 
#    y 0.046950 2.067640 0.005260 
#    z -0.051800 0.005260 1.994180 
# 
# From -- ./inp_files/314525.got.cif
#   From: 2010.05.17/outbox.cif.g08.bks.cpg/sg2_158_cif.got.tgz:314525.got - 2010.06.03 11:33:40.
