data_PCOD9105643
_publ_section_title
;
Structure prediction by ZEFSAII (Michael W. Deem and Ramdas Pophale) SiO2 
 PCOD9105643
Probable space group: P -1
;
_chemical_formula_sum "Si O2"
_cell_formula_units_Z 16
_cell_length_a 12.155929
_cell_length_b 9.683789
_cell_length_c 18.378505
_cell_angle_alpha 149.959230
_cell_angle_beta 48.552797
_cell_angle_gamma 129.661839
_cell_volume 799.452596
_symmetry_space_group_name_H-M "P -1"
_symmetry_group_IT_number 2
_symmetry_cell_setting 'triclinic'
loop_
_space_group_symop_operation_xyz
x,y,z
-x,-y,-z
loop_
_atom_site_type_symbol
_atom_site_label
_atom_site_fract_x
_atom_site_fract_y
_atom_site_fract_z
Si Si1 0.331229 0.180711 0.307050
Si Si2 0.977395 0.307263 0.131686
Si Si3 0.895553 0.762141 0.110022
Si Si4 0.686832 0.181587 0.418547
Si Si5 0.659095 0.971667 0.497108
Si Si6 0.855878 0.146372 0.630446
Si Si7 0.784646 0.164853 0.940592
Si Si8 0.673249 0.326054 0.211177
O O1 0.290930 0.492778 0.464094
O O2 0.507487 0.217489 0.261782
O O3 0.242314 0.988232 0.319906
O O4 0.295583 0.036621 0.178151
O O5 0.803820 0.330324 0.214859
O O6 0.078371 0.529350 0.238855
O O7 0.038041 0.354230 0.044482
O O8 0.000000 0.000000 0.000000
O O9 0.041768 0.867010 0.142715
O O10 0.802298 0.009067 0.252565
O O11 0.792720 0.490145 0.064112
O O12 0.515273 0.042292 0.414491
O O13 0.699933 0.139009 0.480744
O O14 0.677482 0.647767 0.331914
O O15 0.762623 0.093007 0.573452
O O16 0.000000 0.000000 0.500000
O O17 0.709197 0.140607 0.042027
#
# Coordination Sequence:
#
# PCOD9105643 Si02
#       8
#     2   2   2   2   2   2   2   2
#     4  11  25  41  67 103 127 172 221 267 327 390
#     4  11  25  44  64  95 128 173 218 267 329 388
#     4  10  21  38  66  88 129 167 216 265 322 376
#     4  10  23  41  67  99 130 168 223 273 315 377
#     4  10  22  42  67  95 134 176 212 268 328 381
#     4  12  26  44  67  94 136 176 216 263 331 400
#     4  10  20  39  65  93 123 172 213 264 326 377
#     4  10  21  43  68  91 133 170 214 272 328 381
#
# _framework density 20.013694999999998
#
# number of rings (size 3 to 8) (size 9 to 14) (size 15 to 20)
#    0.000    1.500    3.750    0.375    3.500    5.500 
#    2.250    1.250    0.000    0.000    0.000    0.000 
#    0.000    0.000    0.000    0.000    0.000    0.000 
#
# Total GULP energy -89402.948939 kJ/mol
# GULP energy per Si atom -5587.684309 kJ/mol
# Density = 1.996814 g / cm^3
# Si number density = 20.013695 Si / 1000 Ang^3
#
#
#
# Elastic Constant Matrix: (Units=GPa)
#
#
# Indices 1 2 3 4 5 6 
#
# 1 131.4964 20.2679 47.7733 1.2477 10.8023 15.6676
# 2 20.2679 44.6788 18.7846 12.4873 1.0252 13.9339
# 3 47.7733 18.7846 86.0962 3.7813 -6.8494 27.7482
# 4 1.2477 12.4873 3.7813 17.9770 -5.0949 1.6895
# 5 10.8023 1.0252 -6.8494 -5.0949 40.0323 1.9162
# 6 15.6676 13.9339 27.7482 1.6895 1.9162 19.6512
#
#
#
# Elastic Compliance Matrix: (Units=1/GPa)
#
#
# Indices 1 2 3 4 5 6 
#
# 1 0.010383 -0.003472 -0.006566 0.001648 -0.003803 0.003685
# 2 -0.003472 0.037668 0.003062 -0.024513 -0.001378 -0.026022
# 3 -0.006566 0.003062 0.026584 -0.001786 0.007693 -0.035069
# 4 0.001648 -0.024513 -0.001786 0.074343 0.008796 0.011341
# 5 -0.003803 -0.001378 0.007693 0.008796 0.028977 -0.010436
# 6 0.003685 -0.026022 -0.035069 0.011341 -0.010436 0.115963
#
#
# Mechanical properties :
#
#
# Convention : Reuss Voigt Hill
#
# Bulk Modulus (GPa) = 16.47939 48.43588 32.45763
# Shear Modulus (GPa) = 15.23937 27.22848 21.23393
#
# Velocity S-wave (km/s) = 2.76243 3.69249 3.26079
# Velocity P-wave (km/s) = 4.29262 6.51408 5.51633
#
# Compressibility (1/GPa) = 0.06068187
#
# Stress axis : x y z
#
# Youngs Moduli (GPa) = 96.30853 26.54768 37.61726
#
# Poissons Ratio (x) = 0.09217 0.24701
# Poissons Ratio (y) = 0.33438 -0.11518
# Poissons Ratio (z) = 0.63241 -0.08129
#
# Static dielectric constant tensor:
#      x y z
#    x 1.730110 -0.058670 0.037940 
#    y -0.058670 1.801380 -0.086960 
#    z 0.037940 -0.086960 1.737090 
# 
# From -- ./inp_files/207933.got.cif
#   From: 2010.05.17/outbox.cif.g08.bks.cpg/sg2_104_cif.got.tgz:207933.got - 2010.06.03 11:33:40.
