data_PCOD9105907
_publ_section_title
;
Structure prediction by ZEFSAII (Michael W. Deem and Ramdas Pophale) SiO2 
 PCOD9105907
Probable space group: P -1
;
_chemical_formula_sum "Si O2"
_cell_formula_units_Z 16
_cell_length_a 16.106554
_cell_length_b 8.487907
_cell_length_c 7.143691
_cell_angle_alpha 94.178572
_cell_angle_beta 108.400994
_cell_angle_gamma 129.491213
_cell_volume 663.344393
_symmetry_space_group_name_H-M "P -1"
_symmetry_group_IT_number 2
_symmetry_cell_setting 'triclinic'
loop_
_space_group_symop_operation_xyz
x,y,z
-x,-y,-z
loop_
_atom_site_type_symbol
_atom_site_label
_atom_site_fract_x
_atom_site_fract_y
_atom_site_fract_z
Si Si1 0.371400 0.511875 0.556873
Si Si2 0.489835 0.996612 0.771569
Si Si3 0.104293 0.268045 0.418272
Si Si4 0.816547 0.102392 0.705508
Si Si5 0.051557 0.187619 0.821856
Si Si6 0.141177 0.646094 0.577166
Si Si7 0.768261 0.327991 0.946632
Si Si8 0.441939 0.281244 0.611212
O O1 0.226697 0.325034 0.467763
O O2 0.427357 0.435340 0.711155
O O3 0.433591 0.562113 0.404514
O O4 0.412649 0.743310 0.648169
O O5 0.442235 0.111210 0.696647
O O6 0.624491 0.150619 0.790981
O O7 0.500000 0.000000 0.000000
O O8 0.072673 0.227478 0.614601
O O9 0.139169 0.491647 0.427724
O O10 0.991439 0.047780 0.209418
O O11 0.811020 0.147759 0.487870
O O12 0.935533 0.144196 0.799973
O O13 0.679326 0.869713 0.621050
O O14 0.830988 0.270542 0.865375
O O15 0.169134 0.421254 0.012141
O O16 0.209739 0.693445 0.821996
O O17 0.000000 0.500000 0.500000
#
# Coordination Sequence:
#
# PCOD9105907 Si02
#       8
#     2   2   2   2   2   2   2   2
#     4  11  23  44  70 100 135 180 234 278 342 413
#     4  12  25  45  68 101 141 178 233 284 342 412
#     4  10  20  39  66  93 133 171 221 283 332 409
#     4  12  21  43  70  93 134 174 224 278 337 412
#     4  10  21  39  63  97 129 173 216 273 347 391
#     4  11  23  41  66  98 127 178 229 268 346 414
#     4  11  24  41  66 100 137 171 221 288 337 408
#     4  11  25  43  70 101 132 188 228 279 348 407
#
# _framework density 24.120199
#
# number of rings (size 3 to 8) (size 9 to 14) (size 15 to 20)
#    0.000    1.000    5.000    3.750    1.750    0.500 
#    0.000    1.875    0.000    0.000    0.000    0.000 
#    0.000    0.000    0.000    0.000    0.000    0.000 
#
# Total GULP energy -89332.313214 kJ/mol
# GULP energy per Si atom -5583.269576 kJ/mol
# Density = 2.406530 g / cm^3
# Si number density = 24.120199 Si / 1000 Ang^3
#
#
#
# Elastic Constant Matrix: (Units=GPa)
#
#
# Indices 1 2 3 4 5 6 
#
# 1 120.6539 39.1979 8.1285 2.1905 -4.4180 3.7776
# 2 39.1979 112.9604 39.5411 21.7584 1.1063 -15.0264
# 3 8.1285 39.5411 49.0539 0.3600 -7.8169 -1.2449
# 4 2.1905 21.7584 0.3600 38.0827 2.8466 12.7602
# 5 -4.4180 1.1063 -7.8169 2.8466 23.5083 -2.0026
# 6 3.7776 -15.0264 -1.2449 12.7602 -2.0026 45.7785
#
#
#
# Elastic Compliance Matrix: (Units=1/GPa)
#
#
# Indices 1 2 3 4 5 6 
#
# 1 0.010131 -0.005954 0.003405 0.003820 0.002543 -0.003651
# 2 -0.005954 0.020940 -0.016277 -0.014733 -0.004811 0.010818
# 3 0.003405 -0.016277 0.034440 0.010330 0.011003 -0.007085
# 4 0.003820 -0.014733 0.010330 0.039831 -0.001343 -0.016031
# 5 0.002543 -0.004811 0.011003 -0.001343 0.047144 0.000947
# 6 -0.003651 0.010818 -0.007085 -0.016031 0.000947 0.030014
#
#
# Mechanical properties :
#
#
# Convention : Reuss Voigt Hill
#
# Bulk Modulus (GPa) = 35.89426 50.71147 43.30286
# Shear Modulus (GPa) = 21.79229 34.52728 28.15979
#
# Velocity S-wave (km/s) = 3.00907 3.78758 3.42054
# Velocity P-wave (km/s) = 5.19484 6.34017 5.79587
#
# Compressibility (1/GPa) = 0.02785961
#
# Stress axis : x y z
#
# Youngs Moduli (GPa) = 98.70541 47.75445 29.03625
#
# Poissons Ratio (x) = 0.28433 -0.09887
# Poissons Ratio (y) = 0.58769 0.47262
# Poissons Ratio (z) = -0.33609 0.77730
#
# Static dielectric constant tensor:
#      x y z
#    x 1.955900 -0.065970 -0.014630 
#    y -0.065970 2.064470 0.006740 
#    z -0.014630 0.006740 1.919300 
# 
# From -- ./inp_files/298858.got.cif
#   From: 2010.05.17/outbox.cif.g08.bks.cpg/sg2_150_cif.got.tgz:298858.got - 2010.06.03 11:33:40.
