data_PCOD9105386
_publ_section_title
;
Structure prediction by ZEFSAII (Michael W. Deem and Ramdas Pophale) SiO2 
 PCOD9105386
Probable space group: P -1
;
_chemical_formula_sum "Si O2"
_cell_formula_units_Z 15
_cell_length_a 11.196662
_cell_length_b 9.958954
_cell_length_c 12.489920
_cell_angle_alpha 56.591267
_cell_angle_beta 146.573184
_cell_angle_gamma 123.703765
_cell_volume 626.512257
_symmetry_space_group_name_H-M "P -1"
_symmetry_group_IT_number 2
_symmetry_cell_setting 'triclinic'
loop_
_space_group_symop_operation_xyz
x,y,z
-x,-y,-z
loop_
_atom_site_type_symbol
_atom_site_label
_atom_site_fract_x
_atom_site_fract_y
_atom_site_fract_z
Si Si1 0.826332 0.191577 0.989191
Si Si2 0.460800 0.406063 0.399568
Si Si3 0.784721 0.972729 0.616943
Si Si4 0.745606 0.471649 0.201020
Si Si5 0.933091 0.248159 0.275351
Si Si6 0.196446 0.682308 0.457790
Si Si7 0.000000 0.500000 0.000000
Si Si8 0.695495 0.930247 0.331417
O O1 0.945505 0.302055 0.135561
O O2 0.976322 0.057853 0.151873
O O3 0.885548 0.347330 0.889850
O O4 0.567845 0.125524 0.837701
O O5 0.500000 0.500000 0.500000
O O6 0.372159 0.207507 0.426088
O O7 0.673610 0.417684 0.478829
O O8 0.257360 0.474530 0.169659
O O9 0.784432 0.019971 0.470175
O O10 0.723053 0.120897 0.571188
O O11 0.812919 0.359846 0.206675
O O12 0.767422 0.380699 0.368708
O O13 0.932938 0.637251 0.263744
O O14 0.500000 0.500000 0.000000
O O15 0.168239 0.216120 0.506546
O O16 0.778075 0.064268 0.242816
#
# Coordination Sequence:
#
# PCOD9105386 Si02
#       8
#     2   2   2   2   2   2   1   2
#     4  10  22  36  66  94 130 169 215 276 325 388
#     4  11  25  44  71  98 130 175 223 276 328 389
#     4  10  22  43  64  99 129 171 219 266 328 398
#     4  11  27  44  65  97 135 179 220 270 332 399
#     4  10  22  38  62  94 124 167 226 268 322 392
#     4  11  26  45  69  94 139 178 217 273 335 392
#     4  10  24  40  60 100 128 162 224 268 328 384
#     4  10  20  39  64  92 130 164 216 276 327 384
#
# _framework density 23.942070000000001
#
# number of rings (size 3 to 8) (size 9 to 14) (size 15 to 20)
#    0.000    1.600    1.333    1.600   11.200    1.067 
#    0.000    0.000    0.000    6.400    0.000    0.000 
#    0.000    0.000    0.000    0.000    0.000    0.000 
#
# Total GULP energy -83645.708711 kJ/mol
# GULP energy per Si atom -5576.380581 kJ/mol
# Density = 2.388758 g / cm^3
# Si number density = 23.942070 Si / 1000 Ang^3
#
#
#
# Elastic Constant Matrix: (Units=GPa)
#
#
# Indices 1 2 3 4 5 6 
#
# 1 93.2117 32.7198 47.2157 -10.0074 26.3924 -21.7031
# 2 32.7198 145.0947 48.2248 -11.0588 22.4371 -8.0083
# 3 47.2157 48.2248 138.3541 4.5218 37.1691 -5.9468
# 4 -10.0074 -11.0588 4.5218 31.2851 10.6380 14.7086
# 5 26.3924 22.4371 37.1691 10.6380 40.0858 -4.8065
# 6 -21.7031 -8.0083 -5.9468 14.7086 -4.8065 47.3916
#
#
#
# Elastic Compliance Matrix: (Units=1/GPa)
#
#
# Indices 1 2 3 4 5 6 
#
# 1 0.016798 -0.000596 -0.003113 0.006752 -0.009130 0.004180
# 2 -0.000596 0.008622 -0.001902 0.005020 -0.004126 -0.001031
# 3 -0.003113 -0.001902 0.010773 -0.000438 -0.006873 -0.000956
# 4 0.006752 0.005020 -0.000438 0.049829 -0.021725 -0.013783
# 5 -0.009130 -0.004126 -0.006873 -0.021725 0.046086 0.005676
# 6 0.004180 -0.001031 -0.000956 -0.013783 0.005676 0.027574
#
#
# Mechanical properties :
#
#
# Convention : Reuss Voigt Hill
#
# Bulk Modulus (GPa) = 40.04679 70.33122 55.18901
# Shear Modulus (GPa) = 27.89751 40.31916 34.10834
#
# Velocity S-wave (km/s) = 3.41722 4.10815 3.77851
# Velocity P-wave (km/s) = 5.68618 7.20707 6.49132
#
# Compressibility (1/GPa) = 0.02497079
#
# Stress axis : x y z
#
# Youngs Moduli (GPa) = 59.53261 115.97799 92.82627
#
# Poissons Ratio (x) = 0.06915 0.28895
# Poissons Ratio (y) = 0.03549 0.17655
# Poissons Ratio (z) = 0.18532 0.22058
#
# Static dielectric constant tensor:
#      x y z
#    x 1.977240 0.117040 -0.073600 
#    y 0.117040 2.085470 -0.034660 
#    z -0.073600 -0.034660 1.939960 
# 
# From -- ./inp_files/514155.got.cif
#   From: 2010.05.17/outbox.cif.g08.bks.cpg/sg2_258_cif.got.tgz:514155.got - 2010.06.03 11:33:40.
