data_PCOD9105637
_publ_section_title
;
Structure prediction by ZEFSAII (Michael W. Deem and Ramdas Pophale) SiO2 
 PCOD9105637
Probable space group: P -1
;
_chemical_formula_sum "Si O2"
_cell_formula_units_Z 16
_cell_length_a 11.658222
_cell_length_b 13.815885
_cell_length_c 8.321639
_cell_angle_alpha 120.956019
_cell_angle_beta 93.856678
_cell_angle_gamma 44.141702
_cell_volume 690.728190
_symmetry_space_group_name_H-M "P -1"
_symmetry_group_IT_number 2
_symmetry_cell_setting 'triclinic'
loop_
_space_group_symop_operation_xyz
x,y,z
-x,-y,-z
loop_
_atom_site_type_symbol
_atom_site_label
_atom_site_fract_x
_atom_site_fract_y
_atom_site_fract_z
Si Si1 0.275479 0.899029 0.051216
Si Si2 0.606196 0.301657 0.403733
Si Si3 0.854278 0.446858 0.228124
Si Si4 0.584931 0.677415 0.114650
Si Si5 0.914530 0.537466 0.849987
Si Si6 0.067979 0.684284 0.547669
Si Si7 0.951862 0.121200 0.854374
Si Si8 0.285044 0.663816 0.288750
O O1 0.182260 0.848147 0.017249
O O2 0.103004 0.121016 0.207651
O O3 0.420830 0.766990 0.803972
O O4 0.369399 0.863329 0.198434
O O5 0.500000 0.500000 0.500000
O O6 0.573358 0.354363 0.636803
O O7 0.832603 0.087540 0.272828
O O8 0.028233 0.399594 0.196219
O O9 0.799955 0.465839 0.423481
O O10 0.681222 0.626146 0.251863
O O11 0.925108 0.274710 0.011000
O O12 0.704155 0.660442 0.983419
O O13 0.613037 0.522942 0.942433
O O14 0.998293 0.364565 0.615331
O O15 0.000000 0.500000 0.000000
O O16 0.170409 0.694085 0.451016
O O17 0.861092 0.173675 0.715410
#
# Coordination Sequence:
#
# PCOD9105637 Si02
#       8
#     2   2   2   2   2   2   2   2
#     4  12  23  39  59  95 129 162 204 256 308 369
#     4  12  22  38  59  88 128 164 206 249 303 371
#     4  10  20  39  65  93 119 163 210 254 305 367
#     4   9  21  40  61  91 124 163 207 255 308 360
#     4   9  20  42  68  87 118 164 211 254 310 370
#     4  11  21  38  66  89 122 164 208 258 308 361
#     4  11  23  40  62  90 130 167 206 246 315 374
#     4  10  21  39  57  87 126 172 202 247 308 367
#
# _framework density 23.163959999999999
#
# number of rings (size 3 to 8) (size 9 to 14) (size 15 to 20)
#    0.000    1.500    3.750    2.625    0.000    2.000 
#    2.250    3.125    0.000    0.000    0.000    0.000 
#    0.000    0.000    0.000    0.000    0.000    0.000 
#
# Total GULP energy -89074.019978 kJ/mol
# GULP energy per Si atom -5567.126249 kJ/mol
# Density = 2.311124 g / cm^3
# Si number density = 23.163960 Si / 1000 Ang^3
#
#
#
# Elastic Constant Matrix: (Units=GPa)
#
#
# Indices 1 2 3 4 5 6 
#
# 1 105.3697 -0.5329 14.2313 -0.9513 6.1544 13.2634
# 2 -0.5329 137.9763 18.0752 -31.9329 -5.3054 -10.3081
# 3 14.2313 18.0752 96.0739 -18.5776 11.3235 10.3252
# 4 -0.9513 -31.9329 -18.5776 41.5535 -1.5664 1.1439
# 5 6.1544 -5.3054 11.3235 -1.5664 38.9035 -9.4000
# 6 13.2634 -10.3081 10.3252 1.1439 -9.4000 26.4397
#
#
#
# Elastic Compliance Matrix: (Units=1/GPa)
#
#
# Indices 1 2 3 4 5 6 
#
# 1 0.010545 -0.000588 -0.000449 -0.000354 -0.003194 -0.006464
# 2 -0.000588 0.009504 -0.001403 0.006640 0.003386 0.005465
# 3 -0.000449 -0.001403 0.013149 0.004789 -0.005605 -0.007657
# 4 -0.000354 0.006640 0.004789 0.031336 0.000786 -0.000180
# 5 -0.003194 0.003386 -0.005605 0.000786 0.032339 0.016575
# 6 -0.006464 0.005465 -0.007657 -0.000180 0.016575 0.052086
#
#
# Mechanical properties :
#
#
# Convention : Reuss Voigt Hill
#
# Bulk Modulus (GPa) = 35.31307 44.77416 40.04361
# Shear Modulus (GPa) = 30.62243 41.88908 36.25575
#
# Velocity S-wave (km/s) = 3.63986 4.25711 3.96053
# Velocity P-wave (km/s) = 5.73957 6.59812 6.18376
#
# Compressibility (1/GPa) = 0.02831813
#
# Stress axis : x y z
#
# Youngs Moduli (GPa) = 94.83130 105.21368 76.05314
#
# Poissons Ratio (x) = 0.06187 0.03412
# Poissons Ratio (y) = 0.05577 0.10673
# Poissons Ratio (z) = 0.04254 0.14766
#
# Static dielectric constant tensor:
#      x y z
#    x 2.005980 -0.096330 -0.038990 
#    y -0.096330 1.954430 -0.055500 
#    z -0.038990 -0.055500 1.933360 
# 
# From -- ./inp_files/274085.got.cif
#   From: 2010.05.17/outbox.cif.g08.bks.cpg/sg2_138_cif.got.tgz:274085.got - 2010.06.03 11:33:40.
