data_PCOD9105077
_publ_section_title
;
Structure prediction by ZEFSAII (Michael W. Deem and Ramdas Pophale) SiO2 
 PCOD9105077
Probable space group: P -1
;
_chemical_formula_sum "Si O2"
_cell_formula_units_Z 14
_cell_length_a 7.164786
_cell_length_b 25.315616
_cell_length_c 9.870876
_cell_angle_alpha 141.790241
_cell_angle_beta 134.974057
_cell_angle_gamma 29.334557
_cell_volume 541.135502
_symmetry_space_group_name_H-M "P -1"
_symmetry_group_IT_number 2
_symmetry_cell_setting 'triclinic'
loop_
_space_group_symop_operation_xyz
x,y,z
-x,-y,-z
loop_
_atom_site_type_symbol
_atom_site_label
_atom_site_fract_x
_atom_site_fract_y
_atom_site_fract_z
Si Si1 0.946003 0.869754 0.095740
Si Si2 0.062221 0.125607 0.575296
Si Si3 0.937186 0.434940 0.240806
Si Si4 0.049433 0.575409 0.261695
Si Si5 0.941366 0.348635 0.315786
Si Si6 0.962230 0.332750 0.806211
Si Si7 0.870617 0.006595 0.098988
O O1 0.022621 0.857897 0.273110
O O2 0.087995 0.907729 0.137445
O O3 0.059034 0.750803 0.854057
O O4 0.485615 0.972202 0.065196
O O5 0.998824 0.234351 0.699821
O O6 0.500000 0.000000 0.500000
O O7 0.801716 0.115252 0.348580
O O8 0.105937 0.320918 0.193865
O O9 0.487236 0.543683 0.198304
O O10 0.000000 0.500000 0.500000
O O11 0.114237 0.373295 0.062325
O O12 0.501569 0.478110 0.323596
O O13 0.894653 0.626497 0.435933
O O14 0.883707 0.688792 0.308793
O O15 0.000000 0.500000 0.000000
O O16 0.000000 0.000000 0.000000
#
# Coordination Sequence:
#
# PCOD9105077 Si02
#       7
#     2   2   2   2   2   2   2
#     4  11  25  47  70 100 138 181 239 289 347 418
#     4  12  25  44  68 101 144 183 234 289 350 415
#     4  10  20  39  63  90 126 167 217 275 337 399
#     4  10  22  40  60  95 137 172 220 284 342 405
#     4  10  22  39  62  96 128 171 226 277 340 408
#     4  10  23  37  63  96 127 170 226 273 334 415
#     4  11  26  46  71  99 134 185 236 288 347 413
#
# _framework density 25.871525999999999
#
# number of rings (size 3 to 8) (size 9 to 14) (size 15 to 20)
#    0.000    1.429    2.857    1.286    4.000    2.286 
#    0.000    0.000    0.000    0.000    0.000    0.000 
#    0.000    0.000    0.000    0.000    0.000    0.000 
#
# Total GULP energy -78091.895353 kJ/mol
# GULP energy per Si atom -5577.992525 kJ/mol
# Density = 2.581264 g / cm^3
# Si number density = 25.871526 Si / 1000 Ang^3
#
#
#
# Elastic Constant Matrix: (Units=GPa)
#
#
# Indices 1 2 3 4 5 6 
#
# 1 115.1420 48.6400 42.7291 -16.0805 -16.4116 42.8073
# 2 48.6400 87.3541 51.6624 -8.4610 -25.2993 49.7066
# 3 42.7291 51.6624 191.8737 -40.4982 -3.0487 37.9746
# 4 -16.0805 -8.4610 -40.4982 44.5150 9.9869 -0.5080
# 5 -16.4116 -25.2993 -3.0487 9.9869 36.5217 -5.2620
# 6 42.8073 49.7066 37.9746 -0.5080 -5.2620 57.6593
#
#
#
# Elastic Compliance Matrix: (Units=1/GPa)
#
#
# Indices 1 2 3 4 5 6 
#
# 1 0.013340 -0.001539 -0.000095 0.003738 0.002712 -0.008235
# 2 -0.001539 0.033322 -0.004378 -0.002841 0.019496 -0.022946
# 3 -0.000095 -0.004378 0.008393 0.007825 -0.004810 -0.002054
# 4 0.003738 -0.002841 0.007825 0.032428 -0.009374 -0.006050
# 5 0.002712 0.019496 -0.004810 -0.009374 0.042560 -0.011851
# 6 -0.008235 -0.022946 -0.002054 -0.006050 -0.011851 0.043455
#
#
# Mechanical properties :
#
#
# Convention : Reuss Voigt Hill
#
# Bulk Modulus (GPa) = 23.23821 75.60365 49.42093
# Shear Modulus (GPa) = 25.01696 44.49509 34.75603
#
# Velocity S-wave (km/s) = 3.11299 4.15160 3.66923
# Velocity P-wave (km/s) = 4.68215 7.22961 6.09056
#
# Compressibility (1/GPa) = 0.04303257
#
# Stress axis : x y z
#
# Youngs Moduli (GPa) = 74.96167 30.01057 119.14341
#
# Poissons Ratio (x) = 0.04618 0.01128
# Poissons Ratio (y) = 0.11535 0.52159
# Poissons Ratio (z) = 0.00710 0.13138
#
# Static dielectric constant tensor:
#      x y z
#    x 2.173160 0.005390 -0.007480 
#    y 0.005390 2.164000 0.013460 
#    z -0.007480 0.013460 1.999190 
# 
# From -- ./inp_files/227601.got.cif
#   From: 2010.05.17/outbox.cif.g08.bks.cpg/sg2_114_cif.got.tgz:227601.got - 2010.06.03 11:33:40.
