data_PCOD9105632
_publ_section_title
;
Structure prediction by ZEFSAII (Michael W. Deem and Ramdas Pophale) SiO2 
 PCOD9105632
Probable space group: P -1
;
_chemical_formula_sum "Si O2"
_cell_formula_units_Z 13
_cell_length_a 12.862637
_cell_length_b 9.579663
_cell_length_c 7.768761
_cell_angle_alpha 97.255834
_cell_angle_beta 79.868976
_cell_angle_gamma 145.522893
_cell_volume 533.135807
_symmetry_space_group_name_H-M "P -1"
_symmetry_group_IT_number 2
_symmetry_cell_setting 'triclinic'
loop_
_space_group_symop_operation_xyz
x,y,z
-x,-y,-z
loop_
_atom_site_type_symbol
_atom_site_label
_atom_site_fract_x
_atom_site_fract_y
_atom_site_fract_z
Si Si1 0.190272 0.298303 0.499123
Si Si2 0.741904 0.257662 0.187887
Si Si3 0.317112 0.227396 0.187764
Si Si4 0.000000 0.000000 0.000000
Si Si5 0.184688 0.793403 0.172510
Si Si6 0.196602 0.633898 0.453500
Si Si7 0.310400 0.501852 0.878963
O O1 0.327210 0.363926 0.343859
O O2 0.177178 0.445799 0.462378
O O3 0.249091 0.364934 0.692279
O O4 0.000000 0.000000 0.500000
O O5 0.689214 0.178078 0.388675
O O6 0.646438 0.291307 0.144994
O O7 0.962398 0.538740 0.177427
O O8 0.731461 0.125043 0.030593
O O9 0.164318 0.096622 0.070571
O O10 0.515176 0.393278 0.090391
O O11 0.237978 0.000530 0.270570
O O12 0.130552 0.285981 0.013916
O O13 0.258509 0.747717 0.263785
O O14 0.000000 0.500000 0.500000
#
# Coordination Sequence:
#
# PCOD9105632 Si02
#       7
#     2   2   2   1   2   2   2
#     4  11  21  42  69  96 139 176 221 282 333 395
#     4   9  19  38  63  91 132 174 227 267 332 396
#     4  12  25  42  68 102 133 173 228 279 340 399
#     4  12  24  44  66  94 136 180 216 280 344 404
#     4  10  20  39  65  92 133 181 218 276 336 398
#     4   9  19  35  64  96 125 177 225 263 330 408
#     4  11  24  43  67  99 134 174 227 282 330 405
#
# _framework density 24.384029999999999
#
# number of rings (size 3 to 8) (size 9 to 14) (size 15 to 20)
#    0.000    1.538    3.077    2.769    2.154    1.846 
#    2.769    3.077    0.000    0.000    0.000    0.000 
#    0.000    0.000    0.000    0.000    0.000    0.000 
#
# Total GULP energy -72389.914628 kJ/mol
# GULP energy per Si atom -5568.454971 kJ/mol
# Density = 2.432853 g / cm^3
# Si number density = 24.384030 Si / 1000 Ang^3
#
#
#
# Elastic Constant Matrix: (Units=GPa)
#
#
# Indices 1 2 3 4 5 6 
#
# 1 127.3619 15.7089 33.9602 16.9448 24.6989 -10.1466
# 2 15.7089 63.9404 11.0466 3.8982 4.6370 -2.7418
# 3 33.9602 11.0466 74.2550 17.8159 -5.4629 -4.4838
# 4 16.9448 3.8982 17.8159 23.9169 -7.1587 -6.2390
# 5 24.6989 4.6370 -5.4629 -7.1587 43.4222 -1.6545
# 6 -10.1466 -2.7418 -4.4838 -6.2390 -1.6545 39.1269
#
#
#
# Elastic Compliance Matrix: (Units=1/GPa)
#
#
# Indices 1 2 3 4 5 6 
#
# 1 0.011692 -0.001102 -0.003964 -0.007352 -0.008206 0.000981
# 2 -0.001102 0.016403 -0.001809 -0.000869 -0.001478 0.000455
# 3 -0.003964 -0.001809 0.018034 -0.009517 0.003130 -0.000473
# 4 -0.007352 -0.000869 -0.009517 0.060063 0.013249 0.007080
# 5 -0.008206 -0.001478 0.003130 0.013249 0.030492 0.001529
# 6 0.000981 0.000455 -0.000473 0.007080 0.001529 0.026984
#
#
# Mechanical properties :
#
#
# Convention : Reuss Voigt Hill
#
# Bulk Modulus (GPa) = 30.88445 42.99875 36.94160
# Shear Modulus (GPa) = 26.56593 34.94931 30.75762
#
# Velocity S-wave (km/s) = 3.30431 3.78998 3.55545
# Velocity P-wave (km/s) = 5.22028 6.06830 5.66019
#
# Compressibility (1/GPa) = 0.03237876
#
# Stress axis : x y z
#
# Youngs Moduli (GPa) = 85.52658 60.96616 55.44995
#
# Poissons Ratio (x) = 0.06720 0.21981
# Poissons Ratio (y) = 0.09428 0.10030
# Poissons Ratio (z) = 0.33903 0.11028
#
# Static dielectric constant tensor:
#      x y z
#    x 2.066770 -0.083190 -0.053870 
#    y -0.083190 2.090650 -0.080680 
#    z -0.053870 -0.080680 2.058120 
# 
# From -- ./inp_files/243463.got.cif
#   From: 2010.05.17/outbox.cif.g08.bks.cpg/sg2_122_cif.got.tgz:243463.got - 2010.06.03 11:33:40.
