data_PCOD9105231
_publ_section_title
;
Structure prediction by ZEFSAII (Michael W. Deem and Ramdas Pophale) SiO2 
 PCOD9105231
Probable space group: P -1
;
_chemical_formula_sum "Si O2"
_cell_formula_units_Z 16
_cell_length_a 11.586847
_cell_length_b 14.038357
_cell_length_c 7.569335
_cell_angle_alpha 117.329249
_cell_angle_beta 92.707300
_cell_angle_gamma 46.003477
_cell_volume 712.231681
_symmetry_space_group_name_H-M "P -1"
_symmetry_group_IT_number 2
_symmetry_cell_setting 'triclinic'
loop_
_space_group_symop_operation_xyz
x,y,z
-x,-y,-z
loop_
_atom_site_type_symbol
_atom_site_label
_atom_site_fract_x
_atom_site_fract_y
_atom_site_fract_z
Si Si1 0.277368 0.521424 0.328106
Si Si2 0.581877 0.059788 0.578378
Si Si3 0.283452 0.057157 0.870849
Si Si4 0.963547 0.195590 0.192600
Si Si5 0.567618 0.812370 0.957872
Si Si6 0.109132 0.847208 0.504573
Si Si7 0.357515 0.655867 0.896759
Si Si8 0.457438 0.686814 0.300866
O O1 0.158131 0.623323 0.578887
O O2 0.305378 0.378344 0.162474
O O3 0.188973 0.671295 0.314026
O O4 0.479463 0.419673 0.276669
O O5 0.735995 0.949196 0.346963
O O6 0.477679 0.238125 0.652954
O O7 0.500000 0.000000 0.500000
O O8 0.582440 0.075354 0.802344
O O9 0.461218 0.881474 0.824523
O O10 0.319213 0.158243 0.994743
O O11 0.117909 0.128730 0.025420
O O12 0.011601 0.098861 0.292219
O O13 0.830383 0.211910 0.094115
O O14 0.290845 0.785179 0.503699
O O15 0.000000 0.000000 0.500000
O O16 0.397588 0.503416 0.811541
O O17 0.376175 0.709253 0.123587
#
# Coordination Sequence:
#
# PCOD9105231 Si02
#       8
#     2   2   2   2   2   2   2   2
#     4   9  20  38  70  93 134 179 222 281 333 414
#     4  10  22  40  68  95 126 175 232 276 329 404
#     4  10  24  42  67 100 139 183 223 290 339 404
#     4  10  23  40  64 100 142 172 229 277 345 408
#     4  10  21  44  70  98 133 182 239 275 342 404
#     4   9  22  38  59  97 132 172 213 277 346 395
#     4  10  20  39  64 101 130 175 222 280 339 406
#     4  10  21  37  65  91 133 173 223 275 336 405
#
# _framework density 22.464599
#
# number of rings (size 3 to 8) (size 9 to 14) (size 15 to 20)
#    0.750    1.500    1.250    0.375    3.500    1.500 
#    0.000    1.875    2.750    1.500    0.000    0.000 
#    0.000    0.000    0.000    0.125    0.000    0.000 
#
# Total GULP energy -89122.364803 kJ/mol
# GULP energy per Si atom -5570.147800 kJ/mol
# Density = 2.241347 g / cm^3
# Si number density = 22.464599 Si / 1000 Ang^3
#
#
#
# Elastic Constant Matrix: (Units=GPa)
#
#
# Indices 1 2 3 4 5 6 
#
# 1 74.5151 48.0659 40.1881 10.4723 -17.4208 35.1325
# 2 48.0659 100.2443 39.1469 7.0339 9.2486 21.9689
# 3 40.1881 39.1469 117.6179 -5.3970 -19.1959 11.3674
# 4 10.4723 7.0339 -5.3970 36.8058 13.8575 6.7758
# 5 -17.4208 9.2486 -19.1959 13.8575 44.3204 4.6977
# 6 35.1325 21.9689 11.3674 6.7758 4.6977 37.9059
#
#
#
# Elastic Compliance Matrix: (Units=1/GPa)
#
#
# Indices 1 2 3 4 5 6 
#
# 1 0.061952 -0.019832 -0.004987 -0.020321 0.037500 -0.045444
# 2 -0.019832 0.019806 -0.003001 0.005823 -0.015975 0.008741
# 3 -0.004987 -0.003001 0.011546 0.002260 0.002731 0.002157
# 4 -0.020321 0.005823 0.002260 0.038242 -0.021303 0.010586
# 5 0.037500 -0.015975 0.002731 -0.021303 0.051543 -0.028897
# 6 -0.045444 0.008741 0.002157 0.010586 -0.028897 0.064477
#
#
# Mechanical properties :
#
#
# Convention : Reuss Voigt Hill
#
# Bulk Modulus (GPa) = 26.55061 60.79768 43.67414
# Shear Modulus (GPa) = 15.83477 34.80485 25.31981
#
# Velocity S-wave (km/s) = 2.65783 3.94041 3.36087
# Velocity P-wave (km/s) = 4.61121 6.91556 5.87743
#
# Compressibility (1/GPa) = 0.03766392
#
# Stress axis : x y z
#
# Youngs Moduli (GPa) = 16.14159 50.48883 86.61022
#
# Poissons Ratio (x) = 1.00129 0.43196
# Poissons Ratio (y) = 0.32012 0.25989
# Poissons Ratio (z) = 0.08050 0.15150
#
# Static dielectric constant tensor:
#      x y z
#    x 1.812730 0.024950 0.008050 
#    y 0.024950 1.845320 -0.029620 
#    z 0.008050 -0.029620 1.948550 
# 
# From -- ./inp_files/268595.got.cif
#   From: 2010.05.17/outbox.cif.g08.bks.cpg/sg2_135_cif.got.tgz:268595.got - 2010.06.03 11:33:40.
