data_PCOD9105649
_publ_section_title
;
Structure prediction by ZEFSAII (Michael W. Deem and Ramdas Pophale) SiO2 
 PCOD9105649
Probable space group: P -1
;
_chemical_formula_sum "Si O2"
_cell_formula_units_Z 16
_cell_length_a 13.648505
_cell_length_b 10.940884
_cell_length_c 9.194119
_cell_angle_alpha 39.345477
_cell_angle_beta 73.163793
_cell_angle_gamma 55.961992
_cell_volume 693.971333
_symmetry_space_group_name_H-M "P -1"
_symmetry_group_IT_number 2
_symmetry_cell_setting 'triclinic'
loop_
_space_group_symop_operation_xyz
x,y,z
-x,-y,-z
loop_
_atom_site_type_symbol
_atom_site_label
_atom_site_fract_x
_atom_site_fract_y
_atom_site_fract_z
Si Si1 0.994869 0.014153 0.314653
Si Si2 0.442428 0.140060 0.044256
Si Si3 0.214038 0.040004 0.676636
Si Si4 0.075822 0.474003 0.193577
Si Si5 0.730230 0.202688 0.625466
Si Si6 0.184858 0.317888 0.970770
Si Si7 0.615253 0.316647 0.860226
Si Si8 0.418976 0.793187 0.576895
O O1 0.892914 0.975813 0.334857
O O2 0.951379 0.271821 0.044063
O O3 0.000000 0.000000 0.500000
O O4 0.137556 0.836817 0.376737
O O5 0.439331 0.973382 0.318774
O O6 0.299486 0.341323 0.891900
O O7 0.524312 0.230424 0.976660
O O8 0.500000 0.000000 0.000000
O O9 0.337406 0.906652 0.649393
O O10 0.157676 0.313298 0.439411
O O11 0.256054 0.897073 0.937899
O O12 0.942083 0.512835 0.211859
O O13 0.145138 0.340618 0.136734
O O14 0.638321 0.362543 0.643928
O O15 0.661520 0.260374 0.447133
O O16 0.763081 0.939543 0.871868
O O17 0.549503 0.553026 0.761921
#
# Coordination Sequence:
#
# PCOD9105649 Si02
#       8
#     2   2   2   2   2   2   2   2
#     4  11  22  40  71  96 120 167 213 261 316 372
#     4  11  22  40  67  92 123 164 210 255 316 371
#     4  12  25  43  61  98 129 164 213 259 320 378
#     4  10  20  39  65  93 127 156 207 273 305 364
#     4  10  20  42  65  95 125 153 224 262 299 385
#     4   9  17  36  65  92 116 151 214 259 295 364
#     4  12  27  41  63  92 134 172 200 265 324 361
#     4  11  23  44  64  93 127 162 224 259 294 395
#
# _framework density 23.055707000000002
#
# number of rings (size 3 to 8) (size 9 to 14) (size 15 to 20)
#    0.000    1.250    6.250    2.250    1.750    3.000 
#    0.000    2.500    0.000    0.000    0.000    0.000 
#    0.000    0.000    0.000    0.000    0.000    0.000 
#
# Total GULP energy -89447.777122 kJ/mol
# GULP energy per Si atom -5590.486070 kJ/mol
# Density = 2.300323 g / cm^3
# Si number density = 23.055707 Si / 1000 Ang^3
#
#
#
# Elastic Constant Matrix: (Units=GPa)
#
#
# Indices 1 2 3 4 5 6 
#
# 1 79.0067 18.5133 10.4526 -3.6354 -10.7980 -26.5310
# 2 18.5133 32.4407 8.5953 -8.5149 -0.2938 -19.4585
# 3 10.4526 8.5953 91.7356 -24.5488 10.5016 -4.1798
# 4 -3.6354 -8.5149 -24.5488 35.5804 -8.1227 1.2675
# 5 -10.7980 -0.2938 10.5016 -8.1227 40.9515 -3.2484
# 6 -26.5310 -19.4585 -4.1798 1.2675 -3.2484 28.7946
#
#
#
# Elastic Compliance Matrix: (Units=1/GPa)
#
#
# Indices 1 2 3 4 5 6 
#
# 1 0.020683 0.001921 -0.001872 0.002381 0.008077 0.020890
# 2 0.001921 0.058421 -0.000972 0.013670 0.007163 0.041314
# 3 -0.001872 -0.000972 0.013715 0.008526 -0.002409 -0.001038
# 4 0.002381 0.013670 0.008526 0.038716 0.007153 0.011772
# 5 0.008077 0.007163 -0.002409 0.007153 0.029825 0.014983
# 6 0.020890 0.041314 -0.001038 0.011772 0.014983 0.082916
#
#
# Mechanical properties :
#
#
# Convention : Reuss Voigt Hill
#
# Bulk Modulus (GPa) = 10.99245 30.92282 20.95764
# Shear Modulus (GPa) = 18.08657 32.10675 25.09666
#
# Velocity S-wave (km/s) = 2.80388 3.73577 3.30286
# Velocity P-wave (km/s) = 3.90647 5.66121 4.86363
#
# Compressibility (1/GPa) = 0.09097150
#
# Stress axis : x y z
#
# Youngs Moduli (GPa) = 48.34845 17.11727 72.91081
#
# Poissons Ratio (x) = -0.03288 0.13651
# Poissons Ratio (y) = -0.09286 0.07088
# Poissons Ratio (z) = 0.09052 0.01664
#
# Static dielectric constant tensor:
#      x y z
#    x 1.860770 -0.010100 -0.009090 
#    y -0.010100 1.851920 -0.041280 
#    z -0.009090 -0.041280 1.929360 
# 
# From -- ./inp_files/306219.got.cif
#   From: 2010.05.17/outbox.cif.g08.bks.cpg/sg2_154_cif.got.tgz:306219.got - 2010.06.03 11:33:40.
