data_PCOD9105999
_publ_section_title
;
Structure prediction by ZEFSAII (Michael W. Deem and Ramdas Pophale) SiO2 
 PCOD9105999
Probable space group: P -1
;
_chemical_formula_sum "Si O2"
_cell_formula_units_Z 14
_cell_length_a 9.429182
_cell_length_b 14.491197
_cell_length_c 11.642115
_cell_angle_alpha 117.333624
_cell_angle_beta 103.612968
_cell_angle_gamma 131.186365
_cell_volume 631.919183
_symmetry_space_group_name_H-M "P -1"
_symmetry_group_IT_number 2
_symmetry_cell_setting 'triclinic'
loop_
_space_group_symop_operation_xyz
x,y,z
-x,-y,-z
loop_
_atom_site_type_symbol
_atom_site_label
_atom_site_fract_x
_atom_site_fract_y
_atom_site_fract_z
Si Si1 0.000365 0.655620 0.195041
Si Si2 0.202089 0.372791 0.627301
Si Si3 0.722395 0.381047 0.782385
Si Si4 0.221667 0.831918 0.006303
Si Si5 0.892912 0.771251 0.067641
Si Si6 0.934254 0.335697 0.377205
Si Si7 0.919417 0.928003 0.576699
O O1 0.935547 0.645448 0.306563
O O2 0.013953 0.770989 0.191801
O O3 0.273886 0.740948 0.293680
O O4 0.722327 0.419788 0.936477
O O5 0.012372 0.149005 0.433811
O O6 0.212326 0.450078 0.561238
O O7 0.526288 0.529209 0.827256
O O8 0.442642 0.258594 0.590406
O O9 0.052208 0.637779 0.942877
O O10 0.109056 0.727434 0.798422
O O11 0.083156 0.853593 0.039551
O O12 0.600010 0.086462 0.227641
O O13 0.912670 0.897429 0.195679
O O14 0.000000 0.500000 0.500000
O O15 0.000000 0.000000 0.500000
#
# Coordination Sequence:
#
# PCOD9105999 Si02
#       7
#     2   2   2   2   2   2   2
#     4  10  20  39  66  98 141 178 219 274 332 408
#     4  12  24  44  67 103 139 175 224 286 339 401
#     4  10  22  41  69  98 139 182 226 277 335 409
#     4  10  24  48  68  99 133 175 235 284 338 399
#     4  11  24  41  68 100 143 177 226 278 336 408
#     4  11  27  47  74  96 132 179 234 292 338 398
#     4  12  24  40  68 104 143 183 219 270 344 406
#
# _framework density 22.154731999999999
#
# number of rings (size 3 to 8) (size 9 to 14) (size 15 to 20)
#    0.000    1.143    4.286    2.143    4.000    8.000 
#    0.000    1.429    0.000    0.000    0.000    0.000 
#    0.000    0.000    0.000    0.000    0.000    0.000 
#
# Total GULP energy -78111.426036 kJ/mol
# GULP energy per Si atom -5579.387574 kJ/mol
# Density = 2.210431 g / cm^3
# Si number density = 22.154732 Si / 1000 Ang^3
#
#
#
# Elastic Constant Matrix: (Units=GPa)
#
#
# Indices 1 2 3 4 5 6 
#
# 1 117.0931 25.4414 26.8691 -5.4959 -26.1733 -5.6126
# 2 25.4414 57.3407 24.2415 -0.9535 -1.9090 -6.4886
# 3 26.8691 24.2415 71.8123 -6.8797 -17.2737 1.6647
# 4 -5.4959 -0.9535 -6.8797 27.0366 2.0576 -1.4149
# 5 -26.1733 -1.9090 -17.2737 2.0576 29.7108 -7.1821
# 6 -5.6126 -6.4886 1.6647 -1.4149 -7.1821 40.5242
#
#
#
# Elastic Compliance Matrix: (Units=1/GPa)
#
#
# Indices 1 2 3 4 5 6 
#
# 1 0.012271 -0.004576 -0.000336 0.001571 0.010931 0.002973
# 2 -0.004576 0.022727 -0.007698 -0.001487 -0.006429 0.002130
# 3 -0.000336 -0.007698 0.019482 0.003832 0.010240 -0.000131
# 4 0.001571 -0.001487 0.003832 0.038209 0.001201 0.001369
# 5 0.010931 -0.006429 0.010240 0.001201 0.050953 0.009136
# 6 0.002973 0.002130 -0.000131 0.001369 0.009136 0.027102
#
#
# Mechanical properties :
#
#
# Convention : Reuss Voigt Hill
#
# Bulk Modulus (GPa) = 34.17523 44.37225 39.27374
# Shear Modulus (GPa) = 24.30531 30.76725 27.53628
#
# Velocity S-wave (km/s) = 3.31580 3.73063 3.52931
# Velocity P-wave (km/s) = 5.48804 6.21519 5.86290
#
# Compressibility (1/GPa) = 0.02926096
#
# Stress axis : x y z
#
# Youngs Moduli (GPa) = 81.49263 44.00129 51.32829
#
# Poissons Ratio (x) = 0.20136 0.01723
# Poissons Ratio (y) = 0.37293 0.39511
# Poissons Ratio (z) = 0.02736 0.33871
#
# Static dielectric constant tensor:
#      x y z
#    x 1.836030 0.007310 0.038660 
#    y 0.007310 1.830110 0.023960 
#    z 0.038660 0.023960 1.900650 
# 
# From -- ./inp_files/397664.got.cif
#   From: 2010.05.17/outbox.cif.g08.bks.cpg/sg2_199_cif.got.tgz:397664.got - 2010.06.03 11:33:40.
