data_PCOD9105930
_publ_section_title
;
Structure prediction by ZEFSAII (Michael W. Deem and Ramdas Pophale) SiO2 
 PCOD9105930
Probable space group: P -1
;
_chemical_formula_sum "Si O2"
_cell_formula_units_Z 15
_cell_length_a 8.962586
_cell_length_b 11.893380
_cell_length_c 13.548961
_cell_angle_alpha 148.928054
_cell_angle_beta 52.299379
_cell_angle_gamma 124.598730
_cell_volume 586.335538
_symmetry_space_group_name_H-M "P -1"
_symmetry_group_IT_number 2
_symmetry_cell_setting 'triclinic'
loop_
_space_group_symop_operation_xyz
x,y,z
-x,-y,-z
loop_
_atom_site_type_symbol
_atom_site_label
_atom_site_fract_x
_atom_site_fract_y
_atom_site_fract_z
Si Si1 0.500000 0.000000 0.000000
Si Si2 0.118169 0.556543 0.657901
Si Si3 0.570553 0.671210 0.882565
Si Si4 0.751219 0.850594 0.606768
Si Si5 0.231211 0.552392 0.057275
Si Si6 0.825112 0.800709 0.039189
Si Si7 0.771417 0.274258 0.471601
Si Si8 0.094727 0.190638 0.682214
O O1 0.544180 0.766218 0.857171
O O2 0.600110 0.938159 0.807022
O O3 0.948523 0.392909 0.552087
O O4 0.236266 0.400009 0.555111
O O5 0.211336 0.674256 0.613331
O O6 0.041743 0.742225 0.899212
O O7 0.403230 0.696750 0.046243
O O8 0.603105 0.414465 0.676615
O O9 0.755783 0.803446 0.956506
O O10 0.742230 0.863614 0.500360
O O11 0.954821 0.002196 0.650467
O O12 0.272494 0.424120 0.042172
O O13 0.172355 0.360115 0.859227
O O14 0.050911 0.687579 0.235983
O O15 0.776223 0.013373 0.276956
#
# Coordination Sequence:
#
# PCOD9105930 Si02
#       8
#     1   2   2   2   2   2   2   2
#     4  12  24  44  70  96 142 174 216 282 352 392
#     4  10  20  39  66  94 133 173 221 274 335 402
#     4  11  25  44  64  98 137 178 220 283 342 401
#     4  11  21  43  68  99 132 181 222 282 336 404
#     4  11  22  44  65  96 133 180 229 278 331 400
#     4  11  23  42  67  97 132 180 226 278 333 401
#     4  10  22  40  62  96 133 174 220 273 338 401
#     4  10  23  40  70  97 133 177 235 272 333 403
#
# _framework density 25.582621
#
# number of rings (size 3 to 8) (size 9 to 14) (size 15 to 20)
#    0.000    1.333    4.000    1.600    0.000    1.600 
#    4.800    1.333    0.000    0.000    0.000    0.000 
#    0.000    0.000    0.000    0.000    0.000    0.000 
#
# Total GULP energy -83548.447215 kJ/mol
# GULP energy per Si atom -5569.896481 kJ/mol
# Density = 2.552439 g / cm^3
# Si number density = 25.582621 Si / 1000 Ang^3
#
#
#
# Elastic Constant Matrix: (Units=GPa)
#
#
# Indices 1 2 3 4 5 6 
#
# 1 24.5441 1.6571 17.4549 9.4820 3.9411 -8.8028
# 2 1.6571 113.5109 35.2584 1.6656 -16.1616 -29.3304
# 3 17.4549 35.2584 171.2656 -9.4850 -5.7311 -1.9597
# 4 9.4820 1.6656 -9.4850 52.3175 -2.4361 -5.6323
# 5 3.9411 -16.1616 -5.7311 -2.4361 20.6875 -0.0217
# 6 -8.8028 -29.3304 -1.9597 -5.6323 -0.0217 19.2854
#
#
#
# Elastic Compliance Matrix: (Units=1/GPa)
#
#
# Indices 1 2 3 4 5 6 
#
# 1 0.069548 0.014196 -0.010196 -0.009870 -0.006094 0.049410
# 2 0.014196 0.022634 -0.005140 0.000786 0.013689 0.040625
# 3 -0.010196 -0.005140 0.007950 0.002287 0.000387 -0.010995
# 4 -0.009870 0.000786 0.002287 0.021917 0.005712 0.003329
# 5 -0.006094 0.013689 0.000387 0.005712 0.060994 0.019813
# 6 0.049410 0.040625 -0.010995 0.003329 0.019813 0.136069
#
#
# Mechanical properties :
#
#
# Convention : Reuss Voigt Hill
#
# Bulk Modulus (GPa) = 10.21949 46.45128 28.33538
# Shear Modulus (GPa) = 14.12397 35.45476 24.78936
#
# Velocity S-wave (km/s) = 2.35221 3.72680 3.11624
# Velocity P-wave (km/s) = 3.37351 6.05933 4.90388
#
# Compressibility (1/GPa) = 0.09785221
#
# Stress axis : x y z
#
# Youngs Moduli (GPa) = 14.37858 44.18179 125.78631
#
# Poissons Ratio (x) = -0.62721 1.28249
# Poissons Ratio (y) = -0.20412 0.64654
# Poissons Ratio (z) = 0.14660 0.22709
#
# Static dielectric constant tensor:
#      x y z
#    x 2.065330 0.074590 -0.039930 
#    y 0.074590 1.981570 0.000180 
#    z -0.039930 0.000180 2.031610 
# 
# From -- ./inp_files/519338.got.cif
#   From: 2010.05.17/outbox.cif.g08.bks.cpg/sg2_260_cif.got.tgz:519338.got - 2010.06.03 11:33:40.
