data_PCOD9105070
_publ_section_title
;
Structure prediction by ZEFSAII (Michael W. Deem and Ramdas Pophale) SiO2 
 PCOD9105070
Probable space group: P -1
;
_chemical_formula_sum "Si O2"
_cell_formula_units_Z 16
_cell_length_a 13.916535
_cell_length_b 11.816663
_cell_length_c 9.176956
_cell_angle_alpha 66.585399
_cell_angle_beta 84.536601
_cell_angle_gamma 138.887831
_cell_volume 688.868575
_symmetry_space_group_name_H-M "P -1"
_symmetry_group_IT_number 2
_symmetry_cell_setting 'triclinic'
loop_
_space_group_symop_operation_xyz
x,y,z
-x,-y,-z
loop_
_atom_site_type_symbol
_atom_site_label
_atom_site_fract_x
_atom_site_fract_y
_atom_site_fract_z
Si Si1 0.158485 0.877345 0.593441
Si Si2 0.323165 0.562008 0.340222
Si Si3 0.083651 0.939727 0.279804
Si Si4 0.838362 0.700385 0.815473
Si Si5 0.697817 0.182232 0.710424
Si Si6 0.259702 0.994602 0.978022
Si Si7 0.092447 0.536719 0.752467
Si Si8 0.564913 0.233011 0.277559
O O1 0.132120 0.889966 0.420892
O O2 0.052851 0.630622 0.766388
O O3 0.045563 0.860467 0.700462
O O4 0.384484 0.092827 0.462877
O O5 0.263409 0.442197 0.252128
O O6 0.330522 0.718398 0.258595
O O7 0.143739 0.323410 0.587658
O O8 0.536657 0.756701 0.253697
O O9 0.202137 0.043469 0.064855
O O10 0.131285 0.122649 0.251052
O O11 0.697386 0.487467 0.064358
O O12 0.717261 0.096918 0.869515
O O13 0.869221 0.398438 0.458629
O O14 0.525030 0.943823 0.753312
O O15 0.077308 0.745604 0.041471
O O16 0.293350 0.701174 0.691920
#
# Coordination Sequence:
#
# PCOD9105070 Si02
#       8
#     2   2   2   2   2   2   2   2
#     4  10  20  39  63  90 125 160 202 263 313 354
#     4  11  22  36  64  96 124 153 211 268 310 363
#     4  11  22  40  64  95 126 161 213 265 305 362
#     4  11  24  40  63  97 126 163 215 258 304 375
#     4  11  20  40  66  93 130 155 209 266 316 363
#     4  12  21  38  64  95 126 164 203 266 315 356
#     4  11  23  40  64  94 134 165 201 253 325 376
#     4  11  24  42  60  98 130 168 203 250 316 389
#
# _framework density 23.226490999999999
#
# number of rings (size 3 to 8) (size 9 to 14) (size 15 to 20)
#    0.000    1.000    5.000    5.250    1.750    3.500 
#    2.250    0.625    0.000    1.500    0.000    0.000 
#    0.000    0.000    0.000    0.000    0.000    0.000 
#
# Total GULP energy -89479.183877 kJ/mol
# GULP energy per Si atom -5592.448992 kJ/mol
# Density = 2.317363 g / cm^3
# Si number density = 23.226491 Si / 1000 Ang^3
#
#
#
# Elastic Constant Matrix: (Units=GPa)
#
#
# Indices 1 2 3 4 5 6 
#
# 1 93.1462 56.5785 29.6690 -21.5862 -18.9336 -25.8682
# 2 56.5785 85.4746 23.1773 -19.2305 -9.2356 -12.9381
# 3 29.6690 23.1773 68.2945 -24.5388 -13.8378 -3.8017
# 4 -21.5862 -19.2305 -24.5388 31.4651 4.1613 -3.7150
# 5 -18.9336 -9.2356 -13.8378 4.1613 33.5170 0.4123
# 6 -25.8682 -12.9381 -3.8017 -3.7150 0.4123 49.5790
#
#
#
# Elastic Compliance Matrix: (Units=1/GPa)
#
#
# Indices 1 2 3 4 5 6 
#
# 1 0.025152 -0.011643 -0.001195 0.009239 0.009229 0.010609
# 2 -0.011643 0.020227 -0.000791 0.003933 -0.001812 -0.000547
# 3 -0.001195 -0.000791 0.022442 0.015587 0.006412 0.002005
# 4 0.009239 0.003933 0.015587 0.053182 0.006000 0.010977
# 5 0.009229 -0.001812 0.006412 0.006000 0.036391 0.004981
# 6 0.010609 -0.000547 0.002005 0.010977 0.004981 0.026497
#
#
# Mechanical properties :
#
#
# Convention : Reuss Voigt Hill
#
# Bulk Modulus (GPa) = 24.65349 51.75165 38.20257
# Shear Modulus (GPa) = 22.25491 32.07826 27.16658
#
# Velocity S-wave (km/s) = 3.09879 3.72036 3.42371
# Velocity P-wave (km/s) = 4.84157 6.38627 5.66680
#
# Compressibility (1/GPa) = 0.04056220
#
# Stress axis : x y z
#
# Youngs Moduli (GPa) = 39.75812 49.43874 44.56025
#
# Poissons Ratio (x) = 0.57563 0.05326
# Poissons Ratio (y) = 0.46291 0.03524
# Poissons Ratio (z) = 0.04752 0.03910
#
# Static dielectric constant tensor:
#      x y z
#    x 1.856600 0.038840 -0.036790 
#    y 0.038840 1.927480 -0.010550 
#    z -0.036790 -0.010550 1.927650 
# 
# From -- ./inp_files/390988.got.cif
#   From: 2010.05.17/outbox.cif.g08.bks.cpg/sg2_196_cif.got.tgz:390988.got - 2010.06.03 11:33:40.
