data_PCOD9105348
_publ_section_title
;
Structure prediction by ZEFSAII (Michael W. Deem and Ramdas Pophale) SiO2 
 PCOD9105348
Probable space group: P -1
;
_chemical_formula_sum "Si O2"
_cell_formula_units_Z 16
_cell_length_a 11.598363
_cell_length_b 12.178527
_cell_length_c 14.943507
_cell_angle_alpha 57.572405
_cell_angle_beta 26.208892
_cell_angle_gamma 52.594427
_cell_volume 740.281120
_symmetry_space_group_name_H-M "P -1"
_symmetry_group_IT_number 2
_symmetry_cell_setting 'triclinic'
loop_
_space_group_symop_operation_xyz
x,y,z
-x,-y,-z
loop_
_atom_site_type_symbol
_atom_site_label
_atom_site_fract_x
_atom_site_fract_y
_atom_site_fract_z
Si Si1 0.033190 0.658914 0.644782
Si Si2 0.284750 0.886977 0.386791
Si Si3 0.874076 0.934643 0.245665
Si Si4 0.961428 0.472630 0.935421
Si Si5 0.477038 0.161939 0.334195
Si Si6 0.624430 0.764709 0.362363
Si Si7 0.520481 0.106662 0.119652
Si Si8 0.394696 0.425009 0.380062
O O1 0.034629 0.579559 0.771291
O O2 0.726922 0.771386 0.805345
O O3 0.250984 0.741538 0.449136
O O4 0.124019 0.548705 0.548451
O O5 0.360619 0.864907 0.448877
O O6 0.505333 0.957201 0.168294
O O7 0.000000 0.000000 0.500000
O O8 0.686189 0.922255 0.463798
O O9 0.808932 0.836118 0.259074
O O10 0.783576 0.085683 0.196577
O O11 0.174553 0.888908 0.099457
O O12 0.174566 0.328192 0.813149
O O13 0.645285 0.473410 0.150740
O O14 0.000000 0.500000 0.000000
O O15 0.464648 0.134357 0.251899
O O16 0.357254 0.320821 0.376660
O O17 0.530268 0.671071 0.540289
#
# Coordination Sequence:
#
# PCOD9105348 Si02
#       8
#     2   2   2   2   2   2   2   2
#     4  10  24  43  58  91 131 164 205 251 311 364
#     4  10  21  38  61  86 121 165 200 248 311 358
#     4  10  21  38  63  98 122 158 211 252 305 367
#     4  11  22  38  65  89 116 169 215 255 297 367
#     4  10  21  38  62  95 122 158 206 255 308 360
#     4  10  20  39  64  91 123 154 207 263 304 364
#     4  11  22  39  65  90 128 166 199 255 311 371
#     4  10  22  39  62  90 124 159 206 256 305 362
#
# _framework density 21.613412
#
# number of rings (size 3 to 8) (size 9 to 14) (size 15 to 20)
#    0.000    1.750    1.250    2.625    1.750    3.500 
#    0.000    8.750    0.000    9.750    0.000    0.000 
#    0.000    0.000    0.000    0.000    0.000    0.000 
#
# Total GULP energy -89171.321698 kJ/mol
# GULP energy per Si atom -5573.207606 kJ/mol
# Density = 2.156422 g / cm^3
# Si number density = 21.613412 Si / 1000 Ang^3
#
#
#
# Elastic Constant Matrix: (Units=GPa)
#
#
# Indices 1 2 3 4 5 6 
#
# 1 108.7299 56.9094 18.4979 -1.5667 1.2854 0.3490
# 2 56.9094 125.2388 24.8101 -6.1679 5.2038 8.0805
# 3 18.4979 24.8101 78.9881 1.6774 5.9523 6.2509
# 4 -1.5667 -6.1679 1.6774 19.9771 0.3140 3.9064
# 5 1.2854 5.2038 5.9523 0.3140 38.8828 4.5707
# 6 0.3490 8.0805 6.2509 3.9064 4.5707 29.3957
#
#
#
# Elastic Compliance Matrix: (Units=1/GPa)
#
#
# Indices 1 2 3 4 5 6 
#
# 1 0.012267 -0.005491 -0.001288 -0.000966 0.000333 0.001714
# 2 -0.005491 0.011298 -0.002054 0.003829 -0.000694 -0.003005
# 3 -0.001288 -0.002054 0.013910 -0.001500 -0.001572 -0.001934
# 4 -0.000966 0.003829 -0.001500 0.052806 0.000237 -0.007776
# 5 0.000333 -0.000694 -0.001572 0.000237 0.026465 -0.003625
# 6 0.001714 -0.003005 -0.001934 -0.007776 -0.003625 0.036833
#
#
# Mechanical properties :
#
#
# Convention : Reuss Voigt Hill
#
# Bulk Modulus (GPa) = 50.48253 57.04351 53.76302
# Shear Modulus (GPa) = 28.11378 31.83377 29.97377
#
# Velocity S-wave (km/s) = 3.61051 3.84196 3.72803
# Velocity P-wave (km/s) = 6.38661 6.79197 6.59241
#
# Compressibility (1/GPa) = 0.01980883
#
# Stress axis : x y z
#
# Youngs Moduli (GPa) = 81.52036 88.51116 71.88851
#
# Poissons Ratio (x) = 0.48601 0.09261
# Poissons Ratio (y) = 0.44762 0.14766
# Poissons Ratio (z) = 0.10502 0.18181
#
# Static dielectric constant tensor:
#      x y z
#    x 1.797040 -0.010700 -0.061240 
#    y -0.010700 1.863400 0.034080 
#    z -0.061240 0.034080 1.811210 
# 
# From -- ./inp_files/428214.got.cif
#   From: 2010.05.17/outbox.cif.g08.bks.cpg/sg2_215_cif.got.tgz:428214.got - 2010.06.03 11:33:40.
