data_PCOD9105100
_publ_section_title
;
Structure prediction by ZEFSAII (Michael W. Deem and Ramdas Pophale) SiO2 
 PCOD9105100
Probable space group: P -1
;
_chemical_formula_sum "Si O2"
_cell_formula_units_Z 16
_cell_length_a 11.868233
_cell_length_b 8.617484
_cell_length_c 9.262147
_cell_angle_alpha 128.130251
_cell_angle_beta 96.018542
_cell_angle_gamma 95.216005
_cell_volume 726.214806
_symmetry_space_group_name_H-M "P -1"
_symmetry_group_IT_number 2
_symmetry_cell_setting 'triclinic'
loop_
_space_group_symop_operation_xyz
x,y,z
-x,-y,-z
loop_
_atom_site_type_symbol
_atom_site_label
_atom_site_fract_x
_atom_site_fract_y
_atom_site_fract_z
Si Si1 0.140237 0.567285 0.538638
Si Si2 0.220399 0.278448 0.894345
Si Si3 0.671133 0.614565 0.727174
Si Si4 0.415543 0.828582 0.477923
Si Si5 0.180772 0.897053 0.494250
Si Si6 0.232429 0.677960 0.936239
Si Si7 0.551237 0.968379 0.836339
Si Si8 0.030957 0.742099 0.121713
O O1 0.217860 0.437470 0.377590
O O2 0.150899 0.768481 0.560746
O O3 0.201028 0.606282 0.726157
O O4 0.000000 0.500000 0.500000
O O5 0.232931 0.489543 0.933734
O O6 0.090911 0.205013 0.896651
O O7 0.229740 0.122142 0.679426
O O8 0.296487 0.296543 0.057640
O O9 0.581390 0.405135 0.630179
O O10 0.613766 0.777056 0.729891
O O11 0.287961 0.818167 0.393721
O O12 0.440003 0.923016 0.693123
O O13 0.500000 0.000000 0.500000
O O14 0.079167 0.851559 0.339000
O O15 0.128058 0.782227 0.036481
O O16 0.351917 0.833341 0.062731
O O17 0.500000 0.000000 0.000000
O O18 0.000000 0.500000 0.000000
#
# Coordination Sequence:
#
# PCOD9105100 Si02
#       8
#     2   2   2   2   2   2   2   2
#     4  11  22  40  63  94 128 163 202 254 315 380
#     4  11  22  40  63  92 125 163 204 255 313 378
#     4  11  24  43  64  91 127 167 207 256 315 374
#     4  11  23  42  65  88 118 164 213 262 308 359
#     4  11  23  40  62  93 126 162 208 256 311 376
#     4  11  23  39  62  92 123 163 211 257 307 374
#     4  12  25  43  62  89 126 167 212 263 310 361
#     4  10  20  39  63  91 126 163 201 255 313 372
#
# _framework density 22.032048
#
# number of rings (size 3 to 8) (size 9 to 14) (size 15 to 20)
#    0.000    1.000    0.000   10.500    0.000    4.000 
#    0.000    5.000    0.000    0.000    0.000    0.000 
#    0.000    0.000    0.000    0.000    0.000    0.000 
#
# Total GULP energy -89269.378800 kJ/mol
# GULP energy per Si atom -5579.336175 kJ/mol
# Density = 2.198190 g / cm^3
# Si number density = 22.032048 Si / 1000 Ang^3
#
#
#
# Elastic Constant Matrix: (Units=GPa)
#
#
# Indices 1 2 3 4 5 6 
#
# 1 56.7425 31.0456 7.7405 17.6208 8.8046 15.1214
# 2 31.0456 52.8682 11.8155 12.9422 -6.1339 20.2040
# 3 7.7405 11.8155 129.9981 -3.1277 13.3069 -3.1914
# 4 17.6208 12.9422 -3.1277 36.7128 -2.0962 -0.0553
# 5 8.8046 -6.1339 13.3069 -2.0962 43.4870 3.1620
# 6 15.1214 20.2040 -3.1914 -0.0553 3.1620 24.6896
#
#
#
# Elastic Compliance Matrix: (Units=1/GPa)
#
#
# Indices 1 2 3 4 5 6 
#
# 1 0.032080 -0.014652 -0.000122 -0.010741 -0.008562 -0.006601
# 2 -0.014652 0.042856 -0.005164 -0.007857 0.012275 -0.028353
# 3 -0.000122 -0.005164 0.008751 0.002423 -0.003694 0.005911
# 4 -0.010741 -0.007857 0.002423 0.035451 0.001070 0.013264
# 5 -0.008562 0.012275 -0.003694 0.001070 0.028289 -0.008899
# 6 -0.006601 -0.028353 0.005911 0.013264 -0.008899 0.069681
#
#
# Mechanical properties :
#
#
# Convention : Reuss Voigt Hill
#
# Bulk Modulus (GPa) = 22.82633 37.86800 30.34716
# Shear Modulus (GPa) = 18.41011 33.57836 25.99423
#
# Velocity S-wave (km/s) = 2.89382 3.90817 3.43860
# Velocity P-wave (km/s) = 4.64205 6.13107 5.43777
#
# Compressibility (1/GPa) = 0.04380906
#
# Stress axis : x y z
#
# Youngs Moduli (GPa) = 31.17193 23.33375 114.27714
#
# Poissons Ratio (x) = 0.34189 0.01399
# Poissons Ratio (y) = 0.45674 0.59017
# Poissons Ratio (z) = 0.00382 0.12050
#
# Static dielectric constant tensor:
#      x y z
#    x 1.919290 0.041820 -0.216240 
#    y 0.041820 1.885360 -0.035570 
#    z -0.216240 -0.035570 2.123080 
# 
# From -- ./inp_files/246011.got.cif
#   From: 2010.05.17/outbox.cif.g08.bks.cpg/sg2_124_cif.got.tgz:246011.got - 2010.06.03 11:33:40.
