data_PCOD9105328
_publ_section_title
;
Structure prediction by ZEFSAII (Michael W. Deem and Ramdas Pophale) SiO2 
 PCOD9105328
Probable space group: P -1
;
_chemical_formula_sum "Si O2"
_cell_formula_units_Z 14
_cell_length_a 14.100480
_cell_length_b 9.461851
_cell_length_c 8.346046
_cell_angle_alpha 60.449953
_cell_angle_beta 57.313286
_cell_angle_gamma 99.806514
_cell_volume 654.398211
_symmetry_space_group_name_H-M "P -1"
_symmetry_group_IT_number 2
_symmetry_cell_setting 'triclinic'
loop_
_space_group_symop_operation_xyz
x,y,z
-x,-y,-z
loop_
_atom_site_type_symbol
_atom_site_label
_atom_site_fract_x
_atom_site_fract_y
_atom_site_fract_z
Si Si1 0.375189 0.574450 0.758520
Si Si2 0.804743 0.169306 0.476504
Si Si3 0.080132 0.212156 0.216307
Si Si4 0.637521 0.889000 0.510737
Si Si5 0.415420 0.262136 0.024587
Si Si6 0.313265 0.607008 0.430603
Si Si7 0.843661 0.843443 0.167596
O O1 0.485800 0.785309 0.629458
O O2 0.433880 0.442109 0.808756
O O3 0.367612 0.612740 0.557663
O O4 0.215092 0.417222 0.056308
O O5 0.782570 0.318379 0.502304
O O6 0.962314 0.244934 0.263881
O O7 0.718843 0.094329 0.427314
O O8 0.722467 0.959808 0.769974
O O9 0.142040 0.181471 0.018612
O O10 0.000000 0.000000 0.500000
O O11 0.743433 0.904343 0.276551
O O12 0.610355 0.733628 0.765269
O O13 0.549125 0.261707 0.877065
O O14 0.224699 0.379098 0.575986
O O15 0.000000 0.000000 0.000000
#
# Coordination Sequence:
#
# PCOD9105328 Si02
#       7
#     2   2   2   2   2   2   2
#     4  11  22  36  64  94 116 162 209 257 288 364
#     4  10  23  41  62  90 126 165 195 252 313 362
#     4  11  22  39  65  90 122 160 209 248 301 365
#     4  10  22  38  64  88 124 156 211 244 308 356
#     4  10  20  39  64  90 122 165 202 247 302 369
#     4  11  24  37  65  92 125 157 209 251 307 354
#     4  11  22  38  61  94 118 164 205 250 298 369
#
# _framework density 21.393702000000001
#
# number of rings (size 3 to 8) (size 9 to 14) (size 15 to 20)
#    0.857    0.571    4.286    1.286    2.000    2.857 
#    0.000    0.000    0.000    1.714    0.000    0.000 
#    0.000    0.000    0.000    0.000    0.000    0.000 
#
# Total GULP energy -78049.785497 kJ/mol
# GULP energy per Si atom -5574.984678 kJ/mol
# Density = 2.134501 g / cm^3
# Si number density = 21.393702 Si / 1000 Ang^3
#
#
#
# Elastic Constant Matrix: (Units=GPa)
#
#
# Indices 1 2 3 4 5 6 
#
# 1 69.3595 16.0481 19.0981 -1.7152 -26.3533 11.7781
# 2 16.0481 67.3738 17.7779 2.6055 -25.1235 -1.7834
# 3 19.0981 17.7779 95.1023 16.2439 -32.0037 2.2652
# 4 -1.7152 2.6055 16.2439 30.8793 10.2104 -16.8644
# 5 -26.3533 -25.1235 -32.0037 10.2104 41.5373 -11.1616
# 6 11.7781 -1.7834 2.2652 -16.8644 -11.1616 19.9947
#
#
#
# Elastic Compliance Matrix: (Units=1/GPa)
#
#
# Indices 1 2 3 4 5 6 
#
# 1 0.022228 -0.000125 0.004393 -0.016540 0.016557 -0.018311
# 2 -0.000125 0.021383 0.003030 -0.005540 0.018512 0.007299
# 3 0.004393 0.003030 0.022703 -0.028315 0.025107 -0.014756
# 4 -0.016540 -0.005540 -0.028315 0.101360 -0.040302 0.075451
# 5 0.016557 0.018512 0.025107 -0.040302 0.074060 -0.003596
# 6 -0.018311 0.007299 -0.014756 0.075451 -0.003596 0.124753
#
#
# Mechanical properties :
#
#
# Convention : Reuss Voigt Hill
#
# Bulk Modulus (GPa) = 12.35946 37.52045 24.93995
# Shear Modulus (GPa) = 13.19736 30.40971 21.80354
#
# Velocity S-wave (km/s) = 2.48640 3.77428 3.19589
# Velocity P-wave (km/s) = 3.74601 6.04729 5.03003
#
# Compressibility (1/GPa) = 0.08090971
#
# Stress axis : x y z
#
# Youngs Moduli (GPa) = 44.98784 46.76576 44.04663
#
# Poissons Ratio (x) = 0.00583 -0.19348
# Poissons Ratio (y) = 0.00561 -0.13344
# Poissons Ratio (z) = -0.19761 -0.14168
#
# Static dielectric constant tensor:
#      x y z
#    x 1.810140 0.009450 -0.008470 
#    y 0.009450 1.816470 -0.041170 
#    z -0.008470 -0.041170 1.787140 
# 
# From -- ./inp_files/294748.got.cif
#   From: 2010.05.17/outbox.cif.g08.bks.cpg/sg2_148_cif.got.tgz:294748.got - 2010.06.03 11:33:40.
