data_PCOD9105696
_publ_section_title
;
Structure prediction by ZEFSAII (Michael W. Deem and Ramdas Pophale) SiO2 
 PCOD9105696
Probable space group: P -1
;
_chemical_formula_sum "Si O2"
_cell_formula_units_Z 14
_cell_length_a 9.996622
_cell_length_b 11.377261
_cell_length_c 10.196282
_cell_angle_alpha 107.540629
_cell_angle_beta 66.214671
_cell_angle_gamma 51.902007
_cell_volume 538.732210
_symmetry_space_group_name_H-M "P -1"
_symmetry_group_IT_number 2
_symmetry_cell_setting 'triclinic'
loop_
_space_group_symop_operation_xyz
x,y,z
-x,-y,-z
loop_
_atom_site_type_symbol
_atom_site_label
_atom_site_fract_x
_atom_site_fract_y
_atom_site_fract_z
Si Si1 0.400820 0.774264 0.857191
Si Si2 0.000391 0.000367 0.301602
Si Si3 0.442613 0.864746 0.121283
Si Si4 0.183002 0.238823 0.696779
Si Si5 0.446127 0.401037 0.535907
Si Si6 0.792670 0.386277 0.762404
Si Si7 0.920251 0.692670 0.961082
O O1 0.465671 0.746687 0.671957
O O2 0.618834 0.519257 0.743986
O O3 0.121197 0.628060 0.769129
O O4 0.455899 0.855452 0.952737
O O5 0.133552 0.030959 0.321800
O O6 0.152143 0.780651 0.242982
O O7 0.114424 0.928835 0.082247
O O8 0.673466 0.215084 0.497249
O O9 0.623153 0.610757 0.993156
O O10 0.618658 0.853697 0.099899
O O11 0.080314 0.252097 0.608282
O O12 0.099945 0.439190 0.806220
O O13 0.500000 0.000000 0.500000
O O14 0.078124 0.250628 0.876214
O O15 0.500000 0.500000 0.500000
#
# Coordination Sequence:
#
# PCOD9105696 Si02
#       7
#     2   2   2   2   2   2   2
#     4   8  19  38  63  84 127 159 209 251 317 370
#     4   9  18  38  64  89 117 169 215 248 310 372
#     4   7  17  36  62  92 118 157 209 261 309 363
#     4  10  20  39  65  95 125 160 213 264 323 369
#     4  12  25  39  56  94 134 169 206 257 313 374
#     4   8  16  35  66  92 111 159 215 259 310 361
#     4  10  22  40  62  94 128 163 210 266 311 379
#
# _framework density 25.986939
#
# number of rings (size 3 to 8) (size 9 to 14) (size 15 to 20)
#    1.714    0.857    0.000    3.000    2.000    0.571 
#    7.714    1.429    0.000    0.000    0.000    0.000 
#    0.000    0.000    0.000    0.000    0.000    0.000 
#
# Total GULP energy -77954.597059 kJ/mol
# GULP energy per Si atom -5568.185504 kJ/mol
# Density = 2.592779 g / cm^3
# Si number density = 25.986939 Si / 1000 Ang^3
#
#
#
# Elastic Constant Matrix: (Units=GPa)
#
#
# Indices 1 2 3 4 5 6 
#
# 1 107.5245 29.9331 31.1436 1.2532 -14.6863 -20.7043
# 2 29.9331 88.0664 12.2682 11.4819 -3.5793 4.3335
# 3 31.1436 12.2682 77.2321 -8.1105 -23.7493 -10.5722
# 4 1.2532 11.4819 -8.1105 35.7503 -10.4821 -3.5651
# 5 -14.6863 -3.5793 -23.7493 -10.4821 43.6661 2.5321
# 6 -20.7043 4.3335 -10.5722 -3.5651 2.5321 41.2705
#
#
#
# Elastic Compliance Matrix: (Units=1/GPa)
#
#
# Indices 1 2 3 4 5 6 
#
# 1 0.012823 -0.004418 -0.002646 0.001742 0.002570 0.006212
# 2 -0.004418 0.014183 -0.002742 -0.006400 -0.003074 -0.004773
# 3 -0.002646 -0.002742 0.019484 0.009152 0.011445 0.004040
# 4 0.001742 -0.006400 0.009152 0.036612 0.013467 0.006227
# 5 0.002570 -0.003074 0.011445 0.013467 0.032757 0.003698
# 6 0.006212 -0.004773 0.004040 0.006227 0.003698 0.029194
#
#
# Mechanical properties :
#
#
# Convention : Reuss Voigt Hill
#
# Bulk Modulus (GPa) = 37.20420 46.61253 41.90836
# Shear Modulus (GPa) = 28.79776 37.43591 33.11684
#
# Velocity S-wave (km/s) = 3.33252 3.79960 3.57370
# Velocity P-wave (km/s) = 5.39955 6.10124 5.76109
#
# Compressibility (1/GPa) = 0.02687868
#
# Stress axis : x y z
#
# Youngs Moduli (GPa) = 77.98257 70.50643 51.32410
#
# Poissons Ratio (x) = 0.31153 0.13578
# Poissons Ratio (y) = 0.34456 0.14073
# Poissons Ratio (z) = 0.20630 0.19333
#
# Static dielectric constant tensor:
#      x y z
#    x 2.100200 -0.010770 0.046380 
#    y -0.010770 2.088770 0.015000 
#    z 0.046380 0.015000 2.290570 
# 
# From -- ./inp_files/430137.got.cif
#   From: 2010.05.17/outbox.cif.g08.bks.cpg/sg2_216_cif.got.tgz:430137.got - 2010.06.03 11:33:40.
