data_PCOD9105108
_publ_section_title
;
Structure prediction by ZEFSAII (Michael W. Deem and Ramdas Pophale) SiO2 
 PCOD9105108
Probable space group: P -1
;
_chemical_formula_sum "Si O2"
_cell_formula_units_Z 10
_cell_length_a 10.101777
_cell_length_b 13.792791
_cell_length_c 7.013944
_cell_angle_alpha 39.134868
_cell_angle_beta 134.501178
_cell_angle_gamma 131.158376
_cell_volume 425.463998
_symmetry_space_group_name_H-M "P -1"
_symmetry_group_IT_number 2
_symmetry_cell_setting 'triclinic'
loop_
_space_group_symop_operation_xyz
x,y,z
-x,-y,-z
loop_
_atom_site_type_symbol
_atom_site_label
_atom_site_fract_x
_atom_site_fract_y
_atom_site_fract_z
Si Si1 0.580537 0.832463 0.610830
Si Si2 0.832985 0.590920 0.702884
Si Si3 0.919422 0.073636 0.625467
Si Si4 0.490140 0.577055 0.624908
Si Si5 0.520793 0.141385 0.105959
O O1 0.505227 0.657416 0.723328
O O2 0.580739 0.837311 0.832720
O O3 0.795674 0.918745 0.622923
O O4 0.455690 0.959117 0.243420
O O5 0.680305 0.531701 0.809866
O O6 0.704494 0.545848 0.450113
O O7 0.922226 0.780039 0.523246
O O8 0.000000 0.500000 0.000000
O O9 0.742667 0.153628 0.366701
O O10 0.000000 0.000000 0.000000
O O11 0.490987 0.731702 0.256262
#
# Coordination Sequence:
#
# PCOD9105108 Si02
#       5
#     2   2   2   2   2
#     4   9  20  38  64  94 120 164 208 253 315 364
#     4  11  23  41  61  92 130 165 204 260 312 365
#     4  10  20  39  63  91 128 161 207 260 306 365
#     4  11  22  41  66  89 127 167 206 254 313 373
#     4   9  19  39  66  88 129 156 205 262 309 356
#
# _framework density 23.503753
#
# number of rings (size 3 to 8) (size 9 to 14) (size 15 to 20)
#    1.200    0.800    2.000    1.800    0.000    0.800 
#    3.600   10.000    0.000    0.000    0.000    0.000 
#    0.000    0.000    0.000    0.000    0.000    0.000 
#
# Total GULP energy -55739.269339 kJ/mol
# GULP energy per Si atom -5573.926934 kJ/mol
# Density = 2.345026 g / cm^3
# Si number density = 23.503753 Si / 1000 Ang^3
#
#
#
# Elastic Constant Matrix: (Units=GPa)
#
#
# Indices 1 2 3 4 5 6 
#
# 1 95.5126 42.9266 20.3358 19.2464 23.0632 2.8721
# 2 42.9266 144.4048 -8.6625 -5.5297 -1.0857 -3.0893
# 3 20.3358 -8.6625 44.6309 -13.5533 27.5319 -0.0531
# 4 19.2464 -5.5297 -13.5533 40.7026 -2.5100 -1.2494
# 5 23.0632 -1.0857 27.5319 -2.5100 35.2576 -0.3396
# 6 2.8721 -3.0893 -0.0531 -1.2494 -0.3396 46.8772
#
#
#
# Elastic Compliance Matrix: (Units=1/GPa)
#
#
# Indices 1 2 3 4 5 6 
#
# 1 0.021129 -0.007721 -0.012540 -0.015618 -0.005401 -0.002273
# 2 -0.007721 0.010022 0.008009 0.007700 -0.000334 0.001345
# 3 -0.012540 0.008009 0.059541 0.024661 -0.036272 0.001758
# 4 -0.015618 0.007700 0.024661 0.040928 -0.005865 0.002541
# 5 -0.005401 -0.000334 -0.036272 -0.005865 0.059797 0.000545
# 6 -0.002273 0.001345 0.001758 0.002541 0.000545 0.021634
#
#
# Mechanical properties :
#
#
# Convention : Reuss Voigt Hill
#
# Bulk Modulus (GPa) = 15.10845 43.74977 29.42911
# Shear Modulus (GPa) = 19.25912 39.89734 29.57823
#
# Velocity S-wave (km/s) = 2.86563 4.12453 3.55131
# Velocity P-wave (km/s) = 4.17028 6.42936 5.41885
#
# Compressibility (1/GPa) = 0.06618811
#
# Stress axis : x y z
#
# Youngs Moduli (GPa) = 47.32770 99.78474 16.79516
#
# Poissons Ratio (x) = 0.77039 0.21061
# Poissons Ratio (y) = 0.36540 -0.13451
# Poissons Ratio (z) = 0.59349 -0.79914
#
# Static dielectric constant tensor:
#      x y z
#    x 1.900890 0.012410 -0.032640 
#    y 0.012410 1.994000 -0.057790 
#    z -0.032640 -0.057790 1.973150 
# 
# From -- ./inp_files/36773.got.cif
#   From: 2010.05.17/outbox.cif.g08.bks.cpg/sg2_19_cif.got.tgz:36773.got - 2010.06.03 11:33:40.
