data_PCOD9105670
_publ_section_title
;
Structure prediction by ZEFSAII (Michael W. Deem and Ramdas Pophale) SiO2 
 PCOD9105670
Probable space group: P -1
;
_chemical_formula_sum "Si O2"
_cell_formula_units_Z 14
_cell_length_a 8.642996
_cell_length_b 11.894430
_cell_length_c 10.265478
_cell_angle_alpha 60.316550
_cell_angle_beta 139.080993
_cell_angle_gamma 124.040231
_cell_volume 567.690817
_symmetry_space_group_name_H-M "P -1"
_symmetry_group_IT_number 2
_symmetry_cell_setting 'triclinic'
loop_
_space_group_symop_operation_xyz
x,y,z
-x,-y,-z
loop_
_atom_site_type_symbol
_atom_site_label
_atom_site_fract_x
_atom_site_fract_y
_atom_site_fract_z
Si Si1 0.559354 0.899509 0.407605
Si Si2 0.988121 0.751060 0.187690
Si Si3 0.763303 0.466955 0.208465
Si Si4 0.529886 0.824289 0.873574
Si Si5 0.216679 0.477980 0.287736
Si Si6 0.082427 0.217839 0.166283
Si Si7 0.406518 0.775759 0.121987
O O1 0.755794 0.878537 0.646452
O O2 0.596591 0.836787 0.325876
O O3 0.283014 0.814599 0.331695
O O4 0.556028 0.050666 0.295627
O O5 0.903952 0.608435 0.296036
O O6 0.828347 0.851340 0.051504
O O7 0.895317 0.714686 0.999797
O O8 0.632314 0.305264 0.242150
O O9 0.995212 0.467470 0.257260
O O10 0.500000 0.500000 0.000000
O O11 0.474844 0.782712 0.012669
O O12 0.500000 0.500000 0.500000
O O13 0.152381 0.339157 0.245192
O O14 0.262736 0.616656 0.154689
O O15 0.788407 0.140076 0.037568
#
# Coordination Sequence:
#
# PCOD9105670 Si02
#       7
#     2   2   2   2   2   2   2
#     4  11  23  41  62  96 128 168 219 260 317 397
#     4  10  22  43  65  90 126 174 214 263 324 385
#     4  10  20  39  65  94 125 165 216 267 321 378
#     4  11  23  39  64  93 132 169 208 268 330 375
#     4  12  20  40  69  98 125 170 221 267 325 388
#     4  11  21  38  66  92 123 168 214 262 317 386
#     4  11  22  40  65  90 128 167 214 266 321 378
#
# _framework density 24.661313
#
# number of rings (size 3 to 8) (size 9 to 14) (size 15 to 20)
#    0.000    1.143    5.714    2.143    0.000    1.143 
#    0.000    5.714    0.000   10.286    0.000    0.000 
#    0.000    0.000    0.000    0.000    0.000    0.000 
#
# Total GULP energy -78027.262893 kJ/mol
# GULP energy per Si atom -5573.375921 kJ/mol
# Density = 2.460518 g / cm^3
# Si number density = 24.661313 Si / 1000 Ang^3
#
#
#
# Elastic Constant Matrix: (Units=GPa)
#
#
# Indices 1 2 3 4 5 6 
#
# 1 76.6195 -16.7447 30.1032 -1.9700 24.3528 4.7584
# 2 -16.7447 89.8882 15.6701 -26.7507 -9.5465 -2.3233
# 3 30.1032 15.6701 132.9775 -10.3911 17.0897 1.3093
# 4 -1.9700 -26.7507 -10.3911 37.4407 -1.8401 6.4935
# 5 24.3528 -9.5465 17.0897 -1.8401 25.5464 -1.5792
# 6 4.7584 -2.3233 1.3093 6.4935 -1.5792 25.2564
#
#
#
# Elastic Compliance Matrix: (Units=1/GPa)
#
#
# Indices 1 2 3 4 5 6 
#
# 1 0.020465 0.003154 -0.002595 0.002685 -0.016720 -0.005167
# 2 0.003154 0.016085 -0.002376 0.011543 0.005324 -0.001626
# 3 -0.002595 -0.002376 0.009007 0.000555 -0.004438 -0.000617
# 4 0.002685 0.011543 0.000555 0.036941 0.003503 -0.008751
# 5 -0.016720 0.005324 -0.004438 0.003503 0.060712 0.006765
# 6 -0.005167 -0.001626 -0.000617 -0.008751 0.006765 0.043123
#
#
# Mechanical properties :
#
#
# Convention : Reuss Voigt Hill
#
# Bulk Modulus (GPa) = 23.85270 39.72693 31.78982
# Shear Modulus (GPa) = 24.51693 35.67912 30.09803
#
# Velocity S-wave (km/s) = 3.15643 3.80776 3.49729
# Velocity P-wave (km/s) = 4.79345 5.95618 5.40616
#
# Compressibility (1/GPa) = 0.04192398
#
# Stress axis : x y z
#
# Youngs Moduli (GPa) = 48.86502 62.16856 111.02197
#
# Poissons Ratio (x) = -0.19610 0.28811
# Poissons Ratio (y) = -0.15413 0.26377
# Poissons Ratio (z) = 0.12681 0.14770
#
# Static dielectric constant tensor:
#      x y z
#    x 2.064610 -0.019640 -0.000150 
#    y -0.019640 1.994460 0.014720 
#    z -0.000150 0.014720 2.114720 
# 
# From -- ./inp_files/389616.got.cif
#   From: 2010.05.17/outbox.cif.g08.bks.cpg/sg2_195_cif.got.tgz:389616.got - 2010.06.03 11:33:40.
