data_PCOD9105567
_publ_section_title
;
Structure prediction by ZEFSAII (Michael W. Deem and Ramdas Pophale) SiO2 
 PCOD9105567
Probable space group: P -1
;
_chemical_formula_sum "Si O2"
_cell_formula_units_Z 16
_cell_length_a 10.438801
_cell_length_b 19.398685
_cell_length_c 13.153086
_cell_angle_alpha 33.415923
_cell_angle_beta 147.330238
_cell_angle_gamma 147.689891
_cell_volume 694.846728
_symmetry_space_group_name_H-M "P -1"
_symmetry_group_IT_number 2
_symmetry_cell_setting 'triclinic'
loop_
_space_group_symop_operation_xyz
x,y,z
-x,-y,-z
loop_
_atom_site_type_symbol
_atom_site_label
_atom_site_fract_x
_atom_site_fract_y
_atom_site_fract_z
Si Si1 0.708165 0.948236 0.093572
Si Si2 0.355868 0.837375 0.724638
Si Si3 0.372505 0.332246 0.140367
Si Si4 0.918203 0.118939 0.706335
Si Si5 0.782977 0.229467 0.884240
Si Si6 0.672851 0.686652 0.097889
Si Si7 0.572401 0.366235 0.434880
Si Si8 0.967525 0.889389 0.528464
O O1 0.425879 0.818259 0.103713
O O2 0.911288 0.957579 0.307292
O O3 0.853897 0.923753 0.125433
O O4 0.683246 0.091121 0.913887
O O5 0.160383 0.811165 0.528009
O O6 0.217724 0.866022 0.694520
O O7 0.638389 0.979463 0.716704
O O8 0.428694 0.711143 0.945234
O O9 0.551710 0.311813 0.371471
O O10 0.500000 0.500000 0.000000
O O11 0.315342 0.266358 0.070664
O O12 0.080091 0.276479 0.063619
O O13 0.059610 0.220295 0.771916
O O14 0.794471 0.353322 0.667382
O O15 0.613037 0.524550 0.263034
O O16 0.295827 0.258694 0.439419
O O17 0.000000 0.000000 0.500000
#
# Coordination Sequence:
#
# PCOD9105567 Si02
#       8
#     2   2   2   2   2   2   2   2
#     4   9  20  38  63  94 120 157 212 259 309 375
#     4  10  23  41  66  93 126 166 204 264 321 367
#     4  10  23  40  58  88 125 164 215 255 300 373
#     4  10  22  42  64  91 125 164 213 258 314 381
#     4  10  20  39  65  89 123 164 203 263 319 355
#     4  11  24  40  61  91 127 168 212 257 314 384
#     4  10  24  41  61  93 127 165 215 262 311 374
#     4  10  21  40  65  95 124 160 215 262 310 379
#
# _framework density 23.026662000000002
#
# number of rings (size 3 to 8) (size 9 to 14) (size 15 to 20)
#    0.000    2.000    0.000    1.875    0.000   13.500 
#    0.000    6.875    0.000    0.000    0.000    0.000 
#    0.000    0.000    0.000    0.000    0.000    0.000 
#
# Total GULP energy -89441.582665 kJ/mol
# GULP energy per Si atom -5590.098917 kJ/mol
# Density = 2.297425 g / cm^3
# Si number density = 23.026662 Si / 1000 Ang^3
#
#
#
# Elastic Constant Matrix: (Units=GPa)
#
#
# Indices 1 2 3 4 5 6 
#
# 1 93.3478 28.4283 20.3005 13.3675 3.4654 -11.6591
# 2 28.4283 80.9682 18.6950 2.8010 -3.2020 -11.6527
# 3 20.3005 18.6950 113.9570 -6.9081 -8.1378 -20.0861
# 4 13.3675 2.8010 -6.9081 30.7565 1.4453 -4.1264
# 5 3.4654 -3.2020 -8.1378 1.4453 36.6428 9.7822
# 6 -11.6591 -11.6527 -20.0861 -4.1264 9.7822 32.6526
#
#
#
# Elastic Compliance Matrix: (Units=1/GPa)
#
#
# Indices 1 2 3 4 5 6 
#
# 1 0.013461 -0.003870 -0.001862 -0.005492 -0.002426 0.002313
# 2 -0.003870 0.014392 -0.001074 0.000504 0.000568 0.002987
# 3 -0.001862 -0.001074 0.010594 0.004024 0.000740 0.005756
# 4 -0.005492 0.000504 0.004024 0.036605 -0.001529 0.005778
# 5 -0.002426 0.000568 0.000740 -0.001529 0.030327 -0.009487
# 6 0.002313 0.002987 0.005756 0.005778 -0.009487 0.039631
#
#
# Mechanical properties :
#
#
# Convention : Reuss Voigt Hill
#
# Bulk Modulus (GPa) = 40.26216 47.01341 43.63778
# Shear Modulus (GPa) = 29.95800 34.73363 32.34582
#
# Velocity S-wave (km/s) = 3.61087 3.88804 3.75201
# Velocity P-wave (km/s) = 5.90826 6.37315 6.14510
#
# Compressibility (1/GPa) = 0.02483722
#
# Stress axis : x y z
#
# Youngs Moduli (GPa) = 74.28684 69.48271 94.38950
#
# Poissons Ratio (x) = 0.26887 0.17572
# Poissons Ratio (y) = 0.28745 0.10139
# Poissons Ratio (z) = 0.13830 0.07463
#
# Static dielectric constant tensor:
#      x y z
#    x 1.929420 -0.026200 -0.006350 
#    y -0.026200 1.836030 0.018030 
#    z -0.006350 0.018030 1.909160 
# 
# From -- ./inp_files/402916.got.cif
#   From: 2010.05.17/outbox.cif.g08.bks.cpg/sg2_202_cif.got.tgz:402916.got - 2010.06.03 11:33:40.
