data_PCOD9105284
_publ_section_title
;
Structure prediction by ZEFSAII (Michael W. Deem and Ramdas Pophale) SiO2 
 PCOD9105284
Probable space group: P -1
;
_chemical_formula_sum "Si O2"
_cell_formula_units_Z 16
_cell_length_a 19.371907
_cell_length_b 7.684919
_cell_length_c 7.501370
_cell_angle_alpha 141.773984
_cell_angle_beta 80.533716
_cell_angle_gamma 112.581588
_cell_volume 619.355487
_symmetry_space_group_name_H-M "P -1"
_symmetry_group_IT_number 2
_symmetry_cell_setting 'triclinic'
loop_
_space_group_symop_operation_xyz
x,y,z
-x,-y,-z
loop_
_atom_site_type_symbol
_atom_site_label
_atom_site_fract_x
_atom_site_fract_y
_atom_site_fract_z
Si Si1 0.328822 0.751738 0.655507
Si Si2 0.189476 0.212735 0.218379
Si Si3 0.942941 0.202163 0.895224
Si Si4 0.538779 0.770509 0.841893
Si Si5 0.439830 0.648548 0.256708
Si Si6 0.859393 0.863696 0.327993
Si Si7 0.287754 0.211663 0.826989
Si Si8 0.088264 0.450500 0.238826
O O1 0.253877 0.460811 0.513711
O O2 0.391112 0.649618 0.458469
O O3 0.305592 0.919096 0.635074
O O4 0.370648 0.000860 0.991750
O O5 0.128282 0.350923 0.300638
O O6 0.139603 0.870829 0.038797
O O7 0.237982 0.217944 0.026757
O O8 0.909493 0.930898 0.541263
O O9 0.000000 0.500000 0.000000
O O10 0.000118 0.233011 0.058475
O O11 0.500000 0.500000 0.500000
O O12 0.524284 0.592838 0.895829
O O13 0.500000 0.000000 0.000000
O O14 0.500000 0.000000 0.500000
O O15 0.370879 0.500903 0.024135
O O16 0.899349 0.194555 0.472169
O O17 0.770525 0.814980 0.328218
O O18 0.868100 0.597326 0.994831
#
# Coordination Sequence:
#
# PCOD9105284 Si02
#       8
#     2   2   2   2   2   2   2   2
#     4  10  20  41  67  91 131 170 225 263 326 400
#     4  10  20  40  63  92 122 176 224 261 326 400
#     4  10  22  40  60  93 131 165 213 283 332 382
#     4  11  22  42  68  98 138 174 217 273 331 396
#     4  10  22  41  71 102 132 174 225 276 330 395
#     4  10  20  40  61  91 128 163 209 272 328 375
#     4   9  20  38  66  91 128 175 218 271 320 405
#     4  10  20  39  64  88 121 168 217 261 322 392
#
# _framework density 25.833307000000001
#
# number of rings (size 3 to 8) (size 9 to 14) (size 15 to 20)
#    0.000    2.000    2.500    0.750    0.000    2.000 
#   11.250    5.625    0.000    0.000    0.000    0.000 
#    0.000    0.000    0.000    0.000    0.000    0.000 
#
# Total GULP energy -89275.890541 kJ/mol
# GULP energy per Si atom -5579.743159 kJ/mol
# Density = 2.577451 g / cm^3
# Si number density = 25.833307 Si / 1000 Ang^3
#
#
#
# Elastic Constant Matrix: (Units=GPa)
#
#
# Indices 1 2 3 4 5 6 
#
# 1 117.2801 42.8174 53.9097 32.6735 37.2217 5.5510
# 2 42.8174 109.6020 40.1681 34.3542 29.4578 2.3960
# 3 53.9097 40.1681 133.9193 24.2715 39.6766 1.6277
# 4 32.6735 34.3542 24.2715 35.0874 6.8967 11.4149
# 5 37.2217 29.4578 39.6766 6.8967 65.2259 13.5831
# 6 5.5510 2.3960 1.6277 11.4149 13.5831 35.4205
#
#
#
# Elastic Compliance Matrix: (Units=1/GPa)
#
#
# Indices 1 2 3 4 5 6 
#
# 1 0.014961 0.001085 -0.001603 -0.014047 -0.007631 0.005109
# 2 0.001085 0.016118 0.000123 -0.017781 -0.007633 0.007391
# 3 -0.001603 0.000123 0.010949 -0.006353 -0.005978 0.004080
# 4 -0.014047 -0.017781 -0.006353 0.068027 0.017947 -0.025109
# 5 -0.007631 -0.007633 -0.005978 0.017947 0.027890 -0.014492
# 6 0.005109 0.007391 0.004080 -0.025109 -0.014492 0.040393
#
#
# Mechanical properties :
#
#
# Convention : Reuss Voigt Hill
#
# Bulk Modulus (GPa) = 24.24985 70.51020 47.38003
# Shear Modulus (GPa) = 25.92355 42.07384 33.99870
#
# Velocity S-wave (km/s) = 3.17123 4.04005 3.63172
# Velocity P-wave (km/s) = 4.77665 7.00830 5.99719
#
# Compressibility (1/GPa) = 0.04123737
#
# Stress axis : x y z
#
# Youngs Moduli (GPa) = 66.84054 62.04165 91.33296
#
# Poissons Ratio (x) = -0.06733 0.14644
# Poissons Ratio (y) = -0.07254 -0.01121
# Poissons Ratio (z) = 0.10717 -0.00761
#
# Static dielectric constant tensor:
#      x y z
#    x 2.128260 -0.008580 -0.039320 
#    y -0.008580 2.206790 -0.115630 
#    z -0.039320 -0.115630 2.124150 
# 
# From -- ./inp_files/329677.got.cif
#   From: 2010.05.17/outbox.cif.g08.bks.cpg/sg2_165_cif.got.tgz:329677.got - 2010.06.03 11:33:40.
