data_PCOD9105343
_publ_section_title
;
Structure prediction by ZEFSAII (Michael W. Deem and Ramdas Pophale) SiO2 
 PCOD9105343
Probable space group: P -1
;
_chemical_formula_sum "Si O2"
_cell_formula_units_Z 16
_cell_length_a 10.521856
_cell_length_b 14.449827
_cell_length_c 15.568688
_cell_angle_alpha 150.511151
_cell_angle_beta 133.043008
_cell_angle_gamma 37.502047
_cell_volume 709.101802
_symmetry_space_group_name_H-M "P -1"
_symmetry_group_IT_number 2
_symmetry_cell_setting 'triclinic'
loop_
_space_group_symop_operation_xyz
x,y,z
-x,-y,-z
loop_
_atom_site_type_symbol
_atom_site_label
_atom_site_fract_x
_atom_site_fract_y
_atom_site_fract_z
Si Si1 0.050428 0.035359 0.254355
Si Si2 0.446127 0.713159 0.755955
Si Si3 0.944140 0.090895 0.658740
Si Si4 0.357328 0.622220 0.948547
Si Si5 0.718643 0.756907 0.398205
Si Si6 0.740467 0.855172 0.295102
Si Si7 0.668300 0.600598 0.932684
Si Si8 0.561510 0.210207 0.374078
O O1 0.114381 0.214434 0.449668
O O2 0.802989 0.143784 0.226372
O O3 0.127954 0.889470 0.260085
O O4 0.172279 0.868614 0.096633
O O5 0.563043 0.738697 0.909676
O O6 0.505175 0.455735 0.572714
O O7 0.522241 0.755685 0.734648
O O8 0.810400 0.340885 0.764562
O O9 0.883417 0.942043 0.458940
O O10 0.191129 0.956876 0.664267
O O11 0.287953 0.456504 0.750187
O O12 0.489268 0.641769 0.950087
O O13 0.500000 0.500000 0.000000
O O14 0.739747 0.743255 0.293528
O O15 0.500000 0.000000 0.500000
O O16 0.537163 0.078380 0.336004
O O17 0.802719 0.670228 0.102669
#
# Coordination Sequence:
#
# PCOD9105343 Si02
#       8
#     2   2   2   2   2   2   2   2
#     4  10  21  40  62  88 125 161 200 243 303 363
#     4  10  24  43  60  85 127 169 195 247 308 357
#     4  10  20  39  64  91 118 156 204 260 296 343
#     4  12  20  38  63  94 124 152 196 254 303 354
#     4  11  20  36  65  96 118 155 201 256 300 349
#     4  11  21  35  64  94 117 153 208 249 300 356
#     4  12  23  38  64  93 124 157 201 251 305 360
#     4  10  22  43  64  83 123 165 206 248 299 358
#
# _framework density 22.563756000000001
#
# number of rings (size 3 to 8) (size 9 to 14) (size 15 to 20)
#    0.000    1.250    5.000    1.125    0.000    1.500 
#    2.250    0.625    0.000    0.000    0.000    0.000 
#    0.000    0.000    0.000    0.000    0.000    0.000 
#
# Total GULP energy -89274.902996 kJ/mol
# GULP energy per Si atom -5579.681437 kJ/mol
# Density = 2.251240 g / cm^3
# Si number density = 22.563756 Si / 1000 Ang^3
#
#
#
# Elastic Constant Matrix: (Units=GPa)
#
#
# Indices 1 2 3 4 5 6 
#
# 1 61.5994 10.9284 32.0348 4.8790 -4.4270 1.6099
# 2 10.9284 48.6843 27.5887 -3.0937 -9.0926 2.4192
# 3 32.0348 27.5887 128.2201 -1.8723 -6.2331 -10.4993
# 4 4.8790 -3.0937 -1.8723 38.4360 2.0219 -1.4383
# 5 -4.4270 -9.0926 -6.2331 2.0219 38.4235 4.2447
# 6 1.6099 2.4192 -10.4993 -1.4383 4.2447 27.6284
#
#
#
# Elastic Compliance Matrix: (Units=1/GPa)
#
#
# Indices 1 2 3 4 5 6 
#
# 1 0.019406 -0.001368 -0.004783 -0.003015 0.001653 -0.003240
# 2 -0.001368 0.025125 -0.005176 0.001478 0.005405 -0.004841
# 3 -0.004783 -0.005176 0.010488 0.000918 -0.000661 0.004867
# 4 -0.003015 0.001478 0.000918 0.026717 -0.001477 0.002013
# 5 0.001653 0.005405 -0.000661 -0.001477 0.028041 -0.005206
# 6 -0.003240 -0.004841 0.004867 0.002013 -0.005206 0.039561
#
#
# Mechanical properties :
#
#
# Convention : Reuss Voigt Hill
#
# Bulk Modulus (GPa) = 30.89799 42.17866 36.53832
# Shear Modulus (GPa) = 27.35525 32.09438 29.72481
#
# Velocity S-wave (km/s) = 3.48566 3.77555 3.63350
# Velocity P-wave (km/s) = 5.47021 6.14329 5.81649
#
# Compressibility (1/GPa) = 0.03236456
#
# Stress axis : x y z
#
# Youngs Moduli (GPa) = 51.52972 39.80115 95.34941
#
# Poissons Ratio (x) = 0.05443 0.45608
# Poissons Ratio (y) = 0.07047 0.49357
# Poissons Ratio (z) = 0.24648 0.20603
#
# Static dielectric constant tensor:
#      x y z
#    x 2.265140 0.066220 -0.199820 
#    y 0.066220 1.839050 -0.028110 
#    z -0.199820 -0.028110 1.992720 
# 
# From -- ./inp_files/521935.got.cif
#   From: 2010.05.17/outbox.cif.g08.bks.cpg/sg2_261_cif.got.tgz:521935.got - 2010.06.03 11:33:40.
