data_PCOD9105841
_publ_section_title
;
Structure prediction by ZEFSAII (Michael W. Deem and Ramdas Pophale) SiO2 
 PCOD9105841
Probable space group: P -1
;
_chemical_formula_sum "Si O2"
_cell_formula_units_Z 14
_cell_length_a 13.727623
_cell_length_b 9.259016
_cell_length_c 29.661261
_cell_angle_alpha 36.072919
_cell_angle_beta 17.930254
_cell_angle_gamma 38.382753
_cell_volume 681.105429
_symmetry_space_group_name_H-M "P -1"
_symmetry_group_IT_number 2
_symmetry_cell_setting 'triclinic'
loop_
_space_group_symop_operation_xyz
x,y,z
-x,-y,-z
loop_
_atom_site_type_symbol
_atom_site_label
_atom_site_fract_x
_atom_site_fract_y
_atom_site_fract_z
Si Si1 0.661300 0.770998 0.764503
Si Si2 0.828573 0.963991 0.338090
Si Si3 0.613565 0.213060 0.029085
Si Si4 0.282210 0.232332 0.778699
Si Si5 0.504954 0.868567 0.080675
Si Si6 0.327346 0.477300 0.534304
Si Si7 0.100220 0.467228 0.062109
O O1 0.626799 0.868258 0.806215
O O2 0.008928 0.658147 0.629170
O O3 0.516332 0.988187 0.741587
O O4 0.421575 0.554504 0.920782
O O5 0.943522 0.232050 0.210490
O O6 0.500000 0.000000 0.500000
O O7 0.763512 0.799270 0.364853
O O8 0.136184 0.819427 0.262956
O O9 0.597890 0.053828 0.031330
O O10 0.500000 0.500000 0.000000
O O11 0.967913 0.189331 0.899303
O O12 0.455356 0.438638 0.623494
O O13 0.155957 0.315142 0.863518
O O14 0.759722 0.632287 0.022480
O O15 0.500000 0.000000 0.000000
O O16 0.500000 0.500000 0.500000
#
# Coordination Sequence:
#
# PCOD9105841 Si02
#       7
#     2   2   2   2   2   2   2
#     4  11  24  45  65  92 136 177 211 261 329 390
#     4  11  22  38  61  93 131 161 213 272 329 357
#     4  11  22  38  67  99 123 166 230 263 309 383
#     4  11  24  44  65  94 136 177 207 262 332 390
#     4  10  21  35  62  94 129 160 207 279 315 359
#     4  12  26  40  69  98 126 167 221 272 317 386
#     4  10  20  39  66  90 124 172 211 257 318 375
#
# _framework density 20.554822000000001
#
# number of rings (size 3 to 8) (size 9 to 14) (size 15 to 20)
#    0.000    1.143    2.857    6.429    8.000    0.000 
#    0.000    2.857    0.000    1.714    0.000    0.000 
#    0.000    0.000    0.000    0.000    0.000    0.000 
#
# Total GULP energy -78037.638499 kJ/mol
# GULP energy per Si atom -5574.117036 kJ/mol
# Density = 2.050804 g / cm^3
# Si number density = 20.554822 Si / 1000 Ang^3
#
#
#
# Elastic Constant Matrix: (Units=GPa)
#
#
# Indices 1 2 3 4 5 6 
#
# 1 84.8081 63.3527 16.3187 4.3781 -4.9964 28.2480
# 2 63.3527 109.0225 42.0752 21.9394 -17.4835 20.6940
# 3 16.3187 42.0752 113.3296 24.0925 0.1880 9.9275
# 4 4.3781 21.9394 24.0925 45.0138 4.2739 2.9740
# 5 -4.9964 -17.4835 0.1880 4.2739 22.5063 1.0677
# 6 28.2480 20.6940 9.9275 2.9740 1.0677 39.4046
#
#
#
# Elastic Compliance Matrix: (Units=1/GPa)
#
#
# Indices 1 2 3 4 5 6 
#
# 1 0.026824 -0.016644 0.002069 0.005858 -0.007571 -0.011247
# 2 -0.016644 0.025733 -0.005071 -0.009937 0.018227 -0.000049
# 3 0.002069 -0.005071 0.011250 -0.003392 -0.002867 -0.001321
# 4 0.005858 -0.009937 -0.003392 0.029443 -0.011981 -0.000024
# 5 -0.007571 0.018227 -0.002867 -0.011981 0.059405 -0.004128
# 6 -0.011247 -0.000049 -0.001321 -0.000024 -0.004128 0.033912
#
#
# Mechanical properties :
#
#
# Convention : Reuss Voigt Hill
#
# Bulk Modulus (GPa) = 40.78907 61.18369 50.98638
# Shear Modulus (GPa) = 21.36465 33.74586 27.55526
#
# Velocity S-wave (km/s) = 3.22747 4.05625 3.66536
# Velocity P-wave (km/s) = 5.81170 7.19501 6.54003
#
# Compressibility (1/GPa) = 0.02451637
#
# Stress axis : x y z
#
# Youngs Moduli (GPa) = 37.27967 38.86036 88.88981
#
# Poissons Ratio (x) = 0.64680 -0.18395
# Poissons Ratio (y) = 0.62049 0.45073
# Poissons Ratio (z) = -0.07715 0.19705
#
# Static dielectric constant tensor:
#      x y z
#    x 1.755920 0.005980 0.037650 
#    y 0.005980 1.802430 0.017180 
#    z 0.037650 0.017180 1.770420 
# 
# From -- ./inp_files/176243.got.cif
#   From: 2010.05.17/outbox.cif.g08.bks.cpg/sg2_89_cif.got.tgz:176243.got - 2010.06.03 11:33:40.
