data_PCOD9105558
_publ_section_title
;
Structure prediction by ZEFSAII (Michael W. Deem and Ramdas Pophale) SiO2 
 PCOD9105558
Probable space group: P -1
;
_chemical_formula_sum "Si O2"
_cell_formula_units_Z 16
_cell_length_a 14.417870
_cell_length_b 8.023328
_cell_length_c 8.139843
_cell_angle_alpha 57.480946
_cell_angle_beta 95.663593
_cell_angle_gamma 126.130280
_cell_volume 607.448591
_symmetry_space_group_name_H-M "P -1"
_symmetry_group_IT_number 2
_symmetry_cell_setting 'triclinic'
loop_
_space_group_symop_operation_xyz
x,y,z
-x,-y,-z
loop_
_atom_site_type_symbol
_atom_site_label
_atom_site_fract_x
_atom_site_fract_y
_atom_site_fract_z
Si Si1 0.601127 0.309178 0.332119
Si Si2 0.221239 0.110222 0.275928
Si Si3 0.382087 0.220109 0.931120
Si Si4 0.996424 0.612532 0.606649
Si Si5 0.371779 0.652462 0.069888
Si Si6 0.195281 0.749331 0.992040
Si Si7 0.144472 0.277085 0.666140
Si Si8 0.060715 0.254280 0.022293
O O1 0.715636 0.479824 0.389676
O O2 0.500000 0.000000 0.500000
O O3 0.559106 0.481828 0.229510
O O4 0.641664 0.334145 0.136970
O O5 0.298573 0.110905 0.141880
O O6 0.311931 0.364328 0.262200
O O7 0.135526 0.161551 0.150198
O O8 0.135621 0.867213 0.507487
O O9 0.289274 0.057400 0.851043
O O10 0.487203 0.199636 0.959245
O O11 0.918042 0.377246 0.840394
O O12 0.910199 0.685031 0.519988
O O13 0.000000 0.500000 0.500000
O O14 0.290443 0.713174 0.098405
O O15 0.129173 0.541429 0.946279
O O16 0.078107 0.269116 0.823540
O O17 0.074463 0.969247 0.812115
#
# Coordination Sequence:
#
# PCOD9105558 Si02
#       8
#     2   2   2   2   2   2   2   2
#     4  11  23  41  69  92 126 177 232 271 319 394
#     4   9  17  36  60  88 125 163 221 259 313 389
#     4  11  21  39  65  97 132 173 222 272 324 394
#     4  11  23  36  63  99 128 167 218 275 326 393
#     4  10  22  40  66  94 129 181 222 266 330 387
#     4  11  22  40  67  97 140 166 219 275 334 389
#     4  10  20  39  65  88 129 169 225 257 333 385
#     4   9  19  38  66  88 121 179 208 262 334 396
#
# _framework density 26.339679
#
# number of rings (size 3 to 8) (size 9 to 14) (size 15 to 20)
#    0.000    1.750    5.000    1.875    1.750    5.500 
#    0.000    3.125    0.000    0.000    0.000    0.000 
#    0.000    0.000    0.000    0.000    0.000    0.000 
#
# Total GULP energy -89203.839326 kJ/mol
# GULP energy per Si atom -5575.239958 kJ/mol
# Density = 2.627973 g / cm^3
# Si number density = 26.339679 Si / 1000 Ang^3
#
#
#
# Elastic Constant Matrix: (Units=GPa)
#
#
# Indices 1 2 3 4 5 6 
#
# 1 126.9747 6.0136 22.8270 -13.5519 -21.3889 31.9663
# 2 6.0136 138.8922 42.3815 -55.9504 -14.7388 23.7008
# 3 22.8270 42.3815 89.7984 -50.3269 -0.1613 -3.8942
# 4 -13.5519 -55.9504 -50.3269 44.4101 0.9790 -11.4388
# 5 -21.3889 -14.7388 -0.1613 0.9790 32.7174 -7.1209
# 6 31.9663 23.7008 -3.8942 -11.4388 -7.1209 43.6951
#
#
#
# Elastic Compliance Matrix: (Units=1/GPa)
#
#
# Indices 1 2 3 4 5 6 
#
# 1 0.012646 0.002818 -0.007034 -0.003599 0.007176 -0.011180
# 2 0.002818 0.020915 0.012572 0.041278 0.010128 0.000171
# 3 -0.007034 0.012572 0.052709 0.079659 0.004291 0.024577
# 4 -0.003599 0.041278 0.079659 0.172447 0.019228 0.035621
# 5 0.007176 0.010128 0.004291 0.019228 0.039507 0.001110
# 6 -0.011180 0.000171 0.024577 0.035621 0.001110 0.042668
#
#
# Mechanical properties :
#
#
# Convention : Reuss Voigt Hill
#
# Bulk Modulus (GPa) = 9.71042 55.34548 32.52795
# Shear Modulus (GPa) = 13.94674 43.12739 28.53707
#
# Velocity S-wave (km/s) = 2.30357 4.05081 3.29511
# Velocity P-wave (km/s) = 3.28175 6.55260 5.18201
#
# Compressibility (1/GPa) = 0.10298212
#
# Stress axis : x y z
#
# Youngs Moduli (GPa) = 79.07743 47.81164 18.97221
#
# Poissons Ratio (x) = -0.13473 0.13345
# Poissons Ratio (y) = -0.22284 -0.23852
# Poissons Ratio (z) = 0.55622 -0.60108
#
# Static dielectric constant tensor:
#      x y z
#    x 2.223720 -0.003660 0.052250 
#    y -0.003660 2.339380 -0.163390 
#    z 0.052250 -0.163390 2.139770 
# 
# From -- ./inp_files/328717.got.cif
#   From: 2010.05.17/outbox.cif.g08.bks.cpg/sg2_165_cif.got.tgz:328717.got - 2010.06.03 11:33:40.
