data_PCOD9105035
_publ_section_title
;
Structure prediction by ZEFSAII (Michael W. Deem and Ramdas Pophale) SiO2 
 PCOD9105035
Probable space group: P -1
;
_chemical_formula_sum "Si O2"
_cell_formula_units_Z 16
_cell_length_a 9.058436
_cell_length_b 15.600000
_cell_length_c 12.418490
_cell_angle_alpha 124.708895
_cell_angle_beta 55.508628
_cell_angle_gamma 148.531859
_cell_volume 739.667627
_symmetry_space_group_name_H-M "P -1"
_symmetry_group_IT_number 2
_symmetry_cell_setting 'triclinic'
loop_
_space_group_symop_operation_xyz
x,y,z
-x,-y,-z
loop_
_atom_site_type_symbol
_atom_site_label
_atom_site_fract_x
_atom_site_fract_y
_atom_site_fract_z
Si Si1 0.166767 0.273703 0.668474
Si Si2 0.888509 0.878190 0.212263
Si Si3 0.608220 0.793034 0.884944
Si Si4 0.620235 0.587366 0.840983
Si Si5 0.312195 0.316551 0.410867
Si Si6 0.286362 0.975793 0.634667
Si Si7 0.277178 0.741369 0.175640
Si Si8 0.290561 0.530476 0.116623
O O1 0.033814 0.147145 0.730399
O O2 0.480478 0.456694 0.709584
O O3 0.201974 0.227928 0.509823
O O4 0.967577 0.283694 0.740191
O O5 0.620324 0.701605 0.139463
O O6 0.765474 0.935555 0.334432
O O7 0.144908 0.016430 0.121491
O O8 0.727798 0.750916 0.878382
O O9 0.526443 0.695291 0.737967
O O10 0.370829 0.741322 0.019157
O O11 0.816135 0.599230 0.840890
O O12 0.334607 0.489223 0.958186
O O13 0.500000 0.500000 0.500000
O O14 0.029417 0.218204 0.387125
O O15 0.500000 0.000000 0.500000
O O16 0.439159 0.077160 0.756228
O O17 0.180824 0.595862 0.181426
#
# Coordination Sequence:
#
# PCOD9105035 Si02
#       8
#     2   2   2   2   2   2   2   2
#     4  11  21  38  61  87 124 163 204 245 306 374
#     4   9  21  36  60  88 117 165 208 246 298 371
#     4  10  21  36  59  89 121 154 203 256 300 350
#     4   9  17  33  56  82 116 158 194 245 304 360
#     4  11  22  39  61  91 123 162 203 248 310 368
#     4  10  20  39  63  89 119 160 207 253 298 363
#     4  10  21  37  62  93 119 158 208 255 300 355
#     4   8  17  33  55  84 114 153 202 242 298 365
#
# _framework density 21.631339000000001
#
# number of rings (size 3 to 8) (size 9 to 14) (size 15 to 20)
#    0.000    2.250    2.500    0.000    0.000   12.500 
#    0.000    0.000    0.000    9.000    0.000    0.000 
#    0.000    0.000    0.000    0.000    0.000    0.000 
#
# Total GULP energy -89093.354466 kJ/mol
# GULP energy per Si atom -5568.334654 kJ/mol
# Density = 2.158210 g / cm^3
# Si number density = 21.631339 Si / 1000 Ang^3
#
#
#
# Elastic Constant Matrix: (Units=GPa)
#
#
# Indices 1 2 3 4 5 6 
#
# 1 96.6788 21.3327 27.0100 -12.9592 -0.1828 -23.7679
# 2 21.3327 75.5420 9.2598 -1.7680 2.7480 -9.3969
# 3 27.0100 9.2598 132.7161 5.1787 13.2791 4.9939
# 4 -12.9592 -1.7680 5.1787 31.6031 -4.7350 11.5065
# 5 -0.1828 2.7480 13.2791 -4.7350 30.8511 0.8634
# 6 -23.7679 -9.3969 4.9939 11.5065 0.8634 38.5671
#
#
#
# Elastic Compliance Matrix: (Units=1/GPa)
#
#
# Indices 1 2 3 4 5 6 
#
# 1 0.014191 -0.002674 -0.003344 0.003874 0.002151 0.007323
# 2 -0.002674 0.014344 -0.000353 -0.001287 -0.001404 0.002308
# 3 -0.003344 -0.000353 0.008844 -0.002572 -0.004122 -0.002432
# 4 0.003874 -0.001287 -0.002572 0.037989 0.007330 -0.009091
# 5 0.002151 -0.001404 -0.004122 0.007330 0.035492 -0.001464
# 6 0.007323 0.002308 -0.002432 -0.009091 -0.001464 0.034064
#
#
# Mechanical properties :
#
#
# Convention : Reuss Voigt Hill
#
# Bulk Modulus (GPa) = 40.58664 46.68245 43.63455
# Shear Modulus (GPa) = 30.14250 36.69322 33.41786
#
# Velocity S-wave (km/s) = 3.73696 4.12308 3.93476
# Velocity P-wave (km/s) = 6.11747 6.65539 6.39209
#
# Compressibility (1/GPa) = 0.02463865
#
# Stress axis : x y z
#
# Youngs Moduli (GPa) = 70.46497 69.71474 113.06772
#
# Poissons Ratio (x) = 0.18644 0.37805
# Poissons Ratio (y) = 0.18845 0.03988
# Poissons Ratio (z) = 0.23560 0.02459
#
# Static dielectric constant tensor:
#      x y z
#    x 1.805010 -0.027360 0.064770 
#    y -0.027360 1.924340 -0.014510 
#    z 0.064770 -0.014510 1.830800 
# 
# From -- ./inp_files/399407.got.cif
#   From: 2010.05.17/outbox.cif.g08.bks.cpg/sg2_200_cif.got.tgz:399407.got - 2010.06.03 11:33:40.
