data_PCOD9105279
_publ_section_title
;
Structure prediction by ZEFSAII (Michael W. Deem and Ramdas Pophale) SiO2 
 PCOD9105279
Probable space group: P -1
;
_chemical_formula_sum "Si O2"
_cell_formula_units_Z 12
_cell_length_a 16.154612
_cell_length_b 7.283962
_cell_length_c 8.161670
_cell_angle_alpha 82.377613
_cell_angle_beta 128.556328
_cell_angle_gamma 58.561606
_cell_volume 466.187905
_symmetry_space_group_name_H-M "P -1"
_symmetry_group_IT_number 2
_symmetry_cell_setting 'triclinic'
loop_
_space_group_symop_operation_xyz
x,y,z
-x,-y,-z
loop_
_atom_site_type_symbol
_atom_site_label
_atom_site_fract_x
_atom_site_fract_y
_atom_site_fract_z
Si Si1 0.185998 0.267554 0.686391
Si Si2 0.370238 0.782686 0.426339
Si Si3 0.887525 0.118814 0.056120
Si Si4 0.809460 0.475902 0.614475
Si Si5 0.630436 0.642572 0.924789
Si Si6 0.476188 0.352131 0.855829
O O1 0.172032 0.351498 0.468646
O O2 0.000000 0.500000 0.500000
O O3 0.280230 0.291436 0.913597
O O4 0.324477 0.915929 0.898341
O O5 0.500000 0.500000 0.500000
O O6 0.191940 0.966622 0.105655
O O7 0.462082 0.851235 0.574370
O O8 0.377372 0.654325 0.616100
O O9 0.870173 0.313758 0.882488
O O10 0.778427 0.329422 0.049958
O O11 0.083202 0.800071 0.347755
O O12 0.611247 0.702914 0.336796
O O13 0.571497 0.624425 0.020975
#
# Coordination Sequence:
#
# PCOD9105279 Si02
#       6
#     2   2   2   2   2   2
#     4  11  25  41  59  85 124 163 198 248 295 354
#     4   9  19  36  62  91 117 152 195 249 293 351
#     4   9  19  37  66  95 117 149 200 251 297 346
#     4   9  19  40  63  85 126 153 194 247 299 347
#     4  10  20  39  64  88 117 159 202 243 296 354
#     4  10  21  40  61  87 121 158 200 248 300 346
#
# _framework density 25.740696
#
# number of rings (size 3 to 8) (size 9 to 14) (size 15 to 20)
#    0.000    2.333    0.000    2.500    4.667    2.667 
#    9.000   14.167    0.000    0.000    0.000    0.000 
#    0.000    0.000    0.000    0.000    0.000    0.000 
#
# Total GULP energy -66898.536993 kJ/mol
# GULP energy per Si atom -5574.878083 kJ/mol
# Density = 2.568211 g / cm^3
# Si number density = 25.740696 Si / 1000 Ang^3
#
#
#
# Elastic Constant Matrix: (Units=GPa)
#
#
# Indices 1 2 3 4 5 6 
#
# 1 106.1281 22.3679 26.2122 -3.3470 21.2299 -11.4573
# 2 22.3679 82.6280 35.7549 6.6848 12.0786 -7.9394
# 3 26.2122 35.7549 107.5000 -10.8579 28.4952 -3.3711
# 4 -3.3470 6.6848 -10.8579 48.1945 1.6598 17.9492
# 5 21.2299 12.0786 28.4952 1.6598 47.5610 -4.9945
# 6 -11.4573 -7.9394 -3.3711 17.9492 -4.9945 25.5631
#
#
#
# Elastic Compliance Matrix: (Units=1/GPa)
#
#
# Indices 1 2 3 4 5 6 
#
# 1 0.011162 -0.001509 -0.001273 -0.000769 -0.003364 0.004249
# 2 -0.001509 0.016234 -0.005767 -0.006937 0.001162 0.008703
# 3 -0.001273 -0.005767 0.013894 0.006515 -0.007203 -0.006511
# 4 -0.000769 -0.006937 0.006515 0.032965 -0.005668 -0.025894
# 5 -0.003364 0.001162 -0.007203 -0.005668 0.027507 0.007257
# 6 0.004249 0.008703 -0.006511 -0.025894 0.007257 0.062467
#
#
# Mechanical properties :
#
#
# Convention : Reuss Voigt Hill
#
# Bulk Modulus (GPa) = 41.33502 51.65846 46.49674
# Shear Modulus (GPa) = 26.40037 38.39181 32.39609
#
# Velocity S-wave (km/s) = 3.20602 3.86616 3.55146
# Velocity P-wave (km/s) = 5.45874 6.32787 5.90931
#
# Compressibility (1/GPa) = 0.02419256
#
# Stress axis : x y z
#
# Youngs Moduli (GPa) = 89.58738 61.59837 71.97369
#
# Poissons Ratio (x) = 0.09294 0.09160
# Poissons Ratio (y) = 0.13516 0.41511
# Poissons Ratio (z) = 0.11402 0.35527
#
# Static dielectric constant tensor:
#      x y z
#    x 2.101240 0.102910 0.014490 
#    y 0.102910 2.102460 0.107510 
#    z 0.014490 0.107510 2.065710 
# 
# From -- ./inp_files/173326.got.cif
#   From: 2010.05.17/outbox.cif.g08.bks.cpg/sg2_87_cif.got.tgz:173326.got - 2010.06.03 11:33:40.
