data_PCOD9105727
_publ_section_title
;
Structure prediction by ZEFSAII (Michael W. Deem and Ramdas Pophale) SiO2 
 PCOD9105727
Probable space group: P -1
;
_chemical_formula_sum "Si O2"
_cell_formula_units_Z 14
_cell_length_a 7.817708
_cell_length_b 8.230077
_cell_length_c 19.203624
_cell_angle_alpha 125.847411
_cell_angle_beta 82.280325
_cell_angle_gamma 55.998277
_cell_volume 603.140208
_symmetry_space_group_name_H-M "P -1"
_symmetry_group_IT_number 2
_symmetry_cell_setting 'triclinic'
loop_
_space_group_symop_operation_xyz
x,y,z
-x,-y,-z
loop_
_atom_site_type_symbol
_atom_site_label
_atom_site_fract_x
_atom_site_fract_y
_atom_site_fract_z
Si Si1 0.931990 0.691135 0.984086
Si Si2 0.561916 0.532902 0.080575
Si Si3 0.768164 0.386661 0.604081
Si Si4 0.075184 0.295535 0.292375
Si Si5 0.260292 0.405858 0.485060
Si Si6 0.601684 0.579531 0.806405
Si Si7 0.132683 0.343245 0.739338
O O1 0.104229 0.736254 0.998160
O O2 0.065331 0.472167 0.853295
O O3 0.000000 0.500000 0.000000
O O4 0.600595 0.039639 0.081100
O O5 0.471431 0.491305 0.142461
O O6 0.373860 0.908893 0.187504
O O7 0.500000 0.500000 0.000000
O O8 0.882579 0.506762 0.644045
O O9 0.679923 0.491422 0.554458
O O10 0.560303 0.538942 0.719401
O O11 0.000000 0.000000 0.500000
O O12 0.851007 0.412253 0.389021
O O13 0.961448 0.400780 0.246422
O O14 0.000000 0.500000 0.500000
O O15 0.542981 0.014769 0.379707
O O16 0.928314 0.341792 0.737031
#
# Coordination Sequence:
#
# PCOD9105727 Si02
#       7
#     2   2   2   2   2   2   2
#     4  12  23  42  69  96 130 176 221 272 328 389
#     4  12  25  44  67  98 133 172 219 273 328 393
#     4  10  21  40  65  93 127 169 217 270 323 383
#     4  10  22  41  64  94 129 169 217 270 325 384
#     4  10  20  39  65  96 128 170 217 267 323 386
#     4  11  24  41  61  98 135 173 220 271 326 390
#     4  11  22  41  66  95 131 175 220 271 326 389
#
# _framework density 23.211849000000001
#
# number of rings (size 3 to 8) (size 9 to 14) (size 15 to 20)
#    0.000    1.143    0.000    8.143    0.000    1.143 
#    0.000   12.143    0.000    0.000    0.000    0.000 
#    0.000    0.000    0.000    0.000    0.000    0.000 
#
# Total GULP energy -78245.222158 kJ/mol
# GULP energy per Si atom -5588.944440 kJ/mol
# Density = 2.315902 g / cm^3
# Si number density = 23.211849 Si / 1000 Ang^3
#
#
#
# Elastic Constant Matrix: (Units=GPa)
#
#
# Indices 1 2 3 4 5 6 
#
# 1 45.8748 18.4131 12.7154 -4.4216 -13.6735 6.2847
# 2 18.4131 166.8733 48.6175 -29.9590 -9.3594 20.4124
# 3 12.7154 48.6175 125.1092 -15.6131 -8.2834 2.6426
# 4 -4.4216 -29.9590 -15.6131 76.6866 1.9697 -9.5119
# 5 -13.6735 -9.3594 -8.2834 1.9697 36.9305 4.8087
# 6 6.2847 20.4124 2.6426 -9.5119 4.8087 26.2211
#
#
#
# Elastic Compliance Matrix: (Units=1/GPa)
#
#
# Indices 1 2 3 4 5 6 
#
# 1 0.026688 -0.001094 -0.001499 -0.000376 0.010253 -0.007411
# 2 -0.001094 0.007910 -0.002517 0.001818 0.001626 -0.005280
# 3 -0.001499 -0.002517 0.009255 0.001002 0.000617 0.001636
# 4 -0.000376 0.001818 0.001002 0.014441 -0.000738 0.003948
# 5 0.010253 0.001626 0.000617 -0.000738 0.032774 -0.010063
# 6 -0.007411 -0.005280 0.001636 0.003948 -0.010063 0.047137
#
#
# Mechanical properties :
#
#
# Convention : Reuss Voigt Hill
#
# Bulk Modulus (GPa) = 29.73235 55.26103 42.49669
# Shear Modulus (GPa) = 31.32149 45.17507 38.24828
#
# Velocity S-wave (km/s) = 3.67737 4.41637 4.06370
# Velocity P-wave (km/s) = 5.55587 7.06149 6.35344
#
# Compressibility (1/GPa) = 0.03363340
#
# Stress axis : x y z
#
# Youngs Moduli (GPa) = 37.47003 126.42264 108.05477
#
# Poissons Ratio (x) = 0.13833 0.16196
# Poissons Ratio (y) = 0.04100 0.27193
# Poissons Ratio (z) = 0.05616 0.31815
#
# Static dielectric constant tensor:
#      x y z
#    x 1.935970 0.000250 0.017460 
#    y 0.000250 1.869480 -0.058740 
#    z 0.017460 -0.058740 1.859640 
# 
# From -- ./inp_files/429149.got.cif
#   From: 2010.05.17/outbox.cif.g08.bks.cpg/sg2_215_cif.got.tgz:429149.got - 2010.06.03 11:33:40.
