data_PCOD9105488
_publ_section_title
;
Structure prediction by ZEFSAII (Michael W. Deem and Ramdas Pophale) SiO2 
 PCOD9105488
Probable space group: P -1
;
_chemical_formula_sum "Si O2"
_cell_formula_units_Z 16
_cell_length_a 9.197381
_cell_length_b 15.413307
_cell_length_c 11.703135
_cell_angle_alpha 59.029082
_cell_angle_beta 78.049238
_cell_angle_gamma 39.977011
_cell_volume 859.514351
_symmetry_space_group_name_H-M "P -1"
_symmetry_group_IT_number 2
_symmetry_cell_setting 'triclinic'
loop_
_space_group_symop_operation_xyz
x,y,z
-x,-y,-z
loop_
_atom_site_type_symbol
_atom_site_label
_atom_site_fract_x
_atom_site_fract_y
_atom_site_fract_z
Si Si1 0.316542 0.540374 0.081768
Si Si2 0.411708 0.477006 0.374275
Si Si3 0.425054 0.942953 0.890801
Si Si4 0.108626 0.264660 0.595722
Si Si5 0.247416 0.513632 0.685502
Si Si6 0.545499 0.746982 0.353307
Si Si7 0.796985 0.913945 0.929897
Si Si8 0.743522 0.588039 0.003551
O O1 0.395276 0.485263 0.235646
O O2 0.500000 0.500000 0.000000
O O3 0.300951 0.442354 0.087875
O O4 0.068565 0.735753 0.988242
O O5 0.572436 0.489380 0.368986
O O6 0.515349 0.316273 0.515020
O O7 0.138815 0.622018 0.370019
O O8 0.638321 0.900071 0.934006
O O9 0.286142 0.077752 0.722868
O O10 0.540771 0.777919 0.940608
O O11 0.248550 0.029245 0.969975
O O12 0.250901 0.288727 0.599974
O O13 0.009891 0.327548 0.440308
O O14 0.347104 0.360572 0.707175
O O15 0.238946 0.496815 0.832896
O O16 0.315628 0.937447 0.229998
O O17 0.000000 0.500000 0.000000
#
# Coordination Sequence:
#
# PCOD9105488 Si02
#       8
#     2   2   2   2   2   2   2   2
#     4  12  25  44  60  92 129 171 200 252 318 379
#     4  11  22  40  60  89 131 166 201 255 313 368
#     4  10  20  39  64  98 116 160 210 268 297 358
#     4  10  21  37  67  93 121 157 215 261 303 358
#     4  11  22  40  58  94 128 164 205 252 315 368
#     4  10  21  37  67  95 117 160 214 262 303 357
#     4  10  20  39  66  91 126 153 216 258 304 358
#     4  12  25  40  66  90 129 164 208 253 317 370
#
# _framework density 18.615162999999999
#
# number of rings (size 3 to 8) (size 9 to 14) (size 15 to 20)
#    0.000    1.250    5.000    3.000    3.500    0.000 
#    4.500    4.375    0.000    0.000    0.000    0.000 
#    0.000    0.000    0.000    0.000    0.000    0.000 
#
# Total GULP energy -89278.991715 kJ/mol
# GULP energy per Si atom -5579.936982 kJ/mol
# Density = 1.857279 g / cm^3
# Si number density = 18.615163 Si / 1000 Ang^3
#
#
#
# Elastic Constant Matrix: (Units=GPa)
#
#
# Indices 1 2 3 4 5 6 
#
# 1 85.9875 26.4061 17.9826 -6.4815 -4.0445 13.1114
# 2 26.4061 102.5864 40.4421 -18.8753 4.0543 0.1817
# 3 17.9826 40.4421 99.5242 -8.8934 0.4580 8.7665
# 4 -6.4815 -18.8753 -8.8934 27.5068 3.0642 -5.4020
# 5 -4.0445 4.0543 0.4580 3.0642 27.4571 13.3988
# 6 13.1114 0.1817 8.7665 -5.4020 13.3988 20.9713
#
#
#
# Elastic Compliance Matrix: (Units=1/GPa)
#
#
# Indices 1 2 3 4 5 6 
#
# 1 0.016996 -0.006366 0.000840 -0.006052 0.014814 -0.021946
# 2 -0.006366 0.016714 -0.006037 0.013220 -0.013870 0.018626
# 3 0.000840 -0.006037 0.013025 -0.002494 0.006215 -0.010531
# 4 -0.006052 0.013220 -0.002494 0.052868 -0.025641 0.034713
# 5 0.014814 -0.013870 0.006215 -0.025641 0.076082 -0.066954
# 6 -0.021946 0.018626 -0.010531 0.034713 -0.066954 0.117365
#
#
# Mechanical properties :
#
#
# Convention : Reuss Voigt Hill
#
# Bulk Modulus (GPa) = 42.35648 50.86220 46.60934
# Shear Modulus (GPa) = 15.42992 28.73818 22.08405
#
# Velocity S-wave (km/s) = 2.88217 3.93339 3.44808
# Velocity P-wave (km/s) = 5.82057 6.92900 6.39883
#
# Compressibility (1/GPa) = 0.02360914
#
# Stress axis : x y z
#
# Youngs Moduli (GPa) = 58.83793 59.82969 76.77315
#
# Poissons Ratio (x) = 0.38089 -0.06450
# Poissons Ratio (y) = 0.37457 0.46348
# Poissons Ratio (z) = -0.04943 0.36119
#
# Static dielectric constant tensor:
#      x y z
#    x 1.634690 0.000500 0.003750 
#    y 0.000500 1.607100 0.002760 
#    z 0.003750 0.002760 1.665890 
# 
# From -- ./inp_files/256515.got.cif
#   From: 2010.05.17/outbox.cif.g08.bks.cpg/sg2_129_cif.got.tgz:256515.got - 2010.06.03 11:33:40.
