data_PCOD9105520
_publ_section_title
;
Structure prediction by ZEFSAII (Michael W. Deem and Ramdas Pophale) SiO2 
 PCOD9105520
Probable space group: P -1
;
_chemical_formula_sum "Si O2"
_cell_formula_units_Z 16
_cell_length_a 9.928003
_cell_length_b 7.951316
_cell_length_c 10.114427
_cell_angle_alpha 128.507668
_cell_angle_beta 106.681158
_cell_angle_gamma 78.070177
_cell_volume 598.088060
_symmetry_space_group_name_H-M "P -1"
_symmetry_group_IT_number 2
_symmetry_cell_setting 'triclinic'
loop_
_space_group_symop_operation_xyz
x,y,z
-x,-y,-z
loop_
_atom_site_type_symbol
_atom_site_label
_atom_site_fract_x
_atom_site_fract_y
_atom_site_fract_z
Si Si1 0.150986 0.677880 0.373147
Si Si2 0.789464 0.933737 0.724382
Si Si3 0.995408 0.759425 0.113502
Si Si4 0.537438 0.196937 0.774371
Si Si5 0.751299 0.917019 0.260471
Si Si6 0.402784 0.365373 0.303749
Si Si7 0.873910 0.598453 0.367444
Si Si8 0.389042 0.612458 0.837514
O O1 0.074503 0.810064 0.298798
O O2 0.284254 0.534254 0.296665
O O3 0.030575 0.537312 0.336014
O O4 0.196457 0.851934 0.575220
O O5 0.694258 0.811315 0.743517
O O6 0.865470 0.756569 0.566561
O O7 0.903541 0.106685 0.887241
O O8 0.659083 0.056406 0.669548
O O9 0.833503 0.842071 0.114382
O O10 0.000000 0.500000 0.000000
O O11 0.413983 0.078064 0.757100
O O12 0.462913 0.372605 0.745356
O O13 0.612189 0.314140 0.975420
O O14 0.808630 0.736344 0.293292
O O15 0.500000 0.500000 0.500000
O O16 0.508030 0.271481 0.175646
O O17 0.768228 0.408949 0.268054
#
# Coordination Sequence:
#
# PCOD9105520 Si02
#       8
#     2   2   2   2   2   2   2   2
#     4  11  22  42  68  95 131 175 220 281 328 386
#     4  12  23  42  61 100 130 175 223 264 331 400
#     4  11  24  41  70  96 133 170 226 286 331 385
#     4  10  24  39  70  96 128 176 221 286 329 380
#     4  10  20  39  65 103 124 165 226 278 335 380
#     4  12  26  42  66  99 137 181 220 265 332 406
#     4  10  20  39  65  96 128 164 222 277 316 397
#     4  10  23  43  65  97 132 171 228 271 336 390
#
# _framework density 26.751912999999998
#
# number of rings (size 3 to 8) (size 9 to 14) (size 15 to 20)
#    0.000    1.250    3.750    2.250    8.750    2.000 
#    0.000    0.625    0.000    0.000    0.000    0.000 
#    0.000    0.000    0.000    0.000    0.000    0.000 
#
# Total GULP energy -89511.597249 kJ/mol
# GULP energy per Si atom -5594.474828 kJ/mol
# Density = 2.669102 g / cm^3
# Si number density = 26.751913 Si / 1000 Ang^3
#
#
#
# Elastic Constant Matrix: (Units=GPa)
#
#
# Indices 1 2 3 4 5 6 
#
# 1 189.5840 11.2704 19.2755 8.6989 12.9554 41.6446
# 2 11.2704 75.6664 -4.6265 -3.4367 14.0095 23.4723
# 3 19.2755 -4.6265 69.3765 12.9507 12.4000 14.3927
# 4 8.6989 -3.4367 12.9507 18.9223 9.7902 13.4397
# 5 12.9554 14.0095 12.4000 9.7902 30.8515 6.6906
# 6 41.6446 23.4723 14.3927 13.4397 6.6906 47.6198
#
#
#
# Elastic Compliance Matrix: (Units=1/GPa)
#
#
# Indices 1 2 3 4 5 6 
#
# 1 0.006965 0.002365 -0.000401 0.005160 -0.003725 -0.008069
# 2 0.002365 0.022532 0.003339 0.021592 -0.015494 -0.018101
# 3 -0.000401 0.003339 0.017665 -0.005177 -0.005862 -0.004350
# 4 0.005160 0.021592 -0.005177 0.102412 -0.034217 -0.037687
# 5 -0.003725 -0.015494 -0.005862 -0.034217 0.050938 0.015167
# 6 -0.008069 -0.018101 -0.004350 -0.037687 0.015167 0.046798
#
#
# Mechanical properties :
#
#
# Convention : Reuss Voigt Hill
#
# Bulk Modulus (GPa) = 17.31038 42.94064 30.12551
# Shear Modulus (GPa) = 19.53433 40.05923 29.79678
#
# Velocity S-wave (km/s) = 2.70516 3.87387 3.34101
# Velocity P-wave (km/s) = 4.03013 6.00795 5.11553
#
# Compressibility (1/GPa) = 0.05776882
#
# Stress axis : x y z
#
# Youngs Moduli (GPa) = 143.57361 44.38089 56.61026
#
# Poissons Ratio (x) = -0.10497 0.02270
# Poissons Ratio (y) = -0.33958 -0.18903
# Poissons Ratio (z) = 0.05757 -0.14820
#
# Static dielectric constant tensor:
#      x y z
#    x 2.110830 0.070280 0.039370 
#    y 0.070280 2.200700 0.003090 
#    z 0.039370 0.003090 2.098810 
# 
# From -- ./inp_files/184280.got.cif
#   From: 2010.05.17/outbox.cif.g08.bks.cpg/sg2_93_cif.got.tgz:184280.got - 2010.06.03 11:33:40.
