data_PCOD9105420
_publ_section_title
;
Structure prediction by ZEFSAII (Michael W. Deem and Ramdas Pophale) SiO2 
 PCOD9105420
Probable space group: P -1
;
_chemical_formula_sum "Si O2"
_cell_formula_units_Z 16
_cell_length_a 8.372478
_cell_length_b 13.888418
_cell_length_c 13.814016
_cell_angle_alpha 138.530004
_cell_angle_beta 57.229916
_cell_angle_gamma 140.797274
_cell_volume 669.370303
_symmetry_space_group_name_H-M "P -1"
_symmetry_group_IT_number 2
_symmetry_cell_setting 'triclinic'
loop_
_space_group_symop_operation_xyz
x,y,z
-x,-y,-z
loop_
_atom_site_type_symbol
_atom_site_label
_atom_site_fract_x
_atom_site_fract_y
_atom_site_fract_z
Si Si1 0.529605 0.244801 0.230523
Si Si2 0.424316 0.501977 0.739175
Si Si3 0.864105 0.190585 0.950466
Si Si4 0.711514 0.876054 0.474822
Si Si5 0.835626 0.244467 0.781303
Si Si6 0.017912 0.550016 0.640960
Si Si7 0.566038 0.199375 0.658775
Si Si8 0.120036 0.208394 0.069635
O O1 0.448241 0.341591 0.269331
O O2 0.725652 0.385269 0.352961
O O3 0.300851 0.035646 0.187386
O O4 0.691232 0.218304 0.087228
O O5 0.442884 0.339234 0.598310
O O6 0.582644 0.630783 0.878925
O O7 0.122039 0.382061 0.747839
O O8 0.895105 0.282325 0.904635
O O9 0.068828 0.228756 0.989154
O O10 0.674430 0.845916 0.347235
O O11 0.673476 0.014683 0.638582
O O12 0.000000 0.000000 0.500000
O O13 0.667572 0.267965 0.786746
O O14 0.794734 0.371422 0.645859
O O15 0.013616 0.722490 0.781678
O O16 0.000000 0.500000 0.500000
O O17 0.500000 0.000000 0.500000
O O18 0.000000 0.000000 0.000000
#
# Coordination Sequence:
#
# PCOD9105420 Si02
#       8
#     2   2   2   2   2   2   2   2
#     4  10  22  41  63  88 126 168 211 270 315 387
#     4  11  20  40  66  88 130 167 209 269 340 372
#     4  10  23  42  62  89 128 171 217 259 320 396
#     4   9  20  38  62  92 128 160 201 272 327 381
#     4  10  22  40  65  95 124 168 218 262 332 396
#     4  11  24  43  69  98 123 173 228 266 322 402
#     4  10  20  39  64  94 129 164 207 276 323 382
#     4  11  23  44  66  93 138 172 214 279 334 378
#
# _framework density 23.903061999999998
#
# number of rings (size 3 to 8) (size 9 to 14) (size 15 to 20)
#    0.000    1.750    3.750    0.000    3.500    1.000 
#    2.250    3.750    0.000    0.000    0.000    0.000 
#    0.000    0.000    0.000    0.000    0.000    0.000 
#
# Total GULP energy -89186.565039 kJ/mol
# GULP energy per Si atom -5574.160315 kJ/mol
# Density = 2.384866 g / cm^3
# Si number density = 23.903062 Si / 1000 Ang^3
#
#
#
# Elastic Constant Matrix: (Units=GPa)
#
#
# Indices 1 2 3 4 5 6 
#
# 1 99.8772 29.4838 43.3954 -8.3259 50.5537 -25.4333
# 2 29.4838 93.2357 45.3366 6.5806 6.4593 -31.7826
# 3 43.3954 45.3366 103.9467 -13.2306 43.8248 -14.0712
# 4 -8.3259 6.5806 -13.2306 47.5347 -12.3402 8.6464
# 5 50.5537 6.4593 43.8248 -12.3402 59.8402 1.4362
# 6 -25.4333 -31.7826 -14.0712 8.6464 1.4362 34.8392
#
#
#
# Elastic Compliance Matrix: (Units=1/GPa)
#
#
# Indices 1 2 3 4 5 6 
#
# 1 0.029047 0.001063 0.001851 -0.006475 -0.027961 0.025682
# 2 0.001063 0.021728 -0.008852 -0.008490 0.001030 0.019087
# 3 0.001851 -0.008852 0.019105 0.003092 -0.013982 0.000802
# 4 -0.006475 -0.008490 0.003092 0.028008 0.010344 -0.018600
# 5 -0.027961 0.001030 -0.013982 0.010344 0.053312 -0.029885
# 6 0.025682 0.019087 0.000802 -0.018600 -0.029885 0.071036
#
#
# Mechanical properties :
#
#
# Convention : Reuss Voigt Hill
#
# Bulk Modulus (GPa) = 17.23986 59.27681 38.25834
# Shear Modulus (GPa) = 19.72801 40.36574 30.04687
#
# Velocity S-wave (km/s) = 2.87598 4.11387 3.54931
# Velocity P-wave (km/s) = 4.27275 6.88607 5.73037
#
# Compressibility (1/GPa) = 0.05800510
#
# Stress axis : x y z
#
# Youngs Moduli (GPa) = 34.42670 46.02386 52.34185
#
# Poissons Ratio (x) = -0.04893 -0.09688
# Poissons Ratio (y) = -0.03660 0.46331
# Poissons Ratio (z) = -0.06372 0.40739
#
# Static dielectric constant tensor:
#      x y z
#    x 2.043300 -0.090430 0.014350 
#    y -0.090430 1.879860 -0.031680 
#    z 0.014350 -0.031680 1.965390 
# 
# From -- ./inp_files/314128.got.cif
#   From: 2010.05.17/outbox.cif.g08.bks.cpg/sg2_158_cif.got.tgz:314128.got - 2010.06.03 11:33:40.
