data_PCOD9105657
_publ_section_title
;
Structure prediction by ZEFSAII (Michael W. Deem and Ramdas Pophale) SiO2 
 PCOD9105657
Probable space group: P -1
;
_chemical_formula_sum "Si O2"
_cell_formula_units_Z 16
_cell_length_a 19.035103
_cell_length_b 15.698939
_cell_length_c 8.260812
_cell_angle_alpha 47.755705
_cell_angle_beta 59.269843
_cell_angle_gamma 20.483875
_cell_volume 568.312674
_symmetry_space_group_name_H-M "P -1"
_symmetry_group_IT_number 2
_symmetry_cell_setting 'triclinic'
loop_
_space_group_symop_operation_xyz
x,y,z
-x,-y,-z
loop_
_atom_site_type_symbol
_atom_site_label
_atom_site_fract_x
_atom_site_fract_y
_atom_site_fract_z
Si Si1 0.771731 0.443458 0.295230
Si Si2 0.637658 0.000240 0.714386
Si Si3 0.529346 0.297573 0.881764
Si Si4 0.251833 0.237590 0.657615
Si Si5 0.182820 0.914438 0.007122
Si Si6 0.305757 0.527354 0.180943
Si Si7 0.769246 0.640250 0.819853
Si Si8 0.915134 0.831551 0.508810
O O1 0.547529 0.789945 0.204354
O O2 0.964506 0.217273 0.487476
O O3 0.662477 0.467865 0.330087
O O4 0.852656 0.409149 0.087924
O O5 0.502264 0.196891 0.454067
O O6 0.804947 0.679719 0.878072
O O7 0.761293 0.958904 0.647802
O O8 0.385307 0.477508 0.985460
O O9 0.692951 0.969469 0.109302
O O10 0.687448 0.199773 0.849788
O O11 0.159199 0.392453 0.389287
O O12 0.094273 0.508104 0.628471
O O13 0.502538 0.961778 0.713632
O O14 0.910562 0.266398 0.869186
O O15 0.234422 0.924140 0.774997
O O16 0.249747 0.696828 0.164277
#
# Coordination Sequence:
#
# PCOD9105657 Si02
#       8
#     2   2   2   2   2   2   2   2
#     4  11  26  42  62  99 146 174 212 268 338 396
#     4  12  23  43  65  96 137 180 218 269 332 392
#     4  11  24  44  68 101 131 173 219 280 323 389
#     4  10  21  40  66  99 134 173 225 268 324 388
#     4  11  24  43  77  95 121 174 229 280 320 388
#     4  11  23  46  74  95 124 170 236 275 321 383
#     4  10  20  39  65  93 134 182 210 278 319 386
#     4  12  25  42  69 101 135 179 218 268 333 397
#
# _framework density 28.153514000000001
#
# number of rings (size 3 to 8) (size 9 to 14) (size 15 to 20)
#    0.000    1.000    5.000    0.750    5.250    3.500 
#    0.000    1.250    0.000    0.000    0.000    0.000 
#    0.000    0.000    0.000    0.000    0.000    0.000 
#
# Total GULP energy -89599.119982 kJ/mol
# GULP energy per Si atom -5599.944999 kJ/mol
# Density = 2.808944 g / cm^3
# Si number density = 28.153514 Si / 1000 Ang^3
#
#
#
# Elastic Constant Matrix: (Units=GPa)
#
#
# Indices 1 2 3 4 5 6 
#
# 1 199.7992 16.7501 32.6790 -5.4289 19.8300 -22.6869
# 2 16.7501 66.5357 23.2763 22.3744 9.6294 -16.1465
# 3 32.6790 23.2763 59.8198 14.2568 5.3142 -2.1033
# 4 -5.4289 22.3744 14.2568 38.0777 -2.7363 7.0836
# 5 19.8300 9.6294 5.3142 -2.7363 53.4875 -2.6838
# 6 -22.6869 -16.1465 -2.1033 7.0836 -2.6838 45.0827
#
#
#
# Elastic Compliance Matrix: (Units=1/GPa)
#
#
# Indices 1 2 3 4 5 6 
#
# 1 0.006069 0.000029 -0.003453 0.001542 -0.001705 0.002560
# 2 0.000029 0.025312 -0.005491 -0.015156 -0.004248 0.010953
# 3 -0.003453 -0.005491 0.021922 -0.005142 -0.000267 -0.001889
# 4 0.001542 -0.015156 -0.005142 0.039634 0.004150 -0.010873
# 5 -0.001705 -0.004248 -0.000267 0.004150 0.020239 -0.001839
# 6 0.002560 0.010953 -0.001889 -0.010873 -0.001839 0.028903
#
#
# Mechanical properties :
#
#
# Convention : Reuss Voigt Hill
#
# Bulk Modulus (GPa) = 28.18837 52.39618 40.29228
# Shear Modulus (GPa) = 29.11477 44.22619 36.67048
#
# Velocity S-wave (km/s) = 3.21930 3.96775 3.61296
# Velocity P-wave (km/s) = 4.88392 6.29619 5.63448
#
# Compressibility (1/GPa) = 0.03547563
#
# Stress axis : x y z
#
# Youngs Moduli (GPa) = 164.76881 39.50620 45.61542
#
# Poissons Ratio (x) = -0.00116 0.15751
# Poissons Ratio (y) = -0.00486 0.25046
# Poissons Ratio (z) = 0.56895 0.21691
#
# Static dielectric constant tensor:
#      x y z
#    x 2.253020 0.034780 -0.028650 
#    y 0.034780 2.147020 -0.033750 
#    z -0.028650 -0.033750 2.208690 
# 
# From -- ./inp_files/348339.got.cif
#   From: 2010.05.17/outbox.cif.g08.bks.cpg/sg2_175_cif.got.tgz:348339.got - 2010.06.03 11:33:40.
