data_PCOD9105442
_publ_section_title
;
Structure prediction by ZEFSAII (Michael W. Deem and Ramdas Pophale) SiO2 
 PCOD9105442
Probable space group: P -1
;
_chemical_formula_sum "Si O2"
_cell_formula_units_Z 16
_cell_length_a 14.962414
_cell_length_b 8.805755
_cell_length_c 9.102234
_cell_angle_alpha 70.876669
_cell_angle_beta 47.579976
_cell_angle_gamma 97.594484
_cell_volume 721.323882
_symmetry_space_group_name_H-M "P -1"
_symmetry_group_IT_number 2
_symmetry_cell_setting 'triclinic'
loop_
_space_group_symop_operation_xyz
x,y,z
-x,-y,-z
loop_
_atom_site_type_symbol
_atom_site_label
_atom_site_fract_x
_atom_site_fract_y
_atom_site_fract_z
Si Si1 0.783909 0.480373 0.955219
Si Si2 0.423280 0.157290 0.908857
Si Si3 0.332568 0.359952 0.734568
Si Si4 0.998155 0.614122 0.323128
Si Si5 0.693543 0.837255 0.646225
Si Si6 0.298780 0.461565 0.437048
Si Si7 0.947182 0.861886 0.467614
Si Si8 0.480015 0.904736 0.710788
O O1 0.847940 0.660285 0.720287
O O2 0.894170 0.411709 0.888239
O O3 0.737017 0.540696 0.133087
O O4 0.647481 0.307120 0.089936
O O5 0.328629 0.200100 0.889805
O O6 0.577561 0.336927 0.712684
O O7 0.445666 0.005077 0.848796
O O8 0.350257 0.124175 0.158285
O O9 0.500000 0.500000 0.500000
O O10 0.273245 0.326690 0.647357
O O11 0.843297 0.541875 0.451312
O O12 0.045287 0.818738 0.269592
O O13 0.000000 0.500000 0.500000
O O14 0.647520 0.624081 0.721799
O O15 0.859896 0.923328 0.441904
O O16 0.622630 0.907994 0.588723
O O17 0.000000 0.000000 0.500000
O O18 0.500000 0.000000 0.500000
#
# Coordination Sequence:
#
# PCOD9105442 Si02
#       8
#     2   2   2   2   2   2   2   2
#     4  11  23  42  67  90 137 175 211 267 327 381
#     4  11  22  37  65  96 125 168 220 269 325 386
#     4  10  20  39  64  95 127 170 212 262 324 386
#     4   9  22  38  61  95 131 172 212 267 320 380
#     4  11  23  40  66  95 125 169 218 277 325 375
#     4  10  21  39  64  92 133 166 217 267 322 387
#     4  10  23  43  68  97 126 168 222 272 318 386
#     4  12  26  41  62  97 138 169 212 271 329 388
#
# _framework density 22.181436000000001
#
# number of rings (size 3 to 8) (size 9 to 14) (size 15 to 20)
#    0.000    1.500    1.250    4.500    7.000    2.500 
#    0.000    1.250    0.000    3.750    0.000    0.000 
#    0.000    0.000    0.000    0.000    0.000    0.000 
#
# Total GULP energy -89289.875464 kJ/mol
# GULP energy per Si atom -5580.617216 kJ/mol
# Density = 2.213095 g / cm^3
# Si number density = 22.181436 Si / 1000 Ang^3
#
#
#
# Elastic Constant Matrix: (Units=GPa)
#
#
# Indices 1 2 3 4 5 6 
#
# 1 178.6883 44.4608 25.9313 12.0774 -7.1971 -27.2656
# 2 44.4608 132.1053 28.6956 25.7078 -16.1614 -4.3248
# 3 25.9313 28.6956 52.1726 26.9432 -1.0007 -12.6059
# 4 12.0774 25.7078 26.9432 42.4822 -12.8506 -14.7589
# 5 -7.1971 -16.1614 -1.0007 -12.8506 23.7611 9.6156
# 6 -27.2656 -4.3248 -12.6059 -14.7589 9.6156 36.3472
#
#
#
# Elastic Compliance Matrix: (Units=1/GPa)
#
#
# Indices 1 2 3 4 5 6 
#
# 1 0.007137 -0.002251 -0.002378 0.002649 -0.000220 0.005395
# 2 -0.002251 0.010438 -0.004342 -0.002524 0.006803 -0.004777
# 3 -0.002378 -0.004342 0.035060 -0.022030 -0.016218 0.005204
# 4 0.002649 -0.002524 -0.022030 0.047201 0.020537 0.007779
# 5 -0.000220 0.006803 -0.016218 0.020537 0.062390 -0.013146
# 6 0.005395 -0.004777 0.005204 0.007779 -0.013146 0.039433
#
#
# Mechanical properties :
#
#
# Convention : Reuss Voigt Hill
#
# Bulk Modulus (GPa) = 28.82435 62.34904 45.58670
# Shear Modulus (GPa) = 21.62962 38.11001 29.86981
#
# Velocity S-wave (km/s) = 3.12608 4.14950 3.67360
# Velocity P-wave (km/s) = 5.10420 7.15035 6.21210
#
# Compressibility (1/GPa) = 0.03469289
#
# Stress axis : x y z
#
# Youngs Moduli (GPa) = 140.11769 95.80708 28.52213
#
# Poissons Ratio (x) = 0.21569 0.06782
# Poissons Ratio (y) = 0.31545 0.12384
# Poissons Ratio (z) = 0.33316 0.41600
#
# Static dielectric constant tensor:
#      x y z
#    x 1.833240 0.011270 0.013920 
#    y 0.011270 1.836970 -0.016750 
#    z 0.013920 -0.016750 1.888540 
# 
# From -- ./inp_files/298142.got.cif
#   From: 2010.05.17/outbox.cif.g08.bks.cpg/sg2_150_cif.got.tgz:298142.got - 2010.06.03 11:33:40.
