data_PCOD9105700
_publ_section_title
;
Structure prediction by ZEFSAII (Michael W. Deem and Ramdas Pophale) SiO2 
 PCOD9105700
Probable space group: P -1
;
_chemical_formula_sum "Si O2"
_cell_formula_units_Z 13
_cell_length_a 9.369440
_cell_length_b 10.193478
_cell_length_c 11.414570
_cell_angle_alpha 54.335562
_cell_angle_beta 142.621207
_cell_angle_gamma 126.068133
_cell_volume 520.014965
_symmetry_space_group_name_H-M "P -1"
_symmetry_group_IT_number 2
_symmetry_cell_setting 'triclinic'
loop_
_space_group_symop_operation_xyz
x,y,z
-x,-y,-z
loop_
_atom_site_type_symbol
_atom_site_label
_atom_site_fract_x
_atom_site_fract_y
_atom_site_fract_z
Si Si1 0.118981 0.681838 0.262989
Si Si2 0.500000 0.500000 0.500000
Si Si3 0.203707 0.296273 0.762816
Si Si4 0.675069 0.018127 0.909355
Si Si5 0.249171 0.152334 0.622801
Si Si6 0.994927 0.244001 0.193727
Si Si7 0.700276 0.517304 0.901424
O O1 0.269276 0.551176 0.393097
O O2 0.267631 0.871137 0.228691
O O3 0.026602 0.667673 0.342779
O O4 0.875573 0.631041 0.050927
O O5 0.451242 0.323490 0.633614
O O6 0.147828 0.195030 0.657661
O O7 0.428468 0.454356 0.802134
O O8 0.296162 0.167892 0.975762
O O9 0.413575 0.021255 0.789662
O O10 0.873977 0.122007 0.075970
O O11 0.065961 0.144129 0.399680
O O12 0.245882 0.378072 0.242025
O O13 0.814647 0.358616 0.045113
#
# Coordination Sequence:
#
# PCOD9105700 Si02
#       7
#     2   1   2   2   2   2   2
#     4  10  22  41  68  90 126 175 207 268 323 373
#     4  10  20  40  62  90 120 166 222 246 316 384
#     4  12  23  38  63 100 133 160 213 269 322 368
#     4  10  23  42  63  91 130 179 209 252 318 394
#     4  11  21  36  66  93 126 167 210 267 306 380
#     4  10  20  40  64  94 125 175 218 246 319 383
#     4  10  20  39  65  95 127 164 218 267 306 383
#
# _framework density 24.999279000000001
#
# number of rings (size 3 to 8) (size 9 to 14) (size 15 to 20)
#    0.000    1.538    3.077    2.308    0.000    1.231 
#    0.000    0.000    3.385    7.385    0.000    0.000 
#    0.000    0.000    0.000    0.000    0.000    0.000 
#
# Total GULP energy -72629.547248 kJ/mol
# GULP energy per Si atom -5586.888250 kJ/mol
# Density = 2.494238 g / cm^3
# Si number density = 24.999279 Si / 1000 Ang^3
#
#
#
# Elastic Constant Matrix: (Units=GPa)
#
#
# Indices 1 2 3 4 5 6 
#
# 1 196.8241 36.3309 48.4952 -1.4536 23.7954 2.8359
# 2 36.3309 60.5638 19.3355 0.9759 11.2906 14.8410
# 3 48.4952 19.3355 111.0635 -7.6825 7.0889 1.2698
# 4 -1.4536 0.9759 -7.6825 39.3007 9.2797 5.7983
# 5 23.7954 11.2906 7.0889 9.2797 30.1364 -3.7731
# 6 2.8359 14.8410 1.2698 5.7983 -3.7731 32.6964
#
#
#
# Elastic Compliance Matrix: (Units=1/GPa)
#
#
# Indices 1 2 3 4 5 6 
#
# 1 0.006556 -0.002549 -0.002109 0.000821 -0.003970 0.000066
# 2 -0.002549 0.023064 -0.002051 0.002630 -0.008409 -0.011605
# 3 -0.002109 -0.002051 0.010469 0.002137 -0.000655 0.000253
# 4 0.000821 0.002630 0.002137 0.029941 -0.012368 -0.008085
# 5 -0.003970 -0.008409 -0.000655 -0.012368 0.044877 0.011559
# 6 0.000066 -0.011605 0.000253 -0.008085 0.011559 0.038604
#
#
# Mechanical properties :
#
#
# Convention : Reuss Voigt Hill
#
# Bulk Modulus (GPa) = 37.49498 64.08606 50.79052
# Shear Modulus (GPa) = 28.43830 38.04601 33.24215
#
# Velocity S-wave (km/s) = 3.37644 3.90537 3.65049
# Velocity P-wave (km/s) = 5.49831 6.78430 6.17487
#
# Compressibility (1/GPa) = 0.02667024
#
# Stress axis : x y z
#
# Youngs Moduli (GPa) = 152.53343 43.35696 95.52256
#
# Poissons Ratio (x) = 0.11050 0.20150
# Poissons Ratio (y) = 0.38877 0.19593
# Poissons Ratio (z) = 0.32177 0.08893
#
# Static dielectric constant tensor:
#      x y z
#    x 1.968350 0.137470 -0.048010 
#    y 0.137470 1.876250 -0.064090 
#    z -0.048010 -0.064090 1.886960 
# 
# From -- ./inp_files/392256.got.cif
#   From: 2010.05.17/outbox.cif.g08.bks.cpg/sg2_197_cif.got.tgz:392256.got - 2010.06.03 11:33:40.
