data_PCOD9105847
_publ_section_title
;
Structure prediction by ZEFSAII (Michael W. Deem and Ramdas Pophale) SiO2 
 PCOD9105847
Probable space group: P -1
;
_chemical_formula_sum "Si O2"
_cell_formula_units_Z 12
_cell_length_a 9.617139
_cell_length_b 12.404072
_cell_length_c 6.996625
_cell_angle_alpha 110.351618
_cell_angle_beta 91.802763
_cell_angle_gamma 136.569139
_cell_volume 482.934957
_symmetry_space_group_name_H-M "P -1"
_symmetry_group_IT_number 2
_symmetry_cell_setting 'triclinic'
loop_
_space_group_symop_operation_xyz
x,y,z
-x,-y,-z
loop_
_atom_site_type_symbol
_atom_site_label
_atom_site_fract_x
_atom_site_fract_y
_atom_site_fract_z
Si Si1 0.005363 0.608690 0.848701
Si Si2 0.533228 0.406948 0.820760
Si Si3 0.140542 0.105735 0.375168
Si Si4 0.727810 0.967160 0.212837
Si Si5 0.644668 0.986218 0.808418
Si Si6 0.841176 0.277195 0.511830
O O1 0.785408 0.535696 0.858857
O O2 0.975490 0.451196 0.761346
O O3 0.037107 0.647144 0.643767
O O4 0.218344 0.806757 0.079100
O O5 0.375372 0.317644 0.571740
O O6 0.428164 0.231024 0.824516
O O7 0.500000 0.500000 0.000000
O O8 0.204753 0.023422 0.251644
O O9 0.000000 0.000000 0.500000
O O10 0.966111 0.066058 0.221059
O O11 0.792837 0.112336 0.450510
O O12 0.611008 0.945437 0.009174
O O13 0.405983 0.829375 0.597116
#
# Coordination Sequence:
#
# PCOD9105847 Si02
#       6
#     2   2   2   2   2   2
#     4  10  20  39  66  90 128 165 211 254 312 372
#     4  11  23  43  62  95 129 167 215 267 311 373
#     4  10  21  40  63  88 128 170 205 263 314 364
#     4  10  22  40  65  94 127 168 210 255 325 373
#     4  11  21  44  67  92 130 169 208 260 317 379
#     4  10  22  42  65  95 131 167 207 259 317 377
#
# _framework density 24.848067
#
# number of rings (size 3 to 8) (size 9 to 14) (size 15 to 20)
#    0.000    1.667    1.667    4.500    0.000    2.000 
#   12.000    7.500    0.000    0.000    0.000    0.000 
#    0.000    0.000    0.000    0.000    0.000    0.000 
#
# Total GULP energy -67195.445515 kJ/mol
# GULP energy per Si atom -5599.620460 kJ/mol
# Density = 2.479151 g / cm^3
# Si number density = 24.848067 Si / 1000 Ang^3
#
#
#
# Elastic Constant Matrix: (Units=GPa)
#
#
# Indices 1 2 3 4 5 6 
#
# 1 161.8457 43.4014 37.2245 16.3238 -28.6291 19.6073
# 2 43.4014 101.7565 34.5335 20.0890 -13.4770 -1.5149
# 3 37.2245 34.5335 118.0676 26.8792 -38.2517 -4.9479
# 4 16.3238 20.0890 26.8792 35.3031 -7.5279 -4.4341
# 5 -28.6291 -13.4770 -38.2517 -7.5279 60.9400 3.7629
# 6 19.6073 -1.5149 -4.9479 -4.4341 3.7629 47.2388
#
#
#
# Elastic Compliance Matrix: (Units=1/GPa)
#
#
# Indices 1 2 3 4 5 6 
#
# 1 0.008189 -0.002613 -0.000667 -0.001671 0.002888 -0.003940
# 2 -0.002613 0.012417 -0.001849 -0.004388 -0.000240 0.000896
# 3 -0.000667 -0.001849 0.012956 -0.007066 0.006513 0.000392
# 4 -0.001671 -0.004388 -0.007066 0.037017 -0.001830 0.003433
# 5 0.002888 -0.000240 0.006513 -0.001830 0.021725 -0.002426
# 6 -0.003940 0.000896 0.000392 0.003433 -0.002426 0.023390
#
#
# Mechanical properties :
#
#
# Convention : Reuss Voigt Hill
#
# Bulk Modulus (GPa) = 42.90897 67.99875 55.45386
# Shear Modulus (GPa) = 37.39138 46.46375 41.92757
#
# Velocity S-wave (km/s) = 3.88338 4.32894 4.11220
# Velocity P-wave (km/s) = 6.11666 7.23958 6.70168
#
# Compressibility (1/GPa) = 0.02330515
#
# Stress axis : x y z
#
# Youngs Moduli (GPa) = 122.10836 80.53214 77.18444
#
# Poissons Ratio (x) = 0.21043 0.05147
# Poissons Ratio (y) = 0.31906 0.14272
# Poissons Ratio (z) = 0.08142 0.14891
#
# Static dielectric constant tensor:
#      x y z
#    x 1.966060 -0.039230 0.013560 
#    y -0.039230 2.026210 -0.039990 
#    z 0.013560 -0.039990 1.988900 
# 
# From -- ./inp_files/157847.got.cif
#   From: 2010.05.17/outbox.cif.g08.bks.cpg/sg2_79_cif.got.tgz:157847.got - 2010.06.03 11:33:40.
