data_PCOD9105012
_publ_section_title
;
Structure prediction by ZEFSAII (Michael W. Deem and Ramdas Pophale) SiO2 
 PCOD9105012
Probable space group: P -1
;
_chemical_formula_sum "Si O2"
_cell_formula_units_Z 16
_cell_length_a 8.000956
_cell_length_b 16.452901
_cell_length_c 11.167497
_cell_angle_alpha 126.730761
_cell_angle_beta 47.033680
_cell_angle_gamma 144.305660
_cell_volume 624.227342
_symmetry_space_group_name_H-M "P -1"
_symmetry_group_IT_number 2
_symmetry_cell_setting 'triclinic'
loop_
_space_group_symop_operation_xyz
x,y,z
-x,-y,-z
loop_
_atom_site_type_symbol
_atom_site_label
_atom_site_fract_x
_atom_site_fract_y
_atom_site_fract_z
Si Si1 0.620333 0.310203 0.126930
Si Si2 0.168501 0.456460 0.320725
Si Si3 0.050135 0.958991 0.314396
Si Si4 0.961219 0.055073 0.191921
Si Si5 0.693759 0.555368 0.334008
Si Si6 0.339917 0.805830 0.231163
Si Si7 0.614586 0.705261 0.165942
Si Si8 0.247804 0.805531 0.832112
O O1 0.799916 0.471420 0.184581
O O2 0.677092 0.267450 0.183606
O O3 0.685070 0.246464 0.936882
O O4 0.250361 0.220527 0.203001
O O5 0.462806 0.511248 0.301910
O O6 0.338747 0.541656 0.187934
O O7 0.000000 0.500000 0.500000
O O8 0.895306 0.288923 0.298822
O O9 0.417387 0.034687 0.198692
O O10 0.000000 0.000000 0.500000
O O11 0.007082 0.009459 0.255403
O O12 0.767327 0.792472 0.291713
O O13 0.595035 0.970260 0.280856
O O14 0.000000 0.000000 0.000000
O O15 0.500000 0.500000 0.500000
O O16 0.982555 0.719917 0.358295
O O17 0.459452 0.747483 0.201619
O O18 0.938094 0.768041 0.999265
#
# Coordination Sequence:
#
# PCOD9105012 Si02
#       8
#     2   2   2   2   2   2   2   2
#     4  10  20  39  63  88 119 157 203 253 301 364
#     4  12  25  42  61  88 124 162 206 266 324 377
#     4  10  21  37  62  95 130 166 209 264 320 369
#     4   8  18  37  63  89 119 160 204 248 303 369
#     4  12  25  40  59  86 118 160 204 250 311 375
#     4  10  20  39  63  88 119 157 203 253 301 364
#     4  11  22  39  63  93 125 166 211 259 313 377
#     4  11  22  39  63  93 125 166 211 259 313 377
#
# _framework density 25.631685999999998
#
# number of rings (size 3 to 8) (size 9 to 14) (size 15 to 20)
#    0.000    1.500    0.000    5.625    0.000    2.000 
#    0.000    4.375    0.000    0.000    0.000    0.000 
#    0.000    0.000    0.000    0.000    0.000    0.000 
#
# Total GULP energy -89392.708365 kJ/mol
# GULP energy per Si atom -5587.044273 kJ/mol
# Density = 2.557335 g / cm^3
# Si number density = 25.631686 Si / 1000 Ang^3
#
#
#
# Elastic Constant Matrix: (Units=GPa)
#
#
# Indices 1 2 3 4 5 6 
#
# 1 130.6563 9.7006 1.3627 -2.9056 3.5265 13.7227
# 2 9.7006 137.4280 2.7047 -16.8439 -0.8358 40.5387
# 3 1.3627 2.7047 81.7642 -0.3410 8.2432 9.4290
# 4 -2.9056 -16.8439 -0.3410 39.3697 5.0934 -5.0993
# 5 3.5265 -0.8358 8.2432 5.0934 28.7028 -2.8989
# 6 13.7227 40.5387 9.4290 -5.0993 -2.8989 42.2743
#
#
#
# Elastic Compliance Matrix: (Units=1/GPa)
#
#
# Indices 1 2 3 4 5 6 
#
# 1 0.007998 0.000401 0.000363 0.000556 -0.001487 -0.003096
# 2 0.000401 0.010683 0.001012 0.003494 -0.001689 -0.010294
# 3 0.000363 0.001012 0.013117 0.000582 -0.004314 -0.004239
# 4 0.000556 0.003494 0.000582 0.027510 -0.005085 -0.000691
# 5 -0.001487 -0.001689 -0.004314 -0.005085 0.037623 0.005030
# 6 -0.003096 -0.010294 -0.004239 -0.000691 0.005030 0.035739
#
#
# Mechanical properties :
#
#
# Convention : Reuss Voigt Hill
#
# Bulk Modulus (GPa) = 28.28973 41.93160 35.11067
# Shear Modulus (GPa) = 35.48589 44.47474 39.98031
#
# Velocity S-wave (km/s) = 3.72486 4.17003 3.95372
# Velocity P-wave (km/s) = 5.43695 6.29129 5.87966
#
# Compressibility (1/GPa) = 0.03534852
#
# Stress axis : x y z
#
# Youngs Moduli (GPa) = 125.03420 93.60672 76.23713
#
# Poissons Ratio (x) = -0.03752 -0.02765
# Poissons Ratio (y) = -0.05011 -0.07714
# Poissons Ratio (z) = -0.04535 -0.09472
#
# Static dielectric constant tensor:
#      x y z
#    x 1.966640 -0.044000 -0.020510 
#    y -0.044000 2.056930 -0.027430 
#    z -0.020510 -0.027430 2.068000 
# 
# From -- ./inp_files/405506.got.cif
#   From: 2010.05.17/outbox.cif.g08.bks.cpg/sg2_203_cif.got.tgz:405506.got - 2010.06.03 11:33:40.
