data_PCOD9105629
_publ_section_title
;
Structure prediction by ZEFSAII (Michael W. Deem and Ramdas Pophale) SiO2 
 PCOD9105629
Probable space group: P -1
;
_chemical_formula_sum "Si O2"
_cell_formula_units_Z 12
_cell_length_a 13.896327
_cell_length_b 17.764019
_cell_length_c 20.529056
_cell_angle_alpha 21.661619
_cell_angle_beta 18.628481
_cell_angle_gamma 21.555136
_cell_volume 542.616522
_symmetry_space_group_name_H-M "P -1"
_symmetry_group_IT_number 2
_symmetry_cell_setting 'triclinic'
loop_
_space_group_symop_operation_xyz
x,y,z
-x,-y,-z
loop_
_atom_site_type_symbol
_atom_site_label
_atom_site_fract_x
_atom_site_fract_y
_atom_site_fract_z
Si Si1 0.322992 0.052872 0.236825
Si Si2 0.761581 0.603971 0.244831
Si Si3 0.306620 0.385451 0.346224
Si Si4 0.445534 0.248033 0.134153
Si Si5 0.564676 0.773153 0.103133
Si Si6 0.792149 0.918958 0.458596
O O1 0.465044 0.114035 0.162220
O O2 0.605381 0.835636 0.197089
O O3 0.274427 0.229464 0.067651
O O4 0.000000 0.000000 0.500000
O O5 0.500000 0.500000 0.500000
O O6 0.801451 0.606620 0.139245
O O7 0.081306 0.444285 0.205317
O O8 0.235808 0.233017 0.460430
O O9 0.000000 0.500000 0.500000
O O10 0.641700 0.188201 0.322490
O O11 0.343536 0.604115 0.118034
O O12 0.438312 0.103128 0.317475
O O13 0.185280 0.801604 0.317196
O O14 0.500000 0.000000 0.000000
#
# Coordination Sequence:
#
# PCOD9105629 Si02
#       6
#     2   2   2   2   2   2
#     4  11  22  37  60  95 133 169 218 262 316 395
#     4  11  21  41  64  97 133 170 211 259 333 395
#     4  11  26  45  68  96 126 175 228 271 329 385
#     4  12  24  43  69  97 132 175 218 269 332 391
#     4  10  20  39  65  92 132 171 207 267 327 387
#     4  11  24  46  67  94 135 169 221 279 323 389
#
# _framework density 22.115065999999999
#
# number of rings (size 3 to 8) (size 9 to 14) (size 15 to 20)
#    0.000    1.000    3.333    4.500    0.000    4.000 
#    3.000    0.000    0.000    0.000    0.000    0.000 
#    0.000    0.000    0.000    0.000    0.000    0.000 
#
# Total GULP energy -66885.365343 kJ/mol
# GULP energy per Si atom -5573.780445 kJ/mol
# Density = 2.206473 g / cm^3
# Si number density = 22.115066 Si / 1000 Ang^3
#
#
#
# Elastic Constant Matrix: (Units=GPa)
#
#
# Indices 1 2 3 4 5 6 
#
# 1 81.6879 29.0901 15.4729 -4.7491 17.1992 30.5012
# 2 29.0901 105.4273 4.7418 1.6073 8.0298 38.5868
# 3 15.4729 4.7418 90.6254 -6.8750 10.6010 13.0252
# 4 -4.7491 1.6073 -6.8750 31.5287 -0.4226 -0.1917
# 5 17.1992 8.0298 10.6010 -0.4226 44.3669 1.6548
# 6 30.5012 38.5868 13.0252 -0.1917 1.6548 39.8767
#
#
#
# Elastic Compliance Matrix: (Units=1/GPa)
#
#
# Indices 1 2 3 4 5 6 
#
# 1 0.019267 0.000692 -0.000145 0.002650 -0.006973 -0.015057
# 2 0.000692 0.015157 0.001629 -0.000446 -0.002823 -0.015614
# 3 -0.000145 0.001629 0.012276 0.002500 -0.002949 -0.005341
# 4 0.002650 -0.000446 0.002500 0.032655 -0.001151 -0.002207
# 5 -0.006973 -0.002823 -0.002949 -0.001151 0.026151 0.007937
# 6 -0.015057 -0.015614 -0.005341 -0.002207 0.007937 0.053107
#
#
# Mechanical properties :
#
#
# Convention : Reuss Voigt Hill
#
# Bulk Modulus (GPa) = 19.58745 41.81668 30.70207
# Shear Modulus (GPa) = 29.19200 38.38352 33.78776
#
# Velocity S-wave (km/s) = 3.63713 4.17061 3.91297
# Velocity P-wave (km/s) = 5.14923 6.49166 5.85902
#
# Compressibility (1/GPa) = 0.05105310
#
# Stress axis : x y z
#
# Youngs Moduli (GPa) = 51.90180 65.97432 81.45844
#
# Poissons Ratio (x) = -0.04565 0.01181
# Poissons Ratio (y) = -0.03591 -0.13271
# Poissons Ratio (z) = 0.00752 -0.10749
#
# Static dielectric constant tensor:
#      x y z
#    x 1.784950 -0.015040 0.045290 
#    y -0.015040 1.832920 -0.049600 
#    z 0.045290 -0.049600 1.877250 
# 
# From -- ./inp_files/532207.got.cif
#   From: 2010.05.17/outbox.cif.g08.bks.cpg/sg2_267_cif.got.tgz:532207.got - 2010.06.03 11:33:40.
