data_PCOD9105244
_publ_section_title
;
Structure prediction by ZEFSAII (Michael W. Deem and Ramdas Pophale) SiO2 
 PCOD9105244
Probable space group: P -1
;
_chemical_formula_sum "Si O2"
_cell_formula_units_Z 16
_cell_length_a 15.727492
_cell_length_b 11.035962
_cell_length_c 14.448910
_cell_angle_alpha 141.933406
_cell_angle_beta 128.776423
_cell_angle_gamma 25.090523
_cell_volume 618.586419
_symmetry_space_group_name_H-M "P -1"
_symmetry_group_IT_number 2
_symmetry_cell_setting 'triclinic'
loop_
_space_group_symop_operation_xyz
x,y,z
-x,-y,-z
loop_
_atom_site_type_symbol
_atom_site_label
_atom_site_fract_x
_atom_site_fract_y
_atom_site_fract_z
Si Si1 0.220788 0.992334 0.404185
Si Si2 0.651617 0.931915 0.017281
Si Si3 0.771213 0.858913 0.694635
Si Si4 0.701955 0.751168 0.752585
Si Si5 0.609616 0.093093 0.353059
Si Si6 0.821645 0.017822 0.309475
Si Si7 0.006554 0.179978 0.048236
Si Si8 0.014834 0.902968 0.222127
O O1 0.306902 0.913245 0.313827
O O2 0.360665 0.892748 0.512381
O O3 0.982574 0.431000 0.536937
O O4 0.186818 0.811313 0.279770
O O5 0.603438 0.037378 0.939772
O O6 0.874532 0.471872 0.900501
O O7 0.705217 0.047972 0.175795
O O8 0.500000 0.000000 0.000000
O O9 0.646566 0.899529 0.699544
O O10 0.833401 0.921647 0.852416
O O11 0.953417 0.364610 0.711938
O O12 0.610237 0.680021 0.672564
O O13 0.673535 0.183910 0.393139
O O14 0.787079 0.647910 0.179107
O O15 0.856855 0.159381 0.356429
O O16 0.066641 0.010844 0.885112
O O17 0.000000 0.000000 0.000000
#
# Coordination Sequence:
#
# PCOD9105244 Si02
#       8
#     2   2   2   2   2   2   2   2
#     4  10  22  39  59  89 123 165 207 253 300 365
#     4  11  20  38  65  94 126 158 199 257 314 357
#     4  10  20  39  64  83 123 166 203 250 313 357
#     4  11  20  38  66  88 116 169 203 241 310 373
#     4  11  23  40  62  90 126 162 204 253 307 367
#     4  11  21  38  63  91 121 160 198 249 309 362
#     4  11  19  37  65  92 119 161 207 256 306 361
#     4  11  21  35  64  93 122 161 206 252 305 366
#
# _framework density 25.865425999999999
#
# number of rings (size 3 to 8) (size 9 to 14) (size 15 to 20)
#    0.000    1.250    6.250    2.250    0.000    1.000 
#    0.000    4.375    2.750    0.000    0.000    0.000 
#    0.000    0.000    0.000    0.000    0.000    0.000 
#
# Total GULP energy -89296.561845 kJ/mol
# GULP energy per Si atom -5581.035115 kJ/mol
# Density = 2.580655 g / cm^3
# Si number density = 25.865426 Si / 1000 Ang^3
#
#
#
# Elastic Constant Matrix: (Units=GPa)
#
#
# Indices 1 2 3 4 5 6 
#
# 1 194.5764 37.0874 45.3953 -22.8426 -31.1941 1.7792
# 2 37.0874 48.7083 23.8659 -15.7460 -8.7292 -18.2626
# 3 45.3953 23.8659 80.9105 -19.3988 -5.5426 -0.3445
# 4 -22.8426 -15.7460 -19.3988 36.7733 5.3733 3.5737
# 5 -31.1941 -8.7292 -5.5426 5.3733 58.5478 -9.6192
# 6 1.7792 -18.2626 -0.3445 3.5737 -9.6192 43.7464
#
#
#
# Elastic Compliance Matrix: (Units=1/GPa)
#
#
# Indices 1 2 3 4 5 6 
#
# 1 0.006988 -0.003874 -0.002314 0.001226 0.002575 -0.001454
# 2 -0.003874 0.035389 -0.006125 0.007381 0.004462 0.015261
# 3 -0.002314 -0.006125 0.016596 0.005225 -0.001564 -0.003103
# 4 0.001226 0.007381 0.005225 0.033986 -0.000853 0.000108
# 5 0.002575 0.004462 -0.001564 -0.000853 0.020071 0.006229
# 6 -0.001454 0.015261 -0.003103 0.000108 0.006229 0.030626
#
#
# Mechanical properties :
#
#
# Convention : Reuss Voigt Hill
#
# Bulk Modulus (GPa) = 29.11358 59.65468 44.38413
# Shear Modulus (GPa) = 27.81957 42.33659 35.07808
#
# Velocity S-wave (km/s) = 3.28312 4.05013 3.68663
# Velocity P-wave (km/s) = 5.06478 6.70708 5.94294
#
# Compressibility (1/GPa) = 0.03434823
#
# Stress axis : x y z
#
# Youngs Moduli (GPa) = 143.11048 28.25751 60.25402
#
# Poissons Ratio (x) = 0.10947 0.13940
# Poissons Ratio (y) = 0.55442 0.36904
# Poissons Ratio (z) = 0.33109 0.17307
#
# Static dielectric constant tensor:
#      x y z
#    x 2.113040 -0.018550 -0.103550 
#    y -0.018550 2.146440 0.219520 
#    z -0.103550 0.219520 2.272690 
# 
# From -- ./inp_files/532052.got.cif
#   From: 2010.05.17/outbox.cif.g08.bks.cpg/sg2_267_cif.got.tgz:532052.got - 2010.06.03 11:33:40.
