data_PCOD9105780
_publ_section_title
;
Structure prediction by ZEFSAII (Michael W. Deem and Ramdas Pophale) SiO2 
 PCOD9105780
Probable space group: P -1
;
_chemical_formula_sum "Si O2"
_cell_formula_units_Z 16
_cell_length_a 26.392768
_cell_length_b 28.196462
_cell_length_c 5.967917
_cell_angle_alpha 62.385160
_cell_angle_beta 118.853818
_cell_angle_gamma 170.097538
_cell_volume 666.867231
_symmetry_space_group_name_H-M "P -1"
_symmetry_group_IT_number 2
_symmetry_cell_setting 'triclinic'
loop_
_space_group_symop_operation_xyz
x,y,z
-x,-y,-z
loop_
_atom_site_type_symbol
_atom_site_label
_atom_site_fract_x
_atom_site_fract_y
_atom_site_fract_z
Si Si1 0.252337 0.731252 0.843270
Si Si2 0.692753 0.875043 0.854515
Si Si3 0.410578 0.730468 0.460628
Si Si4 0.813779 0.177532 0.117432
Si Si5 0.934115 0.527225 0.350049
Si Si6 0.334638 0.457654 0.754649
Si Si7 0.312024 0.299684 0.729528
Si Si8 0.778556 0.877195 0.405574
O O1 0.177014 0.614728 0.765256
O O2 0.201956 0.740539 0.583792
O O3 0.000000 0.500000 0.000000
O O4 0.580938 0.015453 0.010800
O O5 0.551850 0.805463 0.697388
O O6 0.457353 0.618552 0.814645
O O7 0.792076 0.946132 0.159519
O O8 0.982566 0.136835 0.740534
O O9 0.334388 0.703780 0.549549
O O10 0.091631 0.429798 0.325167
O O11 0.628368 0.955689 0.252030
O O12 0.949637 0.313202 0.866909
O O13 0.469466 0.589449 0.507684
O O14 0.484130 0.539131 0.993106
O O15 0.500000 0.500000 0.500000
O O16 0.191627 0.136872 0.707687
O O17 0.040532 0.093451 0.654485
#
# Coordination Sequence:
#
# PCOD9105780 Si02
#       8
#     2   2   2   2   2   2   2   2
#     4  11  23  47  73 107 143 173 221 287 350 419
#     4  11  26  46  64  97 133 182 234 278 324 400
#     4  12  28  46  71  96 142 182 237 284 331 406
#     4  12  25  48  68 106 135 177 225 285 339 409
#     4  11  25  44  75 106 135 182 222 281 354 408
#     4  11  24  43  71  97 135 180 223 280 347 396
#     4  10  20  39  66 102 137 168 221 285 339 410
#     4  10  23  41  65 101 135 176 222 280 344 399
#
# _framework density 23.99278
#
# number of rings (size 3 to 8) (size 9 to 14) (size 15 to 20)
#    0.000    1.000    3.750    1.500    3.500    4.500 
#    0.000    0.000    0.000    0.000    0.000    0.000 
#    0.000    0.000    0.000    0.000    0.000    0.000 
#
# Total GULP energy -89605.310628 kJ/mol
# GULP energy per Si atom -5600.331914 kJ/mol
# Density = 2.393817 g / cm^3
# Si number density = 23.992780 Si / 1000 Ang^3
#
#
#
# Elastic Constant Matrix: (Units=GPa)
#
#
# Indices 1 2 3 4 5 6 
#
# 1 65.8204 18.0164 36.3129 18.0130 24.8176 6.9643
# 2 18.0164 107.8120 40.1603 6.3955 9.8552 8.1808
# 3 36.3129 40.1603 129.3046 6.5114 36.0790 23.2475
# 4 18.0130 6.3955 6.5114 45.1744 3.2292 2.3162
# 5 24.8176 9.8552 36.0790 3.2292 40.8035 4.0781
# 6 6.9643 8.1808 23.2475 2.3162 4.0781 31.5217
#
#
#
# Elastic Compliance Matrix: (Units=1/GPa)
#
#
# Indices 1 2 3 4 5 6 
#
# 1 0.023349 -0.001432 -0.002493 -0.007918 -0.010929 -0.000953
# 2 -0.001432 0.010634 -0.003156 -0.000551 0.001159 -0.000226
# 3 -0.002493 -0.003156 0.013086 0.000540 -0.008615 -0.007206
# 4 -0.007918 -0.000551 0.000540 0.025147 0.002550 -0.000683
# 5 -0.010929 0.001159 -0.008615 0.002550 0.037954 0.003370
# 6 -0.000953 -0.000226 -0.007206 -0.000683 0.003370 0.036922
#
#
# Mechanical properties :
#
#
# Convention : Reuss Voigt Hill
#
# Bulk Modulus (GPa) = 30.38807 54.65736 42.52271
# Shear Modulus (GPa) = 29.03222 37.39641 33.21431
#
# Velocity S-wave (km/s) = 3.48234 3.95226 3.72472
# Velocity P-wave (km/s) = 5.37233 6.60737 6.02160
#
# Compressibility (1/GPa) = 0.03290766
#
# Stress axis : x y z
#
# Youngs Moduli (GPa) = 42.82892 94.03714 76.41702
#
# Poissons Ratio (x) = 0.13468 0.19048
# Poissons Ratio (y) = 0.06134 0.24115
# Poissons Ratio (z) = 0.10676 0.29676
#
# Static dielectric constant tensor:
#      x y z
#    x 1.923920 -0.054900 -0.027900 
#    y -0.054900 1.921410 0.037580 
#    z -0.027900 0.037580 1.944500 
# 
# From -- ./inp_files/10982.got.cif
#   From: 2010.05.17/outbox.cif.g08.bks.cpg/sg2_6_cif.got.tgz:10982.got - 2010.06.03 11:33:40.
