data_PCOD9105477
_publ_section_title
;
Structure prediction by ZEFSAII (Michael W. Deem and Ramdas Pophale) SiO2 
 PCOD9105477
Probable space group: P -1
;
_chemical_formula_sum "Si O2"
_cell_formula_units_Z 16
_cell_length_a 19.515172
_cell_length_b 7.875594
_cell_length_c 7.912489
_cell_angle_alpha 99.105735
_cell_angle_beta 145.071564
_cell_angle_gamma 87.130640
_cell_volume 680.641510
_symmetry_space_group_name_H-M "P -1"
_symmetry_group_IT_number 2
_symmetry_cell_setting 'triclinic'
loop_
_space_group_symop_operation_xyz
x,y,z
-x,-y,-z
loop_
_atom_site_type_symbol
_atom_site_label
_atom_site_fract_x
_atom_site_fract_y
_atom_site_fract_z
Si Si1 0.414043 0.836345 0.606392
Si Si2 0.744029 0.137927 0.388590
Si Si3 0.106294 0.128914 0.328025
Si Si4 0.358583 0.613121 0.028929
Si Si5 0.056255 0.604031 0.968000
Si Si6 0.249383 0.475908 0.118699
Si Si7 0.599107 0.807754 0.525558
Si Si8 0.368057 0.272537 0.795581
O O1 0.356951 0.905208 0.675123
O O2 0.343356 0.640685 0.407947
O O3 0.393283 0.983756 0.447787
O O4 0.553840 0.816125 0.919889
O O5 0.841473 0.260464 0.715375
O O6 0.818215 0.994758 0.433110
O O7 0.693607 0.237115 0.151396
O O8 0.223543 0.210768 0.468535
O O9 0.040772 0.283646 0.289718
O O10 0.000000 0.000000 0.000000
O O11 0.265707 0.518691 0.961648
O O12 0.484480 0.705845 0.377598
O O13 0.378210 0.467760 0.910603
O O14 0.121898 0.494898 0.949722
O O15 0.000000 0.500000 0.000000
O O16 0.289760 0.288429 0.206505
O O17 0.574368 0.745484 0.272258
#
# Coordination Sequence:
#
# PCOD9105477 Si02
#       8
#     2   2   2   2   2   2   2   2
#     4  11  22  40  68  99 131 175 221 272 329 387
#     4  10  20  39  64  97 126 161 223 280 320 382
#     4  10  21  38  64  96 123 158 222 285 318 370
#     4  12  24  40  62  99 143 175 206 270 345 395
#     4  10  21  41  68  89 120 173 227 272 322 376
#     4  11  26  44  60  97 145 174 215 270 330 407
#     4  12  22  39  67  96 134 176 221 264 329 396
#     4  12  21  39  67  99 129 167 224 273 324 388
#
# _framework density 23.507235000000001
#
# number of rings (size 3 to 8) (size 9 to 14) (size 15 to 20)
#    0.000    1.000    3.750    4.875    0.000    0.500 
#    2.250    3.125    0.000    0.000    0.000    0.000 
#    0.000    0.000    0.000    0.000    0.000    0.000 
#
# Total GULP energy -89246.822358 kJ/mol
# GULP energy per Si atom -5577.926397 kJ/mol
# Density = 2.345373 g / cm^3
# Si number density = 23.507235 Si / 1000 Ang^3
#
#
#
# Elastic Constant Matrix: (Units=GPa)
#
#
# Indices 1 2 3 4 5 6 
#
# 1 79.4458 26.7995 24.0516 -15.5950 21.8244 4.0790
# 2 26.7995 107.6805 35.6834 -23.3911 21.8604 4.6021
# 3 24.0516 35.6834 79.2577 -9.2812 40.4609 -5.0612
# 4 -15.5950 -23.3911 -9.2812 53.9852 -10.2887 5.1951
# 5 21.8244 21.8604 40.4609 -10.2887 40.4687 -0.7858
# 6 4.0790 4.6021 -5.0612 5.1951 -0.7858 36.1514
#
#
#
# Elastic Compliance Matrix: (Units=1/GPa)
#
#
# Indices 1 2 3 4 5 6 
#
# 1 0.015729 -0.001767 -0.000582 0.002684 -0.006306 -0.002154
# 2 -0.001767 0.012318 -0.004689 0.004279 0.000024 -0.002640
# 3 -0.000582 -0.004689 0.028032 -0.002720 -0.025785 0.004417
# 4 0.002684 0.004279 -0.002720 0.021947 0.004457 -0.004285
# 5 -0.006306 0.000024 -0.025785 0.004457 0.054966 -0.002347
# 6 -0.002154 -0.002640 0.004417 -0.004285 -0.002347 0.029424
#
#
# Mechanical properties :
#
#
# Convention : Reuss Voigt Hill
#
# Bulk Modulus (GPa) = 23.80782 48.82811 36.31796
# Shear Modulus (GPa) = 26.24777 38.11103 32.17940
#
# Velocity S-wave (km/s) = 3.34516 4.03084 3.70390
# Velocity P-wave (km/s) = 5.00699 6.51768 5.81163
#
# Compressibility (1/GPa) = 0.04200301
#
# Stress axis : x y z
#
# Youngs Moduli (GPa) = 63.57690 81.18275 35.67387
#
# Poissons Ratio (x) = 0.14342 0.02076
# Poissons Ratio (y) = 0.11231 0.16729
# Poissons Ratio (z) = 0.03699 0.38069
#
# Static dielectric constant tensor:
#      x y z
#    x 1.915290 0.026040 0.024660 
#    y 0.026040 2.032550 0.026290 
#    z 0.024660 0.026290 1.893820 
# 
# From -- ./inp_files/342727.got.cif
#   From: 2010.05.17/outbox.cif.g08.bks.cpg/sg2_172_cif.got.tgz:342727.got - 2010.06.03 11:33:40.
