data_PCOD9105101
_publ_section_title
;
Structure prediction by ZEFSAII (Michael W. Deem and Ramdas Pophale) SiO2 
 PCOD9105101
Probable space group: P -1
;
_chemical_formula_sum "Si O2"
_cell_formula_units_Z 14
_cell_length_a 12.329213
_cell_length_b 8.764955
_cell_length_c 9.227291
_cell_angle_alpha 71.971417
_cell_angle_beta 136.869549
_cell_angle_gamma 124.714758
_cell_volume 550.282666
_symmetry_space_group_name_H-M "P -1"
_symmetry_group_IT_number 2
_symmetry_cell_setting 'triclinic'
loop_
_space_group_symop_operation_xyz
x,y,z
-x,-y,-z
loop_
_atom_site_type_symbol
_atom_site_label
_atom_site_fract_x
_atom_site_fract_y
_atom_site_fract_z
Si Si1 0.034064 0.519403 0.702337
Si Si2 0.210522 0.156917 0.193607
Si Si3 0.777467 0.904171 0.338032
Si Si4 0.246486 0.412841 0.416382
Si Si5 0.747835 0.122174 0.506743
Si Si6 0.785689 0.338898 0.885579
Si Si7 0.622772 0.897386 0.877777
O O1 0.911683 0.597625 0.629245
O O2 0.935023 0.297252 0.702672
O O3 0.000000 0.500000 0.500000
O O4 0.217604 0.625223 0.953938
O O5 0.198899 0.290284 0.259160
O O6 0.302919 0.052458 0.391058
O O7 0.318286 0.221426 0.128753
O O8 0.000000 0.000000 0.000000
O O9 0.684477 0.698930 0.385024
O O10 0.766814 0.052410 0.388681
O O11 0.000000 0.000000 0.500000
O O12 0.676661 0.885684 0.096275
O O13 0.330455 0.613437 0.355613
O O14 0.593092 0.175902 0.330358
O O15 0.731270 0.123309 0.880602
O O16 0.000000 0.500000 0.000000
#
# Coordination Sequence:
#
# PCOD9105101 Si02
#       7
#     2   2   2   2   2   2   2
#     4  11  21  38  64  94 127 169 212 259 318 390
#     4  11  21  38  64  93 126 170 216 260 313 385
#     4  11  22  41  66  94 127 169 216 262 314 384
#     4  10  22  37  58  90 123 158 211 265 303 359
#     4  11  24  41  64  97 131 166 212 265 323 383
#     4  10  20  39  63  91 126 169 214 257 314 389
#     4  12  24  42  67  95 128 171 214 264 322 380
#
# _framework density 25.441472000000001
#
# number of rings (size 3 to 8) (size 9 to 14) (size 15 to 20)
#    0.000    1.143    0.000   10.286    0.000    1.143 
#    0.000    7.143    0.000    1.714    0.000    0.000 
#    0.000    0.000    0.000    0.000    0.000    0.000 
#
# Total GULP energy -78153.606277 kJ/mol
# GULP energy per Si atom -5582.400448 kJ/mol
# Density = 2.538357 g / cm^3
# Si number density = 25.441472 Si / 1000 Ang^3
#
#
#
# Elastic Constant Matrix: (Units=GPa)
#
#
# Indices 1 2 3 4 5 6 
#
# 1 133.7309 24.8561 62.7582 11.5769 -37.3996 -35.6262
# 2 24.8561 113.1636 38.1635 -19.5491 -16.0946 -3.8836
# 3 62.7582 38.1635 121.8153 -14.6105 -31.3795 -7.7709
# 4 11.5769 -19.5491 -14.6105 31.8080 -2.2892 -3.2953
# 5 -37.3996 -16.0946 -31.3795 -2.2892 53.9024 8.5760
# 6 -35.6262 -3.8836 -7.7709 -3.2953 8.5760 37.3347
#
#
#
# Elastic Compliance Matrix: (Units=1/GPa)
#
#
# Indices 1 2 3 4 5 6 
#
# 1 0.016274 -0.001654 -0.006975 -0.008567 0.004443 0.012128
# 2 -0.001654 0.011078 -0.001385 0.006846 0.001725 -0.000506
# 3 -0.006975 -0.001385 0.013915 0.007932 0.003834 -0.004084
# 4 -0.008567 0.006846 0.007932 0.042335 0.002953 -0.002754
# 5 0.004443 0.001725 0.003834 0.002953 0.024533 -0.000157
# 6 0.012128 -0.000506 -0.004084 -0.002754 -0.000157 0.037248
#
#
# Mechanical properties :
#
#
# Convention : Reuss Voigt Hill
#
# Bulk Modulus (GPa) = 47.08589 68.91839 58.00214
# Shear Modulus (GPa) = 28.98700 40.80448 34.89574
#
# Velocity S-wave (km/s) = 3.37910 4.00916 3.70754
# Velocity P-wave (km/s) = 5.81138 6.96986 6.41682
#
# Compressibility (1/GPa) = 0.02123779
#
# Stress axis : x y z
#
# Youngs Moduli (GPa) = 61.44817 90.27051 71.86374
#
# Poissons Ratio (x) = 0.14931 0.50127
# Poissons Ratio (y) = 0.10164 0.09955
# Poissons Ratio (z) = 0.42862 0.12505
#
# Static dielectric constant tensor:
#      x y z
#    x 1.999270 0.108100 -0.061020 
#    y 0.108100 2.035900 0.010060 
#    z -0.061020 0.010060 1.976740 
# 
# From -- ./inp_files/243741.got.cif
#   From: 2010.05.17/outbox.cif.g08.bks.cpg/sg2_122_cif.got.tgz:243741.got - 2010.06.03 11:33:40.
