data_PCOD9105066
_publ_section_title
;
Structure prediction by ZEFSAII (Michael W. Deem and Ramdas Pophale) SiO2 
 PCOD9105066
Probable space group: P -1
;
_chemical_formula_sum "Si O2"
_cell_formula_units_Z 16
_cell_length_a 12.667105
_cell_length_b 6.628062
_cell_length_c 20.572928
_cell_angle_alpha 89.304746
_cell_angle_beta 22.668965
_cell_angle_gamma 92.559374
_cell_volume 658.623751
_symmetry_space_group_name_H-M "P -1"
_symmetry_group_IT_number 2
_symmetry_cell_setting 'triclinic'
loop_
_space_group_symop_operation_xyz
x,y,z
-x,-y,-z
loop_
_atom_site_type_symbol
_atom_site_label
_atom_site_fract_x
_atom_site_fract_y
_atom_site_fract_z
Si Si1 0.165967 0.879104 0.751183
Si Si2 0.144058 0.130301 0.258521
Si Si3 0.629753 0.931763 0.006727
Si Si4 0.162058 0.133481 0.464248
Si Si5 0.352140 0.607757 0.869289
Si Si6 0.557133 0.311399 0.513262
Si Si7 0.744163 0.500874 0.216939
Si Si8 0.223021 0.552481 0.271390
O O1 0.189571 0.758376 0.669669
O O2 0.261453 0.731153 0.752465
O O3 0.847646 0.906670 0.938869
O O4 0.345572 0.099508 0.638816
O O5 0.203351 0.037362 0.155476
O O6 0.119603 0.364741 0.283553
O O7 0.890531 0.996598 0.439507
O O8 0.432521 0.099243 0.131193
O O9 0.417919 0.724912 0.120306
O O10 0.472751 0.192654 0.262998
O O11 0.013775 0.334205 0.561514
O O12 0.000000 0.000000 0.500000
O O13 0.276920 0.471670 0.847970
O O14 0.570290 0.519581 0.791980
O O15 0.044240 0.612703 0.072011
O O16 0.500000 0.500000 0.500000
O O17 0.515365 0.408992 0.606015
#
# Coordination Sequence:
#
# PCOD9105066 Si02
#       8
#     2   2   2   2   2   2   2   2
#     4  10  20  39  63  90 123 165 209 259 323 374
#     4  10  23  39  61  96 127 158 215 259 321 380
#     4  10  22  39  64  94 124 161 208 269 319 380
#     4  11  24  41  63  94 128 169 211 257 319 377
#     4  11  23  42  65  89 131 169 212 263 304 384
#     4   9  21  38  61  88 122 158 211 258 310 379
#     4  10  23  43  60  95 124 167 218 256 316 371
#     4  11  22  42  66  91 127 170 210 260 323 374
#
# _framework density 24.293078999999999
#
# number of rings (size 3 to 8) (size 9 to 14) (size 15 to 20)
#    0.000    1.750    2.500    0.750    1.750    4.000 
#    2.250    1.250    0.000    0.000    0.000    0.000 
#    0.000    0.000    0.000    0.000    0.000    0.000 
#
# Total GULP energy -89265.929098 kJ/mol
# GULP energy per Si atom -5579.120569 kJ/mol
# Density = 2.423779 g / cm^3
# Si number density = 24.293079 Si / 1000 Ang^3
#
#
#
# Elastic Constant Matrix: (Units=GPa)
#
#
# Indices 1 2 3 4 5 6 
#
# 1 54.1454 14.4228 15.7875 7.0620 7.8557 0.1810
# 2 14.4228 122.6729 34.9317 -0.0853 -1.7825 -6.5919
# 3 15.7875 34.9317 83.5907 -10.3638 2.6998 -13.9672
# 4 7.0620 -0.0853 -10.3638 49.5689 -6.0635 6.8313
# 5 7.8557 -1.7825 2.6998 -6.0635 41.6750 -1.3552
# 6 0.1810 -6.5919 -13.9672 6.8313 -1.3552 18.4497
#
#
#
# Elastic Compliance Matrix: (Units=1/GPa)
#
#
# Indices 1 2 3 4 5 6 
#
# 1 0.021295 -0.001522 -0.004208 -0.004086 -0.004491 -0.002755
# 2 -0.001522 0.009414 -0.003587 -0.000538 0.000874 0.000926
# 3 -0.004208 -0.003587 0.016265 0.002636 0.000299 0.010119
# 4 -0.004086 -0.000538 0.002636 0.022617 0.003664 -0.006262
# 5 -0.004491 0.000874 0.000299 0.003664 0.025428 0.001094
# 6 -0.002755 0.000926 0.010119 -0.006262 0.001094 0.064619
#
#
# Mechanical properties :
#
#
# Convention : Reuss Voigt Hill
#
# Bulk Modulus (GPa) = 35.28474 43.41032 39.34753
# Shear Modulus (GPa) = 26.63585 34.95650 30.79618
#
# Velocity S-wave (km/s) = 3.31484 3.79746 3.56433
# Velocity P-wave (km/s) = 5.40435 6.09392 5.75947
#
# Compressibility (1/GPa) = 0.02834086
#
# Stress axis : x y z
#
# Youngs Moduli (GPa) = 46.96016 106.22353 61.48336
#
# Poissons Ratio (x) = 0.16163 0.25872
# Poissons Ratio (y) = 0.07145 0.22053
# Poissons Ratio (z) = 0.19760 0.38100
#
# Static dielectric constant tensor:
#      x y z
#    x 2.016690 -0.020630 -0.039040 
#    y -0.020630 1.955430 -0.003640 
#    z -0.039040 -0.003640 1.988070 
# 
# From -- ./inp_files/611268.got.cif
#   From: 2010.05.17/outbox.cif.g08.bks.cpg/sg2_306_cif.got.tgz:611268.got - 2010.06.03 11:33:40.
