data_PCOD9105938
_publ_section_title
;
Structure prediction by ZEFSAII (Michael W. Deem and Ramdas Pophale) SiO2 
 PCOD9105938
Probable space group: P -1
;
_chemical_formula_sum "Si O2"
_cell_formula_units_Z 16
_cell_length_a 9.215816
_cell_length_b 14.678095
_cell_length_c 9.131519
_cell_angle_alpha 64.584686
_cell_angle_beta 76.148643
_cell_angle_gamma 44.077879
_cell_volume 771.425417
_symmetry_space_group_name_H-M "P -1"
_symmetry_group_IT_number 2
_symmetry_cell_setting 'triclinic'
loop_
_space_group_symop_operation_xyz
x,y,z
-x,-y,-z
loop_
_atom_site_type_symbol
_atom_site_label
_atom_site_fract_x
_atom_site_fract_y
_atom_site_fract_z
Si Si1 0.830334 0.868826 0.943668
Si Si2 0.002113 0.305132 0.429363
Si Si3 0.970697 0.384142 0.718969
Si Si4 0.471401 0.877676 0.944342
Si Si5 0.545337 0.862946 0.617536
Si Si6 0.321115 0.381608 0.729899
Si Si7 0.488447 0.312509 0.429724
Si Si8 0.941915 0.142268 0.379684
O O1 0.943970 0.872286 0.782921
O O2 0.723018 0.995627 0.997402
O O3 0.642879 0.886737 0.913830
O O4 0.982371 0.722270 0.097813
O O5 0.010203 0.320180 0.591294
O O6 0.795164 0.459703 0.314686
O O7 0.005652 0.187672 0.463597
O O8 0.203648 0.262141 0.337380
O O9 0.734257 0.538158 0.673298
O O10 0.138568 0.394364 0.699107
O O11 0.572203 0.729256 0.089085
O O12 0.429476 0.886330 0.777230
O O13 0.494770 0.812759 0.531899
O O14 0.500000 0.000000 0.500000
O O15 0.482651 0.323750 0.598741
O O16 0.690361 0.268587 0.342461
O O17 0.000000 0.000000 0.500000
#
# Coordination Sequence:
#
# PCOD9105938 Si02
#       8
#     2   2   2   2   2   2   2   2
#     4  10  22  40  61  90 124 164 200 256 313 356
#     4  11  21  40  64  93 121 163 205 249 305 364
#     4  10  20  40  67  93 123 155 207 262 300 360
#     4  10  22  37  64  94 120 157 207 260 307 354
#     4  12  22  36  62  93 117 158 214 251 297 362
#     4  10  20  39  66  95 125 153 204 261 306 359
#     4  11  23  40  62  90 128 163 198 252 311 359
#     4  12  26  42  59  89 130 167 204 250 305 373
#
# _framework density 20.740825999999998
#
# number of rings (size 3 to 8) (size 9 to 14) (size 15 to 20)
#    0.000    1.250    3.750    3.000    3.500    4.000 
#    0.000    3.750    0.000    0.000    0.000    0.000 
#    0.000    0.000    0.000    0.000    0.000    0.000 
#
# Total GULP energy -89470.779288 kJ/mol
# GULP energy per Si atom -5591.923706 kJ/mol
# Density = 2.069362 g / cm^3
# Si number density = 20.740826 Si / 1000 Ang^3
#
#
#
# Elastic Constant Matrix: (Units=GPa)
#
#
# Indices 1 2 3 4 5 6 
#
# 1 43.0396 28.8950 11.2568 5.2268 -14.3747 5.4755
# 2 28.8950 101.8018 63.1291 14.3156 -10.6904 7.1075
# 3 11.2568 63.1291 115.7707 -1.2843 -23.1467 -1.7857
# 4 5.2268 14.3156 -1.2843 32.7805 -2.3467 -7.0054
# 5 -14.3747 -10.6904 -23.1467 -2.3467 24.6933 3.8911
# 6 5.4755 7.1075 -1.7857 -7.0054 3.8911 36.3390
#
#
#
# Elastic Compliance Matrix: (Units=1/GPa)
#
#
# Indices 1 2 3 4 5 6 
#
# 1 0.039421 -0.013549 0.008712 0.000664 0.026185 -0.005538
# 2 -0.013549 0.022328 -0.013210 -0.009675 -0.010945 -0.003668
# 3 0.008712 -0.013210 0.018508 0.006678 0.017078 0.001639
# 4 0.000664 -0.009675 0.006678 0.037092 0.004599 0.008779
# 5 0.026185 -0.010945 0.017078 0.004599 0.068617 -0.007426
# 6 -0.005538 -0.003668 0.001639 0.008779 -0.007426 0.031639
#
#
# Mechanical properties :
#
#
# Convention : Reuss Voigt Hill
#
# Bulk Modulus (GPa) = 22.64305 51.90822 37.27564
# Shear Modulus (GPa) = 18.62763 29.25131 23.93947
#
# Velocity S-wave (km/s) = 3.00011 3.75950 3.40107
# Velocity P-wave (km/s) = 4.78975 6.62771 5.78223
#
# Compressibility (1/GPa) = 0.04416366
#
# Stress axis : x y z
#
# Youngs Moduli (GPa) = 25.36707 44.78746 54.03136
#
# Poissons Ratio (x) = 0.60682 -0.47074
# Poissons Ratio (y) = 0.34369 0.71375
# Poissons Ratio (z) = -0.22100 0.59164
#
# Static dielectric constant tensor:
#      x y z
#    x 1.770130 -0.018410 0.019890 
#    y -0.018410 1.759820 -0.003010 
#    z 0.019890 -0.003010 1.709320 
# 
# From -- ./inp_files/206248.got.cif
#   From: 2010.05.17/outbox.cif.g08.bks.cpg/sg2_104_cif.got.tgz:206248.got - 2010.06.03 11:33:40.
