data_PCOD9105140
_publ_section_title
;
Structure prediction by ZEFSAII (Michael W. Deem and Ramdas Pophale) SiO2 
 PCOD9105140
Probable space group: P -1
;
_chemical_formula_sum "Si O2"
_cell_formula_units_Z 16
_cell_length_a 13.063095
_cell_length_b 11.309058
_cell_length_c 8.133214
_cell_angle_alpha 113.992608
_cell_angle_beta 69.870191
_cell_angle_gamma 137.208103
_cell_volume 743.689626
_symmetry_space_group_name_H-M "P -1"
_symmetry_group_IT_number 2
_symmetry_cell_setting 'triclinic'
loop_
_space_group_symop_operation_xyz
x,y,z
-x,-y,-z
loop_
_atom_site_type_symbol
_atom_site_label
_atom_site_fract_x
_atom_site_fract_y
_atom_site_fract_z
Si Si1 0.935507 0.450837 0.224535
Si Si2 0.383316 0.809801 0.872280
Si Si3 0.013362 0.284751 0.904975
Si Si4 0.728444 0.680727 0.107854
Si Si5 0.255235 0.113151 0.050285
Si Si6 0.425553 0.699010 0.107388
Si Si7 0.685538 0.335737 0.510897
Si Si8 0.566985 0.519252 0.649163
O O1 0.788792 0.286876 0.103912
O O2 0.037757 0.409005 0.113544
O O3 0.852546 0.418474 0.422090
O O4 0.990528 0.627454 0.205283
O O5 0.418784 0.805471 0.660721
O O6 0.378436 0.692479 0.942768
O O7 0.500000 0.000000 0.000000
O O8 0.150881 0.295525 0.834873
O O9 0.866870 0.077371 0.904946
O O10 0.588545 0.632161 0.249722
O O11 0.807531 0.848372 0.039479
O O12 0.642856 0.500611 0.945567
O O13 0.339776 0.281839 0.221420
O O14 0.393224 0.146260 0.912087
O O15 0.365515 0.731741 0.313127
O O16 0.670203 0.476524 0.566816
O O17 0.500000 0.500000 0.500000
#
# Coordination Sequence:
#
# PCOD9105140 Si02
#       8
#     2   2   2   2   2   2   2   2
#     4   9  22  40  62  86 126 173 203 254 312 375
#     4  10  21  38  63  95 118 164 211 257 316 365
#     4  11  21  41  64  85 130 175 205 247 319 385
#     4  11  20  39  62  91 122 169 204 258 320 372
#     4  11  22  36  64  97 122 165 209 260 318 375
#     4  11  19  39  66  91 126 158 213 264 317 369
#     4  10  20  39  63  93 125 156 211 265 319 364
#     4  11  20  37  65  92 124 161 211 268 320 364
#
# _framework density 21.514351000000001
#
# number of rings (size 3 to 8) (size 9 to 14) (size 15 to 20)
#    0.750    0.750    3.750    4.125    0.000    0.500 
#    0.000    3.125    0.000    0.000    0.000    0.000 
#    0.000    0.000    0.000    0.000    0.000    0.000 
#
# Total GULP energy -89117.512713 kJ/mol
# GULP energy per Si atom -5569.844545 kJ/mol
# Density = 2.146538 g / cm^3
# Si number density = 21.514351 Si / 1000 Ang^3
#
#
#
# Elastic Constant Matrix: (Units=GPa)
#
#
# Indices 1 2 3 4 5 6 
#
# 1 53.8330 -3.2435 -15.9687 2.1474 -7.9166 0.5807
# 2 -3.2435 123.6870 -0.9691 -1.4653 0.9643 3.9459
# 3 -15.9687 -0.9691 65.5363 2.9209 -0.9860 10.4359
# 4 2.1474 -1.4653 2.9209 14.1677 1.2214 -7.8314
# 5 -7.9166 0.9643 -0.9860 1.2214 30.7641 -6.0066
# 6 0.5807 3.9459 10.4359 -7.8314 -6.0066 24.4146
#
#
#
# Elastic Compliance Matrix: (Units=1/GPa)
#
#
# Indices 1 2 3 4 5 6 
#
# 1 0.021617 0.000631 0.006398 -0.007445 0.005172 -0.004467
# 2 0.000631 0.008162 0.000565 -0.000315 -0.000410 -0.001778
# 3 0.006398 0.000565 0.019280 -0.011620 0.000340 -0.012128
# 4 -0.007445 -0.000315 -0.011620 0.093586 0.000926 0.035442
# 5 0.005172 -0.000410 0.000340 0.000926 0.035549 0.008841
# 6 -0.004467 -0.001778 -0.012128 0.035442 0.008841 0.060081
#
#
# Mechanical properties :
#
#
# Convention : Reuss Voigt Hill
#
# Bulk Modulus (GPa) = 15.56475 22.52151 19.04313
# Shear Modulus (GPa) = 20.44960 31.41846 25.93403
#
# Velocity S-wave (km/s) = 3.08638 3.82560 3.47570
# Velocity P-wave (km/s) = 4.46668 5.47763 4.99779
#
# Compressibility (1/GPa) = 0.06424775
#
# Stress axis : x y z
#
# Youngs Moduli (GPa) = 46.25892 122.51784 51.86660
#
# Poissons Ratio (x) = -0.07731 -0.33182
# Poissons Ratio (y) = -0.02919 -0.02933
# Poissons Ratio (z) = -0.29594 -0.06928
#
# Static dielectric constant tensor:
#      x y z
#    x 1.886830 -0.030440 0.003370 
#    y -0.030440 1.802280 -0.028480 
#    z 0.003370 -0.028480 1.836590 
# 
# From -- ./inp_files/305537.got.cif
#   From: 2010.05.17/outbox.cif.g08.bks.cpg/sg2_153_cif.got.tgz:305537.got - 2010.06.03 11:33:40.
