data_PCOD9105565
_publ_section_title
;
Structure prediction by ZEFSAII (Michael W. Deem and Ramdas Pophale) SiO2 
 PCOD9105565
Probable space group: P -1
;
_chemical_formula_sum "Si O2"
_cell_formula_units_Z 16
_cell_length_a 9.146965
_cell_length_b 19.653704
_cell_length_c 6.065703
_cell_angle_alpha 60.534041
_cell_angle_beta 52.563798
_cell_angle_gamma 58.006159
_cell_volume 710.590340
_symmetry_space_group_name_H-M "P -1"
_symmetry_group_IT_number 2
_symmetry_cell_setting 'triclinic'
loop_
_space_group_symop_operation_xyz
x,y,z
-x,-y,-z
loop_
_atom_site_type_symbol
_atom_site_label
_atom_site_fract_x
_atom_site_fract_y
_atom_site_fract_z
Si Si1 0.906065 0.460497 0.461070
Si Si2 0.666775 0.418280 0.069532
Si Si3 0.611612 0.818328 0.230398
Si Si4 0.731885 0.548819 0.103187
Si Si5 0.241283 0.942970 0.615928
Si Si6 0.695449 0.169551 0.883603
Si Si7 0.956554 0.879919 0.677610
Si Si8 0.484730 0.698671 0.802847
O O1 0.000000 0.500000 0.500000
O O2 0.074310 0.430823 0.174540
O O3 0.828151 0.397646 0.759748
O O4 0.733632 0.534093 0.384050
O O5 0.604629 0.338039 0.258931
O O6 0.500000 0.500000 0.000000
O O7 0.735918 0.459079 0.148797
O O8 0.449457 0.893931 0.387382
O O9 0.498534 0.810900 0.119724
O O10 0.633429 0.738521 0.491573
O O11 0.812712 0.834131 0.974394
O O12 0.569593 0.622154 0.014820
O O13 0.076164 0.910584 0.706699
O O14 0.177533 0.039015 0.460580
O O15 0.256592 0.919720 0.897231
O O16 0.874043 0.170562 0.565594
O O17 0.659300 0.230999 0.026179
#
# Coordination Sequence:
#
# PCOD9105565 Si02
#       8
#     2   2   2   2   2   2   2   2
#     4   9  18  35  58  88 112 135 200 256 295 354
#     4   9  19  35  59  79 106 150 196 245 292 347
#     4  10  22  39  58  89 128 161 204 250 305 373
#     4   9  19  37  61  83 111 152 201 251 298 353
#     4   9  20  39  64  90 120 158 210 256 300 356
#     4  10  22  38  57  90 128 158 203 252 309 374
#     4  10  20  39  65  89 121 163 204 256 300 361
#     4  10  22  39  56  84 123 160 195 248 309 366
#
# _framework density 22.516492
#
# number of rings (size 3 to 8) (size 9 to 14) (size 15 to 20)
#    0.000    2.500    0.000    0.750    0.000    8.500 
#    9.000    0.000    0.000    0.000    0.000    0.000 
#    0.000    0.000    0.000    0.000    0.000    0.000 
#
# Total GULP energy -89233.045095 kJ/mol
# GULP energy per Si atom -5577.065318 kJ/mol
# Density = 2.246524 g / cm^3
# Si number density = 22.516492 Si / 1000 Ang^3
#
#
#
# Elastic Constant Matrix: (Units=GPa)
#
#
# Indices 1 2 3 4 5 6 
#
# 1 69.9175 11.4630 37.8705 -2.9112 1.9470 8.4397
# 2 11.4630 53.0155 31.3015 -8.0684 -6.4734 11.9673
# 3 37.8705 31.3015 128.4610 -7.6288 -19.8754 13.4378
# 4 -2.9112 -8.0684 -7.6288 26.4840 -5.7978 -0.8022
# 5 1.9470 -6.4734 -19.8754 -5.7978 51.4176 -9.8073
# 6 8.4397 11.9673 13.4378 -0.8022 -9.8073 15.1143
#
#
#
# Elastic Compliance Matrix: (Units=1/GPa)
#
#
# Indices 1 2 3 4 5 6 
#
# 1 0.018251 0.000547 -0.005312 -0.000592 -0.004421 -0.008802
# 2 0.000547 0.026102 -0.004527 0.005936 -0.001127 -0.017364
# 3 -0.005312 -0.004527 0.011292 0.002167 0.004105 -0.000710
# 4 -0.000592 0.005936 0.002167 0.041501 0.006284 -0.000015
# 5 -0.004421 -0.001127 0.004105 0.006284 0.024854 0.016172
# 6 -0.008802 -0.017364 -0.000710 -0.000015 0.016172 0.095950
#
#
# Mechanical properties :
#
#
# Convention : Reuss Voigt Hill
#
# Bulk Modulus (GPa) = 26.98271 45.85155 36.41713
# Shear Modulus (GPa) = 20.08934 29.98712 25.03823
#
# Velocity S-wave (km/s) = 2.99022 3.65332 3.33828
# Velocity P-wave (km/s) = 4.89198 6.18089 5.57382
#
# Compressibility (1/GPa) = 0.03706076
#
# Stress axis : x y z
#
# Youngs Moduli (GPa) = 54.79103 38.31076 88.56116
#
# Poissons Ratio (x) = -0.02096 0.47046
# Poissons Ratio (y) = -0.02998 0.40092
# Poissons Ratio (z) = 0.29107 0.17343
#
# Static dielectric constant tensor:
#      x y z
#    x 1.939910 -0.030860 -0.006370 
#    y -0.030860 1.865700 0.014170 
#    z -0.006370 0.014170 1.921570 
# 
# From -- ./inp_files/52391.got.cif
#   From: 2010.05.17/outbox.cif.g08.bks.cpg/sg2_27_cif.got.tgz:52391.got - 2010.06.03 11:33:40.
