data_PCOD9105221
_publ_section_title
;
Structure prediction by ZEFSAII (Michael W. Deem and Ramdas Pophale) SiO2 
 PCOD9105221
Probable space group: P -1
;
_chemical_formula_sum "Si O2"
_cell_formula_units_Z 16
_cell_length_a 9.015532
_cell_length_b 12.319240
_cell_length_c 9.371245
_cell_angle_alpha 97.398672
_cell_angle_beta 47.355934
_cell_angle_gamma 92.795948
_cell_volume 758.167033
_symmetry_space_group_name_H-M "P -1"
_symmetry_group_IT_number 2
_symmetry_cell_setting 'triclinic'
loop_
_space_group_symop_operation_xyz
x,y,z
-x,-y,-z
loop_
_atom_site_type_symbol
_atom_site_label
_atom_site_fract_x
_atom_site_fract_y
_atom_site_fract_z
Si Si1 0.577891 0.331328 0.161490
Si Si2 0.105705 0.243124 0.252961
Si Si3 0.682616 0.241270 0.382232
Si Si4 0.606853 0.016780 0.285840
Si Si5 0.161464 0.422864 0.463882
Si Si6 0.704273 0.770381 0.162875
Si Si7 0.604562 0.901481 0.827899
Si Si8 0.015675 0.395994 0.867190
O O1 0.610300 0.316751 0.309310
O O2 0.399233 0.424976 0.273676
O O3 0.508720 0.214461 0.123887
O O4 0.791022 0.363324 0.967961
O O5 0.112778 0.307186 0.407495
O O6 0.181068 0.123618 0.240426
O O7 0.888903 0.266160 0.328622
O O8 0.260831 0.273366 0.029303
O O9 0.729304 0.123957 0.252918
O O10 0.507638 0.240835 0.617062
O O11 0.424784 0.053441 0.304189
O O12 0.500000 0.000000 0.500000
O O13 0.722926 0.901764 0.155650
O O14 0.000000 0.500000 0.500000
O O15 0.128996 0.425959 0.653896
O O16 0.868765 0.705327 0.143431
O O17 0.500000 0.000000 0.000000
O O18 0.000000 0.500000 0.000000
#
# Coordination Sequence:
#
# PCOD9105221 Si02
#       8
#     2   2   2   2   2   2   2   2
#     4  10  23  43  70  96 130 171 218 262 325 391
#     4  11  23  38  65  94 131 166 213 266 330 372
#     4  10  21  40  65  99 127 172 218 260 317 391
#     4   9  20  37  62  91 132 173 217 258 310 387
#     4  11  26  46  65  95 133 162 214 282 330 378
#     4  11  21  40  65  93 129 171 217 267 312 386
#     4  10  20  39  63  97 137 170 206 266 323 379
#     4  12  26  44  71  97 123 172 225 270 324 390
#
# _framework density 21.103529999999999
#
# number of rings (size 3 to 8) (size 9 to 14) (size 15 to 20)
#    0.000    1.500    3.750    0.750    1.750    5.500 
#    0.000    2.500    0.000    0.000    0.000    0.000 
#    0.000    0.000    0.000    0.000    0.000    0.000 
#
# Total GULP energy -89118.493509 kJ/mol
# GULP energy per Si atom -5569.905844 kJ/mol
# Density = 2.105550 g / cm^3
# Si number density = 21.103530 Si / 1000 Ang^3
#
#
#
# Elastic Constant Matrix: (Units=GPa)
#
#
# Indices 1 2 3 4 5 6 
#
# 1 91.0724 8.1887 21.3545 9.6499 -9.2456 -17.7380
# 2 8.1887 45.0300 9.6477 19.7923 -17.4008 -21.5734
# 3 21.3545 9.6477 88.6439 15.0970 -0.6965 0.0646
# 4 9.6499 19.7923 15.0970 26.0966 -5.4893 -2.0494
# 5 -9.2456 -17.4008 -0.6965 -5.4893 44.3245 6.4175
# 6 -17.7380 -21.5734 0.0646 -2.0494 6.4175 34.8850
#
#
#
# Elastic Compliance Matrix: (Units=1/GPa)
#
#
# Indices 1 2 3 4 5 6 
#
# 1 0.014414 0.008719 -0.002942 -0.008566 0.003650 0.011552
# 2 0.008719 0.066998 -0.001350 -0.046633 0.016520 0.040090
# 3 -0.002942 -0.001350 0.013144 -0.005963 -0.001319 -0.002463
# 4 -0.008566 -0.046633 -0.005963 0.076737 -0.006711 -0.027440
# 5 0.003650 0.016520 -0.001319 -0.006711 0.028011 0.006527
# 6 0.011552 0.040090 -0.002463 -0.027440 0.006527 0.056523
#
#
# Mechanical properties :
#
#
# Convention : Reuss Voigt Hill
#
# Bulk Modulus (GPa) = 9.67025 33.68091 21.67558
# Shear Modulus (GPa) = 17.76559 33.43158 25.59858
#
# Velocity S-wave (km/s) = 2.90458 3.98448 3.48659
# Velocity P-wave (km/s) = 3.98008 6.09611 5.14799
#
# Compressibility (1/GPa) = 0.10340998
#
# Stress axis : x y z
#
# Youngs Moduli (GPa) = 69.37555 14.92582 76.08162
#
# Poissons Ratio (x) = -0.13014 0.22385
# Poissons Ratio (y) = -0.60487 0.10268
# Poissons Ratio (z) = 0.20412 0.02014
#
# Static dielectric constant tensor:
#      x y z
#    x 1.747260 0.003620 -0.013980 
#    y 0.003620 1.909630 0.084110 
#    z -0.013980 0.084110 1.800980 
# 
# From -- ./inp_files/187331.got.cif
#   From: 2010.05.17/outbox.cif.g08.bks.cpg/sg2_94_cif.got.tgz:187331.got - 2010.06.03 11:33:40.
