data_PCOD9105754
_publ_section_title
;
Structure prediction by ZEFSAII (Michael W. Deem and Ramdas Pophale) SiO2 
 PCOD9105754
Probable space group: P -1
;
_chemical_formula_sum "Si O2"
_cell_formula_units_Z 16
_cell_length_a 8.729137
_cell_length_b 9.061477
_cell_length_c 22.262068
_cell_angle_alpha 62.923091
_cell_angle_beta 127.590054
_cell_angle_gamma 73.279975
_cell_volume 743.261910
_symmetry_space_group_name_H-M "P -1"
_symmetry_group_IT_number 2
_symmetry_cell_setting 'triclinic'
loop_
_space_group_symop_operation_xyz
x,y,z
-x,-y,-z
loop_
_atom_site_type_symbol
_atom_site_label
_atom_site_fract_x
_atom_site_fract_y
_atom_site_fract_z
Si Si1 0.138641 0.575583 0.042131
Si Si2 0.736983 0.449684 0.784973
Si Si3 0.364230 0.919996 0.961868
Si Si4 0.299818 0.858578 0.140706
Si Si5 0.182558 0.215847 0.750009
Si Si6 0.557533 0.768031 0.571891
Si Si7 0.334168 0.622489 0.872779
Si Si8 0.174864 0.799597 0.394687
O O1 0.162520 0.555883 0.124069
O O2 0.472126 0.396563 0.124459
O O3 0.000000 0.500000 0.000000
O O4 0.895395 0.890929 0.906318
O O5 0.516679 0.437504 0.744611
O O6 0.622018 0.677415 0.673432
O O7 0.021266 0.159872 0.868969
O O8 0.322218 0.974329 0.870759
O O9 0.605101 0.606462 0.093515
O O10 0.500000 0.000000 0.000000
O O11 0.557540 0.815937 0.186419
O O12 0.000000 0.000000 0.000000
O O13 0.873227 0.498834 0.658913
O O14 0.061878 0.198883 0.665218
O O15 0.277846 0.830491 0.472681
O O16 0.500000 0.000000 0.500000
O O17 0.500000 0.500000 0.000000
O O18 0.980601 0.944452 0.729585
O O19 0.500000 0.500000 0.500000
#
# Coordination Sequence:
#
# PCOD9105754 Si02
#       8
#     2   2   2   2   2   2   2   2
#     4  11  24  39  62 100 143 176 219 283 361 426
#     4  10  23  43  62  95 142 179 224 285 352 409
#     4  11  22  36  65 101 134 173 222 283 347 409
#     4  10  20  39  65  97 137 176 211 278 361 417
#     4  10  21  41  65  94 137 178 224 284 348 404
#     4  10  24  43  68  96 128 188 246 286 327 412
#     4  12  25  40  68 105 131 175 234 291 350 411
#     4  10  23  44  66  95 140 178 232 292 341 405
#
# _framework density 21.526733
#
# number of rings (size 3 to 8) (size 9 to 14) (size 15 to 20)
#    0.000    1.500    2.500    2.250    7.000    0.000 
#    0.000    4.375    0.000    0.000    0.000    0.000 
#    0.000    0.000    0.000    0.000    0.000    0.000 
#
# Total GULP energy -89090.869987 kJ/mol
# GULP energy per Si atom -5568.179374 kJ/mol
# Density = 2.147774 g / cm^3
# Si number density = 21.526733 Si / 1000 Ang^3
#
#
#
# Elastic Constant Matrix: (Units=GPa)
#
#
# Indices 1 2 3 4 5 6 
#
# 1 98.5837 50.7835 37.9995 6.0858 -12.4782 24.8783
# 2 50.7835 139.7135 47.1512 -1.2327 -14.6103 36.4485
# 3 37.9995 47.1512 89.8226 -14.1241 -16.7505 12.3336
# 4 6.0858 -1.2327 -14.1241 44.9849 10.7121 -3.8748
# 5 -12.4782 -14.6103 -16.7505 10.7121 33.5693 -0.0668
# 6 24.8783 36.4485 12.3336 -3.8748 -0.0668 38.8389
#
#
#
# Elastic Compliance Matrix: (Units=1/GPa)
#
#
# Indices 1 2 3 4 5 6 
#
# 1 0.015595 -0.001752 -0.004683 -0.005306 0.004376 -0.007380
# 2 -0.001752 0.011760 -0.003970 -0.002206 0.003173 -0.008868
# 3 -0.004683 -0.003970 0.016280 0.005092 0.003035 0.002068
# 4 -0.005306 -0.002206 0.005092 0.027208 -0.009061 0.006551
# 5 0.004376 0.003173 0.003035 -0.009061 0.037187 -0.007584
# 6 -0.007380 -0.008868 0.002068 0.006551 -0.007584 0.038780
#
#
# Mechanical properties :
#
#
# Convention : Reuss Voigt Hill
#
# Bulk Modulus (GPa) = 43.80851 66.66535 55.23693
# Shear Modulus (GPa) = 28.53432 36.29100 32.41266
#
# Velocity S-wave (km/s) = 3.64473 4.11037 3.88454
# Velocity P-wave (km/s) = 6.17309 7.31866 6.77015
#
# Compressibility (1/GPa) = 0.02282661
#
# Stress axis : x y z
#
# Youngs Moduli (GPa) = 64.12328 85.03578 61.42334
#
# Poissons Ratio (x) = 0.14899 0.28762
# Poissons Ratio (y) = 0.11235 0.24382
# Poissons Ratio (z) = 0.30026 0.33756
#
# Static dielectric constant tensor:
#      x y z
#    x 0.331960 0.219770 0.109740 
#    y 0.219770 1.682690 -0.113570 
#    z 0.109740 -0.113570 1.814690 
# 
# From -- ./inp_files/606392.got.cif
#   From: 2010.05.17/outbox.cif.g08.bks.cpg/sg2_304_cif.got.tgz:606392.got - 2010.06.03 11:33:40.
