data_PCOD9105461
_publ_section_title
;
Structure prediction by ZEFSAII (Michael W. Deem and Ramdas Pophale) SiO2 
 PCOD9105461
Probable space group: P -1
;
_chemical_formula_sum "Si O2"
_cell_formula_units_Z 16
_cell_length_a 21.519465
_cell_length_b 11.456957
_cell_length_c 8.579741
_cell_angle_alpha 131.726434
_cell_angle_beta 133.654237
_cell_angle_gamma 29.443488
_cell_volume 739.877479
_symmetry_space_group_name_H-M "P -1"
_symmetry_group_IT_number 2
_symmetry_cell_setting 'triclinic'
loop_
_space_group_symop_operation_xyz
x,y,z
-x,-y,-z
loop_
_atom_site_type_symbol
_atom_site_label
_atom_site_fract_x
_atom_site_fract_y
_atom_site_fract_z
Si Si1 0.423067 0.201563 0.409126
Si Si2 0.152128 0.394872 0.111933
Si Si3 0.320282 0.054983 0.514081
Si Si4 0.991515 0.972703 0.143808
Si Si5 0.832779 0.840489 0.353795
Si Si6 0.242064 0.750828 0.581504
Si Si7 0.895280 0.402461 0.479848
Si Si8 0.817454 0.966731 0.968838
O O1 0.297896 0.264065 0.222221
O O2 0.357068 0.464374 0.553794
O O3 0.500000 0.000000 0.500000
O O4 0.530516 0.088542 0.360010
O O5 0.082717 0.610726 0.307076
O O6 0.142532 0.248683 0.066894
O O7 0.129446 0.355988 0.867688
O O8 0.248386 0.107600 0.594680
O O9 0.232018 0.319476 0.530037
O O10 0.301042 0.931756 0.256340
O O11 0.124300 0.825579 0.344973
O O12 0.883251 0.241831 0.266199
O O13 0.000000 0.000000 0.000000
O O14 0.933823 0.880373 0.989811
O O15 0.979052 0.713689 0.507109
O O16 0.743918 0.105738 0.363957
O O17 0.211754 0.868152 0.801036
#
# Coordination Sequence:
#
# PCOD9105461 Si02
#       8
#     2   2   2   2   2   2   2   2
#     4  12  24  45  64  92 135 178 232 264 316 388
#     4  10  22  40  65  92 124 172 220 270 318 393
#     4  11  24  41  66  95 135 176 216 273 326 387
#     4  11  23  41  65 101 136 166 211 274 343 390
#     4  10  22  42  63 102 126 163 221 276 345 376
#     4  10  24  41  67  94 131 174 220 270 320 400
#     4  10  20  39  66  92 132 166 208 271 326 400
#     4  10  20  39  64  96 126 172 220 267 324 385
#
# _framework density 21.625202999999999
#
# number of rings (size 3 to 8) (size 9 to 14) (size 15 to 20)
#    0.000    1.500    2.500    3.375    0.000    8.500 
#    0.000    0.000    0.000    0.000    0.000    0.000 
#    0.000    0.000    0.000    0.000    0.000    0.000 
#
# Total GULP energy -89098.232664 kJ/mol
# GULP energy per Si atom -5568.639542 kJ/mol
# Density = 2.157598 g / cm^3
# Si number density = 21.625203 Si / 1000 Ang^3
#
#
#
# Elastic Constant Matrix: (Units=GPa)
#
#
# Indices 1 2 3 4 5 6 
#
# 1 151.7600 35.1519 48.4160 6.1850 -0.7461 -13.6599
# 2 35.1519 107.9691 26.4442 29.4104 6.3007 11.7877
# 3 48.4160 26.4442 90.0359 18.1658 3.7513 1.9149
# 4 6.1850 29.4104 18.1658 16.8762 -1.2081 6.0084
# 5 -0.7461 6.3007 3.7513 -1.2081 29.0202 0.2743
# 6 -13.6599 11.7877 1.9149 6.0084 0.2743 29.8582
#
#
#
# Elastic Compliance Matrix: (Units=1/GPa)
#
#
# Indices 1 2 3 4 5 6 
#
# 1 0.009737 -0.005229 -0.006031 0.010523 0.002558 0.004765
# 2 -0.005229 0.021459 0.004999 -0.040297 -0.007089 -0.003010
# 3 -0.006031 0.004999 0.018435 -0.026490 -0.004721 -0.000541
# 4 0.010523 -0.040297 -0.026490 0.158980 0.019154 -0.009746
# 5 0.002558 -0.007089 -0.004721 0.019154 0.037471 0.000073
# 6 0.004765 -0.003010 -0.000541 -0.009746 0.000073 0.038855
#
#
# Mechanical properties :
#
#
# Convention : Reuss Voigt Hill
#
# Bulk Modulus (GPa) = 26.94805 63.30991 45.12898
# Shear Modulus (GPa) = 16.13791 31.13444 23.63618
#
# Velocity S-wave (km/s) = 2.73473 3.79849 3.30963
# Velocity P-wave (km/s) = 4.73921 6.96976 5.95977
#
# Compressibility (1/GPa) = 0.03710844
#
# Stress axis : x y z
#
# Youngs Moduli (GPa) = 102.69762 46.60007 54.24563
#
# Poissons Ratio (x) = 0.24367 0.32718
# Poissons Ratio (y) = 0.53699 -0.27117
# Poissons Ratio (z) = 0.61942 -0.23295
#
# Static dielectric constant tensor:
#      x y z
#    x 1.831320 0.058790 -0.002920 
#    y 0.058790 1.872130 -0.036310 
#    z -0.002920 -0.036310 1.829530 
# 
# From -- ./inp_files/346379.got.cif
#   From: 2010.05.17/outbox.cif.g08.bks.cpg/sg2_174_cif.got.tgz:346379.got - 2010.06.03 11:33:40.
