data_PCOD9105098
_publ_section_title
;
Structure prediction by ZEFSAII (Michael W. Deem and Ramdas Pophale) SiO2 
 PCOD9105098
Probable space group: P -1
;
_chemical_formula_sum "Si O2"
_cell_formula_units_Z 16
_cell_length_a 9.162827
_cell_length_b 7.583864
_cell_length_c 15.945179
_cell_angle_alpha 94.945156
_cell_angle_beta 129.563189
_cell_angle_gamma 55.724925
_cell_volume 638.028961
_symmetry_space_group_name_H-M "P -1"
_symmetry_group_IT_number 2
_symmetry_cell_setting 'triclinic'
loop_
_space_group_symop_operation_xyz
x,y,z
-x,-y,-z
loop_
_atom_site_type_symbol
_atom_site_label
_atom_site_fract_x
_atom_site_fract_y
_atom_site_fract_z
Si Si1 0.573533 0.604220 0.465673
Si Si2 0.791238 0.232190 0.380205
Si Si3 0.050009 0.518282 0.616901
Si Si4 0.621970 0.150671 0.839548
Si Si5 0.631049 0.218739 0.032510
Si Si6 0.117950 0.093782 0.244522
Si Si7 0.884962 0.549052 0.096925
Si Si8 0.714277 0.503608 0.854213
O O1 0.500000 0.500000 0.500000
O O2 0.647000 0.447624 0.402994
O O3 0.818878 0.565318 0.578764
O O4 0.351087 0.881289 0.375439
O O5 0.570939 0.249784 0.258520
O O6 0.928443 0.280720 0.367034
O O7 0.000000 0.000000 0.500000
O O8 0.000000 0.500000 0.500000
O O9 0.327994 0.282101 0.733745
O O10 0.708153 0.097132 0.964534
O O11 0.771599 0.963029 0.813181
O O12 0.660619 0.331147 0.837799
O O13 0.405489 0.233928 0.979777
O O14 0.500000 0.500000 0.000000
O O15 0.892749 0.090320 0.170020
O O16 0.982208 0.368240 0.202915
O O17 0.096631 0.561799 0.153625
O O18 0.836361 0.486490 0.985721
#
# Coordination Sequence:
#
# PCOD9105098 Si02
#       8
#     2   2   2   2   2   2   2   2
#     4  11  24  42  61  90 124 160 207 264 307 360
#     4  10  22  39  66  88 121 162 206 251 300 377
#     4   9  19  40  63  85 122 160 205 246 307 363
#     4  11  19  38  68  87 120 165 204 250 302 376
#     4  10  21  37  60  91 123 158 202 249 310 360
#     4  11  21  39  66  85 121 167 204 254 311 371
#     4  10  23  38  63  90 128 160 199 256 306 369
#     4  10  20  39  63  91 126 156 206 244 311 366
#
# _framework density 25.077231999999999
#
# number of rings (size 3 to 8) (size 9 to 14) (size 15 to 20)
#    0.000    1.750    6.250    0.375    1.750    2.000 
#    2.250    2.500    0.000    0.000    0.000    0.000 
#    0.000    0.000    0.000    0.000    0.000    0.000 
#
# Total GULP energy -89357.703909 kJ/mol
# GULP energy per Si atom -5584.856494 kJ/mol
# Density = 2.502015 g / cm^3
# Si number density = 25.077232 Si / 1000 Ang^3
#
#
#
# Elastic Constant Matrix: (Units=GPa)
#
#
# Indices 1 2 3 4 5 6 
#
# 1 184.0972 13.3719 57.9461 -16.3535 38.1673 13.6979
# 2 13.3719 52.4390 30.0489 -11.2794 6.1597 2.1526
# 3 57.9461 30.0489 156.9079 -13.0705 36.0469 14.0652
# 4 -16.3535 -11.2794 -13.0705 34.1591 -10.3145 -5.7435
# 5 38.1673 6.1597 36.0469 -10.3145 49.4583 -2.6769
# 6 13.6979 2.1526 14.0652 -5.7435 -2.6769 25.9394
#
#
#
# Elastic Compliance Matrix: (Units=1/GPa)
#
#
# Indices 1 2 3 4 5 6 
#
# 1 0.007097 -0.000288 -0.001126 0.000909 -0.004614 -0.003388
# 2 -0.000288 0.022761 -0.004389 0.006734 0.002118 0.002353
# 3 -0.001126 -0.004389 0.009335 -0.001018 -0.005867 -0.004933
# 4 0.000909 0.006734 -0.001018 0.034976 0.006928 0.007973
# 5 -0.004614 0.002118 -0.005867 0.006928 0.029780 0.010049
# 6 -0.003388 0.002353 -0.004933 0.007973 0.010049 0.045622
#
#
# Mechanical properties :
#
#
# Convention : Reuss Voigt Hill
#
# Bulk Modulus (GPa) = 36.24986 66.24200 51.24593
# Shear Modulus (GPa) = 29.34717 41.38317 35.36517
#
# Velocity S-wave (km/s) = 3.42463 4.06671 3.75940
# Velocity P-wave (km/s) = 5.48855 6.96587 6.27087
#
# Compressibility (1/GPa) = 0.02758631
#
# Stress axis : x y z
#
# Youngs Moduli (GPa) = 140.91160 43.93419 107.12342
#
# Poissons Ratio (x) = 0.01264 0.12067
# Poissons Ratio (y) = 0.04054 0.47019
# Poissons Ratio (z) = 0.15873 0.19284
#
# Static dielectric constant tensor:
#      x y z
#    x 2.138730 -0.131630 -0.165160 
#    y -0.131630 2.210520 0.147000 
#    z -0.165160 0.147000 2.228250 
# 
# From -- ./inp_files/557274.got.cif
#   From: 2010.05.17/outbox.cif.g08.bks.cpg/sg2_279_cif.got.tgz:557274.got - 2010.06.03 11:33:40.
