data_PCOD9105606
_publ_section_title
;
Structure prediction by ZEFSAII (Michael W. Deem and Ramdas Pophale) SiO2 
 PCOD9105606
Probable space group: P -1
;
_chemical_formula_sum "Si O2"
_cell_formula_units_Z 16
_cell_length_a 10.775482
_cell_length_b 11.782786
_cell_length_c 8.318819
_cell_angle_alpha 138.568471
_cell_angle_beta 109.235189
_cell_angle_gamma 78.391273
_cell_volume 658.122936
_symmetry_space_group_name_H-M "P -1"
_symmetry_group_IT_number 2
_symmetry_cell_setting 'triclinic'
loop_
_space_group_symop_operation_xyz
x,y,z
-x,-y,-z
loop_
_atom_site_type_symbol
_atom_site_label
_atom_site_fract_x
_atom_site_fract_y
_atom_site_fract_z
Si Si1 0.335512 0.144421 0.578013
Si Si2 0.071432 0.544130 0.242714
Si Si3 0.333395 0.353173 0.120129
Si Si4 0.611051 0.510703 0.397422
Si Si5 0.816415 0.395971 0.126762
Si Si6 0.712510 0.186452 0.294841
Si Si7 0.391004 0.788138 0.374499
Si Si8 0.148704 0.973001 0.084050
O O1 0.458559 0.242103 0.640647
O O2 0.368259 0.949132 0.419527
O O3 0.205629 0.118056 0.386540
O O4 0.317556 0.220173 0.827887
O O5 0.193380 0.426209 0.167026
O O6 0.143336 0.730629 0.499726
O O7 0.957073 0.495533 0.267913
O O8 0.000000 0.500000 0.000000
O O9 0.458970 0.479243 0.247688
O O10 0.374668 0.334438 0.304641
O O11 0.721551 0.507448 0.308087
O O12 0.643845 0.332850 0.318542
O O13 0.727036 0.349707 0.879890
O O14 0.845157 0.216176 0.033230
O O15 0.631845 0.154738 0.391067
O O16 0.748678 0.036035 0.031027
O O17 0.000000 0.000000 0.000000
#
# Coordination Sequence:
#
# PCOD9105606 Si02
#       8
#     2   2   2   2   2   2   2   2
#     4  10  22  40  65  89 124 170 210 251 316 377
#     4  11  23  39  66  92 122 168 208 256 315 375
#     4  10  21  39  64  90 122 157 213 256 306 370
#     4   9  20  41  64  88 125 162 202 269 309 360
#     4  10  20  42  68  90 127 168 206 256 319 375
#     4  10  22  40  62  89 128 161 212 261 311 368
#     4  10  20  39  65  92 122 167 209 257 310 375
#     4  10  24  41  62  93 130 164 208 261 310 374
#
# _framework density 24.311565000000002
#
# number of rings (size 3 to 8) (size 9 to 14) (size 15 to 20)
#    0.000    2.000    2.500    0.000    3.500    6.000 
#    2.250    9.375    0.000    0.000    0.000    0.000 
#    0.000    0.000    0.000    0.000    0.000    0.000 
#
# Total GULP energy -89343.381098 kJ/mol
# GULP energy per Si atom -5583.961319 kJ/mol
# Density = 2.425623 g / cm^3
# Si number density = 24.311565 Si / 1000 Ang^3
#
#
#
# Elastic Constant Matrix: (Units=GPa)
#
#
# Indices 1 2 3 4 5 6 
#
# 1 188.8867 35.8804 45.1707 -11.2489 3.8376 -3.2974
# 2 35.8804 62.9318 2.1944 -3.7516 7.9370 -3.0953
# 3 45.1707 2.1944 128.7660 -21.9393 0.7182 -8.5882
# 4 -11.2489 -3.7516 -21.9393 28.8143 2.7185 6.6859
# 5 3.8376 7.9370 0.7182 2.7185 41.0676 -14.6225
# 6 -3.2974 -3.0953 -8.5882 6.6859 -14.6225 40.4021
#
#
#
# Elastic Compliance Matrix: (Units=1/GPa)
#
#
# Indices 1 2 3 4 5 6 
#
# 1 0.006525 -0.003629 -0.002162 0.000497 -0.000007 -0.000290
# 2 -0.003629 0.018486 0.001374 0.002428 -0.003511 -0.000260
# 3 -0.002162 0.001374 0.009671 0.006561 -0.000398 0.000755
# 4 0.000497 0.002428 0.006561 0.042570 -0.006175 -0.007658
# 5 -0.000007 -0.003511 -0.000398 -0.006175 0.029482 0.011338
# 6 -0.000290 -0.000260 0.000755 -0.007658 0.011338 0.030239
#
#
# Mechanical properties :
#
#
# Convention : Reuss Voigt Hill
#
# Bulk Modulus (GPa) = 38.68603 60.78616 49.73610
# Shear Modulus (GPa) = 32.37846 41.87940 37.12893
#
# Velocity S-wave (km/s) = 3.65336 4.15494 3.91220
# Velocity P-wave (km/s) = 5.80889 6.93363 6.39603
#
# Compressibility (1/GPa) = 0.02584912
#
# Stress axis : x y z
#
# Youngs Moduli (GPa) = 153.25409 54.09516 103.39727
#
# Poissons Ratio (x) = 0.19629 0.22352
# Poissons Ratio (y) = 0.55611 -0.14205
# Poissons Ratio (z) = 0.33130 -0.07432
#
# Static dielectric constant tensor:
#      x y z
#    x 1.936600 0.024300 0.020790 
#    y 0.024300 2.056310 -0.005860 
#    z 0.020790 -0.005860 1.982500 
# 
# From -- ./inp_files/209484.got.cif
#   From: 2010.05.17/outbox.cif.g08.bks.cpg/sg2_105_cif.got.tgz:209484.got - 2010.06.03 11:33:40.
