data_PCOD9105710
_publ_section_title
;
Structure prediction by ZEFSAII (Michael W. Deem and Ramdas Pophale) SiO2 
 PCOD9105710
Probable space group: P -1
;
_chemical_formula_sum "Si O2"
_cell_formula_units_Z 11
_cell_length_a 14.419113
_cell_length_b 9.815538
_cell_length_c 10.117387
_cell_angle_alpha 129.214545
_cell_angle_beta 152.326841
_cell_angle_gamma 37.682714
_cell_volume 394.457031
_symmetry_space_group_name_H-M "P -1"
_symmetry_group_IT_number 2
_symmetry_cell_setting 'triclinic'
loop_
_space_group_symop_operation_xyz
x,y,z
-x,-y,-z
loop_
_atom_site_type_symbol
_atom_site_label
_atom_site_fract_x
_atom_site_fract_y
_atom_site_fract_z
Si Si1 0.543149 0.359111 0.810147
Si Si2 0.790110 0.417962 0.818472
Si Si3 0.719872 0.623382 0.287742
Si Si4 0.004609 0.961988 0.327860
Si Si5 0.000000 0.000000 0.000000
Si Si6 0.527212 0.079677 0.222670
O O1 0.589414 0.543417 0.981227
O O2 0.682076 0.189943 0.758222
O O3 0.278942 0.451428 0.606290
O O4 0.740372 0.178402 0.062819
O O5 0.500000 0.500000 0.500000
O O6 0.916953 0.281818 0.757330
O O7 0.718954 0.658981 0.900036
O O8 0.965667 0.217612 0.025197
O O9 0.000000 0.500000 0.500000
O O10 0.577266 0.891542 0.268222
O O11 0.207733 0.957138 0.487309
O O12 0.000000 0.000000 0.500000
O O13 0.500000 0.000000 0.000000
#
# Coordination Sequence:
#
# PCOD9105710 Si02
#       6
#     2   2   2   2   1   2
#     4  10  22  41  68  94 135 178 223 282 346 409
#     4   9  21  39  64  94 137 176 220 284 338 413
#     4  11  22  40  64  94 131 175 226 274 332 409
#     4  10  20  39  65  95 131 180 223 279 352 403
#     4  10  20  42  68  96 130 182 220 274 356 402
#     4  11  21  38  62  96 135 173 229 281 332 414
#
# _framework density 27.886434000000001
#
# number of rings (size 3 to 8) (size 9 to 14) (size 15 to 20)
#    0.000    1.818    1.818    2.182    0.000    4.364 
#    0.000   10.909    0.000    0.000    0.000    0.000 
#    0.000    0.000    0.000    0.000    0.000    0.000 
#
# Total GULP energy -61284.249806 kJ/mol
# GULP energy per Si atom -5571.295437 kJ/mol
# Density = 2.782296 g / cm^3
# Si number density = 27.886434 Si / 1000 Ang^3
#
#
#
# Elastic Constant Matrix: (Units=GPa)
#
#
# Indices 1 2 3 4 5 6 
#
# 1 156.7974 76.5628 14.3736 13.1863 23.3487 1.7909
# 2 76.5628 276.3749 37.9320 15.5237 0.2024 -13.5042
# 3 14.3736 37.9320 62.0072 3.1345 23.9361 11.2960
# 4 13.1863 15.5237 3.1345 32.3644 8.4420 -1.7188
# 5 23.3487 0.2024 23.9361 8.4420 53.1949 3.1135
# 6 1.7909 -13.5042 11.2960 -1.7188 3.1135 61.4005
#
#
#
# Elastic Compliance Matrix: (Units=1/GPa)
#
#
# Indices 1 2 3 4 5 6 
#
# 1 0.008126 -0.002394 0.001300 -0.001320 -0.003884 -0.000843
# 2 -0.002394 0.004986 -0.003848 -0.001721 0.002938 0.001677
# 3 0.001300 -0.003848 0.023160 0.001696 -0.010981 -0.004541
# 4 -0.001320 -0.001721 0.001696 0.033572 -0.005538 0.000569
# 5 -0.003884 0.002938 -0.010981 -0.005538 0.026237 0.001294
# 6 -0.000843 0.001677 -0.004541 0.000569 0.001294 0.017466
#
#
# Mechanical properties :
#
#
# Convention : Reuss Voigt Hill
#
# Bulk Modulus (GPa) = 37.89434 83.65737 60.77585
# Shear Modulus (GPa) = 37.81403 53.81270 45.81336
#
# Velocity S-wave (km/s) = 3.68639 4.39761 4.05761
# Velocity P-wave (km/s) = 5.63361 7.47327 6.61768
#
# Compressibility (1/GPa) = 0.02638917
#
# Stress axis : x y z
#
# Youngs Moduli (GPa) = 123.05609 200.56131 43.17807
#
# Poissons Ratio (x) = 0.48011 -0.05614
# Poissons Ratio (y) = 0.29458 0.16615
# Poissons Ratio (z) = -0.16000 0.77175
#
# Static dielectric constant tensor:
#      x y z
#    x 2.572220 -0.109820 -0.069590 
#    y -0.109820 2.194540 0.018600 
#    z -0.069590 0.018600 2.179640 
# 
# From -- ./inp_files/148693.got.cif
#   From: 2010.05.17/outbox.cif.g08.bks.cpg/sg2_75_cif.got.tgz:148693.got - 2010.06.03 11:33:40.
