data_PCOD9105174
_publ_section_title
;
Structure prediction by ZEFSAII (Michael W. Deem and Ramdas Pophale) SiO2 
 PCOD9105174
Probable space group: P -1
;
_chemical_formula_sum "Si O2"
_cell_formula_units_Z 15
_cell_length_a 7.068436
_cell_length_b 9.035614
_cell_length_c 13.898848
_cell_angle_alpha 67.809018
_cell_angle_beta 104.283355
_cell_angle_gamma 61.652666
_cell_volume 616.630558
_symmetry_space_group_name_H-M "P -1"
_symmetry_group_IT_number 2
_symmetry_cell_setting 'triclinic'
loop_
_space_group_symop_operation_xyz
x,y,z
-x,-y,-z
loop_
_atom_site_type_symbol
_atom_site_label
_atom_site_fract_x
_atom_site_fract_y
_atom_site_fract_z
Si Si1 0.399235 0.857473 0.842422
Si Si2 0.011824 0.403862 0.425666
Si Si3 0.210783 0.968205 0.599476
Si Si4 0.792483 0.636885 0.732324
Si Si5 0.500000 0.000000 0.000000
Si Si6 0.204675 0.089061 0.209559
Si Si7 0.771978 0.403800 0.935730
Si Si8 0.472983 0.713101 0.214214
O O1 0.595199 0.883666 0.813278
O O2 0.551894 0.612562 0.912563
O O3 0.173274 0.966195 0.710429
O O4 0.360372 0.944469 0.921488
O O5 0.731887 0.499817 0.334509
O O6 0.000000 0.500000 0.500000
O O7 0.199163 0.160421 0.525291
O O8 0.109410 0.457457 0.336190
O O9 0.493152 0.761289 0.665837
O O10 0.000000 0.000000 0.500000
O O11 0.846840 0.796689 0.723143
O O12 0.916952 0.464603 0.874451
O O13 0.528625 0.839193 0.123407
O O14 0.328374 0.856331 0.255340
O O15 0.959106 0.229674 0.077761
O O16 0.677291 0.330033 0.861935
#
# Coordination Sequence:
#
# PCOD9105174 Si02
#       8
#     2   2   2   2   1   2   2   2
#     4   9  19  37  64  89 126 168 209 253 324 391
#     4  12  24  41  65  91 125 172 219 262 321 389
#     4  10  21  44  65  91 129 164 215 274 313 381
#     4  10  22  40  68  91 121 176 216 255 332 384
#     4  10  22  38  58  90 136 164 210 252 334 386
#     4   9  19  39  60  89 126 168 205 259 317 386
#     4  10  20  39  63  94 126 163 214 268 318 381
#     4  11  24  38  62  93 133 163 213 270 319 382
#
# _framework density 24.325748000000001
#
# number of rings (size 3 to 8) (size 9 to 14) (size 15 to 20)
#    0.000    2.133    0.000    6.400    5.600    0.533 
#    2.400    4.000    0.000    0.000    0.000    0.000 
#    0.000    0.000    0.000    0.000    0.000    0.000 
#
# Total GULP energy -83571.988069 kJ/mol
# GULP energy per Si atom -5571.465871 kJ/mol
# Density = 2.427038 g / cm^3
# Si number density = 24.325748 Si / 1000 Ang^3
#
#
#
# Elastic Constant Matrix: (Units=GPa)
#
#
# Indices 1 2 3 4 5 6 
#
# 1 31.9389 26.6251 13.7146 13.4214 9.3653 5.0550
# 2 26.6251 91.4981 25.5980 25.7168 3.1265 13.0004
# 3 13.7146 25.5980 116.3818 28.2820 8.2251 -18.2138
# 4 13.4214 25.7168 28.2820 47.1599 12.0792 3.4556
# 5 9.3653 3.1265 8.2251 12.0792 39.2728 5.1502
# 6 5.0550 13.0004 -18.2138 3.4556 5.1502 26.8539
#
#
#
# Elastic Compliance Matrix: (Units=1/GPa)
#
#
# Indices 1 2 3 4 5 6 
#
# 1 0.045685 -0.011153 -0.001881 -0.003509 -0.008212 -0.002450
# 2 -0.011153 0.017515 -0.002958 -0.005150 0.004597 -0.008605
# 3 -0.001881 -0.002958 0.012851 -0.005975 -0.001690 0.011595
# 4 -0.003509 -0.005150 -0.005975 0.030500 -0.006412 -0.003594
# 5 -0.008212 0.004597 -0.001690 -0.006412 0.030274 -0.006807
# 6 -0.002450 -0.008605 0.011595 -0.003594 -0.006807 0.051498
#
#
# Mechanical properties :
#
#
# Convention : Reuss Voigt Hill
#
# Bulk Modulus (GPa) = 22.69258 41.29935 31.99596
# Shear Modulus (GPa) = 21.27693 34.24942 27.76317
#
# Velocity S-wave (km/s) = 2.96069 3.75634 3.38199
# Velocity P-wave (km/s) = 4.58655 5.98564 5.33218
#
# Compressibility (1/GPa) = 0.04406727
#
# Stress axis : x y z
#
# Youngs Moduli (GPa) = 21.88907 57.09299 77.81587
#
# Poissons Ratio (x) = 0.63674 0.14636
# Poissons Ratio (y) = 0.24412 0.23021
# Poissons Ratio (z) = 0.04117 0.16890
#
# Static dielectric constant tensor:
#      x y z
#    x 2.086640 -0.109140 -0.058400 
#    y -0.109140 2.234010 0.063120 
#    z -0.058400 0.063120 1.915310 
# 
# From -- ./inp_files/494945.got.cif
#   From: 2010.05.17/outbox.cif.g08.bks.cpg/sg2_248_cif.got.tgz:494945.got - 2010.06.03 11:33:40.
