data_PCOD9105002
_publ_section_title
;
Structure prediction by ZEFSAII (Michael W. Deem and Ramdas Pophale) SiO2 
 PCOD9105002
Probable space group: P -1
;
_chemical_formula_sum "Si O2"
_cell_formula_units_Z 14
_cell_length_a 20.587942
_cell_length_b 5.445465
_cell_length_c 6.504723
_cell_angle_alpha 101.315977
_cell_angle_beta 69.165195
_cell_angle_gamma 66.506498
_cell_volume 574.412537
_symmetry_space_group_name_H-M "P -1"
_symmetry_group_IT_number 2
_symmetry_cell_setting 'triclinic'
loop_
_space_group_symop_operation_xyz
x,y,z
-x,-y,-z
loop_
_atom_site_type_symbol
_atom_site_label
_atom_site_fract_x
_atom_site_fract_y
_atom_site_fract_z
Si Si1 0.292407 0.866988 0.273154
Si Si2 0.435954 0.436751 0.287250
Si Si3 0.091018 0.045669 0.222354
Si Si4 0.898156 0.424185 0.553472
Si Si5 0.341887 0.425123 0.762598
Si Si6 0.194606 0.726343 0.676790
Si Si7 0.607503 0.970522 0.004459
O O1 0.372178 0.743434 0.310547
O O2 0.227015 0.869465 0.498724
O O3 0.307080 0.652724 0.028849
O O4 0.303771 0.107095 0.182060
O O5 0.408697 0.436811 0.550011
O O6 0.531289 0.300037 0.136327
O O7 0.416382 0.221467 0.140922
O O8 0.120944 0.253644 0.318028
O O9 0.993792 0.235018 0.363639
O O10 0.114932 0.754026 0.277679
O O11 0.128113 0.964019 0.941896
O O12 0.848171 0.419758 0.416341
O O13 0.268896 0.506115 0.701619
O O14 0.382570 0.121387 0.784403
#
# Coordination Sequence:
#
# PCOD9105002 Si02
#       7
#     2   2   2   2   2   2   2
#     4  10  22  40  57  93 131 168 226 275 340 416
#     4   9  20  38  62  88 120 169 225 283 340 394
#     4  10  23  47  76 105 140 182 233 288 340 408
#     4  10  23  47  75 108 139 179 238 285 337 416
#     4  10  22  40  56  91 131 169 223 276 344 409
#     4  11  23  45  63 103 141 184 220 282 353 414
#     4  10  20  39  63  87 123 171 224 282 334 408
#
# _framework density 24.372730000000001
#
# number of rings (size 3 to 8) (size 9 to 14) (size 15 to 20)
#    0.000    2.000    0.000    2.143    0.000    4.000 
#   33.429    4.286    0.000    0.000    0.000    0.000 
#    0.000    0.000    0.000    0.000    0.000    0.000 
#
# Total GULP energy -78294.441011 kJ/mol
# GULP energy per Si atom -5592.460072 kJ/mol
# Density = 2.431726 g / cm^3
# Si number density = 24.372730 Si / 1000 Ang^3
#
#
#
# Elastic Constant Matrix: (Units=GPa)
#
#
# Indices 1 2 3 4 5 6 
#
# 1 127.5673 28.8402 67.1404 -7.5168 12.5329 25.4309
# 2 28.8402 60.5961 31.6169 -10.9709 3.0099 7.9594
# 3 67.1404 31.6169 188.5725 -27.5768 -13.2176 11.1479
# 4 -7.5168 -10.9709 -27.5768 29.8015 2.8483 -2.6026
# 5 12.5329 3.0099 -13.2176 2.8483 38.9499 -8.0432
# 6 25.4309 7.9594 11.1479 -2.6026 -8.0432 25.1506
#
#
#
# Elastic Compliance Matrix: (Units=1/GPa)
#
#
# Indices 1 2 3 4 5 6 
#
# 1 0.014774 -0.002405 -0.004922 -0.002157 -0.009212 -0.015166
# 2 -0.002405 0.020040 -0.001727 0.005109 -0.002436 -0.003396
# 3 -0.004922 -0.001727 0.008282 0.005665 0.004943 0.004019
# 4 -0.002157 0.005109 0.005665 0.040349 -0.000288 0.002136
# 5 -0.009212 -0.002436 0.004943 -0.000288 0.034422 0.018873
# 6 -0.015166 -0.003396 0.004019 0.002136 0.018873 0.060645
#
#
# Mechanical properties :
#
#
# Convention : Reuss Voigt Hill
#
# Bulk Modulus (GPa) = 40.01490 70.21456 55.11473
# Shear Modulus (GPa) = 24.39627 35.38963 29.89295
#
# Velocity S-wave (km/s) = 3.16724 3.81467 3.50593
# Velocity P-wave (km/s) = 5.46157 6.94791 6.24909
#
# Compressibility (1/GPa) = 0.02499069
#
# Stress axis : x y z
#
# Youngs Moduli (GPa) = 67.68495 49.89987 120.73967
#
# Poissons Ratio (x) = 0.11999 0.59425
# Poissons Ratio (y) = 0.16276 0.20848
# Poissons Ratio (z) = 0.33313 0.08616
#
# Static dielectric constant tensor:
#      x y z
#    x 1.923820 -0.030960 -0.007530 
#    y -0.030960 2.077930 0.035010 
#    z -0.007530 0.035010 1.892360 
# 
# From -- ./inp_files/8068.got.cif
#   From: 2010.05.17/outbox.cif.g08.bks.cpg/sg2_5_cif.got.tgz:8068.got - 2010.06.03 11:33:40.
