data_PCOD9105920
_publ_section_title
;
Structure prediction by ZEFSAII (Michael W. Deem and Ramdas Pophale) SiO2 
 PCOD9105920
Probable space group: P -1
;
_chemical_formula_sum "Si O2"
_cell_formula_units_Z 16
_cell_length_a 9.288384
_cell_length_b 27.282684
_cell_length_c 21.467109
_cell_angle_alpha 161.059234
_cell_angle_beta 27.457267
_cell_angle_gamma 141.501603
_cell_volume 753.525774
_symmetry_space_group_name_H-M "P -1"
_symmetry_group_IT_number 2
_symmetry_cell_setting 'triclinic'
loop_
_space_group_symop_operation_xyz
x,y,z
-x,-y,-z
loop_
_atom_site_type_symbol
_atom_site_label
_atom_site_fract_x
_atom_site_fract_y
_atom_site_fract_z
Si Si1 0.455471 0.542232 0.885370
Si Si2 0.857892 0.866497 0.227936
Si Si3 0.205137 0.319570 0.179864
Si Si4 0.746516 0.191687 0.119259
Si Si5 0.248875 0.964192 0.302370
Si Si6 0.800261 0.837219 0.642611
Si Si7 0.333259 0.240306 0.531656
Si Si8 0.556906 0.618156 0.069752
O O1 0.557437 0.654417 0.933738
O O2 0.524147 0.363286 0.616520
O O3 0.643322 0.531694 0.865842
O O4 0.059139 0.637145 0.165760
O O5 0.790120 0.720715 0.113916
O O6 0.036185 0.947506 0.304339
O O7 0.500000 0.000000 0.500000
O O8 0.109709 0.791357 0.983017
O O9 0.000000 0.500000 0.500000
O O10 0.959191 0.244562 0.151418
O O11 0.436010 0.200002 0.999620
O O12 0.348378 0.265618 0.378352
O O13 0.798865 0.001176 0.872232
O O14 0.379029 0.107899 0.408718
O O15 0.000000 0.000000 0.500000
O O16 0.599818 0.848847 0.668356
O O17 0.181676 0.753308 0.373935
O O18 0.500000 0.500000 0.000000
#
# Coordination Sequence:
#
# PCOD9105920 Si02
#       8
#     2   2   2   2   2   2   2   2
#     4  10  21  40  63  93 136 178 216 282 350 397
#     4  12  22  44  73 102 132 176 236 289 336 408
#     4  12  26  45  65 100 143 187 224 283 354 413
#     4  11  22  43  71  91 132 183 225 275 347 406
#     4  12  25  41  71 106 132 180 243 282 333 419
#     4  10  22  41  68  97 128 180 230 281 343 400
#     4  10  20  39  66  94 128 171 230 282 337 401
#     4  11  24  39  64 101 133 173 230 284 339 406
#
# _framework density 21.233514
#
# number of rings (size 3 to 8) (size 9 to 14) (size 15 to 20)
#    0.000    1.000    5.000    2.250    1.750    2.000 
#    2.250    3.750    0.000    0.000    0.000    0.000 
#    0.000    0.000    0.000    0.000    0.000    0.000 
#
# Total GULP energy -89266.664960 kJ/mol
# GULP energy per Si atom -5579.166560 kJ/mol
# Density = 2.118519 g / cm^3
# Si number density = 21.233514 Si / 1000 Ang^3
#
#
#
# Elastic Constant Matrix: (Units=GPa)
#
#
# Indices 1 2 3 4 5 6 
#
# 1 77.4236 17.5381 31.1403 15.5855 15.5067 7.7316
# 2 17.5381 136.8352 11.9827 15.7062 6.3266 5.4252
# 3 31.1403 11.9827 57.4727 16.2310 15.2244 9.5391
# 4 15.5855 15.7062 16.2310 42.8102 -6.0543 4.4718
# 5 15.5067 6.3266 15.2244 -6.0543 23.8269 6.7128
# 6 7.7316 5.4252 9.5391 4.4718 6.7128 38.0758
#
#
#
# Elastic Compliance Matrix: (Units=1/GPa)
#
#
# Indices 1 2 3 4 5 6 
#
# 1 0.018435 -0.000777 -0.005713 -0.005637 -0.009617 0.000156
# 2 -0.000777 0.007854 0.000356 -0.003064 -0.002516 -0.000247
# 3 -0.005713 0.000356 0.028217 -0.010929 -0.016695 -0.001733
# 4 -0.005637 -0.003064 -0.010929 0.034011 0.021062 -0.003389
# 5 -0.009617 -0.002516 -0.016695 0.021062 0.067117 -0.007812
# 6 0.000156 -0.000247 -0.001733 -0.003389 -0.007812 0.028476
#
#
# Mechanical properties :
#
#
# Convention : Reuss Voigt Hill
#
# Bulk Modulus (GPa) = 23.67474 43.67262 33.67368
# Shear Modulus (GPa) = 23.75765 35.01394 29.38580
#
# Velocity S-wave (km/s) = 3.34859 4.06519 3.72416
# Velocity P-wave (km/s) = 5.11123 6.53045 5.86393
#
# Compressibility (1/GPa) = 0.04223911
#
# Stress axis : x y z
#
# Youngs Moduli (GPa) = 54.24438 127.31937 35.43907
#
# Poissons Ratio (x) = 0.09893 0.20247
# Poissons Ratio (y) = 0.04215 -0.01263
# Poissons Ratio (z) = 0.30990 -0.04537
#
# Static dielectric constant tensor:
#      x y z
#    x 1.809300 0.002760 -0.031380 
#    y 0.002760 1.798760 -0.058810 
#    z -0.031380 -0.058810 1.946680 
# 
# From -- ./inp_files/305639.got.cif
#   From: 2010.05.17/outbox.cif.g08.bks.cpg/sg2_153_cif.got.tgz:305639.got - 2010.06.03 11:33:40.
