data_PCOD9105686
_publ_section_title
;
Structure prediction by ZEFSAII (Michael W. Deem and Ramdas Pophale) SiO2 
 PCOD9105686
Probable space group: P -1
;
_chemical_formula_sum "Si O2"
_cell_formula_units_Z 14
_cell_length_a 5.245055
_cell_length_b 15.545651
_cell_length_c 9.047138
_cell_angle_alpha 59.789803
_cell_angle_beta 112.843707
_cell_angle_gamma 106.394131
_cell_volume 583.986850
_symmetry_space_group_name_H-M "P -1"
_symmetry_group_IT_number 2
_symmetry_cell_setting 'triclinic'
loop_
_space_group_symop_operation_xyz
x,y,z
-x,-y,-z
loop_
_atom_site_type_symbol
_atom_site_label
_atom_site_fract_x
_atom_site_fract_y
_atom_site_fract_z
Si Si1 0.910761 0.882867 0.081035
Si Si2 0.932845 0.759365 0.661301
Si Si3 0.797363 0.563950 0.992440
Si Si4 0.280852 0.865057 0.443949
Si Si5 0.015813 0.392367 0.669556
Si Si6 0.425027 0.263959 0.683765
Si Si7 0.847684 0.918509 0.703351
O O1 0.634532 0.838135 0.145526
O O2 0.171980 0.849018 0.264756
O O3 0.844808 0.864432 0.909088
O O4 0.000000 0.000000 0.000000
O O5 0.827299 0.667312 0.818793
O O6 0.690408 0.764726 0.480619
O O7 0.043111 0.854003 0.707818
O O8 0.186847 0.762510 0.600279
O O9 0.500000 0.500000 0.000000
O O10 0.883766 0.589819 0.156281
O O11 0.000000 0.500000 0.000000
O O12 0.578893 0.901052 0.550032
O O13 0.109245 0.962118 0.363757
O O14 0.224259 0.333381 0.669174
O O15 0.000000 0.500000 0.500000
O O16 0.715660 0.330096 0.675830
#
# Coordination Sequence:
#
# PCOD9105686 Si02
#       7
#     2   2   2   2   2   2   2
#     4   9  20  41  63  97 138 177 228 279 335 409
#     4  11  24  39  66  90 134 171 225 280 338 404
#     4  12  27  45  70 101 133 175 226 284 343 410
#     4   9  21  38  63  95 132 176 224 280 340 407
#     4  12  25  46  69  97 134 173 224 281 347 404
#     4  11  25  42  69  99 132 180 222 279 341 407
#     4  10  20  39  65  94 134 175 228 275 345 397
#
# _framework density 23.973140999999998
#
# number of rings (size 3 to 8) (size 9 to 14) (size 15 to 20)
#    0.000    1.429    0.000    4.286    8.000    0.000 
#    0.000    0.714    0.000    0.000    0.000    0.000 
#    0.000    0.000    0.000    0.000    0.000    0.000 
#
# Total GULP energy -78003.542438 kJ/mol
# GULP energy per Si atom -5571.681603 kJ/mol
# Density = 2.391858 g / cm^3
# Si number density = 23.973141 Si / 1000 Ang^3
#
#
#
# Elastic Constant Matrix: (Units=GPa)
#
#
# Indices 1 2 3 4 5 6 
#
# 1 113.9237 54.1314 38.6091 -0.5487 -20.9790 16.2515
# 2 54.1314 133.7807 60.3748 14.3573 -16.2523 10.9638
# 3 38.6091 60.3748 205.8981 10.7677 -47.1558 0.6899
# 4 -0.5487 14.3573 10.7677 51.0633 8.7153 -13.6550
# 5 -20.9790 -16.2523 -47.1558 8.7153 36.6023 -1.0970
# 6 16.2515 10.9638 0.6899 -13.6550 -1.0970 42.1960
#
#
#
# Elastic Compliance Matrix: (Units=1/GPa)
#
#
# Indices 1 2 3 4 5 6 
#
# 1 0.012131 -0.003939 0.000197 -0.000750 0.005524 -0.003751
# 2 -0.003939 0.010601 -0.002082 -0.003267 0.000478 -0.002248
# 3 0.000197 -0.002082 0.007873 -0.002869 0.010004 -0.000332
# 4 -0.000750 -0.003267 -0.002869 0.025482 -0.011370 0.009135
# 5 0.005524 0.000478 0.010004 -0.011370 0.046148 -0.004895
# 6 -0.003751 -0.002248 -0.000332 0.009135 -0.004895 0.028562
#
#
# Mechanical properties :
#
#
# Convention : Reuss Voigt Hill
#
# Bulk Modulus (GPa) = 52.74926 84.42591 68.58758
# Shear Modulus (GPa) = 33.61015 46.00480 39.80748
#
# Velocity S-wave (km/s) = 3.74838 4.38541 4.07935
# Velocity P-wave (km/s) = 6.38632 7.80613 7.13165
#
# Compressibility (1/GPa) = 0.01895761
#
# Stress axis : x y z
#
# Youngs Moduli (GPa) = 82.43171 94.32957 127.02080
#
# Poissons Ratio (x) = 0.37152 -0.02503
# Poissons Ratio (y) = 0.32466 0.26449
# Poissons Ratio (z) = -0.01625 0.19642
#
# Static dielectric constant tensor:
#      x y z
#    x 2.078940 -0.034740 0.045140 
#    y -0.034740 1.886600 -0.049520 
#    z 0.045140 -0.049520 1.924910 
# 
# From -- ./inp_files/134862.got.cif
#   From: 2010.05.17/outbox.cif.g08.bks.cpg/sg2_68_cif.got.tgz:134862.got - 2010.06.03 11:33:40.
