data_PCOD9105415
_publ_section_title
;
Structure prediction by ZEFSAII (Michael W. Deem and Ramdas Pophale) SiO2 
 PCOD9105415
Probable space group: P -1
;
_chemical_formula_sum "Si O2"
_cell_formula_units_Z 13
_cell_length_a 8.926391
_cell_length_b 15.772475
_cell_length_c 13.155537
_cell_angle_alpha 37.733487
_cell_angle_beta 149.086796
_cell_angle_gamma 148.375061
_cell_volume 486.274251
_symmetry_space_group_name_H-M "P -1"
_symmetry_group_IT_number 2
_symmetry_cell_setting 'triclinic'
loop_
_space_group_symop_operation_xyz
x,y,z
-x,-y,-z
loop_
_atom_site_type_symbol
_atom_site_label
_atom_site_fract_x
_atom_site_fract_y
_atom_site_fract_z
Si Si1 0.442047 0.134755 0.990802
Si Si2 0.976975 0.586678 0.675443
Si Si3 0.721594 0.604731 0.287092
Si Si4 0.500000 0.500000 0.000000
Si Si5 0.689906 0.776563 0.368187
Si Si6 0.812553 0.753335 0.770386
Si Si7 0.374558 0.835986 0.326123
O O1 0.808173 0.176441 0.119215
O O2 0.316211 0.982297 0.136829
O O3 0.434435 0.283411 0.896495
O O4 0.221168 0.101769 0.789743
O O5 0.750052 0.682814 0.913699
O O6 0.916594 0.615153 0.495318
O O7 0.026592 0.269468 0.402823
O O8 0.646484 0.406217 0.687857
O O9 0.440121 0.414584 0.282649
O O10 0.000389 0.671917 0.293151
O O11 0.698704 0.428665 0.120878
O O12 0.548171 0.820717 0.340029
O O13 0.650005 0.861373 0.548506
#
# Coordination Sequence:
#
# PCOD9105415 Si02
#       7
#     2   2   2   1   2   2   2
#     4  11  25  41  63  96 133 166 205 261 321 374
#     4  10  20  39  64  94 122 161 216 266 303 367
#     4  11  23  42  68  93 122 171 217 258 306 379
#     4  12  22  38  64  98 120 158 214 272 306 354
#     4  10  21  39  64  90 127 167 209 254 317 376
#     4  12  24  39  66  92 129 163 217 260 314 366
#     4  12  23  42  65  94 130 169 208 259 320 376
#
# _framework density 26.733886999999999
#
# number of rings (size 3 to 8) (size 9 to 14) (size 15 to 20)
#    0.000    0.923    4.615    3.231    0.000    1.231 
#    0.000    0.000    0.000    1.846    0.000    0.000 
#    0.000    0.000    0.000    0.000    0.000    0.000 
#
# Total GULP energy -72668.331606 kJ/mol
# GULP energy per Si atom -5589.871662 kJ/mol
# Density = 2.667304 g / cm^3
# Si number density = 26.733887 Si / 1000 Ang^3
#
#
#
# Elastic Constant Matrix: (Units=GPa)
#
#
# Indices 1 2 3 4 5 6 
#
# 1 103.5433 14.1635 42.0379 -10.6725 10.4367 11.5271
# 2 14.1635 66.7036 37.3946 -17.0881 1.0643 5.2718
# 3 42.0379 37.3946 185.9703 -26.8441 17.9567 8.2029
# 4 -10.6725 -17.0881 -26.8441 45.2042 13.1196 -4.2967
# 5 10.4367 1.0643 17.9567 13.1196 48.5548 2.4185
# 6 11.5271 5.2718 8.2029 -4.2967 2.4185 30.8418
#
#
#
# Elastic Compliance Matrix: (Units=1/GPa)
#
#
# Indices 1 2 3 4 5 6 
#
# 1 0.011216 -0.000660 -0.001842 0.001573 -0.001980 -0.003215
# 2 -0.000660 0.018037 -0.002613 0.005157 -0.000612 -0.001375
# 3 -0.001842 -0.002613 0.007174 0.003772 -0.003219 0.000005
# 4 0.001573 0.005157 0.003772 0.029829 -0.010029 0.002469
# 5 -0.001980 -0.000612 -0.003219 -0.010029 0.025017 -0.001658
# 6 -0.003215 -0.001375 0.000005 0.002469 -0.001658 0.034333
#
#
# Mechanical properties :
#
#
# Convention : Reuss Voigt Hill
#
# Bulk Modulus (GPa) = 38.17502 60.37880 49.27691
# Shear Modulus (GPa) = 34.58572 42.42823 38.50698
#
# Velocity S-wave (km/s) = 3.60071 3.98811 3.79935
# Velocity P-wave (km/s) = 5.62116 6.62124 6.14159
#
# Compressibility (1/GPa) = 0.02619514
#
# Stress axis : x y z
#
# Youngs Moduli (GPa) = 89.16057 55.44299 139.38533
#
# Poissons Ratio (x) = 0.03658 0.25682
# Poissons Ratio (y) = 0.05883 0.36427
# Poissons Ratio (z) = 0.16428 0.14490
#
# Static dielectric constant tensor:
#      x y z
#    x 2.331110 -0.175840 -0.242970 
#    y -0.175840 2.156690 0.075060 
#    z -0.242970 0.075060 2.250830 
# 
# From -- ./inp_files/233653.got.cif
#   From: 2010.05.17/outbox.cif.g08.bks.cpg/sg2_117_cif.got.tgz:233653.got - 2010.06.03 11:33:40.
