data_PCOD9105779
_publ_section_title
;
Structure prediction by ZEFSAII (Michael W. Deem and Ramdas Pophale) SiO2 
 PCOD9105779
Probable space group: P -1
;
_chemical_formula_sum "Si O2"
_cell_formula_units_Z 14
_cell_length_a 22.278294
_cell_length_b 12.534605
_cell_length_c 15.773888
_cell_angle_alpha 35.757517
_cell_angle_beta 17.346672
_cell_angle_gamma 27.579154
_cell_volume 588.664881
_symmetry_space_group_name_H-M "P -1"
_symmetry_group_IT_number 2
_symmetry_cell_setting 'triclinic'
loop_
_space_group_symop_operation_xyz
x,y,z
-x,-y,-z
loop_
_atom_site_type_symbol
_atom_site_label
_atom_site_fract_x
_atom_site_fract_y
_atom_site_fract_z
Si Si1 0.215713 0.944917 0.485995
Si Si2 0.997727 0.370581 0.723364
Si Si3 0.255079 0.540555 0.162393
Si Si4 0.213101 0.627364 0.450176
Si Si5 0.559255 0.889139 0.585988
Si Si6 0.686477 0.862793 0.925606
Si Si7 0.977605 0.294021 0.160717
O O1 0.172928 0.752972 0.673061
O O2 0.336974 0.959885 0.225870
O O3 0.418911 0.935844 0.279060
O O4 0.927320 0.200598 0.715004
O O5 0.156431 0.411619 0.419788
O O6 0.210768 0.152769 0.639062
O O7 0.807459 0.388374 0.898976
O O8 0.821506 0.605178 0.867960
O O9 0.560553 0.366315 0.883906
O O10 0.325218 0.377179 0.418711
O O11 0.910916 0.815534 0.711971
O O12 0.194410 0.640882 0.566895
O O13 0.500000 0.000000 0.500000
O O14 0.281026 0.054872 0.901897
O O15 0.000000 0.500000 0.000000
#
# Coordination Sequence:
#
# PCOD9105779 Si02
#       7
#     2   2   2   2   2   2   2
#     4  10  21  39  64  96 138 167 217 270 336 391
#     4   9  21  38  67  94 137 168 217 267 345 393
#     4  10  20  39  66 102 132 170 208 281 338 394
#     4  11  23  40  68  94 131 167 225 274 332 388
#     4  11  23  44  65  91 132 177 222 272 317 393
#     4   9  21  39  63  99 132 169 209 279 335 394
#     4  12  25  41  66  93 129 181 224 267 321 397
#
# _framework density 23.782630000000001
#
# number of rings (size 3 to 8) (size 9 to 14) (size 15 to 20)
#    0.000    1.714    2.857    0.857    4.000    3.429 
#    0.000    1.429    6.286    0.000    0.000    0.000 
#    0.000    0.000    0.000    0.000    0.000    0.000 
#
# Total GULP energy -77942.318928 kJ/mol
# GULP energy per Si atom -5567.308495 kJ/mol
# Density = 2.372850 g / cm^3
# Si number density = 23.782630 Si / 1000 Ang^3
#
#
#
# Elastic Constant Matrix: (Units=GPa)
#
#
# Indices 1 2 3 4 5 6 
#
# 1 59.6070 21.2851 16.5064 3.8106 -16.5625 -4.1098
# 2 21.2851 84.5064 43.7513 13.7468 -12.3327 11.4646
# 3 16.5064 43.7513 122.9082 18.3851 -24.7054 8.7145
# 4 3.8106 13.7468 18.3851 30.4296 2.3975 1.5481
# 5 -16.5625 -12.3327 -24.7054 2.3975 34.7732 7.0404
# 6 -4.1098 11.4646 8.7145 1.5481 7.0404 28.9233
#
#
#
# Elastic Compliance Matrix: (Units=1/GPa)
#
#
# Indices 1 2 3 4 5 6 
#
# 1 0.020791 -0.004356 0.000502 -0.001726 0.008307 0.002600
# 2 -0.004356 0.016956 -0.003642 -0.004812 0.003045 -0.006726
# 3 0.000502 -0.003642 0.012439 -0.006439 0.009058 -0.004093
# 4 -0.001726 -0.004812 -0.006439 0.039776 -0.010669 0.004070
# 5 0.008307 0.003045 0.009058 -0.010669 0.043554 -0.012786
# 6 0.002600 -0.006726 -0.004093 0.004070 -0.012786 0.041738
#
#
# Mechanical properties :
#
#
# Convention : Reuss Voigt Hill
#
# Bulk Modulus (GPa) = 28.41455 47.78966 38.10211
# Shear Modulus (GPa) = 24.75526 31.19047 27.97287
#
# Velocity S-wave (km/s) = 3.22979 3.62537 3.43328
# Velocity P-wave (km/s) = 5.08746 6.13697 5.63669
#
# Compressibility (1/GPa) = 0.03519323
#
# Stress axis : x y z
#
# Youngs Moduli (GPa) = 48.09797 58.97688 80.39121
#
# Poissons Ratio (x) = 0.25693 -0.04036
# Poissons Ratio (y) = 0.20953 0.29279
# Poissons Ratio (z) = -0.02415 0.21479
#
# Static dielectric constant tensor:
#      x y z
#    x 1.883370 -0.200420 0.028590 
#    y -0.200420 1.833810 0.153160 
#    z 0.028590 0.153160 1.855080 
# 
# From -- ./inp_files/243574.got.cif
#   From: 2010.05.17/outbox.cif.g08.bks.cpg/sg2_122_cif.got.tgz:243574.got - 2010.06.03 11:33:40.
