data_PCOD9105630
_publ_section_title
;
Structure prediction by ZEFSAII (Michael W. Deem and Ramdas Pophale) SiO2 
 PCOD9105630
Probable space group: P -1
;
_chemical_formula_sum "Si O2"
_cell_formula_units_Z 16
_cell_length_a 12.141791
_cell_length_b 9.743911
_cell_length_c 20.737182
_cell_angle_alpha 99.191303
_cell_angle_beta 40.989800
_cell_angle_gamma 133.657516
_cell_volume 754.648539
_symmetry_space_group_name_H-M "P -1"
_symmetry_group_IT_number 2
_symmetry_cell_setting 'triclinic'
loop_
_space_group_symop_operation_xyz
x,y,z
-x,-y,-z
loop_
_atom_site_type_symbol
_atom_site_label
_atom_site_fract_x
_atom_site_fract_y
_atom_site_fract_z
Si Si1 0.235424 0.880905 0.557548
Si Si2 0.553836 0.388844 0.500042
Si Si3 0.450816 0.338415 0.962190
Si Si4 0.636442 0.743924 0.278947
Si Si5 0.170007 0.768659 0.929261
Si Si6 0.666561 0.654198 0.125755
Si Si7 0.383693 0.852773 0.363978
Si Si8 0.795088 0.338281 0.772877
O O1 0.368870 0.962123 0.432019
O O2 0.933677 0.539907 0.668939
O O3 0.500000 0.000000 0.500000
O O4 0.259119 0.059237 0.583208
O O5 0.500000 0.500000 0.500000
O O6 0.542440 0.404489 0.583656
O O7 0.920868 0.575496 0.334583
O O8 0.516261 0.448452 0.869362
O O9 0.712855 0.400703 0.865228
O O10 0.500000 0.500000 0.000000
O O11 0.044143 0.994302 0.121109
O O12 0.480226 0.558190 0.268858
O O13 0.629364 0.904028 0.282170
O O14 0.443172 0.965382 0.763887
O O15 0.416803 0.002680 0.895551
O O16 0.000000 0.500000 0.000000
O O17 0.845220 0.635169 0.048890
O O18 0.000000 0.000000 0.000000
O O19 0.000000 0.500000 0.500000
#
# Coordination Sequence:
#
# PCOD9105630 Si02
#       8
#     2   2   2   2   2   2   2   2
#     4  10  21  39  70  96 128 176 238 275 329 420
#     4  11  25  44  66 102 146 179 227 304 359 398
#     4  11  22  37  70 104 131 168 237 283 335 409
#     4  11  20  41  66  94 133 180 230 284 333 414
#     4  12  24  42  65 104 145 176 223 301 357 401
#     4  10  20  39  65  92 132 182 228 269 339 415
#     4  12  21  39  73 100 126 186 237 281 336 421
#     4  11  21  45  68 100 133 186 240 279 335 441
#
# _framework density 21.201920999999999
#
# number of rings (size 3 to 8) (size 9 to 14) (size 15 to 20)
#    0.000    1.000    8.750    0.750    1.750    1.000 
#    4.500    0.625    0.000    3.000    0.000    0.000 
#    0.000    0.000    0.000    0.000    0.000    0.000 
#
# Total GULP energy -89160.454551 kJ/mol
# GULP energy per Si atom -5572.528409 kJ/mol
# Density = 2.115366 g / cm^3
# Si number density = 21.201921 Si / 1000 Ang^3
#
#
#
# Elastic Constant Matrix: (Units=GPa)
#
#
# Indices 1 2 3 4 5 6 
#
# 1 94.2603 63.1296 40.5727 13.7567 -4.3482 -23.3844
# 2 63.1296 132.5623 44.8179 15.2072 11.3045 -12.5534
# 3 40.5727 44.8179 81.6151 15.5930 -11.4269 -7.1063
# 4 13.7567 15.2072 15.5930 41.3944 0.7181 6.6482
# 5 -4.3482 11.3045 -11.4269 0.7181 39.6182 10.2476
# 6 -23.3844 -12.5534 -7.1063 6.6482 10.2476 48.1193
#
#
#
# Elastic Compliance Matrix: (Units=1/GPa)
#
#
# Indices 1 2 3 4 5 6 
#
# 1 0.019408 -0.006693 -0.004549 -0.003466 0.000902 0.007300
# 2 -0.006693 0.012873 -0.004314 -0.000914 -0.005853 0.000842
# 3 -0.004549 -0.004314 0.018366 -0.003695 0.006482 -0.001493
# 4 -0.003466 -0.000914 -0.003695 0.028055 -0.000056 -0.006332
# 5 0.000902 -0.005853 0.006482 -0.000056 0.030598 -0.006640
# 6 0.007300 0.000842 -0.001493 -0.006332 -0.006640 0.026617
#
#
# Mechanical properties :
#
#
# Convention : Reuss Voigt Hill
#
# Bulk Modulus (GPa) = 51.18533 67.27533 59.23033
# Shear Modulus (GPa) = 28.81205 36.48755 32.64980
#
# Velocity S-wave (km/s) = 3.69037 4.15294 3.92847
# Velocity P-wave (km/s) = 6.50790 7.40240 6.96951
#
# Compressibility (1/GPa) = 0.01953685
#
# Stress axis : x y z
#
# Youngs Moduli (GPa) = 51.52618 77.68340 54.44849
#
# Poissons Ratio (x) = 0.51990 0.24767
# Poissons Ratio (y) = 0.34484 0.23486
# Poissons Ratio (z) = 0.23438 0.33509
#
# Static dielectric constant tensor:
#      x y z
#    x 1.778090 0.063940 -0.051540 
#    y 0.063940 1.782620 0.001400 
#    z -0.051540 0.001400 1.973850 
# 
# From -- ./inp_files/594129.got.cif
#   From: 2010.05.17/outbox.cif.g08.bks.cpg/sg2_298_cif.got.tgz:594129.got - 2010.06.03 11:33:40.
