data_PCOD9105074
_publ_section_title
;
Structure prediction by ZEFSAII (Michael W. Deem and Ramdas Pophale) SiO2 
 PCOD9105074
Probable space group: P -1
;
_chemical_formula_sum "Si O2"
_cell_formula_units_Z 10
_cell_length_a 9.925299
_cell_length_b 11.141755
_cell_length_c 7.087034
_cell_angle_alpha 120.154859
_cell_angle_beta 134.954615
_cell_angle_gamma 53.825595
_cell_volume 442.677643
_symmetry_space_group_name_H-M "P -1"
_symmetry_group_IT_number 2
_symmetry_cell_setting 'triclinic'
loop_
_space_group_symop_operation_xyz
x,y,z
-x,-y,-z
loop_
_atom_site_type_symbol
_atom_site_label
_atom_site_fract_x
_atom_site_fract_y
_atom_site_fract_z
Si Si1 0.542609 0.916333 0.276833
Si Si2 0.761585 0.287213 0.672593
Si Si3 0.526638 0.640106 0.233173
Si Si4 0.187626 0.110406 0.803219
Si Si5 0.694121 0.607605 0.772635
O O1 0.582417 0.745059 0.227627
O O2 0.730257 0.934611 0.362738
O O3 0.500000 0.000000 0.500000
O O4 0.343661 0.991696 0.006650
O O5 0.685930 0.264871 0.788348
O O6 0.797709 0.443825 0.836234
O O7 0.551844 0.329709 0.377327
O O8 0.951804 0.156521 0.664325
O O9 0.691402 0.590631 0.528675
O O10 0.500000 0.500000 0.000000
O O11 0.226839 0.264650 0.994329
#
# Coordination Sequence:
#
# PCOD9105074 Si02
#       5
#     2   2   2   2   2
#     4  11  23  42  61  91 127 161 204 257 305 361
#     4   9  20  38  62  92 120 161 206 247 310 360
#     4  10  20  39  63  90 126 158 202 257 301 358
#     4  11  22  41  65  86 125 167 201 251 308 365
#     4   9  19  39  64  87 128 153 203 255 305 352
#
# _framework density 22.589798999999999
#
# number of rings (size 3 to 8) (size 9 to 14) (size 15 to 20)
#    1.200    0.800    2.000    1.800    0.000    0.800 
#    3.600   11.000    0.000    0.000    0.000    0.000 
#    0.000    0.000    0.000    0.000    0.000    0.000 
#
# Total GULP energy -55849.711915 kJ/mol
# GULP energy per Si atom -5584.971191 kJ/mol
# Density = 2.253838 g / cm^3
# Si number density = 22.589799 Si / 1000 Ang^3
#
#
#
# Elastic Constant Matrix: (Units=GPa)
#
#
# Indices 1 2 3 4 5 6 
#
# 1 129.0102 41.0701 32.3751 -15.5138 -25.3266 -17.9469
# 2 41.0701 58.2968 6.9935 4.5178 -1.1357 1.0376
# 3 32.3751 6.9935 58.8621 20.9002 -28.0628 -2.1316
# 4 -15.5138 4.5178 20.9002 34.9231 0.0902 -2.1895
# 5 -25.3266 -1.1357 -28.0628 0.0902 34.5827 0.0754
# 6 -17.9469 1.0376 -2.1316 -2.1895 0.0754 54.4227
#
#
#
# Elastic Compliance Matrix: (Units=1/GPa)
#
#
# Indices 1 2 3 4 5 6 
#
# 1 0.019605 -0.013618 -0.015439 0.020142 0.001314 0.006929
# 2 -0.013618 0.026955 0.008210 -0.014775 -0.002376 -0.005274
# 3 -0.015439 0.008210 0.055103 -0.041286 0.033795 -0.004798
# 4 0.020142 -0.014775 -0.041286 0.064749 -0.019423 0.007939
# 5 0.001314 -0.002376 0.033795 -0.019423 0.057273 0.000942
# 6 0.006929 -0.005274 -0.004798 0.007939 0.000942 0.020890
#
#
# Mechanical properties :
#
#
# Convention : Reuss Voigt Hill
#
# Bulk Modulus (GPa) = 16.67548 45.22739 30.95144
# Shear Modulus (GPa) = 16.32591 35.83439 26.08015
#
# Velocity S-wave (km/s) = 2.69125 3.98717 3.40149
# Velocity P-wave (km/s) = 4.12977 6.42350 5.39983
#
# Compressibility (1/GPa) = 0.05996827
#
# Stress axis : x y z
#
# Youngs Moduli (GPa) = 51.00683 37.09828 18.14777
#
# Poissons Ratio (x) = 0.50522 0.28019
# Poissons Ratio (y) = 0.69463 -0.14899
# Poissons Ratio (z) = 0.78751 -0.30458
#
# Static dielectric constant tensor:
#      x y z
#    x 1.890190 -0.015660 0.019800 
#    y -0.015660 1.848600 0.055540 
#    z 0.019800 0.055540 1.846680 
# 
# From -- ./inp_files/20602.got.cif
#   From: 2010.05.17/outbox.cif.g08.bks.cpg/sg2_11_cif.got.tgz:20602.got - 2010.06.03 11:33:40.
