data_PCOD9105718
_publ_section_title
;
Structure prediction by ZEFSAII (Michael W. Deem and Ramdas Pophale) SiO2 
 PCOD9105718
Probable space group: P -1
;
_chemical_formula_sum "Si O2"
_cell_formula_units_Z 16
_cell_length_a 14.643847
_cell_length_b 7.820141
_cell_length_c 11.014308
_cell_angle_alpha 53.410709
_cell_angle_beta 87.190059
_cell_angle_gamma 52.633303
_cell_volume 701.615035
_symmetry_space_group_name_H-M "P -1"
_symmetry_group_IT_number 2
_symmetry_cell_setting 'triclinic'
loop_
_space_group_symop_operation_xyz
x,y,z
-x,-y,-z
loop_
_atom_site_type_symbol
_atom_site_label
_atom_site_fract_x
_atom_site_fract_y
_atom_site_fract_z
Si Si1 0.591645 0.044260 0.946826
Si Si2 0.190821 0.320415 0.525760
Si Si3 0.787963 0.343502 0.984399
Si Si4 0.110723 0.403416 0.217862
Si Si5 0.607022 0.394853 0.138061
Si Si6 0.363242 0.356215 0.381027
Si Si7 0.141693 0.269870 0.805201
Si Si8 0.356304 0.796820 0.334273
O O1 0.484167 0.408304 0.825387
O O2 0.633894 0.999285 0.825595
O O3 0.500000 0.000000 0.000000
O O4 0.718832 0.870033 0.097110
O O5 0.123191 0.428665 0.352119
O O6 0.286051 0.361567 0.489892
O O7 0.110572 0.439063 0.606743
O O8 0.288959 0.957853 0.686414
O O9 0.886325 0.382038 0.952903
O O10 0.699738 0.547188 0.788087
O O11 0.693411 0.448217 0.060367
O O12 0.846016 0.007614 0.098475
O O13 0.970618 0.519211 0.174814
O O14 0.233533 0.046035 0.325084
O O15 0.500000 0.500000 0.000000
O O16 0.338291 0.639025 0.305727
O O17 0.500000 0.000000 0.500000
O O18 0.500000 0.500000 0.500000
#
# Coordination Sequence:
#
# PCOD9105718 Si02
#       8
#     2   2   2   2   2   2   2   2
#     4  12  25  40  64  96 130 169 215 269 337 387
#     4  10  22  39  67  94 123 171 222 272 321 386
#     4  10  20  39  65  96 119 170 219 270 317 388
#     4  11  24  42  66  95 133 174 218 272 336 388
#     4  11  18  37  65  93 127 159 219 276 322 376
#     4  11  21  37  64  96 126 170 218 264 324 390
#     4  11  23  43  67  93 132 174 227 269 322 403
#     4  12  25  42  63  95 137 167 215 278 333 388
#
# _framework density 22.804527
#
# number of rings (size 3 to 8) (size 9 to 14) (size 15 to 20)
#    0.000    1.000    3.750    5.250    1.750    0.500 
#    0.000    0.625    2.750    0.000    0.000    0.000 
#    0.000    0.000    0.000    0.000    0.000    0.000 
#
# Total GULP energy -89185.916074 kJ/mol
# GULP energy per Si atom -5574.119755 kJ/mol
# Density = 2.275262 g / cm^3
# Si number density = 22.804527 Si / 1000 Ang^3
#
#
#
# Elastic Constant Matrix: (Units=GPa)
#
#
# Indices 1 2 3 4 5 6 
#
# 1 115.4048 48.3313 30.6392 2.6800 -31.3691 -31.6139
# 2 48.3313 107.5184 12.5351 1.1439 -8.6695 -36.5654
# 3 30.6392 12.5351 77.9248 7.7406 -28.3384 -14.0740
# 4 2.6800 1.1439 7.7406 32.2849 -8.1159 -8.2852
# 5 -31.3691 -8.6695 -28.3384 -8.1159 41.8740 6.8483
# 6 -31.6139 -36.5654 -14.0740 -8.2852 6.8483 38.7501
#
#
#
# Elastic Compliance Matrix: (Units=1/GPa)
#
#
# Indices 1 2 3 4 5 6 
#
# 1 0.014810 -0.003169 -0.000878 0.003433 0.009222 0.007878
# 2 -0.003169 0.014735 0.000694 0.002618 -0.000340 0.012191
# 3 -0.000878 0.000694 0.017810 -0.000386 0.010740 0.004426
# 4 0.003433 0.002618 -0.000386 0.035585 0.007894 0.011344
# 5 0.009222 -0.000340 0.010740 0.007894 0.038539 0.005980
# 6 0.007878 0.012191 0.004426 0.011344 0.005980 0.046713
#
#
# Mechanical properties :
#
#
# Convention : Reuss Voigt Hill
#
# Bulk Modulus (GPa) = 24.60104 53.76214 39.18159
# Shear Modulus (GPa) = 26.53241 36.53796 31.53518
#
# Velocity S-wave (km/s) = 3.41467 4.00712 3.72270
# Velocity P-wave (km/s) = 5.13399 6.71087 5.97468
#
# Compressibility (1/GPa) = 0.04064868
#
# Stress axis : x y z
#
# Youngs Moduli (GPa) = 67.52015 67.86621 56.14786
#
# Poissons Ratio (x) = 0.21506 0.04931
# Poissons Ratio (y) = 0.21396 -0.03895
# Poissons Ratio (z) = 0.05930 -0.04708
#
# Static dielectric constant tensor:
#      x y z
#    x 2.049470 -0.000180 -0.018280 
#    y -0.000180 1.836900 -0.019690 
#    z -0.018280 -0.019690 1.835630 
# 
# From -- ./inp_files/446793.got.cif
#   From: 2010.05.17/outbox.cif.g08.bks.cpg/sg2_224_cif.got.tgz:446793.got - 2010.06.03 11:33:40.
