data_PCOD9105733
_publ_section_title
;
Structure prediction by ZEFSAII (Michael W. Deem and Ramdas Pophale) SiO2 
 PCOD9105733
Probable space group: P -1
;
_chemical_formula_sum "Si O2"
_cell_formula_units_Z 12
_cell_length_a 16.680739
_cell_length_b 8.846921
_cell_length_c 5.200832
_cell_angle_alpha 116.093618
_cell_angle_beta 107.759233
_cell_angle_gamma 42.356623
_cell_volume 464.141508
_symmetry_space_group_name_H-M "P -1"
_symmetry_group_IT_number 2
_symmetry_cell_setting 'triclinic'
loop_
_space_group_symop_operation_xyz
x,y,z
-x,-y,-z
loop_
_atom_site_type_symbol
_atom_site_label
_atom_site_fract_x
_atom_site_fract_y
_atom_site_fract_z
Si Si1 0.188309 0.392907 0.011259
Si Si2 0.202218 0.981518 0.587354
Si Si3 0.947827 0.898296 0.969458
Si Si4 0.600621 0.743475 0.146832
Si Si5 0.628724 0.352673 0.131949
Si Si6 0.654049 0.952792 0.729742
O O1 0.208493 0.174622 0.764488
O O2 0.290863 0.382922 0.037141
O O3 0.060715 0.628732 0.968390
O O4 0.221041 0.315297 0.283212
O O5 0.124897 0.053655 0.317242
O O6 0.335335 0.723071 0.589664
O O7 0.134131 0.989574 0.771168
O O8 0.000000 0.000000 0.000000
O O9 0.645958 0.521851 0.196770
O O10 0.601765 0.923692 0.421752
O O11 0.460148 0.904811 0.076499
O O12 0.500000 0.500000 0.000000
O O13 0.683785 0.106493 0.867170
#
# Coordination Sequence:
#
# PCOD9105733 Si02
#       6
#     2   2   2   2   2   2
#     4  11  24  39  67  89 134 175 226 276 341 400
#     4  11  26  45  68 100 136 176 227 283 338 405
#     4  12  27  45  69  99 134 180 230 281 338 405
#     4  10  20  39  65  96 132 175 225 274 343 401
#     4   9  20  42  67  98 135 174 222 279 339 404
#     4   9  21  38  63  96 134 171 226 279 336 402
#
# _framework density 25.854179999999999
#
# number of rings (size 3 to 8) (size 9 to 14) (size 15 to 20)
#    0.000    1.667    0.000    3.000    9.333    0.000 
#    0.000    0.833    0.000    0.000    0.000    0.000 
#    0.000    0.000    0.000    0.000    0.000    0.000 
#
# Total GULP energy -66849.022073 kJ/mol
# GULP energy per Si atom -5570.751839 kJ/mol
# Density = 2.579534 g / cm^3
# Si number density = 25.854180 Si / 1000 Ang^3
#
#
#
# Elastic Constant Matrix: (Units=GPa)
#
#
# Indices 1 2 3 4 5 6 
#
# 1 127.6903 31.0910 36.5887 -10.4470 16.6856 2.4258
# 2 31.0910 172.4396 42.3290 -58.5140 4.6011 -5.5979
# 3 36.5887 42.3290 73.3092 -25.2013 17.2531 -2.9968
# 4 -10.4470 -58.5140 -25.2013 40.5078 0.5865 11.4673
# 5 16.6856 4.6011 17.2531 0.5865 36.8072 -1.1921
# 6 2.4258 -5.5979 -2.9968 11.4673 -1.1921 34.0120
#
#
#
# Elastic Compliance Matrix: (Units=1/GPa)
#
#
# Indices 1 2 3 4 5 6 
#
# 1 0.009472 -0.001214 -0.004084 -0.001601 -0.002227 -0.000774
# 2 -0.001214 0.012204 0.000132 0.018614 -0.001470 -0.004220
# 3 -0.004084 0.000132 0.022414 0.013988 -0.008983 -0.002743
# 4 -0.001601 0.018614 0.013988 0.065064 -0.009773 -0.017869
# 5 -0.002227 -0.001470 -0.008983 -0.009773 0.032844 0.003572
# 6 -0.000774 -0.004220 -0.002743 -0.017869 0.003572 0.034670
#
#
# Mechanical properties :
#
#
# Convention : Reuss Voigt Hill
#
# Bulk Modulus (GPa) = 29.62373 65.93960 47.78166
# Shear Modulus (GPa) = 25.22015 39.82744 32.52380
#
# Velocity S-wave (km/s) = 3.12665 3.92913 3.55064
# Velocity P-wave (km/s) = 4.95151 6.79293 5.94396
#
# Compressibility (1/GPa) = 0.03375673
#
# Stress axis : x y z
#
# Youngs Moduli (GPa) = 105.57265 81.93881 44.61523
#
# Poissons Ratio (x) = 0.09948 0.18222
# Poissons Ratio (y) = 0.12817 -0.00587
# Poissons Ratio (z) = 0.43118 -0.01078
#
# Static dielectric constant tensor:
#      x y z
#    x 2.190470 -0.030330 -0.162190 
#    y -0.030330 2.223940 -0.062220 
#    z -0.162190 -0.062220 2.172240 
# 
# From -- ./inp_files/24385.got.cif
#   From: 2010.05.17/outbox.cif.g08.bks.cpg/sg2_13_cif.got.tgz:24385.got - 2010.06.03 11:33:40.
