data_PCOD9105887
_publ_section_title
;
Structure prediction by ZEFSAII (Michael W. Deem and Ramdas Pophale) SiO2 
 PCOD9105887
Probable space group: P -1
;
_chemical_formula_sum "Si O2"
_cell_formula_units_Z 16
_cell_length_a 14.203962
_cell_length_b 8.858938
_cell_length_c 10.609816
_cell_angle_alpha 64.198335
_cell_angle_beta 62.152503
_cell_angle_gamma 39.688619
_cell_volume 747.028760
_symmetry_space_group_name_H-M "P -1"
_symmetry_group_IT_number 2
_symmetry_cell_setting 'triclinic'
loop_
_space_group_symop_operation_xyz
x,y,z
-x,-y,-z
loop_
_atom_site_type_symbol
_atom_site_label
_atom_site_fract_x
_atom_site_fract_y
_atom_site_fract_z
Si Si1 0.727262 0.398142 0.289121
Si Si2 0.405709 0.855554 0.980593
Si Si3 0.484727 0.929042 0.259859
Si Si4 0.942803 0.417929 0.476423
Si Si5 0.572740 0.358560 0.194260
Si Si6 0.621515 0.656735 0.509728
Si Si7 0.789237 0.922382 0.761383
Si Si8 0.960266 0.034971 0.660214
O O1 0.635494 0.666520 0.208351
O O2 0.673153 0.308994 0.266609
O O3 0.673182 0.453884 0.449195
O O4 0.907504 0.200167 0.257576
O O5 0.496245 0.610793 0.090384
O O6 0.274801 0.081779 0.067610
O O7 0.345633 0.830288 0.902185
O O8 0.515867 0.883761 0.860728
O O9 0.508003 0.893247 0.408625
O O10 0.341748 0.978038 0.291557
O O11 0.769839 0.598553 0.471691
O O12 0.953877 0.236977 0.620559
O O13 0.000000 0.500000 0.500000
O O14 0.054274 0.293805 0.329517
O O15 0.454808 0.356054 0.324775
O O16 0.811979 0.088819 0.732280
O O17 0.000000 0.000000 0.500000
#
# Coordination Sequence:
#
# PCOD9105887 Si02
#       8
#     2   2   2   2   2   2   2   2
#     4  10  21  40  66  99 121 167 219 274 318 376
#     4  11  24  42  60  99 136 177 209 269 327 398
#     4  10  23  39  69  97 129 168 225 268 330 374
#     4  11  25  40  63  99 133 168 215 271 329 385
#     4  11  24  38  68  96 135 169 224 264 325 387
#     4  10  22  42  67  97 128 162 221 280 315 374
#     4  11  21  42  67  91 127 184 207 261 333 393
#     4  10  20  39  66  92 134 167 215 262 333 391
#
# _framework density 21.418185000000001
#
# number of rings (size 3 to 8) (size 9 to 14) (size 15 to 20)
#    0.750    0.750    3.750    1.500    7.000    1.500 
#    0.000    3.125    0.000    0.000    0.000    0.000 
#    0.000    0.000    0.000    0.000    0.000    0.000 
#
# Total GULP energy -89110.593989 kJ/mol
# GULP energy per Si atom -5569.412124 kJ/mol
# Density = 2.136944 g / cm^3
# Si number density = 21.418185 Si / 1000 Ang^3
#
#
#
# Elastic Constant Matrix: (Units=GPa)
#
#
# Indices 1 2 3 4 5 6 
#
# 1 188.6086 50.1307 52.6803 0.9852 -4.0517 -1.4868
# 2 50.1307 58.4989 35.5228 0.7253 -9.7425 -7.6891
# 3 52.6803 35.5228 88.3674 -1.6653 -4.8512 -7.7206
# 4 0.9852 0.7253 -1.6653 22.0868 18.8037 0.3809
# 5 -4.0517 -9.7425 -4.8512 18.8037 33.9617 6.4175
# 6 -1.4868 -7.6891 -7.7206 0.3809 6.4175 30.4166
#
#
#
# Elastic Compliance Matrix: (Units=1/GPa)
#
#
# Indices 1 2 3 4 5 6 
#
# 1 0.007318 -0.005120 -0.002467 0.000505 -0.000970 -0.001365
# 2 -0.005120 0.028893 -0.007869 -0.012365 0.012931 0.002483
# 3 -0.002467 -0.007869 0.016086 0.004095 -0.003004 0.002556
# 4 0.000505 -0.012365 0.004095 0.093996 -0.056589 0.008701
# 5 -0.000970 0.012931 -0.003004 -0.056589 0.065973 -0.010752
# 6 -0.001365 0.002483 0.002556 0.008701 -0.010752 0.036246
#
#
# Mechanical properties :
#
#
# Convention : Reuss Voigt Hill
#
# Bulk Modulus (GPa) = 46.76154 68.01581 57.38868
# Shear Modulus (GPa) = 17.44886 30.43576 23.94231
#
# Velocity S-wave (km/s) = 2.85735 3.77374 3.34705
# Velocity P-wave (km/s) = 5.72415 7.12834 6.46448
#
# Compressibility (1/GPa) = 0.02138510
#
# Stress axis : x y z
#
# Youngs Moduli (GPa) = 136.65489 34.61023 62.16587
#
# Poissons Ratio (x) = 0.17720 0.15338
# Poissons Ratio (y) = 0.69965 0.48917
# Poissons Ratio (z) = 0.33717 0.27234
#
# Static dielectric constant tensor:
#      x y z
#    x 1.791640 0.046170 0.012600 
#    y 0.046170 1.877110 0.018210 
#    z 0.012600 0.018210 1.796290 
# 
# From -- ./inp_files/419298.got.cif
#   From: 2010.05.17/outbox.cif.g08.bks.cpg/sg2_210_cif.got.tgz:419298.got - 2010.06.03 11:33:40.
