data_PCOD9105505
_publ_section_title
;
Structure prediction by ZEFSAII (Michael W. Deem and Ramdas Pophale) SiO2 
 PCOD9105505
Probable space group: P -1
;
_chemical_formula_sum "Si O2"
_cell_formula_units_Z 16
_cell_length_a 8.627199
_cell_length_b 8.990157
_cell_length_c 16.926845
_cell_angle_alpha 64.460266
_cell_angle_beta 137.170239
_cell_angle_gamma 88.385235
_cell_volume 666.409646
_symmetry_space_group_name_H-M "P -1"
_symmetry_group_IT_number 2
_symmetry_cell_setting 'triclinic'
loop_
_space_group_symop_operation_xyz
x,y,z
-x,-y,-z
loop_
_atom_site_type_symbol
_atom_site_label
_atom_site_fract_x
_atom_site_fract_y
_atom_site_fract_z
Si Si1 0.214405 0.987659 0.422632
Si Si2 0.972634 0.028287 0.797696
Si Si3 0.797357 0.659155 0.712458
Si Si4 0.340342 0.477654 0.725623
Si Si5 0.889198 0.911117 0.414909
Si Si6 0.329048 0.576053 0.000704
Si Si7 0.100802 0.565329 0.346859
Si Si8 0.477155 0.788519 0.295951
O O1 0.252202 0.957620 0.349759
O O2 0.495574 0.801079 0.605272
O O3 0.937656 0.002802 0.335543
O O4 0.172833 0.197220 0.370638
O O5 0.986973 0.209976 0.734022
O O6 0.832936 0.076819 0.819469
O O7 0.227862 0.803482 0.931679
O O8 0.814516 0.499010 0.697687
O O9 0.056145 0.576797 0.885146
O O10 0.496450 0.304313 0.759102
O O11 0.115739 0.675072 0.549421
O O12 0.163632 0.432909 0.727454
O O13 0.505483 0.532094 0.833311
O O14 0.613028 0.917676 0.319213
O O15 0.000000 0.000000 0.500000
O O16 0.500000 0.500000 0.000000
O O17 0.344014 0.401038 0.533280
#
# Coordination Sequence:
#
# PCOD9105505 Si02
#       8
#     2   2   2   2   2   2   2   2
#     4  10  20  39  65 100 123 168 212 271 324 377
#     4  11  24  38  73  95 126 171 220 262 326 386
#     4  10  21  37  71  92 132 156 226 272 309 372
#     4  11  24  43  62  91 143 171 208 268 324 386
#     4  11  24  38  69 101 132 166 213 268 337 380
#     4  11  25  46  63  90 130 182 218 263 317 387
#     4  11  20  40  67 103 121 166 214 274 325 376
#     4  11  23  42  64 103 136 161 206 279 330 378
#
# _framework density 24.009257999999999
#
# number of rings (size 3 to 8) (size 9 to 14) (size 15 to 20)
#    0.000    1.250    2.500    4.875    7.000    1.000 
#    0.000    0.625    0.000    0.000    0.000    0.000 
#    0.000    0.000    0.000    0.000    0.000    0.000 
#
# Total GULP energy -89330.286424 kJ/mol
# GULP energy per Si atom -5583.142902 kJ/mol
# Density = 2.395461 g / cm^3
# Si number density = 24.009258 Si / 1000 Ang^3
#
#
#
# Elastic Constant Matrix: (Units=GPa)
#
#
# Indices 1 2 3 4 5 6 
#
# 1 82.6680 22.9613 2.1300 -6.2820 4.5866 -0.1101
# 2 22.9613 118.4348 -7.6099 -1.3236 -0.8504 -22.0702
# 3 2.1300 -7.6099 54.0621 10.5721 10.1696 -8.4090
# 4 -6.2820 -1.3236 10.5721 39.0418 -2.5846 -5.0926
# 5 4.5866 -0.8504 10.1696 -2.5846 20.4688 -2.2800
# 6 -0.1101 -22.0702 -8.4090 -5.0926 -2.2800 44.8756
#
#
#
# Elastic Compliance Matrix: (Units=1/GPa)
#
#
# Indices 1 2 3 4 5 6 
#
# 1 0.013216 -0.002908 -0.001084 0.001962 -0.002463 -0.001503
# 2 -0.002908 0.010175 0.002292 0.000004 0.000543 0.005455
# 3 -0.001084 0.002292 0.022924 -0.006526 -0.011419 0.004100
# 4 0.001962 0.000004 -0.006526 0.028444 0.006656 0.002350
# 5 -0.002463 0.000543 -0.011419 0.006656 0.056136 0.001729
# 6 -0.001503 0.005455 0.004100 0.002350 0.001729 0.026086
#
#
# Mechanical properties :
#
#
# Convention : Reuss Voigt Hill
#
# Bulk Modulus (GPa) = 23.30150 32.23642 27.76896
# Shear Modulus (GPa) = 28.62299 36.72280 32.67290
#
# Velocity S-wave (km/s) = 3.45652 3.91516 3.69297
# Velocity P-wave (km/s) = 5.06521 5.82184 5.45665
#
# Compressibility (1/GPa) = 0.04291569
#
# Stress axis : x y z
#
# Youngs Moduli (GPa) = 75.66621 98.28117 43.62163
#
# Poissons Ratio (x) = 0.28578 0.04730
# Poissons Ratio (y) = 0.22002 -0.09999
# Poissons Ratio (z) = 0.08204 -0.22528
#
# Static dielectric constant tensor:
#      x y z
#    x 2.010990 -0.054850 -0.047580 
#    y -0.054850 2.099860 0.052090 
#    z -0.047580 0.052090 2.022830 
# 
# From -- ./inp_files/494734.got.cif
#   From: 2010.05.17/outbox.cif.g08.bks.cpg/sg2_248_cif.got.tgz:494734.got - 2010.06.03 11:33:40.
