data_PCOD9105786
_publ_section_title
;
Structure prediction by ZEFSAII (Michael W. Deem and Ramdas Pophale) SiO2 
 PCOD9105786
Probable space group: P -1
;
_chemical_formula_sum "Si O2"
_cell_formula_units_Z 14
_cell_length_a 6.757375
_cell_length_b 10.118866
_cell_length_c 14.151695
_cell_angle_alpha 133.067815
_cell_angle_beta 127.565101
_cell_angle_gamma 67.249720
_cell_volume 559.609789
_symmetry_space_group_name_H-M "P -1"
_symmetry_group_IT_number 2
_symmetry_cell_setting 'triclinic'
loop_
_space_group_symop_operation_xyz
x,y,z
-x,-y,-z
loop_
_atom_site_type_symbol
_atom_site_label
_atom_site_fract_x
_atom_site_fract_y
_atom_site_fract_z
Si Si1 0.794000 0.483167 0.095184
Si Si2 0.125624 0.709506 0.593951
Si Si3 0.595086 0.545629 0.342385
Si Si4 0.821041 0.602707 0.700654
Si Si5 0.106989 0.856708 0.387888
Si Si6 0.704129 0.246881 0.797852
Si Si7 0.492991 0.908172 0.676294
O O1 0.920923 0.681276 0.245850
O O2 0.905839 0.375514 0.162685
O O3 0.117234 0.621489 0.023152
O O4 0.500000 0.500000 0.000000
O O5 0.634739 0.527402 0.693229
O O6 0.189635 0.555533 0.458707
O O7 0.275438 0.885166 0.681885
O O8 0.243675 0.636402 0.688450
O O9 0.827134 0.693944 0.502836
O O10 0.476609 0.625319 0.251924
O O11 0.709685 0.784122 0.715992
O O12 0.176822 0.877223 0.308427
O O13 0.369221 0.830977 0.505349
O O14 0.000000 0.000000 0.500000
O O15 0.421949 0.889662 0.228726
#
# Coordination Sequence:
#
# PCOD9105786 Si02
#       7
#     2   2   2   2   2   2   2
#     4  12  26  46  76 103 148 202 238 292 373 453
#     4  10  20  39  66 107 142 183 245 300 361 424
#     4  10  21  38  70 102 140 192 240 296 359 432
#     4  11  22  45  69 103 148 188 244 295 367 428
#     4  12  26  46  73 109 146 188 254 309 352 432
#     4  12  25  45  71 110 148 193 238 296 384 429
#     4  11  24  42  72 107 145 185 244 314 356 420
#
# _framework density 25.017433
#
# number of rings (size 3 to 8) (size 9 to 14) (size 15 to 20)
#    0.000    0.857    2.857    5.143    2.000    0.571 
#    5.143    0.000    0.000    1.714    0.000    0.000 
#    0.000    0.000    0.000    0.000    0.000    0.000 
#
# Total GULP energy -78125.666453 kJ/mol
# GULP energy per Si atom -5580.404747 kJ/mol
# Density = 2.496049 g / cm^3
# Si number density = 25.017433 Si / 1000 Ang^3
#
#
#
# Elastic Constant Matrix: (Units=GPa)
#
#
# Indices 1 2 3 4 5 6 
#
# 1 139.4327 70.7805 48.9445 -13.7805 -2.1964 13.4345
# 2 70.7805 157.8064 80.3137 -23.9159 -9.6785 8.9959
# 3 48.9445 80.3137 153.8319 -13.6111 -2.0220 -2.2932
# 4 -13.7805 -23.9159 -13.6111 45.1993 -3.8811 10.0203
# 5 -2.1964 -9.6785 -2.0220 -3.8811 35.5025 -11.8560
# 6 13.4345 8.9959 -2.2932 10.0203 -11.8560 52.0695
#
#
#
# Elastic Compliance Matrix: (Units=1/GPa)
#
#
# Indices 1 2 3 4 5 6 
#
# 1 0.009700 -0.003480 -0.001214 0.001196 -0.001100 -0.002436
# 2 -0.003480 0.010863 -0.004204 0.003935 0.002484 -0.001356
# 3 -0.001214 -0.004204 0.009082 -0.000196 -0.000251 0.001420
# 4 0.001196 0.003935 -0.000196 0.025914 0.002132 -0.005498
# 5 -0.001100 0.002484 -0.000251 0.002132 0.031176 0.006532
# 6 -0.002436 -0.001356 0.001420 -0.005498 0.006532 0.022676
#
#
# Mechanical properties :
#
#
# Convention : Reuss Voigt Hill
#
# Bulk Modulus (GPa) = 84.39309 94.57205 89.48257
# Shear Modulus (GPa) = 38.12193 43.28975 40.70584
#
# Velocity S-wave (km/s) = 3.90784 4.16430 4.03811
# Velocity P-wave (km/s) = 7.35993 7.81066 7.58864
#
# Compressibility (1/GPa) = 0.01184931
#
# Stress axis : x y z
#
# Youngs Moduli (GPa) = 103.08824 92.05328 110.10587
#
# Poissons Ratio (x) = 0.32038 0.13370
# Poissons Ratio (y) = 0.35878 0.46285
# Poissons Ratio (z) = 0.12518 0.38696
#
# Static dielectric constant tensor:
#      x y z
#    x 2.159750 -0.050130 -0.027310 
#    y -0.050130 2.101280 -0.015500 
#    z -0.027310 -0.015500 1.949610 
# 
# From -- ./inp_files/481755.got.cif
#   From: 2010.05.17/outbox.cif.g08.bks.cpg/sg2_241_cif.got.tgz:481755.got - 2010.06.03 11:33:40.
