data_PCOD9105286
_publ_section_title
;
Structure prediction by ZEFSAII (Michael W. Deem and Ramdas Pophale) SiO2 
 PCOD9105286
Probable space group: P -1
;
_chemical_formula_sum "Si O2"
_cell_formula_units_Z 14
_cell_length_a 14.765022
_cell_length_b 6.069224
_cell_length_c 9.195765
_cell_angle_alpha 110.790530
_cell_angle_beta 93.145151
_cell_angle_gamma 122.643598
_cell_volume 616.127050
_symmetry_space_group_name_H-M "P -1"
_symmetry_group_IT_number 2
_symmetry_cell_setting 'triclinic'
loop_
_space_group_symop_operation_xyz
x,y,z
-x,-y,-z
loop_
_atom_site_type_symbol
_atom_site_label
_atom_site_fract_x
_atom_site_fract_y
_atom_site_fract_z
Si Si1 0.437439 0.577073 0.810132
Si Si2 0.822053 0.131166 0.852449
Si Si3 0.041845 0.190043 0.902674
Si Si4 0.888264 0.928413 0.399044
Si Si5 0.311304 0.731033 0.680459
Si Si6 0.672339 0.781862 0.016363
Si Si7 0.279643 0.976299 0.485981
O O1 0.426348 0.800168 0.771712
O O2 0.558969 0.681527 0.896746
O O3 0.379872 0.296437 0.632034
O O4 0.362844 0.470876 0.928299
O O5 0.735723 0.033491 0.689190
O O6 0.931243 0.149756 0.817984
O O7 0.765804 0.906496 0.929811
O O8 0.868669 0.460661 0.980226
O O9 0.090547 0.072640 0.769816
O O10 0.000000 0.000000 0.000000
O O11 0.787350 0.599041 0.361745
O O12 0.840137 0.108453 0.480968
O O13 0.000000 0.000000 0.500000
O O14 0.304456 0.767161 0.516711
O O15 0.294036 0.948196 0.813568
#
# Coordination Sequence:
#
# PCOD9105286 Si02
#       7
#     2   2   2   2   2   2   2
#     4   9  21  39  63  91 116 162 200 251 299 361
#     4  11  24  41  59  93 123 159 196 255 301 353
#     4  11  26  40  60  89 126 158 201 246 301 356
#     4  11  22  40  59  87 117 165 200 243 298 358
#     4  10  21  38  61  86 120 159 204 243 297 365
#     4  10  20  39  64  88 122 156 205 249 300 359
#     4  10  23  38  61  89 124 155 202 245 302 360
#
# _framework density 22.722587000000001
#
# number of rings (size 3 to 8) (size 9 to 14) (size 15 to 20)
#    0.000    1.714    2.857    0.429    8.000    1.143 
#    0.000    0.714    0.000    0.000    0.000    0.000 
#    0.000    0.000    0.000    0.000    0.000    0.000 
#
# Total GULP energy -78211.530033 kJ/mol
# GULP energy per Si atom -5586.537860 kJ/mol
# Density = 2.267087 g / cm^3
# Si number density = 22.722587 Si / 1000 Ang^3
#
#
#
# Elastic Constant Matrix: (Units=GPa)
#
#
# Indices 1 2 3 4 5 6 
#
# 1 54.4162 3.8817 9.2211 1.8847 25.2834 -6.1894
# 2 3.8817 54.9056 18.9439 -18.5732 7.1657 -2.9457
# 3 9.2211 18.9439 83.5775 -24.1425 29.7252 1.7948
# 4 1.8847 -18.5732 -24.1425 24.8517 -1.0193 13.6637
# 5 25.2834 7.1657 29.7252 -1.0193 42.4007 -6.8594
# 6 -6.1894 -2.9457 1.7948 13.6637 -6.8594 30.8522
#
#
#
# Elastic Compliance Matrix: (Units=1/GPa)
#
#
# Indices 1 2 3 4 5 6 
#
# 1 0.026259 -0.001076 0.003004 -0.001605 -0.017321 0.001850
# 2 -0.001076 0.030907 0.013467 0.048300 -0.016604 -0.023131
# 3 0.003004 0.013467 0.048112 0.080099 -0.043315 -0.046015
# 4 -0.001605 0.048300 0.080099 0.212385 -0.076274 -0.111388
# 5 -0.017321 -0.016604 -0.043315 -0.076274 0.072929 0.047454
# 6 0.001850 -0.023131 -0.046015 -0.111388 0.047454 0.093134
#
#
# Mechanical properties :
#
#
# Convention : Reuss Voigt Hill
#
# Bulk Modulus (GPa) = 7.34923 28.55476 17.95200
# Shear Modulus (GPa) = 10.03429 30.34440 20.18934
#
# Velocity S-wave (km/s) = 2.10371 3.65832 2.98403
# Velocity P-wave (km/s) = 3.02360 5.51710 4.44862
#
# Compressibility (1/GPa) = 0.13606864
#
# Stress axis : x y z
#
# Youngs Moduli (GPa) = 38.08274 32.35481 20.78480
#
# Poissons Ratio (x) = 0.03481 -0.06243
# Poissons Ratio (y) = 0.04098 -0.27992
# Poissons Ratio (z) = -0.11440 -0.43574
#
# Static dielectric constant tensor:
#      x y z
#    x 1.920870 -0.037250 0.014490 
#    y -0.037250 1.866030 -0.003860 
#    z 0.014490 -0.003860 1.850680 
# 
# From -- ./inp_files/34417.got.cif
#   From: 2010.05.17/outbox.cif.g08.bks.cpg/sg2_18_cif.got.tgz:34417.got - 2010.06.03 11:33:40.
