data_PCOD9105364
_publ_section_title
;
Structure prediction by ZEFSAII (Michael W. Deem and Ramdas Pophale) SiO2 
 PCOD9105364
Probable space group: P -1
;
_chemical_formula_sum "Si O2"
_cell_formula_units_Z 16
_cell_length_a 11.473408
_cell_length_b 12.129894
_cell_length_c 6.607650
_cell_angle_alpha 128.439820
_cell_angle_beta 100.755703
_cell_angle_gamma 76.580602
_cell_volume 699.534797
_symmetry_space_group_name_H-M "P -1"
_symmetry_group_IT_number 2
_symmetry_cell_setting 'triclinic'
loop_
_space_group_symop_operation_xyz
x,y,z
-x,-y,-z
loop_
_atom_site_type_symbol
_atom_site_label
_atom_site_fract_x
_atom_site_fract_y
_atom_site_fract_z
Si Si1 0.794507 0.061262 0.554227
Si Si2 0.503761 0.158505 0.098625
Si Si3 0.693353 0.289784 0.063104
Si Si4 0.363701 0.383884 0.587975
Si Si5 0.944176 0.313048 0.393908
Si Si6 0.132515 0.368191 0.212767
Si Si7 0.964456 0.032181 0.256455
Si Si8 0.704878 0.780671 0.232588
O O1 0.720009 0.210657 0.765764
O O2 0.832203 0.021179 0.288688
O O3 0.734025 0.934164 0.484941
O O4 0.926210 0.054467 0.685391
O O5 0.470709 0.277101 0.397889
O O6 0.623764 0.190515 0.066039
O O7 0.402422 0.188272 0.927105
O O8 0.500000 0.000000 0.000000
O O9 0.622323 0.449984 0.202099
O O10 0.818791 0.300469 0.228334
O O11 0.249487 0.379469 0.399372
O O12 0.331658 0.317203 0.713193
O O13 0.937606 0.473017 0.654083
O O14 0.966533 0.201767 0.455155
O O15 0.047758 0.285852 0.227280
O O16 0.179721 0.297510 0.939339
O O17 0.000000 0.000000 0.000000
#
# Coordination Sequence:
#
# PCOD9105364 Si02
#       8
#     2   2   2   2   2   2   2   2
#     4  11  25  38  62  99 128 168 222 259 324 387
#     4  11  26  46  69  94 129 172 219 273 329 385
#     4  11  24  43  66  99 129 169 224 267 324 386
#     4  10  23  45  69  94 130 169 219 273 321 389
#     4  10  20  39  64  91 131 172 211 265 325 383
#     4   9  21  40  63  95 129 170 213 261 331 387
#     4  11  22  39  60  91 134 171 209 264 316 381
#     4  11  24  43  66  92 130 172 216 270 323 385
#
# _framework density 22.872346
#
# number of rings (size 3 to 8) (size 9 to 14) (size 15 to 20)
#    0.000    1.500    1.250    2.625    5.250    4.500 
#    0.000    2.500    0.000    0.000    0.000    0.000 
#    0.000    0.000    0.000    0.000    0.000    0.000 
#
# Total GULP energy -89436.114345 kJ/mol
# GULP energy per Si atom -5589.757147 kJ/mol
# Density = 2.282029 g / cm^3
# Si number density = 22.872346 Si / 1000 Ang^3
#
#
#
# Elastic Constant Matrix: (Units=GPa)
#
#
# Indices 1 2 3 4 5 6 
#
# 1 56.1960 1.4075 26.8700 4.5832 -21.2662 19.3678
# 2 1.4075 123.8670 39.2360 13.5967 -20.5310 13.3769
# 3 26.8700 39.2360 96.4209 15.7412 -32.1499 -1.2748
# 4 4.5832 13.5967 15.7412 32.4945 0.9957 -0.1117
# 5 -21.2662 -20.5310 -32.1499 0.9957 33.4127 -0.9324
# 6 19.3678 13.3769 -1.2748 -0.1117 -0.9324 35.9845
#
#
#
# Elastic Compliance Matrix: (Units=1/GPa)
#
#
# Indices 1 2 3 4 5 6 
#
# 1 0.037397 0.008344 -0.005087 -0.007104 0.023610 -0.022820
# 2 0.008344 0.012118 -0.003471 -0.004882 0.009314 -0.008892
# 3 -0.005087 -0.003471 0.018839 -0.007341 0.013115 0.005013
# 4 -0.007104 -0.004882 -0.007341 0.037870 -0.015571 0.005092
# 5 0.023610 0.009314 0.013115 -0.015571 0.063368 -0.014111
# 6 -0.022820 -0.008892 0.005013 0.005092 -0.014111 0.043206
#
#
# Mechanical properties :
#
#
# Convention : Reuss Voigt Hill
#
# Bulk Modulus (GPa) = 14.72199 45.72343 30.22271
# Shear Modulus (GPa) = 21.19833 34.30971 27.75402
#
# Velocity S-wave (km/s) = 3.04766 3.87725 3.48721
# Velocity P-wave (km/s) = 4.33991 6.33074 5.42739
#
# Compressibility (1/GPa) = 0.06792559
#
# Stress axis : x y z
#
# Youngs Moduli (GPa) = 26.74014 82.52261 53.08140
#
# Poissons Ratio (x) = -0.68855 0.27001
# Poissons Ratio (y) = -0.22311 0.18426
# Poissons Ratio (z) = 0.13602 0.28646
#
# Static dielectric constant tensor:
#      x y z
#    x 1.861050 0.003110 -0.031960 
#    y 0.003110 1.874140 -0.008140 
#    z -0.031960 -0.008140 1.915350 
# 
# From -- ./inp_files/72303.got.cif
#   From: 2010.05.17/outbox.cif.g08.bks.cpg/sg2_37_cif.got.tgz:72303.got - 2010.06.03 11:33:40.
