data_PCOD9105229
_publ_section_title
;
Structure prediction by ZEFSAII (Michael W. Deem and Ramdas Pophale) SiO2 
 PCOD9105229
Probable space group: P -1
;
_chemical_formula_sum "Si O2"
_cell_formula_units_Z 16
_cell_length_a 14.974217
_cell_length_b 8.879685
_cell_length_c 15.396757
_cell_angle_alpha 51.482939
_cell_angle_beta 50.877467
_cell_angle_gamma 25.165642
_cell_volume 667.051973
_symmetry_space_group_name_H-M "P -1"
_symmetry_group_IT_number 2
_symmetry_cell_setting 'triclinic'
loop_
_space_group_symop_operation_xyz
x,y,z
-x,-y,-z
loop_
_atom_site_type_symbol
_atom_site_label
_atom_site_fract_x
_atom_site_fract_y
_atom_site_fract_z
Si Si1 0.779596 0.704668 0.083350
Si Si2 0.331608 0.560346 0.732334
Si Si3 0.627869 0.152650 0.868420
Si Si4 0.757528 0.891146 0.358760
Si Si5 0.220173 0.738714 0.550994
Si Si6 0.486244 0.270108 0.215043
Si Si7 0.931618 0.806510 0.664320
Si Si8 0.149944 0.480206 0.420302
O O1 0.806146 0.439579 0.174855
O O2 0.654707 0.968010 0.147823
O O3 0.000000 0.500000 0.000000
O O4 0.633434 0.964694 0.996088
O O5 0.487104 0.323361 0.805980
O O6 0.383220 0.492708 0.620045
O O7 0.225016 0.917214 0.686055
O O8 0.577045 0.414885 0.862436
O O9 0.854469 0.872891 0.783622
O O10 0.686168 0.845671 0.493986
O O11 0.989168 0.494949 0.324032
O O12 0.597023 0.109806 0.298904
O O13 0.140742 0.645460 0.600405
O O14 0.247230 0.828955 0.414988
O O15 0.004459 0.141553 0.578467
O O16 0.289062 0.396388 0.293746
O O17 0.000000 0.500000 0.500000
#
# Coordination Sequence:
#
# PCOD9105229 Si02
#       8
#     2   2   2   2   2   2   2   2
#     4  12  27  48  73  94 132 185 239 285 337 402
#     4  11  24  44  66  98 141 170 230 285 343 404
#     4  11  24  46  68 101 135 178 232 291 337 400
#     4  10  22  41  66 101 141 179 218 274 350 414
#     4  10  20  39  64 100 136 180 217 274 342 412
#     4  11  24  44  70 100 135 181 229 284 338 408
#     4  10  21  40  70  98 137 180 227 270 342 410
#     4  11  21  38  68 104 143 174 219 272 343 414
#
# _framework density 23.986135999999998
#
# number of rings (size 3 to 8) (size 9 to 14) (size 15 to 20)
#    0.000    1.250    2.500    3.375    0.000    2.500 
#    4.500    6.875    0.000    0.000    0.000    0.000 
#    0.000    0.000    0.000    0.000    0.000    0.000 
#
# Total GULP energy -89326.060751 kJ/mol
# GULP energy per Si atom -5582.878797 kJ/mol
# Density = 2.393154 g / cm^3
# Si number density = 23.986136 Si / 1000 Ang^3
#
#
#
# Elastic Constant Matrix: (Units=GPa)
#
#
# Indices 1 2 3 4 5 6 
#
# 1 139.9445 25.0868 44.6792 3.7171 4.2517 0.7988
# 2 25.0868 45.5430 24.7250 6.1004 -13.9873 18.8593
# 3 44.6792 24.7250 116.7822 -6.5721 -6.9022 11.4247
# 4 3.7171 6.1004 -6.5721 47.8595 -2.6869 3.3757
# 5 4.2517 -13.9873 -6.9022 -2.6869 40.1091 -8.8465
# 6 0.7988 18.8593 11.4247 3.3757 -8.8465 34.5065
#
#
#
# Elastic Compliance Matrix: (Units=1/GPa)
#
#
# Indices 1 2 3 4 5 6 
#
# 1 0.009125 -0.005518 -0.002833 -0.000768 -0.002744 0.003114
# 2 -0.005518 0.036946 -0.003770 -0.003149 0.009038 -0.016191
# 3 -0.002833 -0.003770 0.010761 0.002321 0.000663 -0.001494
# 4 -0.000768 -0.003149 0.002321 0.021780 0.000621 -0.001001
# 5 -0.002744 0.009038 0.000663 0.000621 0.029035 0.002287
# 6 0.003114 -0.016191 -0.001494 -0.001001 0.002287 0.038936
#
#
# Mechanical properties :
#
#
# Convention : Reuss Voigt Hill
#
# Bulk Modulus (GPa) = 30.68407 54.58352 42.63380
# Shear Modulus (GPa) = 27.51962 38.34694 32.93328
#
# Velocity S-wave (km/s) = 3.39088 4.00273 3.70944
# Velocity P-wave (km/s) = 5.30574 6.64591 6.01328
#
# Compressibility (1/GPa) = 0.03259020
#
# Stress axis : x y z
#
# Youngs Moduli (GPa) = 109.58534 27.06652 92.92833
#
# Poissons Ratio (x) = 0.14935 0.26327
# Poissons Ratio (y) = 0.60468 0.35035
# Poissons Ratio (z) = 0.31046 0.10204
#
# Static dielectric constant tensor:
#      x y z
#    x 2.017660 -0.124190 0.050270 
#    y -0.124190 1.979640 -0.054650 
#    z 0.050270 -0.054650 1.893640 
# 
# From -- ./inp_files/342909.got.cif
#   From: 2010.05.17/outbox.cif.g08.bks.cpg/sg2_172_cif.got.tgz:342909.got - 2010.06.03 11:33:40.
