data_PCOD9105494
_publ_section_title
;
Structure prediction by ZEFSAII (Michael W. Deem and Ramdas Pophale) SiO2 
 PCOD9105494
Probable space group: P -1
;
_chemical_formula_sum "Si O2"
_cell_formula_units_Z 14
_cell_length_a 4.948571
_cell_length_b 8.941462
_cell_length_c 15.922121
_cell_angle_alpha 118.066292
_cell_angle_beta 121.270883
_cell_angle_gamma 84.851205
_cell_volume 520.085798
_symmetry_space_group_name_H-M "P -1"
_symmetry_group_IT_number 2
_symmetry_cell_setting 'triclinic'
loop_
_space_group_symop_operation_xyz
x,y,z
-x,-y,-z
loop_
_atom_site_type_symbol
_atom_site_label
_atom_site_fract_x
_atom_site_fract_y
_atom_site_fract_z
Si Si1 0.205059 0.037147 0.852082
Si Si2 0.889088 0.200653 0.065210
Si Si3 0.536578 0.800651 0.444533
Si Si4 0.292687 0.757145 0.217841
Si Si5 0.234399 0.880956 0.641904
Si Si6 0.468860 0.573156 0.828663
Si Si7 0.641458 0.461838 0.396139
O O1 0.031173 0.197630 0.856264
O O2 0.102446 0.931464 0.892228
O O3 0.114590 0.911063 0.724404
O O4 0.588857 0.111734 0.936033
O O5 0.789189 0.365206 0.137817
O O6 0.226691 0.267519 0.092218
O O7 0.291613 0.738201 0.312729
O O8 0.473255 0.618878 0.439957
O O9 0.931471 0.830262 0.516292
O O10 0.500000 0.000000 0.500000
O O11 0.405552 0.590100 0.157203
O O12 0.563166 0.931462 0.297830
O O13 0.459068 0.739664 0.648239
O O14 0.351385 0.531620 0.702902
O O15 0.000000 0.500000 0.500000
#
# Coordination Sequence:
#
# PCOD9105494 Si02
#       7
#     2   2   2   2   2   2   2
#     4  11  25  42  70  97 131 181 231 282 338 402
#     4  11  27  46  70  98 137 185 231 286 335 403
#     4  10  20  39  64  98 135 173 217 282 344 408
#     4  11  25  40  68  98 134 180 222 285 345 408
#     4  11  21  42  65  95 137 172 228 272 342 409
#     4  11  25  47  68 100 142 176 230 284 344 400
#     4   9  20  40  67  97 134 177 224 272 339 407
#
# _framework density 26.918637
#
# number of rings (size 3 to 8) (size 9 to 14) (size 15 to 20)
#    0.000    1.429    2.857    1.286    4.000    2.286 
#    0.000    1.429    0.000    0.000    0.000    0.000 
#    0.000    0.000    0.000    0.000    0.000    0.000 
#
# Total GULP energy -78343.287220 kJ/mol
# GULP energy per Si atom -5595.949087 kJ/mol
# Density = 2.685737 g / cm^3
# Si number density = 26.918637 Si / 1000 Ang^3
#
#
#
# Elastic Constant Matrix: (Units=GPa)
#
#
# Indices 1 2 3 4 5 6 
#
# 1 59.0925 29.3907 27.3387 -0.4203 0.7415 -6.0247
# 2 29.3907 229.6634 18.3105 13.5628 -3.2130 -50.0595
# 3 27.3387 18.3105 111.8240 -10.7925 11.4729 -4.4584
# 4 -0.4203 13.5628 -10.7925 53.0197 -7.1587 1.1391
# 5 0.7415 -3.2130 11.4729 -7.1587 47.3903 18.6807
# 6 -6.0247 -50.0595 -4.4584 1.1391 18.6807 46.0319
#
#
#
# Elastic Compliance Matrix: (Units=1/GPa)
#
#
# Indices 1 2 3 4 5 6 
#
# 1 0.020170 -0.002359 -0.004677 -0.000044 0.000951 -0.000763
# 2 -0.002359 0.006507 -0.000079 -0.002280 -0.003017 0.008041
# 3 -0.004677 -0.000079 0.010610 0.001734 -0.002800 0.001423
# 4 -0.000044 -0.002280 0.001734 0.020479 0.004325 -0.004579
# 5 0.000951 -0.003017 -0.002800 0.004325 0.028102 -0.014939
# 6 -0.000763 0.008041 0.001423 -0.004579 -0.014939 0.036683
#
#
# Mechanical properties :
#
#
# Convention : Reuss Voigt Hill
#
# Bulk Modulus (GPa) = 43.36829 61.18442 52.27635
# Shear Modulus (GPa) = 34.61022 50.99104 42.80063
#
# Velocity S-wave (km/s) = 3.58960 4.35704 3.99181
# Velocity P-wave (km/s) = 5.77288 6.93473 6.38031
#
# Compressibility (1/GPa) = 0.02305832
#
# Stress axis : x y z
#
# Youngs Moduli (GPa) = 49.57979 153.66926 94.24759
#
# Poissons Ratio (x) = 0.36246 0.44080
# Poissons Ratio (y) = 0.11694 0.00742
# Poissons Ratio (z) = 0.23189 0.01211
#
# Static dielectric constant tensor:
#      x y z
#    x 2.135450 0.011560 -0.079350 
#    y 0.011560 2.124650 0.035330 
#    z -0.079350 0.035330 2.112580 
# 
# From -- ./inp_files/40192.got.cif
#   From: 2010.05.17/outbox.cif.g08.bks.cpg/sg2_21_cif.got.tgz:40192.got - 2010.06.03 11:33:40.
