data_PCOD9105439
_publ_section_title
;
Structure prediction by ZEFSAII (Michael W. Deem and Ramdas Pophale) SiO2 
 PCOD9105439
Probable space group: P -1
;
_chemical_formula_sum "Si O2"
_cell_formula_units_Z 16
_cell_length_a 9.545196
_cell_length_b 11.850889
_cell_length_c 14.304240
_cell_angle_alpha 42.568411
_cell_angle_beta 116.565773
_cell_angle_gamma 140.638056
_cell_volume 665.458099
_symmetry_space_group_name_H-M "P -1"
_symmetry_group_IT_number 2
_symmetry_cell_setting 'triclinic'
loop_
_space_group_symop_operation_xyz
x,y,z
-x,-y,-z
loop_
_atom_site_type_symbol
_atom_site_label
_atom_site_fract_x
_atom_site_fract_y
_atom_site_fract_z
Si Si1 0.137247 0.776866 0.882523
Si Si2 0.817074 0.632460 0.027641
Si Si3 0.511211 0.549402 0.312877
Si Si4 0.466457 0.103026 0.010281
Si Si5 0.685601 0.391500 0.336576
Si Si6 0.791254 0.118018 0.567330
Si Si7 0.670746 0.877207 0.870311
Si Si8 0.831538 0.854855 0.399293
O O1 0.074598 0.882430 0.733433
O O2 0.391631 0.903353 0.868845
O O3 0.000000 0.500000 0.000000
O O4 0.053939 0.766699 0.967503
O O5 0.761005 0.516121 0.182382
O O6 0.595315 0.400135 0.040860
O O7 0.815556 0.828681 0.915628
O O8 0.459079 0.662498 0.158595
O O9 0.661618 0.525665 0.319346
O O10 0.647036 0.721867 0.339729
O O11 0.288631 0.288728 0.452151
O O12 0.267427 0.007322 0.079529
O O13 0.500000 0.000000 0.000000
O O14 0.841074 0.352300 0.428209
O O15 0.427702 0.114312 0.417345
O O16 0.992653 0.150836 0.576212
O O17 0.714678 0.034835 0.702468
#
# Coordination Sequence:
#
# PCOD9105439 Si02
#       8
#     2   2   2   2   2   2   2   2
#     4  12  25  41  69 100 132 172 223 271 332 394
#     4  10  20  39  64  95 127 164 217 271 327 380
#     4  11  26  46  65  92 139 178 219 272 331 394
#     4  12  25  44  65  99 133 176 222 271 329 393
#     4  10  23  41  67  97 131 169 220 276 326 390
#     4  10  23  42  67  98 127 171 225 270 331 390
#     4  10  20  39  67  90 130 169 210 275 328 380
#     4  11  26  46  64  95 136 179 219 269 334 400
#
# _framework density 24.043586999999999
#
# number of rings (size 3 to 8) (size 9 to 14) (size 15 to 20)
#    0.000    1.250    5.000    0.000    5.250    2.000 
#    2.250    1.875    0.000    0.000    0.000    0.000 
#    0.000    0.000    0.000    0.000    0.000    0.000 
#
# Total GULP energy -89313.649849 kJ/mol
# GULP energy per Si atom -5582.103116 kJ/mol
# Density = 2.398886 g / cm^3
# Si number density = 24.043587 Si / 1000 Ang^3
#
#
#
# Elastic Constant Matrix: (Units=GPa)
#
#
# Indices 1 2 3 4 5 6 
#
# 1 123.2653 16.4140 35.5105 4.4341 18.5600 -15.7821
# 2 16.4140 33.5008 6.4515 -0.3292 9.8000 -12.5240
# 3 35.5105 6.4515 110.4207 9.8274 28.2570 -14.5245
# 4 4.4341 -0.3292 9.8274 23.4553 -2.4905 -2.6700
# 5 18.5600 9.8000 28.2570 -2.4905 39.1946 -1.9461
# 6 -15.7821 -12.5240 -14.5245 -2.6700 -1.9461 42.4227
#
#
#
# Elastic Compliance Matrix: (Units=1/GPa)
#
#
# Indices 1 2 3 4 5 6 
#
# 1 0.009725 -0.002991 -0.001998 -0.001085 -0.002393 0.001873
# 2 -0.002991 0.037406 0.002467 0.000262 -0.009184 0.010370
# 3 -0.001998 0.002467 0.012854 -0.005528 -0.009109 0.003620
# 4 -0.001085 0.000262 -0.005528 0.046062 0.007411 0.001020
# 5 -0.002393 -0.009184 -0.009109 0.007411 0.035753 -0.004614
# 6 0.001873 0.010370 0.003620 0.001020 -0.004614 0.028423
#
#
# Mechanical properties :
#
#
# Convention : Reuss Voigt Hill
#
# Bulk Modulus (GPa) = 18.20046 42.65988 30.43017
# Shear Modulus (GPa) = 25.82917 34.93526 30.38222
#
# Velocity S-wave (km/s) = 3.28115 3.81595 3.55861
# Velocity P-wave (km/s) = 4.68410 6.09890 5.43771
#
# Compressibility (1/GPa) = 0.05494365
#
# Stress axis : x y z
#
# Youngs Moduli (GPa) = 102.82264 26.73357 77.79759
#
# Poissons Ratio (x) = 0.07995 0.15540
# Poissons Ratio (y) = 0.30750 -0.19194
# Poissons Ratio (z) = 0.20539 -0.06596
#
# Static dielectric constant tensor:
#      x y z
#    x 1.814730 0.017290 0.031890 
#    y 0.017290 2.304870 -0.004910 
#    z 0.031890 -0.004910 1.876510 
# 
# From -- ./inp_files/187546.got.cif
#   From: 2010.05.17/outbox.cif.g08.bks.cpg/sg2_94_cif.got.tgz:187546.got - 2010.06.03 11:33:40.
