data_PCOD9105194
_publ_section_title
;
Structure prediction by ZEFSAII (Michael W. Deem and Ramdas Pophale) SiO2 
 PCOD9105194
Probable space group: P -1
;
_chemical_formula_sum "Si O2"
_cell_formula_units_Z 9
_cell_length_a 12.094223
_cell_length_b 16.935687
_cell_length_c 7.538340
_cell_angle_alpha 43.829916
_cell_angle_beta 142.437038
_cell_angle_gamma 160.921121
_cell_volume 304.683662
_symmetry_space_group_name_H-M "P -1"
_symmetry_group_IT_number 2
_symmetry_cell_setting 'triclinic'
loop_
_space_group_symop_operation_xyz
x,y,z
-x,-y,-z
loop_
_atom_site_type_symbol
_atom_site_label
_atom_site_fract_x
_atom_site_fract_y
_atom_site_fract_z
Si Si1 0.892802 0.243371 0.998285
Si Si2 0.953973 0.730020 0.243926
Si Si3 0.199107 0.183297 0.646634
Si Si4 0.000000 0.000000 0.000000
Si Si5 0.362180 0.660789 0.376232
O O1 0.902551 0.381048 0.843993
O O2 0.861690 0.207364 0.807987
O O3 0.144342 0.276151 0.341065
O O4 0.500000 0.000000 0.000000
O O5 0.904960 0.597988 0.530315
O O6 0.500000 0.500000 0.000000
O O7 0.147594 0.952035 0.197687
O O8 0.368056 0.271167 0.913545
O O9 0.402537 0.216325 0.708723
O O10 0.764663 0.892300 0.636223
#
# Coordination Sequence:
#
# PCOD9105194 Si02
#       5
#     2   2   2   1   2
#     4  10  21  40  69  93 126 171 210 259 317 376
#     4  12  22  42  68  95 126 171 210 258 320 375
#     4  10  20  39  63  95 128 165 211 261 313 374
#     4  12  24  38  66  96 130 166 212 264 312 376
#     4  10  20  41  68  91 126 170 212 255 319 376
#
# _framework density 29.538834000000001
#
# number of rings (size 3 to 8) (size 9 to 14) (size 15 to 20)
#    0.000    1.333    4.444    3.333    0.000    0.889 
#    0.000   11.111    0.000    0.000    0.000    0.000 
#    0.000    0.000    0.000    0.000    0.000    0.000 
#
# Total GULP energy -50228.997511 kJ/mol
# GULP energy per Si atom -5580.999723 kJ/mol
# Density = 2.947160 g / cm^3
# Si number density = 29.538834 Si / 1000 Ang^3
#
#
#
# Elastic Constant Matrix: (Units=GPa)
#
#
# Indices 1 2 3 4 5 6 
#
# 1 304.8086 51.8755 102.2289 -20.3499 14.3809 25.9090
# 2 51.8755 94.6392 52.7371 -4.1609 9.6435 -9.4373
# 3 102.2289 52.7371 131.4151 -54.4361 27.8339 -3.6742
# 4 -20.3499 -4.1609 -54.4361 72.7643 -2.2577 7.6338
# 5 14.3809 9.6435 27.8339 -2.2577 57.0981 -16.5114
# 6 25.9090 -9.4373 -3.6742 7.6338 -16.5114 69.6462
#
#
#
# Elastic Compliance Matrix: (Units=1/GPa)
#
#
# Indices 1 2 3 4 5 6 
#
# 1 0.004887 -0.000465 -0.004525 -0.001841 0.000458 -0.001809
# 2 -0.000465 0.015525 -0.008820 -0.006086 0.002438 0.003057
# 3 -0.004525 -0.008820 0.022655 0.015124 -0.008384 -0.001962
# 4 -0.001841 -0.006086 0.015124 0.024370 -0.005904 -0.003413
# 5 0.000458 0.002438 -0.008384 -0.005904 0.022487 0.005696
# 6 -0.001809 0.003057 -0.001962 -0.003413 0.005696 0.017067
#
#
# Mechanical properties :
#
#
# Convention : Reuss Voigt Hill
#
# Bulk Modulus (GPa) = 64.74170 104.94955 84.84563
# Shear Modulus (GPa) = 35.77554 61.50315 48.63935
#
# Velocity S-wave (km/s) = 3.48391 4.56797 4.06226
# Velocity P-wave (km/s) = 6.17646 7.96418 7.12660
#
# Compressibility (1/GPa) = 0.01544599
#
# Stress axis : x y z
#
# Youngs Moduli (GPa) = 204.63180 64.41086 44.14059
#
# Poissons Ratio (x) = 0.02996 0.19973
# Poissons Ratio (y) = 0.09519 0.38934
# Poissons Ratio (z) = 0.92595 0.56813
#
# Static dielectric constant tensor:
#      x y z
#    x 3.144460 -0.541690 -0.973430 
#    y -0.541690 2.924860 0.572860 
#    z -0.973430 0.572860 3.321260 
# 
# From -- ./inp_files/144259.got.cif
#   From: 2010.05.17/outbox.cif.g08.bks.cpg/sg2_73_cif.got.tgz:144259.got - 2010.06.03 11:33:40.
