data_PCOD9105547
_publ_section_title
;
Structure prediction by ZEFSAII (Michael W. Deem and Ramdas Pophale) SiO2 
 PCOD9105547
Probable space group: P -1
;
_chemical_formula_sum "Si O2"
_cell_formula_units_Z 16
_cell_length_a 16.940784
_cell_length_b 13.925285
_cell_length_c 5.345113
_cell_angle_alpha 120.029425
_cell_angle_beta 109.277349
_cell_angle_gamma 34.143522
_cell_volume 603.492159
_symmetry_space_group_name_H-M "P -1"
_symmetry_group_IT_number 2
_symmetry_cell_setting 'triclinic'
loop_
_space_group_symop_operation_xyz
x,y,z
-x,-y,-z
loop_
_atom_site_type_symbol
_atom_site_label
_atom_site_fract_x
_atom_site_fract_y
_atom_site_fract_z
Si Si1 0.547746 0.156991 0.595592
Si Si2 0.430349 0.698035 0.820497
Si Si3 0.677638 0.744523 0.657803
Si Si4 0.813765 0.518065 0.988650
Si Si5 0.346152 0.568905 0.697874
Si Si6 0.080067 0.345666 0.165324
Si Si7 0.058233 0.837271 0.515580
Si Si8 0.801079 0.983066 0.350591
O O1 0.486327 0.103114 0.389439
O O2 0.431697 0.377278 0.674108
O O3 0.701629 0.010093 0.444370
O O4 0.566661 0.177917 0.924532
O O5 0.385297 0.654173 0.919812
O O6 0.581566 0.514028 0.611018
O O7 0.308096 0.819389 0.642377
O O8 0.704934 0.649168 0.818268
O O9 0.764917 0.762467 0.821898
O O10 0.754190 0.612054 0.318764
O O11 0.862217 0.339415 0.802143
O O12 0.944516 0.463751 0.990004
O O13 0.175869 0.739694 0.720012
O O14 0.000000 0.500000 0.500000
O O15 0.124960 0.167803 0.989952
O O16 0.918044 0.919329 0.556253
O O17 0.000000 0.000000 0.500000
#
# Coordination Sequence:
#
# PCOD9105547 Si02
#       8
#     2   2   2   2   2   2   2   2
#     4  11  23  39  62  94 131 173 223 273 335 398
#     4  10  21  40  63  88 129 175 217 278 329 400
#     4  11  22  42  71  95 127 180 228 273 330 407
#     4  10  22  42  67 100 131 171 225 277 332 399
#     4  10  20  39  65  87 127 177 225 263 332 404
#     4   9  21  44  69  95 132 172 220 279 344 398
#     4  11  20  41  64  96 132 174 222 279 333 404
#     4  10  23  42  61  96 134 164 223 280 342 387
#
# _framework density 26.512356
#
# number of rings (size 3 to 8) (size 9 to 14) (size 15 to 20)
#    0.000    1.750    2.500    1.500    1.750    0.500 
#   20.250    1.875    0.000    0.000    0.000    0.000 
#    0.000    0.000    0.000    0.000    0.000    0.000 
#
# Total GULP energy -89221.354566 kJ/mol
# GULP energy per Si atom -5576.334660 kJ/mol
# Density = 2.645201 g / cm^3
# Si number density = 26.512356 Si / 1000 Ang^3
#
#
#
# Elastic Constant Matrix: (Units=GPa)
#
#
# Indices 1 2 3 4 5 6 
#
# 1 123.7794 39.8994 16.4897 -6.5543 22.7638 -44.4028
# 2 39.8994 87.1517 24.2227 -12.0117 8.3066 -37.3560
# 3 16.4897 24.2227 80.7095 -4.1229 11.7963 4.3214
# 4 -6.5543 -12.0117 -4.1229 34.4845 -11.0335 13.7341
# 5 22.7638 8.3066 11.7963 -11.0335 29.7100 -12.2105
# 6 -44.4028 -37.3560 4.3214 13.7341 -12.2105 46.3794
#
#
#
# Elastic Compliance Matrix: (Units=1/GPa)
#
#
# Indices 1 2 3 4 5 6 
#
# 1 0.014303 0.000259 -0.003164 -0.005079 -0.005840 0.014163
# 2 0.000259 0.021734 -0.008399 0.000440 0.005369 0.019819
# 3 -0.003164 -0.008399 0.017438 0.001770 -0.007179 -0.013833
# 4 -0.005079 0.000440 0.001770 0.037155 0.011686 -0.012599
# 5 -0.005840 0.005369 -0.007179 0.011686 0.047269 0.008386
# 6 0.014163 0.019819 -0.013833 -0.012599 0.008386 0.058311
#
#
# Mechanical properties :
#
#
# Convention : Reuss Voigt Hill
#
# Bulk Modulus (GPa) = 32.39854 50.31823 41.35838
# Shear Modulus (GPa) = 21.82382 36.18336 29.00359
#
# Velocity S-wave (km/s) = 2.87218 3.69829 3.31110
# Velocity P-wave (km/s) = 4.82140 6.10384 5.50013
#
# Compressibility (1/GPa) = 0.03086559
#
# Stress axis : x y z
#
# Youngs Moduli (GPa) = 69.91726 46.01013 57.34718
#
# Poissons Ratio (x) = -0.01190 0.18144
# Poissons Ratio (y) = -0.01808 0.48167
# Poissons Ratio (z) = 0.22121 0.38645
#
# Static dielectric constant tensor:
#      x y z
#    x 2.244520 -0.011280 0.042270 
#    y -0.011280 2.143790 -0.010460 
#    z 0.042270 -0.010460 2.047770 
# 
# From -- ./inp_files/119964.got.cif
#   From: 2010.05.17/outbox.cif.g08.bks.cpg/sg2_60_cif.got.tgz:119964.got - 2010.06.03 11:33:40.
