data_PCOD9105181
_publ_section_title
;
Structure prediction by ZEFSAII (Michael W. Deem and Ramdas Pophale) SiO2 
 PCOD9105181
Probable space group: P -1
;
_chemical_formula_sum "Si O2"
_cell_formula_units_Z 16
_cell_length_a 7.073532
_cell_length_b 12.462684
_cell_length_c 11.553080
_cell_angle_alpha 92.311899
_cell_angle_beta 108.495191
_cell_angle_gamma 47.759402
_cell_volume 693.028783
_symmetry_space_group_name_H-M "P -1"
_symmetry_group_IT_number 2
_symmetry_cell_setting 'triclinic'
loop_
_space_group_symop_operation_xyz
x,y,z
-x,-y,-z
loop_
_atom_site_type_symbol
_atom_site_label
_atom_site_fract_x
_atom_site_fract_y
_atom_site_fract_z
Si Si1 0.615652 0.863393 0.853071
Si Si2 0.306221 0.364960 0.290132
Si Si3 0.014848 0.843928 0.772696
Si Si4 0.618466 0.276219 0.933379
Si Si5 0.931148 0.623050 0.081263
Si Si6 0.005356 0.906840 0.220767
Si Si7 0.755305 0.452060 0.270113
Si Si8 0.547307 0.367172 0.558938
O O1 0.561180 0.766634 0.780540
O O2 0.740514 0.894970 0.781379
O O3 0.852816 0.752799 0.991021
O O4 0.684256 0.994443 0.149840
O O5 0.474587 0.316067 0.437547
O O6 0.192151 0.517577 0.214743
O O7 0.024527 0.408969 0.270429
O O8 0.155010 0.705470 0.706786
O O9 0.228698 0.772624 0.917911
O O10 0.961827 0.982888 0.723864
O O11 0.354054 0.297203 0.903045
O O12 0.829538 0.156693 0.871232
O O13 0.483981 0.436912 0.866457
O O14 0.000000 0.500000 0.000000
O O15 0.158249 0.771273 0.334197
O O16 0.663046 0.550671 0.370022
O O17 0.500000 0.500000 0.500000
#
# Coordination Sequence:
#
# PCOD9105181 Si02
#       8
#     2   2   2   2   2   2   2   2
#     4  10  22  40  64 101 128 165 212 255 328 377
#     4   9  20  41  64  91 127 167 213 264 309 375
#     4  11  22  40  68  93 130 172 206 259 327 380
#     4  10  20  39  63  94 137 169 203 258 325 373
#     4   9  18  35  65  95 126 162 205 260 308 371
#     4  11  25  44  61  95 136 163 211 273 311 378
#     4   9  21  40  64  94 121 168 217 259 312 380
#     4  11  25  43  64  90 121 170 219 261 320 375
#
# _framework density 23.087064000000002
#
# number of rings (size 3 to 8) (size 9 to 14) (size 15 to 20)
#    0.000    2.000    1.250    1.875    1.750    3.000 
#    9.000    1.250    0.000    0.000    0.000    0.000 
#    0.000    0.000    0.000    0.000    0.000    0.000 
#
# Total GULP energy -89433.440142 kJ/mol
# GULP energy per Si atom -5589.590009 kJ/mol
# Density = 2.303452 g / cm^3
# Si number density = 23.087064 Si / 1000 Ang^3
#
#
#
# Elastic Constant Matrix: (Units=GPa)
#
#
# Indices 1 2 3 4 5 6 
#
# 1 79.8679 29.2592 -4.2286 -7.5666 -9.9122 -18.8128
# 2 29.2592 89.6113 11.1681 -10.8165 -4.9354 5.7183
# 3 -4.2286 11.1681 83.9784 -5.4701 -7.6576 -7.4858
# 4 -7.5666 -10.8165 -5.4701 32.1690 2.0051 -3.1523
# 5 -9.9122 -4.9354 -7.6576 2.0051 20.4755 5.1203
# 6 -18.8128 5.7183 -7.4858 -3.1523 5.1203 43.8622
#
#
#
# Elastic Compliance Matrix: (Units=1/GPa)
#
#
# Indices 1 2 3 4 5 6 
#
# 1 0.018006 -0.006116 0.003242 0.003200 0.005990 0.008604
# 2 -0.006116 0.014074 -0.002403 0.002389 0.000488 -0.004754
# 3 0.003242 -0.002403 0.013298 0.002263 0.004849 0.003570
# 4 0.003200 0.002389 0.002263 0.033501 -0.001312 0.004008
# 5 0.005990 0.000488 0.004849 -0.001312 0.054581 -0.003133
# 6 0.008604 -0.004754 0.003570 0.004008 -0.003133 0.028372
#
#
# Mechanical properties :
#
#
# Convention : Reuss Voigt Hill
#
# Bulk Modulus (GPa) = 28.71637 36.20610 32.46124
# Shear Modulus (GPa) = 27.17435 33.78525 30.47980
#
# Velocity S-wave (km/s) = 3.43452 3.82957 3.63741
# Velocity P-wave (km/s) = 5.30973 5.93891 5.63311
#
# Compressibility (1/GPa) = 0.03482334
#
# Stress axis : x y z
#
# Youngs Moduli (GPa) = 55.53633 71.05109 75.19658
#
# Poissons Ratio (x) = 0.43456 -0.24376
# Poissons Ratio (y) = 0.33967 0.18072
# Poissons Ratio (z) = -0.18003 0.17076
#
# Static dielectric constant tensor:
#      x y z
#    x 1.915690 0.024680 -0.037630 
#    y 0.024680 1.920910 0.034150 
#    z -0.037630 0.034150 1.914100 
# 
# From -- ./inp_files/182502.got.cif
#   From: 2010.05.17/outbox.cif.g08.bks.cpg/sg2_92_cif.got.tgz:182502.got - 2010.06.03 11:33:40.
