data_PCOD9105784
_publ_section_title
;
Structure prediction by ZEFSAII (Michael W. Deem and Ramdas Pophale) SiO2 
 PCOD9105784
Probable space group: P -1
;
_chemical_formula_sum "Si O2"
_cell_formula_units_Z 16
_cell_length_a 11.200617
_cell_length_b 9.894313
_cell_length_c 10.250862
_cell_angle_alpha 140.412351
_cell_angle_beta 111.607572
_cell_angle_gamma 80.033304
_cell_volume 661.212153
_symmetry_space_group_name_H-M "P -1"
_symmetry_group_IT_number 2
_symmetry_cell_setting 'triclinic'
loop_
_space_group_symop_operation_xyz
x,y,z
-x,-y,-z
loop_
_atom_site_type_symbol
_atom_site_label
_atom_site_fract_x
_atom_site_fract_y
_atom_site_fract_z
Si Si1 0.742783 0.773208 0.954236
Si Si2 0.110662 0.883275 0.519915
Si Si3 0.410246 0.054001 0.201387
Si Si4 0.152610 0.056493 0.264441
Si Si5 0.401268 0.662202 0.076116
Si Si6 0.351347 0.708480 0.370051
Si Si7 0.976954 0.690571 0.809380
Si Si8 0.131073 0.407671 0.698126
O O1 0.640276 0.886992 0.916372
O O2 0.678105 0.552816 0.836573
O O3 0.837544 0.678981 0.819322
O O4 0.822824 0.955952 0.218607
O O5 0.224941 0.812981 0.429047
O O6 0.018296 0.654757 0.355446
O O7 0.000000 0.000000 0.500000
O O8 0.289999 0.078674 0.266256
O O9 0.541106 0.211797 0.416565
O O10 0.427269 0.813411 0.070984
O O11 0.056798 0.172687 0.226287
O O12 0.168006 0.189207 0.500460
O O13 0.073618 0.815402 0.054533
O O14 0.406730 0.784860 0.307145
O O15 0.500000 0.500000 0.000000
O O16 0.254657 0.525673 0.911894
O O17 0.090788 0.573672 0.701943
#
# Coordination Sequence:
#
# PCOD9105784 Si02
#       8
#     2   2   2   2   2   2   2   2
#     4  11  25  50  74 111 147 190 254 307 364 438
#     4  12  29  44  75 109 150 199 240 300 372 448
#     4  11  26  49  77 104 147 197 251 313 362 432
#     4  10  21  39  67 102 143 180 230 300 365 421
#     4  12  29  49  75 109 147 199 249 303 372 445
#     4  12  28  51  75 103 153 198 252 299 373 439
#     4  10  20  39  66 104 141 180 230 298 364 424
#     4  12  23  41  70 102 142 189 241 292 362 436
#
# _framework density 24.197980999999999
#
# number of rings (size 3 to 8) (size 9 to 14) (size 15 to 20)
#    0.000    0.750    3.750    2.625    7.000    2.500 
#    2.250    0.000    0.000    0.000    0.000    0.000 
#    0.000    0.000    0.000    0.000    0.000    0.000 
#
# Total GULP energy -89169.758428 kJ/mol
# GULP energy per Si atom -5573.109902 kJ/mol
# Density = 2.414291 g / cm^3
# Si number density = 24.197981 Si / 1000 Ang^3
#
#
#
# Elastic Constant Matrix: (Units=GPa)
#
#
# Indices 1 2 3 4 5 6 
#
# 1 76.5743 28.9956 11.5600 2.6349 12.0270 -30.6472
# 2 28.9956 102.6910 28.6450 -28.3227 7.9614 -37.2695
# 3 11.5600 28.6450 97.6566 -13.7036 23.8103 -10.0574
# 4 2.6349 -28.3227 -13.7036 23.1411 -9.2886 1.1968
# 5 12.0270 7.9614 23.8103 -9.2886 35.9216 2.7539
# 6 -30.6472 -37.2695 -10.0574 1.1968 2.7539 48.5567
#
#
#
# Elastic Compliance Matrix: (Units=1/GPa)
#
#
# Indices 1 2 3 4 5 6 
#
# 1 0.021256 -0.005219 0.000874 -0.013148 -0.010746 0.010525
# 2 -0.005219 0.025581 -0.001984 0.031749 0.004461 0.014894
# 3 0.000874 -0.001984 0.013232 0.001858 -0.008311 0.002195
# 4 -0.013148 0.031749 0.001858 0.091534 0.018796 0.013133
# 5 -0.010746 0.004461 -0.008311 0.018796 0.041422 -0.007893
# 6 0.010525 0.014894 0.002195 0.013133 -0.007893 0.039248
#
#
# Mechanical properties :
#
#
# Convention : Reuss Voigt Hill
#
# Bulk Modulus (GPa) = 21.09283 46.14700 33.61991
# Shear Modulus (GPa) = 19.17655 35.37194 27.27425
#
# Velocity S-wave (km/s) = 2.81817 3.82746 3.36092
# Velocity P-wave (km/s) = 4.39603 6.21648 5.38376
#
# Compressibility (1/GPa) = 0.04740948
#
# Stress axis : x y z
#
# Youngs Moduli (GPa) = 47.04548 39.09108 75.57610
#
# Poissons Ratio (x) = 0.20402 -0.06602
# Poissons Ratio (y) = 0.24553 0.14997
# Poissons Ratio (z) = -0.04110 0.07757
#
# Static dielectric constant tensor:
#      x y z
#    x 1.943470 0.018890 -0.185890 
#    y 0.018890 1.755060 -0.035040 
#    z -0.185890 -0.035040 2.638880 
# 
# From -- ./inp_files/429286.got.cif
#   From: 2010.05.17/outbox.cif.g08.bks.cpg/sg2_215_cif.got.tgz:429286.got - 2010.06.03 11:33:40.
