data_PCOD9105010
_publ_section_title
;
Structure prediction by ZEFSAII (Michael W. Deem and Ramdas Pophale) SiO2 
 PCOD9105010
Probable space group: P -1
;
_chemical_formula_sum "Si O2"
_cell_formula_units_Z 16
_cell_length_a 18.039577
_cell_length_b 6.457176
_cell_length_c 8.233016
_cell_angle_alpha 77.870261
_cell_angle_beta 127.107820
_cell_angle_gamma 87.167491
_cell_volume 728.404102
_symmetry_space_group_name_H-M "P -1"
_symmetry_group_IT_number 2
_symmetry_cell_setting 'triclinic'
loop_
_space_group_symop_operation_xyz
x,y,z
-x,-y,-z
loop_
_atom_site_type_symbol
_atom_site_label
_atom_site_fract_x
_atom_site_fract_y
_atom_site_fract_z
Si Si1 0.859909 0.234550 0.813596
Si Si2 0.067497 0.263505 0.615548
Si Si3 0.456074 0.552377 0.675085
Si Si4 0.244632 0.096790 0.091597
Si Si5 0.560277 0.168945 0.717331
Si Si6 0.041328 0.058877 0.288944
Si Si7 0.279880 0.322456 0.435149
Si Si8 0.430315 0.953829 0.775701
O O1 0.811433 0.486005 0.675921
O O2 0.793787 0.110078 0.854614
O O3 0.883316 0.089440 0.706551
O O4 0.960204 0.210215 0.045295
O O5 0.081894 0.189959 0.459644
O O6 0.000000 0.500000 0.500000
O O7 0.165219 0.237791 0.847132
O O8 0.012719 0.101181 0.661176
O O9 0.549145 0.357085 0.809225
O O10 0.455191 0.703520 0.492390
O O11 0.365523 0.446644 0.550219
O O12 0.441539 0.703577 0.788068
O O13 0.264202 0.239614 0.246799
O O14 0.339976 0.000264 0.133355
O O15 0.476108 0.049316 0.664036
O O16 0.323021 0.098010 0.627063
O O17 0.500000 0.000000 0.000000
#
# Coordination Sequence:
#
# PCOD9105010 Si02
#       8
#     2   2   2   2   2   2   2   2
#     4  10  20  39  63  88 117 154 203 243 290 344
#     4  10  21  41  61  88 125 152 191 240 303 349
#     4  10  21  39  64  83 114 154 201 245 287 349
#     4  11  22  38  61  91 117 153 201 251 283 352
#     4  10  21  37  63  86 111 158 199 240 293 342
#     4   9  21  40  63  87 118 158 193 242 295 355
#     4  11  21  37  64  86 117 154 204 239 293 348
#     4  11  24  41  57  85 125 155 194 245 297 352
#
# _framework density 21.96583
#
# number of rings (size 3 to 8) (size 9 to 14) (size 15 to 20)
#    0.000    1.750    2.500    1.125    3.500    3.000 
#    9.000    3.750    0.000    0.000    0.000    0.000 
#    0.000    0.000    0.000    0.000    0.000    0.000 
#
# Total GULP energy -89338.586930 kJ/mol
# GULP energy per Si atom -5583.661683 kJ/mol
# Density = 2.191583 g / cm^3
# Si number density = 21.965830 Si / 1000 Ang^3
#
#
#
# Elastic Constant Matrix: (Units=GPa)
#
#
# Indices 1 2 3 4 5 6 
#
# 1 44.2749 21.4169 17.2571 -9.9721 9.0600 -20.7992
# 2 21.4169 159.7098 86.7761 2.1828 16.3105 -50.8356
# 3 17.2571 86.7761 133.8437 12.9350 11.4288 -43.8484
# 4 -9.9721 2.1828 12.9350 44.0782 -8.9240 9.9094
# 5 9.0600 16.3105 11.4288 -8.9240 28.0894 -7.9517
# 6 -20.7992 -50.8356 -43.8484 9.9094 -7.9517 44.6266
#
#
#
# Elastic Compliance Matrix: (Units=1/GPa)
#
#
# Indices 1 2 3 4 5 6 
#
# 1 0.030251 0.000596 0.000421 0.002486 -0.005624 0.013637
# 2 0.000596 0.011843 -0.004136 -0.002064 -0.003333 0.009569
# 3 0.000421 -0.004136 0.014567 -0.006982 -0.002808 0.010847
# 4 0.002486 -0.002064 -0.006982 0.030198 0.009113 -0.013134
# 5 -0.005624 -0.003333 -0.002808 0.009113 0.042353 -0.003654
# 6 0.013637 0.009569 0.010847 -0.013134 -0.003654 0.052588
#
#
# Mechanical properties :
#
#
# Convention : Reuss Voigt Hill
#
# Bulk Modulus (GPa) = 19.83246 65.41430 42.62338
# Shear Modulus (GPa) = 24.40831 37.51739 30.96285
#
# Velocity S-wave (km/s) = 3.33707 4.13727 3.75853
# Velocity P-wave (km/s) = 4.88840 7.25722 6.18724
#
# Compressibility (1/GPa) = 0.05042239
#
# Stress axis : x y z
#
# Youngs Moduli (GPa) = 33.05649 84.43611 68.64756
#
# Poissons Ratio (x) = -0.05030 -0.02890
# Poissons Ratio (y) = -0.01969 0.28395
# Poissons Ratio (z) = -0.01391 0.34926
#
# Static dielectric constant tensor:
#      x y z
#    x 1.844930 -0.014500 -0.003820 
#    y -0.014500 1.833740 -0.017380 
#    z -0.003820 -0.017380 1.810180 
# 
# From -- ./inp_files/313591.got.cif
#   From: 2010.05.17/outbox.cif.g08.bks.cpg/sg2_157_cif.got.tgz:313591.got - 2010.06.03 11:33:40.
