data_PCOD9105103
_publ_section_title
;
Structure prediction by ZEFSAII (Michael W. Deem and Ramdas Pophale) SiO2 
 PCOD9105103
Probable space group: P -1
;
_chemical_formula_sum "Si O2"
_cell_formula_units_Z 13
_cell_length_a 14.242659
_cell_length_b 7.737945
_cell_length_c 6.858633
_cell_angle_alpha 59.066408
_cell_angle_beta 98.092387
_cell_angle_gamma 65.891490
_cell_volume 529.108666
_symmetry_space_group_name_H-M "P -1"
_symmetry_group_IT_number 2
_symmetry_cell_setting 'triclinic'
loop_
_space_group_symop_operation_xyz
x,y,z
-x,-y,-z
loop_
_atom_site_type_symbol
_atom_site_label
_atom_site_fract_x
_atom_site_fract_y
_atom_site_fract_z
Si Si1 0.115745 0.590711 0.419738
Si Si2 0.120252 0.274228 0.919125
Si Si3 0.426585 0.114157 0.219982
Si Si4 0.331938 0.781341 0.304676
Si Si5 0.000000 0.000000 0.500000
Si Si6 0.188571 0.548418 0.047314
Si Si7 0.496875 0.622209 0.126688
O O1 0.167856 0.345763 0.706973
O O2 0.004332 0.642551 0.238259
O O3 0.196026 0.552279 0.282511
O O4 0.069459 0.799944 0.450000
O O5 0.125872 0.416829 0.024081
O O6 0.197752 0.988116 0.154365
O O7 0.499631 0.150117 0.064594
O O8 0.500000 0.000000 0.500000
O O9 0.386417 0.938660 0.260625
O O10 0.312334 0.378591 0.083493
O O11 0.391225 0.564766 0.602393
O O12 0.384803 0.673361 0.173712
O O13 0.891615 0.180832 0.218579
O O14 0.500000 0.500000 0.000000
#
# Coordination Sequence:
#
# PCOD9105103 Si02
#       7
#     2   2   2   2   1   2   2
#     4  10  20  39  63  91 127 164 213 270 329 392
#     4   9  21  38  63  90 120 167 219 264 326 390
#     4  11  23  42  65  94 130 176 216 267 330 385
#     4  10  23  42  64  94 128 173 220 273 326 385
#     4  10  22  40  56  92 128 156 214 266 324 392
#     4  10  22  39  63  91 125 171 216 267 329 389
#     4  11  23  41  63  93 130 169 223 269 322 392
#
# _framework density 24.569621000000001
#
# number of rings (size 3 to 8) (size 9 to 14) (size 15 to 20)
#    0.000    1.846    1.538    1.385    2.154    2.462 
#    2.769    1.538    0.000    0.000    0.000    0.000 
#    0.000    0.000    0.000    0.000    0.000    0.000 
#
# Total GULP energy -72434.103348 kJ/mol
# GULP energy per Si atom -5571.854104 kJ/mol
# Density = 2.451370 g / cm^3
# Si number density = 24.569621 Si / 1000 Ang^3
#
#
#
# Elastic Constant Matrix: (Units=GPa)
#
#
# Indices 1 2 3 4 5 6 
#
# 1 47.0811 -4.9473 10.7713 9.8878 -6.7527 7.8469
# 2 -4.9473 37.3488 8.1442 29.2733 2.7706 11.2453
# 3 10.7713 8.1442 96.4227 9.0653 -18.4114 0.8308
# 4 9.8878 29.2733 9.0653 64.8995 -3.8562 7.8640
# 5 -6.7527 2.7706 -18.4114 -3.8562 32.0183 2.8453
# 6 7.8469 11.2453 0.8308 7.8640 2.8453 28.5061
#
#
#
# Elastic Compliance Matrix: (Units=1/GPa)
#
#
# Indices 1 2 3 4 5 6 
#
# 1 0.027411 0.014094 -0.002795 -0.008648 0.002884 -0.010926
# 2 0.014094 0.054556 -0.004869 -0.024245 -0.005870 -0.017985
# 3 -0.002795 -0.004869 0.012297 0.001156 0.006925 0.001322
# 4 -0.008648 -0.024245 0.001156 0.027244 0.003863 0.004010
# 5 0.002884 -0.005870 0.006925 0.003863 0.037102 -0.003449
# 6 -0.010926 -0.017985 0.001322 0.004010 -0.003449 0.044383
#
#
# Mechanical properties :
#
#
# Convention : Reuss Voigt Hill
#
# Bulk Modulus (GPa) = 9.33483 23.19877 16.26680
# Shear Modulus (GPa) = 22.13957 36.21040 29.17498
#
# Velocity S-wave (km/s) = 3.00508 3.84316 3.44967
# Velocity P-wave (km/s) = 3.98099 5.39960 4.74363
#
# Compressibility (1/GPa) = 0.10712568
#
# Stress axis : x y z
#
# Youngs Moduli (GPa) = 36.48137 18.32963 81.32323
#
# Poissons Ratio (x) = -0.25834 0.22727
# Poissons Ratio (y) = -0.51418 0.39596
# Poissons Ratio (z) = 0.10195 0.08925
#
# Static dielectric constant tensor:
#      x y z
#    x 2.090370 0.053330 -0.066530 
#    y 0.053330 2.049340 0.010010 
#    z -0.066530 0.010010 1.898590 
# 
# From -- ./inp_files/103849.got.cif
#   From: 2010.05.17/outbox.cif.g08.bks.cpg/sg2_52_cif.got.tgz:103849.got - 2010.06.03 11:33:40.
