data_PCOD9105033
_publ_section_title
;
Structure prediction by ZEFSAII (Michael W. Deem and Ramdas Pophale) SiO2 
 PCOD9105033
Probable space group: P -1
;
_chemical_formula_sum "Si O2"
_cell_formula_units_Z 16
_cell_length_a 8.017999
_cell_length_b 18.764470
_cell_length_c 18.320731
_cell_angle_alpha 154.096902
_cell_angle_beta 52.056740
_cell_angle_gamma 140.981556
_cell_volume 721.862877
_symmetry_space_group_name_H-M "P -1"
_symmetry_group_IT_number 2
_symmetry_cell_setting 'triclinic'
loop_
_space_group_symop_operation_xyz
x,y,z
-x,-y,-z
loop_
_atom_site_type_symbol
_atom_site_label
_atom_site_fract_x
_atom_site_fract_y
_atom_site_fract_z
Si Si1 0.705803 0.022017 0.526456
Si Si2 0.896376 0.501079 0.171983
Si Si3 0.856432 0.851795 0.061665
Si Si4 0.307501 0.341696 0.218259
Si Si5 0.610858 0.111510 0.794552
Si Si6 0.780793 0.341554 0.476375
Si Si7 0.402934 0.557486 0.148522
Si Si8 0.811202 0.697904 0.618345
O O1 0.646179 0.035791 0.639361
O O2 0.994445 0.263353 0.659846
O O3 0.500000 0.000000 0.500000
O O4 0.658061 0.804708 0.329588
O O5 0.590214 0.377520 0.173106
O O6 0.140911 0.545268 0.194059
O O7 0.861101 0.345059 0.974513
O O8 0.614303 0.863265 0.137301
O O9 0.902749 0.824612 0.940456
O O10 0.725732 0.634833 0.937805
O O11 0.105508 0.087577 0.242511
O O12 0.361165 0.555932 0.377051
O O13 0.185642 0.275716 0.270924
O O14 0.464692 0.911707 0.705726
O O15 0.000000 0.500000 0.500000
O O16 0.971563 0.343815 0.488245
O O17 0.500000 0.500000 0.000000
O O18 0.500000 0.500000 0.500000
#
# Coordination Sequence:
#
# PCOD9105033 Si02
#       8
#     2   2   2   2   2   2   2   2
#     4  10  21  38  59  85 119 158 196 246 302 353
#     4  10  23  39  61  89 120 157 203 252 295 353
#     4  10  21  39  61  86 121 159 194 244 302 356
#     4  10  21  40  61  87 119 159 201 243 296 357
#     4  10  20  39  63  89 119 156 200 248 299 355
#     4   9  20  38  61  86 118 155 194 241 296 350
#     4  11  24  41  61  89 122 160 200 247 303 358
#     4  10  22  38  62  91 119 154 197 247 299 354
#
# _framework density 22.164873
#
# number of rings (size 3 to 8) (size 9 to 14) (size 15 to 20)
#    0.000    2.000    0.000    3.000    0.000   11.000 
#    0.000    5.000    0.000    0.000    0.000    0.000 
#    0.000    0.000    0.000    0.000    0.000    0.000 
#
# Total GULP energy -89083.987795 kJ/mol
# GULP energy per Si atom -5567.749237 kJ/mol
# Density = 2.211442 g / cm^3
# Si number density = 22.164873 Si / 1000 Ang^3
#
#
#
# Elastic Constant Matrix: (Units=GPa)
#
#
# Indices 1 2 3 4 5 6 
#
# 1 26.9998 4.3247 32.0694 6.5656 -17.2749 -4.0488
# 2 4.3247 42.1400 25.6912 5.8590 -3.6936 -14.8488
# 3 32.0694 25.6912 176.1389 32.2676 -11.9521 -16.5259
# 4 6.5656 5.8590 32.2676 50.7108 1.8694 -5.4882
# 5 -17.2749 -3.6936 -11.9521 1.8694 34.5476 -0.7539
# 6 -4.0488 -14.8488 -16.5259 -5.4882 -0.7539 24.2977
#
#
#
# Elastic Compliance Matrix: (Units=1/GPa)
#
#
# Indices 1 2 3 4 5 6 
#
# 1 0.071632 0.005202 -0.010055 -0.003790 0.033286 0.008453
# 2 0.005202 0.032299 -0.003515 -0.000383 0.005258 0.018291
# 3 -0.010055 -0.003515 0.008638 -0.003580 -0.002196 0.001175
# 4 -0.003790 -0.000383 -0.003580 0.022881 -0.004375 0.001732
# 5 0.033286 0.005258 -0.002196 -0.004375 0.045797 0.007699
# 6 0.008453 0.018291 0.001175 0.001732 0.007699 0.055172
#
#
# Mechanical properties :
#
#
# Convention : Reuss Voigt Hill
#
# Bulk Modulus (GPa) = 10.43479 41.04989 25.74234
# Shear Modulus (GPa) = 17.53772 34.12413 25.83092
#
# Velocity S-wave (km/s) = 2.81595 3.92798 3.41750
# Velocity P-wave (km/s) = 3.91034 6.25560 5.21648
#
# Compressibility (1/GPa) = 0.09583327
#
# Stress axis : x y z
#
# Youngs Moduli (GPa) = 13.96015 30.96068 115.77059
#
# Poissons Ratio (x) = -0.16105 1.16404
# Poissons Ratio (y) = -0.07262 0.40694
# Poissons Ratio (z) = 0.14037 0.10883
#
# Static dielectric constant tensor:
#      x y z
#    x 2.190840 -0.353630 0.643130 
#    y -0.353630 2.204510 -0.560330 
#    z 0.643130 -0.560330 3.011620 
# 
# From -- ./inp_files/307538.got.cif
#   From: 2010.05.17/outbox.cif.g08.bks.cpg/sg2_154_cif.got.tgz:307538.got - 2010.06.03 11:33:40.
