data_PCOD9105315
_publ_section_title
;
Structure prediction by ZEFSAII (Michael W. Deem and Ramdas Pophale) SiO2 
 PCOD9105315
Probable space group: P -1
;
_chemical_formula_sum "Si O2"
_cell_formula_units_Z 15
_cell_length_a 7.685876
_cell_length_b 7.842033
_cell_length_c 14.199153
_cell_angle_alpha 56.124057
_cell_angle_beta 67.079352
_cell_angle_gamma 52.271844
_cell_volume 560.459089
_symmetry_space_group_name_H-M "P -1"
_symmetry_group_IT_number 2
_symmetry_cell_setting 'triclinic'
loop_
_space_group_symop_operation_xyz
x,y,z
-x,-y,-z
loop_
_atom_site_type_symbol
_atom_site_label
_atom_site_fract_x
_atom_site_fract_y
_atom_site_fract_z
Si Si1 0.121289 0.434341 0.315382
Si Si2 0.325232 0.521391 0.603664
Si Si3 0.000000 0.500000 0.500000
Si Si4 0.669074 0.999086 0.725971
Si Si5 0.836736 0.830286 0.095384
Si Si6 0.122247 0.971886 0.645942
Si Si7 0.213576 0.783262 0.896530
Si Si8 0.736601 0.682612 0.988888
O O1 0.902255 0.440390 0.406613
O O2 0.008493 0.619344 0.194936
O O3 0.174874 0.513952 0.376403
O O4 0.298429 0.183903 0.309672
O O5 0.500000 0.500000 0.500000
O O6 0.444921 0.252275 0.701325
O O7 0.258857 0.740838 0.620021
O O8 0.156032 0.196241 0.562860
O O9 0.719932 0.848922 0.856649
O O10 0.871776 0.042562 0.653405
O O11 0.700595 0.069310 0.110818
O O12 0.681745 0.784879 0.073896
O O13 0.986172 0.865893 0.975341
O O14 0.171734 0.872991 0.771816
O O15 0.350909 0.497077 0.955847
O O16 0.000000 0.500000 0.000000
#
# Coordination Sequence:
#
# PCOD9105315 Si02
#       8
#     2   2   1   2   2   2   2   2
#     4  11  22  42  67  94 130 170 226 279 328 407
#     4  11  25  44  64  94 134 177 231 281 323 398
#     4  12  24  38  68  96 122 186 222 262 348 384
#     4  11  21  42  70  94 126 176 220 272 346 394
#     4  10  18  34  65  98 134 166 212 284 334 398
#     4  11  22  42  67  94 130 170 226 279 328 407
#     4  10  18  34  65  98 134 166 212 284 334 398
#     4  10  16  33  65  97 125 169 217 261 334 407
#
# _framework density 26.763774999999999
#
# number of rings (size 3 to 8) (size 9 to 14) (size 15 to 20)
#    0.000    1.333    6.667    2.400    0.000    2.133 
#    0.000    8.667    0.000    1.600    0.000    0.000 
#    0.000    0.000    0.000    0.000    0.000    0.000 
#
# Total GULP energy -83742.925209 kJ/mol
# GULP energy per Si atom -5582.861681 kJ/mol
# Density = 2.670286 g / cm^3
# Si number density = 26.763775 Si / 1000 Ang^3
#
#
#
# Elastic Constant Matrix: (Units=GPa)
#
#
# Indices 1 2 3 4 5 6 
#
# 1 48.5818 44.5634 12.7537 -0.1813 0.0821 3.8561
# 2 44.5634 205.0855 53.1976 -4.6705 13.0094 32.5581
# 3 12.7537 53.1976 162.1205 -14.8369 11.4925 -6.8514
# 4 -0.1813 -4.6705 -14.8369 60.5533 0.5160 -0.0222
# 5 0.0821 13.0094 11.4925 0.5160 27.3678 -1.9728
# 6 3.8561 32.5581 -6.8514 -0.0222 -1.9728 56.7029
#
#
#
# Elastic Compliance Matrix: (Units=1/GPa)
#
#
# Indices 1 2 3 4 5 6 
#
# 1 0.026091 -0.006100 -0.000235 -0.000475 0.003059 0.001806
# 2 -0.006100 0.007589 -0.001963 0.000111 -0.003076 -0.004287
# 3 -0.000235 -0.001963 0.007203 0.001630 -0.001981 0.001945
# 4 -0.000475 0.000111 0.001630 0.016930 -0.001045 0.000136
# 5 0.003059 -0.003076 -0.001981 -0.001045 0.039037 0.002676
# 6 0.001806 -0.004287 0.001945 0.000136 0.002676 0.020303
#
#
# Mechanical properties :
#
#
# Convention : Reuss Voigt Hill
#
# Bulk Modulus (GPa) = 41.17606 70.75746 55.96676
# Shear Modulus (GPa) = 35.25016 49.27634 42.26325
#
# Velocity S-wave (km/s) = 3.63310 4.29553 3.97813
# Velocity P-wave (km/s) = 5.74610 7.14823 6.48517
#
# Compressibility (1/GPa) = 0.02428596
#
# Stress axis : x y z
#
# Youngs Moduli (GPa) = 38.32804 131.77075 138.83431
#
# Poissons Ratio (x) = 0.80379 0.03262
# Poissons Ratio (y) = 0.23380 0.27258
# Poissons Ratio (z) = 0.00900 0.25871
#
# Static dielectric constant tensor:
#      x y z
#    x 1.754170 -0.226310 -0.333770 
#    y -0.226310 2.040760 -0.209870 
#    z -0.333770 -0.209870 2.085430 
# 
# From -- ./inp_files/512745.got.cif
#   From: 2010.05.17/outbox.cif.g08.bks.cpg/sg2_257_cif.got.tgz:512745.got - 2010.06.03 11:33:40.
