data_PCOD9105516
_publ_section_title
;
Structure prediction by ZEFSAII (Michael W. Deem and Ramdas Pophale) SiO2 
 PCOD9105516
Probable space group: P -1
;
_chemical_formula_sum "Si O2"
_cell_formula_units_Z 14
_cell_length_a 8.766076
_cell_length_b 16.030845
_cell_length_c 7.945458
_cell_angle_alpha 96.830493
_cell_angle_beta 104.899153
_cell_angle_gamma 33.349644
_cell_volume 583.452802
_symmetry_space_group_name_H-M "P -1"
_symmetry_group_IT_number 2
_symmetry_cell_setting 'triclinic'
loop_
_space_group_symop_operation_xyz
x,y,z
-x,-y,-z
loop_
_atom_site_type_symbol
_atom_site_label
_atom_site_fract_x
_atom_site_fract_y
_atom_site_fract_z
Si Si1 0.458931 0.945932 0.344027
Si Si2 0.657778 0.663356 0.907504
Si Si3 0.745945 0.488006 0.432670
Si Si4 0.188681 0.992073 0.989677
Si Si5 0.821990 0.847556 0.135157
Si Si6 0.381147 0.276456 0.480396
Si Si7 0.617458 0.498503 0.790693
O O1 0.205586 0.052256 0.160513
O O2 0.743500 0.836915 0.284428
O O3 0.405493 0.885703 0.420215
O O4 0.500000 0.000000 0.500000
O O5 0.608495 0.712594 0.712064
O O6 0.538181 0.621711 0.885935
O O7 0.499259 0.807058 0.002248
O O8 0.000000 0.500000 0.000000
O O9 0.590979 0.647097 0.400767
O O10 0.685656 0.492620 0.612680
O O11 0.623318 0.466698 0.281859
O O12 0.074682 0.367706 0.457414
O O13 0.092091 0.092032 0.828100
O O14 0.000000 0.000000 0.000000
O O15 0.086106 0.675251 0.095432
O O16 0.500000 0.000000 0.000000
#
# Coordination Sequence:
#
# PCOD9105516 Si02
#       7
#     2   2   2   2   2   2   2
#     4  11  23  42  67  92 126 182 229 272 335 418
#     4  11  24  43  69  99 138 181 226 275 345 416
#     4   9  20  36  66  97 132 166 220 284 336 387
#     4  11  27  46  65  97 143 179 224 286 352 405
#     4  10  21  41  66  94 136 178 218 277 344 409
#     4  10  21  39  67  96 128 175 228 271 336 403
#     4  10  20  39  65 101 133 171 224 283 333 400
#
# _framework density 23.995086000000001
#
# number of rings (size 3 to 8) (size 9 to 14) (size 15 to 20)
#    0.000    1.714    1.429    2.571    6.000    2.286 
#    2.571    2.857    0.000    0.000    0.000    0.000 
#    0.000    0.000    0.000    0.000    0.000    0.000 
#
# Total GULP energy -78036.321688 kJ/mol
# GULP energy per Si atom -5574.022978 kJ/mol
# Density = 2.394047 g / cm^3
# Si number density = 23.995086 Si / 1000 Ang^3
#
#
#
# Elastic Constant Matrix: (Units=GPa)
#
#
# Indices 1 2 3 4 5 6 
#
# 1 140.6689 26.5447 27.6154 2.4882 10.4965 33.5080
# 2 26.5447 86.3961 21.8881 -2.8309 -4.7811 30.1934
# 3 27.6154 21.8881 56.1531 6.5042 6.5724 16.2459
# 4 2.4882 -2.8309 6.5042 30.3186 15.1297 -1.1630
# 5 10.4965 -4.7811 6.5724 15.1297 35.4086 -3.6724
# 6 33.5080 30.1934 16.2459 -1.1630 -3.6724 44.7047
#
#
#
# Elastic Compliance Matrix: (Units=1/GPa)
#
#
# Indices 1 2 3 4 5 6 
#
# 1 0.009357 -0.000235 -0.002441 0.001260 -0.003536 -0.006225
# 2 -0.000235 0.015878 -0.003776 0.001244 0.001447 -0.009024
# 3 -0.002441 -0.003776 0.022423 -0.003733 -0.002778 -0.004094
# 4 0.001260 0.001244 -0.003733 0.042660 -0.017822 -0.000782
# 5 -0.003536 0.001447 -0.002778 -0.017822 0.038171 0.005355
# 6 -0.006225 -0.009024 -0.004094 -0.000782 0.005355 0.035037
#
#
# Mechanical properties :
#
#
# Convention : Reuss Voigt Hill
#
# Bulk Modulus (GPa) = 28.77431 48.36829 38.57130
# Shear Modulus (GPa) = 26.59354 35.89770 31.24562
#
# Velocity S-wave (km/s) = 3.33271 3.87207 3.61247
# Velocity P-wave (km/s) = 5.17949 6.33971 5.78874
#
# Compressibility (1/GPa) = 0.03475323
#
# Stress axis : x y z
#
# Youngs Moduli (GPa) = 106.87255 62.97966 44.59758
#
# Poissons Ratio (x) = 0.01482 0.10886
# Poissons Ratio (y) = 0.02515 0.16840
# Poissons Ratio (z) = 0.26086 0.23782
#
# Static dielectric constant tensor:
#      x y z
#    x 1.940180 -0.106140 -0.322750 
#    y -0.106140 1.758780 -0.676260 
#    z -0.322750 -0.676260 -0.182560 
# 
# From -- ./inp_files/207863.got.cif
#   From: 2010.05.17/outbox.cif.g08.bks.cpg/sg2_104_cif.got.tgz:207863.got - 2010.06.03 11:33:40.
