data_PCOD9105007
_publ_section_title
;
Structure prediction by ZEFSAII (Michael W. Deem and Ramdas Pophale) SiO2 
 PCOD9105007
Probable space group: P -1
;
_chemical_formula_sum "Si O2"
_cell_formula_units_Z 16
_cell_length_a 22.054818
_cell_length_b 5.192726
_cell_length_c 8.650404
_cell_angle_alpha 94.544897
_cell_angle_beta 60.151117
_cell_angle_gamma 117.868909
_cell_volume 744.242952
_symmetry_space_group_name_H-M "P -1"
_symmetry_group_IT_number 2
_symmetry_cell_setting 'triclinic'
loop_
_space_group_symop_operation_xyz
x,y,z
-x,-y,-z
loop_
_atom_site_type_symbol
_atom_site_label
_atom_site_fract_x
_atom_site_fract_y
_atom_site_fract_z
Si Si1 0.463061 0.747511 0.165425
Si Si2 0.905151 0.356300 0.127143
Si Si3 0.257580 0.666730 0.109657
Si Si4 0.674384 0.234887 0.450980
Si Si5 0.543609 0.819140 0.379537
Si Si6 0.818896 0.693644 0.114885
Si Si7 0.790901 0.150228 0.527951
Si Si8 0.327373 0.306806 0.135843
O O1 0.393890 0.772759 0.352077
O O2 0.525157 0.769821 0.218525
O O3 0.410478 0.434260 0.128954
O O4 0.500000 0.000000 0.000000
O O5 0.875714 0.584080 0.119392
O O6 0.872523 0.253605 0.338317
O O7 0.860496 0.047569 0.073740
O O8 0.000000 0.500000 0.000000
O O9 0.204593 0.636307 0.327421
O O10 0.322312 0.565165 0.064836
O O11 0.303107 0.021963 0.046596
O O12 0.205390 0.465744 0.027117
O O13 0.736080 0.550978 0.311724
O O14 0.728320 0.146481 0.482118
O O15 0.631352 0.009296 0.352703
O O16 0.500000 0.500000 0.500000
O O17 0.500000 0.000000 0.500000
O O18 0.745475 0.829791 0.652669
#
# Coordination Sequence:
#
# PCOD9105007 Si02
#       8
#     2   2   2   2   2   2   2   2
#     4  11  22  39  63  96 129 175 226 287 342 384
#     4  11  24  43  69 101 134 164 206 266 326 391
#     4  10  22  39  67  92 124 165 226 262 309 380
#     4  10  21  42  62  90 125 178 223 269 323 398
#     4  10  23  40  58  86 128 164 217 275 335 375
#     4  11  24  43  68  96 129 172 219 258 323 395
#     4   9  21  39  70  92 124 176 219 258 322 395
#     4  10  20  39  63  87 128 165 225 258 323 381
#
# _framework density 21.498356000000001
#
# number of rings (size 3 to 8) (size 9 to 14) (size 15 to 20)
#    0.750    1.000    1.250    2.625    3.500    3.000 
#    4.500    6.250    0.000    0.000    0.000    0.000 
#    0.000    0.000    0.000    0.000    0.000    0.000 
#
# Total GULP energy -89374.464180 kJ/mol
# GULP energy per Si atom -5585.904011 kJ/mol
# Density = 2.144943 g / cm^3
# Si number density = 21.498356 Si / 1000 Ang^3
#
#
#
# Elastic Constant Matrix: (Units=GPa)
#
#
# Indices 1 2 3 4 5 6 
#
# 1 42.1520 7.7459 46.0068 -3.9772 0.4700 5.8005
# 2 7.7459 105.8880 44.6552 9.8104 -0.7546 2.4406
# 3 46.0068 44.6552 131.2710 10.0319 -6.5259 22.8891
# 4 -3.9772 9.8104 10.0319 39.9424 8.8525 0.6111
# 5 0.4700 -0.7546 -6.5259 8.8525 33.3558 -2.5439
# 6 5.8005 2.4406 22.8891 0.6111 -2.5439 33.7640
#
#
#
# Elastic Compliance Matrix: (Units=1/GPa)
#
#
# Indices 1 2 3 4 5 6 
#
# 1 0.043127 0.003434 -0.017981 0.009285 -0.006215 0.003896
# 2 0.003434 0.011540 -0.005463 -0.001066 -0.000400 0.002269
# 3 -0.017981 -0.005463 0.017876 -0.005821 0.004548 -0.008187
# 4 0.009285 -0.001066 -0.005821 0.029678 -0.009078 0.001207
# 5 -0.006215 -0.000400 0.004548 -0.009078 0.033410 0.000695
# 6 0.003896 0.002269 -0.008187 0.001207 0.000695 0.034365
#
#
# Mechanical properties :
#
#
# Convention : Reuss Voigt Hill
#
# Bulk Modulus (GPa) = 30.74701 52.90299 41.82500
# Shear Modulus (GPa) = 22.63901 33.47264 28.05583
#
# Velocity S-wave (km/s) = 3.24861 3.95015 3.61643
# Velocity P-wave (km/s) = 5.32957 6.74286 6.07744
#
# Compressibility (1/GPa) = 0.03252349
#
# Stress axis : x y z
#
# Youngs Moduli (GPa) = 23.18742 86.65256 55.93980
#
# Poissons Ratio (x) = -0.29754 1.00583
# Poissons Ratio (y) = -0.07962 0.30561
# Poissons Ratio (z) = 0.41692 0.47339
#
# Static dielectric constant tensor:
#      x y z
#    x 1.775680 -0.014080 0.003200 
#    y -0.014080 1.790860 0.029410 
#    z 0.003200 0.029410 1.839100 
# 
# From -- ./inp_files/351044.got.cif
#   From: 2010.05.17/outbox.cif.g08.bks.cpg/sg2_176_cif.got.tgz:351044.got - 2010.06.03 11:33:40.
