data_PCOD9105661
_publ_section_title
;
Structure prediction by ZEFSAII (Michael W. Deem and Ramdas Pophale) SiO2 
 PCOD9105661
Probable space group: P -1
;
_chemical_formula_sum "Si O2"
_cell_formula_units_Z 16
_cell_length_a 9.630348
_cell_length_b 23.428702
_cell_length_c 13.623828
_cell_angle_alpha 160.760356
_cell_angle_beta 135.189393
_cell_angle_gamma 45.602795
_cell_volume 707.958465
_symmetry_space_group_name_H-M "P -1"
_symmetry_group_IT_number 2
_symmetry_cell_setting 'triclinic'
loop_
_space_group_symop_operation_xyz
x,y,z
-x,-y,-z
loop_
_atom_site_type_symbol
_atom_site_label
_atom_site_fract_x
_atom_site_fract_y
_atom_site_fract_z
Si Si1 0.447317 0.750225 0.407291
Si Si2 0.714121 0.892253 0.409347
Si Si3 0.753518 0.928056 0.274921
Si Si4 0.716811 0.702210 0.280447
Si Si5 0.083937 0.615391 0.904249
Si Si6 0.885510 0.495077 0.786480
Si Si7 0.610181 0.535737 0.325256
Si Si8 0.482049 0.652227 0.657080
O O1 0.630774 0.751284 0.425072
O O2 0.290013 0.625677 0.085153
O O3 0.519221 0.685722 0.445726
O O4 0.315086 0.934711 0.621609
O O5 0.781548 0.987274 0.498644
O O6 0.782742 0.859931 0.504861
O O7 0.500000 0.000000 0.500000
O O8 0.776644 0.686968 0.072922
O O9 0.950274 0.802190 0.139018
O O10 0.563487 0.820404 0.013553
O O11 0.904669 0.554612 0.137134
O O12 0.532510 0.617456 0.001955
O O13 0.171989 0.538653 0.723255
O O14 0.948173 0.502545 0.715926
O O15 0.743815 0.347361 0.490776
O O16 0.609343 0.602084 0.542511
O O17 0.500000 0.500000 0.500000
#
# Coordination Sequence:
#
# PCOD9105661 Si02
#       8
#     2   2   2   2   2   2   2   2
#     4  11  21  38  63  91 126 151 199 264 308 355
#     4  11  21  35  63  92 122 160 192 260 314 341
#     4  11  24  40  58  90 131 160 201 252 302 362
#     4  11  19  38  63  96 120 154 209 257 301 356
#     4  10  20  39  65  94 116 156 203 257 308 354
#     4  11  21  39  66  91 124 158 210 250 300 361
#     4  11  22  38  66  91 116 163 206 247 311 361
#     4  12  24  41  63  87 123 170 207 244 297 371
#
# _framework density 22.600196
#
# number of rings (size 3 to 8) (size 9 to 14) (size 15 to 20)
#    0.000    1.000    7.500    1.500    0.000    1.000 
#    0.000    0.625    0.000    0.000    0.000    0.000 
#    0.000    0.000    0.000    0.000    0.000    0.000 
#
# Total GULP energy -89114.585109 kJ/mol
# GULP energy per Si atom -5569.661569 kJ/mol
# Density = 2.254876 g / cm^3
# Si number density = 22.600196 Si / 1000 Ang^3
#
#
#
# Elastic Constant Matrix: (Units=GPa)
#
#
# Indices 1 2 3 4 5 6 
#
# 1 172.4466 46.3613 13.9353 8.6994 -11.5062 -0.8151
# 2 46.3613 96.5934 18.2486 27.9954 -18.2488 0.5087
# 3 13.9353 18.2486 20.7246 7.9555 8.3884 -3.8151
# 4 8.6994 27.9954 7.9555 33.8031 -6.2585 1.4823
# 5 -11.5062 -18.2488 8.3884 -6.2585 25.8557 5.1684
# 6 -0.8151 0.5087 -3.8151 1.4823 5.1684 51.2899
#
#
#
# Elastic Compliance Matrix: (Units=1/GPa)
#
#
# Indices 1 2 3 4 5 6 
#
# 1 0.006966 -0.002213 -0.005190 0.002005 0.003846 -0.000699
# 2 -0.002213 0.022653 -0.025027 -0.008049 0.021995 -0.004105
# 3 -0.005190 -0.025027 0.107149 -0.015162 -0.061356 0.014757
# 4 0.002005 -0.008049 -0.015162 0.041450 0.010824 -0.003305
# 5 0.003846 0.021995 -0.061356 0.010824 0.081077 -0.013204
# 6 -0.000699 -0.004105 0.014757 -0.003305 -0.013204 0.022050
#
#
# Mechanical properties :
#
#
# Convention : Reuss Voigt Hill
#
# Bulk Modulus (GPa) = 13.90670 49.65053 31.77862
# Shear Modulus (GPa) = 13.50710 36.27104 24.88907
#
# Velocity S-wave (km/s) = 2.44735 4.01047 3.32215
# Velocity P-wave (km/s) = 3.76201 6.59256 5.36724
#
# Compressibility (1/GPa) = 0.07190780
#
# Stress axis : x y z
#
# Youngs Moduli (GPa) = 143.56399 44.14403 9.33276
#
# Poissons Ratio (x) = 0.09771 0.04843
# Poissons Ratio (y) = 0.31778 0.23357
# Poissons Ratio (z) = 0.74503 1.10480
#
# Static dielectric constant tensor:
#      x y z
#    x 1.888980 0.040110 0.023850 
#    y 0.040110 1.909380 0.012330 
#    z 0.023850 0.012330 1.911250 
# 
# From -- ./inp_files/508675.got.cif
#   From: 2010.05.17/outbox.cif.g08.bks.cpg/sg2_255_cif.got.tgz:508675.got - 2010.06.03 11:33:40.
