data_PCOD9105897
_publ_section_title
;
Structure prediction by ZEFSAII (Michael W. Deem and Ramdas Pophale) SiO2 
 PCOD9105897
Probable space group: P -1
;
_chemical_formula_sum "Si O2"
_cell_formula_units_Z 16
_cell_length_a 20.406234
_cell_length_b 16.429024
_cell_length_c 11.647688
_cell_angle_alpha 40.496513
_cell_angle_beta 32.479597
_cell_angle_gamma 19.593182
_cell_volume 690.322565
_symmetry_space_group_name_H-M "P -1"
_symmetry_group_IT_number 2
_symmetry_cell_setting 'triclinic'
loop_
_space_group_symop_operation_xyz
x,y,z
-x,-y,-z
loop_
_atom_site_type_symbol
_atom_site_label
_atom_site_fract_x
_atom_site_fract_y
_atom_site_fract_z
Si Si1 0.122314 0.086769 0.395837
Si Si2 0.592551 0.491000 0.760234
Si Si3 0.451391 0.875680 0.663800
Si Si4 0.967054 0.507637 0.241997
Si Si5 0.983955 0.216820 0.864639
Si Si6 0.218563 0.359375 0.253648
Si Si7 0.231120 0.845886 0.703506
Si Si8 0.284831 0.062566 0.960101
O O1 0.875460 0.226054 0.606515
O O2 0.058765 0.287609 0.310620
O O3 0.289562 0.868114 0.476672
O O4 0.226647 0.012062 0.195643
O O5 0.560408 0.660143 0.670010
O O6 0.435284 0.624075 0.732543
O O7 0.500000 0.500000 0.000000
O O8 0.692577 0.748146 0.443890
O O9 0.202772 0.103217 0.716171
O O10 0.357505 0.940451 0.861649
O O11 0.929626 0.647403 0.051323
O O12 0.150434 0.397682 0.182506
O O13 0.768936 0.505440 0.875024
O O14 0.061569 0.094490 0.757525
O O15 0.918026 0.149471 0.103221
O O16 0.000000 0.500000 0.500000
O O17 0.477655 0.072748 0.204445
#
# Coordination Sequence:
#
# PCOD9105897 Si02
#       8
#     2   2   2   2   2   2   2   2
#     4  11  25  43  64  95 131 171 208 266 327 379
#     4  10  22  41  72  94 120 170 218 262 315 375
#     4  10  20  39  66  93 127 162 215 265 313 377
#     4  11  23  43  65  91 130 170 220 262 314 385
#     4  10  20  39  67  94 123 164 213 272 310 367
#     4  12  23  37  66  96 125 166 210 265 324 369
#     4  10  22  41  65  94 129 162 221 261 314 384
#     4  12  25  40  62  97 134 165 213 263 327 383
#
# _framework density 23.177572000000001
#
# number of rings (size 3 to 8) (size 9 to 14) (size 15 to 20)
#    0.000    1.250    2.500    4.500    3.500    3.500 
#    0.000    3.125    0.000    0.000    0.000    0.000 
#    0.000    0.000    0.000    0.000    0.000    0.000 
#
# Total GULP energy -89274.550245 kJ/mol
# GULP energy per Si atom -5579.659390 kJ/mol
# Density = 2.312482 g / cm^3
# Si number density = 23.177572 Si / 1000 Ang^3
#
#
#
# Elastic Constant Matrix: (Units=GPa)
#
#
# Indices 1 2 3 4 5 6 
#
# 1 63.1895 28.4810 27.2213 -10.7453 -5.8851 -19.5760
# 2 28.4810 67.0332 3.7355 -9.5709 -3.5889 -34.5315
# 3 27.2213 3.7355 95.0080 -16.5652 16.7100 -20.6174
# 4 -10.7453 -9.5709 -16.5652 29.4326 -7.3387 9.1441
# 5 -5.8851 -3.5889 16.7100 -7.3387 34.4013 -1.5590
# 6 -19.5760 -34.5315 -20.6174 9.1441 -1.5590 34.2004
#
#
#
# Elastic Compliance Matrix: (Units=1/GPa)
#
#
# Indices 1 2 3 4 5 6 
#
# 1 0.024383 -0.009289 -0.007418 0.003770 0.007585 -0.000556
# 2 -0.009289 0.039031 0.010193 0.002743 -0.000093 0.039499
# 3 -0.007418 0.010193 0.017501 0.003940 -0.007177 0.015215
# 4 0.003770 0.002743 0.003940 0.041448 0.007704 -0.003428
# 5 0.007585 -0.000093 -0.007177 0.007704 0.035462 -0.000522
# 6 -0.000556 0.039499 0.015215 -0.003428 -0.000522 0.078868
#
#
# Mechanical properties :
#
#
# Convention : Reuss Voigt Hill
#
# Bulk Modulus (GPa) = 14.73038 38.23404 26.48221
# Shear Modulus (GPa) = 18.35881 30.65972 24.50926
#
# Velocity S-wave (km/s) = 2.81747 3.64100 3.25538
# Velocity P-wave (km/s) = 4.11745 5.84874 5.05773
#
# Compressibility (1/GPa) = 0.06788690
#
# Stress axis : x y z
#
# Youngs Moduli (GPa) = 41.01250 25.62087 57.13924
#
# Poissons Ratio (x) = 0.23798 0.42387
# Poissons Ratio (y) = 0.38095 -0.58242
# Poissons Ratio (z) = 0.30424 -0.26115
#
# Static dielectric constant tensor:
#      x y z
#    x 1.864650 -0.064690 -0.012740 
#    y -0.064690 1.916670 -0.001900 
#    z -0.012740 -0.001900 1.931600 
# 
# From -- ./inp_files/472387.got.cif
#   From: 2010.05.17/outbox.cif.g08.bks.cpg/sg2_237_cif.got.tgz:472387.got - 2010.06.03 11:33:40.
