data_PCOD9105104
_publ_section_title
;
Structure prediction by ZEFSAII (Michael W. Deem and Ramdas Pophale) SiO2 
 PCOD9105104
Probable space group: P -1
;
_chemical_formula_sum "Si O2"
_cell_formula_units_Z 13
_cell_length_a 8.076207
_cell_length_b 10.805196
_cell_length_c 8.897787
_cell_angle_alpha 107.938364
_cell_angle_beta 74.893560
_cell_angle_gamma 135.883768
_cell_volume 513.319841
_symmetry_space_group_name_H-M "P -1"
_symmetry_group_IT_number 2
_symmetry_cell_setting 'triclinic'
loop_
_space_group_symop_operation_xyz
x,y,z
-x,-y,-z
loop_
_atom_site_type_symbol
_atom_site_label
_atom_site_fract_x
_atom_site_fract_y
_atom_site_fract_z
Si Si1 0.407756 0.658132 0.321731
Si Si2 0.600503 0.248428 0.950647
Si Si3 0.009397 0.295854 0.416937
Si Si4 0.627898 0.146848 0.201761
Si Si5 0.791726 0.995629 0.557466
Si Si6 0.832698 0.801372 0.903219
Si Si7 0.500000 0.500000 0.000000
O O1 0.295939 0.671151 0.207492
O O2 0.222180 0.509514 0.433168
O O3 0.604310 0.854668 0.420235
O O4 0.527132 0.594090 0.195353
O O5 0.421591 0.030818 0.892739
O O6 0.728403 0.277786 0.084262
O O7 0.445367 0.299902 0.039509
O O8 0.102381 0.212798 0.280401
O O9 0.798939 0.233964 0.336093
O O10 0.908375 0.194296 0.559338
O O11 0.371437 0.074086 0.281895
O O12 0.000000 0.000000 0.500000
O O13 0.801596 0.659941 0.961849
O O14 0.000000 0.000000 0.000000
#
# Coordination Sequence:
#
# PCOD9105104 Si02
#       7
#     2   2   2   2   2   2   1
#     4  10  22  42  70  96 130 168 218 267 327 381
#     4  10  21  40  64  98 129 170 215 269 316 386
#     4  11  22  40  69  97 125 172 214 267 323 390
#     4  11  23  40  65  97 133 168 221 260 328 390
#     4  12  26  46  65  93 132 178 216 268 324 389
#     4  10  16  33  60  86 121 160 202 251 311 362
#     4   8  18  32  58  96 116 152 208 256 298 380
#
# _framework density 25.325341000000002
#
# number of rings (size 3 to 8) (size 9 to 14) (size 15 to 20)
#    0.000    1.538    3.077    2.308    0.000    1.846 
#    2.769    0.000    0.000    0.000    0.000    0.000 
#    0.000    0.000    0.000    0.000    0.000    0.000 
#
# Total GULP energy -72422.690804 kJ/mol
# GULP energy per Si atom -5570.976216 kJ/mol
# Density = 2.526770 g / cm^3
# Si number density = 25.325341 Si / 1000 Ang^3
#
#
#
# Elastic Constant Matrix: (Units=GPa)
#
#
# Indices 1 2 3 4 5 6 
#
# 1 114.8796 7.5234 28.1971 -6.0076 -12.2389 -11.1899
# 2 7.5234 122.4539 27.7751 -30.9287 7.8604 -15.9454
# 3 28.1971 27.7751 61.6755 -7.5525 -16.7401 -16.7287
# 4 -6.0076 -30.9287 -7.5525 26.1436 -19.9774 -4.6646
# 5 -12.2389 7.8604 -16.7401 -19.9774 51.1180 -0.7078
# 6 -11.1899 -15.9454 -16.7287 -4.6646 -0.7078 30.3819
#
#
#
# Elastic Compliance Matrix: (Units=1/GPa)
#
#
# Indices 1 2 3 4 5 6 
#
# 1 0.010804 0.003158 -0.001214 0.012103 0.006530 0.006978
# 2 0.003158 0.018107 0.004009 0.037561 0.014227 0.018972
# 3 -0.001214 0.004009 0.034009 0.038776 0.025757 0.026936
# 4 0.012103 0.037561 0.038776 0.168239 0.076582 0.073136
# 5 0.006530 0.014227 0.025757 0.076582 0.057817 0.037159
# 6 0.006978 0.018972 0.026936 0.073136 0.037159 0.072367
#
#
# Mechanical properties :
#
#
# Convention : Reuss Voigt Hill
#
# Bulk Modulus (GPa) = 13.36441 47.33337 30.34889
# Shear Modulus (GPa) = 13.35535 37.22960 25.29248
#
# Velocity S-wave (km/s) = 2.29890 3.83829 3.16365
# Velocity P-wave (km/s) = 3.51214 6.19467 5.03533
#
# Compressibility (1/GPa) = 0.07482563
#
# Stress axis : x y z
#
# Youngs Moduli (GPa) = 92.55476 55.22605 29.40362
#
# Poissons Ratio (x) = -0.17441 0.03571
# Poissons Ratio (y) = -0.29230 -0.11787
# Poissons Ratio (z) = 0.11241 -0.22138
#
# Static dielectric constant tensor:
#      x y z
#    x 2.424470 -0.389600 0.056310 
#    y -0.389600 2.519410 -0.118750 
#    z 0.056310 -0.118750 2.045740 
# 
# From -- ./inp_files/186861.got.cif
#   From: 2010.05.17/outbox.cif.g08.bks.cpg/sg2_94_cif.got.tgz:186861.got - 2010.06.03 11:33:40.
