data_PCOD9105423
_publ_section_title
;
Structure prediction by ZEFSAII (Michael W. Deem and Ramdas Pophale) SiO2 
 PCOD9105423
Probable space group: P -1
;
_chemical_formula_sum "Si O2"
_cell_formula_units_Z 16
_cell_length_a 7.949366
_cell_length_b 23.912633
_cell_length_c 24.032794
_cell_angle_alpha 12.030560
_cell_angle_beta 136.507561
_cell_angle_gamma 138.116253
_cell_volume 635.595582
_symmetry_space_group_name_H-M "P -1"
_symmetry_group_IT_number 2
_symmetry_cell_setting 'triclinic'
loop_
_space_group_symop_operation_xyz
x,y,z
-x,-y,-z
loop_
_atom_site_type_symbol
_atom_site_label
_atom_site_fract_x
_atom_site_fract_y
_atom_site_fract_z
Si Si1 0.178726 0.800771 0.732555
Si Si2 0.590929 0.184618 0.627489
Si Si3 0.243737 0.653241 0.373445
Si Si4 0.150836 0.113092 0.820025
Si Si5 0.722489 0.387975 0.877712
Si Si6 0.719110 0.144837 0.539624
Si Si7 0.949883 0.258034 0.949024
Si Si8 0.273765 0.633957 0.799113
O O1 0.249406 0.808829 0.676706
O O2 0.445132 0.952715 0.677626
O O3 0.000000 0.000000 0.500000
O O4 0.000000 0.500000 0.000000
O O5 0.573120 0.223342 0.652509
O O6 0.435966 0.387796 0.367936
O O7 0.876990 0.184588 0.680364
O O8 0.442791 0.882300 0.872655
O O9 0.000000 0.500000 0.500000
O O10 0.315545 0.415012 0.584899
O O11 0.170192 0.895223 0.085098
O O12 0.182443 0.936432 0.944625
O O13 0.762807 0.350571 0.857581
O O14 0.998589 0.431044 0.926805
O O15 0.847529 0.448300 0.302653
O O16 0.701036 0.226274 0.391247
O O17 0.904833 0.943308 0.788558
O O18 0.500000 0.500000 0.000000
#
# Coordination Sequence:
#
# PCOD9105423 Si02
#       8
#     2   2   2   2   2   2   2   2
#     4  12  26  42  65 100 131 159 213 286 334 378
#     4  11  22  40  63  94 129 168 215 271 327 383
#     4  10  20  39  64  94 130 176 220 260 323 409
#     4  11  22  40  68  96 128 176 221 267 325 398
#     4  11  24  41  63  94 129 167 215 275 324 383
#     4  11  24  45  69  92 131 183 220 266 335 419
#     4  11  24  43  65  96 131 171 224 273 327 397
#     4  11  25  48  72  94 130 188 230 260 335 429
#
# _framework density 25.173241000000001
#
# number of rings (size 3 to 8) (size 9 to 14) (size 15 to 20)
#    0.000    1.000    0.000    9.375    0.000    7.000 
#    0.000    3.750    0.000    0.000    0.000    0.000 
#    0.000    0.000    0.000    0.000    0.000    0.000 
#
# Total GULP energy -89428.419072 kJ/mol
# GULP energy per Si atom -5589.276192 kJ/mol
# Density = 2.511595 g / cm^3
# Si number density = 25.173241 Si / 1000 Ang^3
#
#
#
# Elastic Constant Matrix: (Units=GPa)
#
#
# Indices 1 2 3 4 5 6 
#
# 1 83.6382 21.6718 30.3969 2.5740 21.2240 -27.5384
# 2 21.6718 71.1092 37.8962 -4.5145 -7.5933 -21.3917
# 3 30.3969 37.8962 207.9470 9.0467 15.4126 -7.6339
# 4 2.5740 -4.5145 9.0467 60.9554 -0.1075 5.2911
# 5 21.2240 -7.5933 15.4126 -0.1075 46.4353 -4.7636
# 6 -27.5384 -21.3917 -7.6339 5.2911 -4.7636 37.8139
#
#
#
# Elastic Compliance Matrix: (Units=1/GPa)
#
#
# Indices 1 2 3 4 5 6 
#
# 1 0.018704 -0.002573 -0.001225 -0.001787 -0.007414 0.011234
# 2 -0.002573 0.020431 -0.003547 0.001325 0.006685 0.009625
# 3 -0.001225 -0.003547 0.005763 -0.000907 -0.002127 -0.001877
# 4 -0.001787 0.001325 -0.000907 0.016974 0.001068 -0.002975
# 5 -0.007414 0.006685 -0.002127 0.001068 0.026847 0.001185
# 6 0.011234 0.009625 -0.001877 -0.002975 0.001185 0.040258
#
#
# Mechanical properties :
#
#
# Convention : Reuss Voigt Hill
#
# Bulk Modulus (GPa) = 33.10534 60.29156 46.69845
# Shear Modulus (GPa) = 32.52336 47.22289 39.87313
#
# Velocity S-wave (km/s) = 3.59831 4.33588 3.98420
# Velocity P-wave (km/s) = 5.51755 7.00494 6.30526
#
# Compressibility (1/GPa) = 0.03020661
#
# Stress axis : x y z
#
# Youngs Moduli (GPa) = 53.46531 48.94638 173.53061
#
# Poissons Ratio (x) = 0.12593 0.21266
# Poissons Ratio (y) = 0.13755 0.61550
# Poissons Ratio (z) = 0.06552 0.17361
#
# Static dielectric constant tensor:
#      x y z
#    x 1.997700 -0.047140 -0.036520 
#    y -0.047140 2.098660 -0.116480 
#    z -0.036520 -0.116480 1.935160 
# 
# From -- ./inp_files/617683.got.cif
#   From: 2010.05.17/outbox.cif.g08.bks.cpg/sg2_309_cif.got.tgz:617683.got - 2010.06.03 11:33:40.
