data_PCOD9105984
_publ_section_title
;
Structure prediction by ZEFSAII (Michael W. Deem and Ramdas Pophale) SiO2 
 PCOD9105984
Probable space group: P -1
;
_chemical_formula_sum "Si O2"
_cell_formula_units_Z 14
_cell_length_a 12.845643
_cell_length_b 11.443302
_cell_length_c 9.303250
_cell_angle_alpha 126.659349
_cell_angle_beta 138.624890
_cell_angle_gamma 59.397712
_cell_volume 720.309366
_symmetry_space_group_name_H-M "P -1"
_symmetry_group_IT_number 2
_symmetry_cell_setting 'triclinic'
loop_
_space_group_symop_operation_xyz
x,y,z
-x,-y,-z
loop_
_atom_site_type_symbol
_atom_site_label
_atom_site_fract_x
_atom_site_fract_y
_atom_site_fract_z
Si Si1 0.127812 0.952364 0.348903
Si Si2 0.829066 0.294044 0.993154
Si Si3 0.915867 0.262461 0.378461
Si Si4 0.895643 0.562170 0.072317
Si Si5 0.370279 0.187001 0.120868
Si Si6 0.559805 0.110122 0.529885
Si Si7 0.301428 0.860805 0.733457
O O1 0.071819 0.841844 0.090371
O O2 0.304738 0.978248 0.496684
O O3 0.163851 0.868360 0.474808
O O4 0.017220 0.101957 0.359916
O O5 0.658489 0.233487 0.789007
O O6 0.897281 0.319128 0.238396
O O7 0.821532 0.431575 0.981531
O O8 0.749884 0.232383 0.255593
O O9 0.999939 0.365824 0.647404
O O10 0.762303 0.685270 0.966235
O O11 0.000000 0.500000 0.000000
O O12 0.421790 0.182218 0.336968
O O13 0.531039 0.199306 0.206401
O O14 0.313820 0.028843 0.912788
O O15 0.500000 0.000000 0.500000
#
# Coordination Sequence:
#
# PCOD9105984 Si02
#       7
#     2   2   2   2   2   2   2
#     4   9  20  37  64  95 123 159 217 265 303 374
#     4  10  24  41  60  97 131 165 215 256 319 382
#     4  12  22  41  68  90 131 167 215 266 316 369
#     4  12  27  43  64  93 133 174 209 255 324 385
#     4  10  22  39  67  92 130 162 216 266 310 377
#     4   9  20  39  64  97 127 159 210 266 320 363
#     4  10  20  39  66  98 117 165 221 265 313 366
#
# _framework density 19.436093
#
# number of rings (size 3 to 8) (size 9 to 14) (size 15 to 20)
#    0.857    0.857    1.429    3.000    2.000    1.714 
#    0.000    0.714    0.000    0.000    0.000    0.000 
#    0.000    0.000    0.000    0.000    0.000    0.000 
#
# Total GULP energy -78133.674601 kJ/mol
# GULP energy per Si atom -5580.976757 kJ/mol
# Density = 1.939186 g / cm^3
# Si number density = 19.436093 Si / 1000 Ang^3
#
#
#
# Elastic Constant Matrix: (Units=GPa)
#
#
# Indices 1 2 3 4 5 6 
#
# 1 70.5728 42.1314 39.7158 -2.0514 -3.8519 17.6153
# 2 42.1314 88.1871 52.2636 -3.3956 -1.9643 5.2854
# 3 39.7158 52.2636 114.5789 -5.5472 -21.1398 5.4915
# 4 -2.0514 -3.3956 -5.5472 25.8731 6.5436 1.1466
# 5 -3.8519 -1.9643 -21.1398 6.5436 32.1158 3.8862
# 6 17.6153 5.2854 5.4915 1.1466 3.8862 26.5716
#
#
#
# Elastic Compliance Matrix: (Units=1/GPa)
#
#
# Indices 1 2 3 4 5 6 
#
# 1 0.025332 -0.009040 -0.003615 0.000231 0.001816 -0.014524
# 2 -0.009040 0.019370 -0.006789 0.001494 -0.005186 0.004237
# 3 -0.003615 -0.006789 0.014752 -0.000261 0.008988 -0.000605
# 4 0.000231 0.001494 -0.000261 0.040945 -0.008280 -0.000952
# 5 0.001816 -0.005186 0.008988 -0.008280 0.039544 -0.007456
# 6 -0.014524 0.004237 -0.000605 -0.000952 -0.007456 0.047676
#
#
# Mechanical properties :
#
#
# Convention : Reuss Voigt Hill
#
# Bulk Modulus (GPa) = 48.62482 60.17337 54.39909
# Shear Modulus (GPa) = 21.42580 26.19397 23.80988
#
# Velocity S-wave (km/s) = 3.32380 3.67508 3.50385
# Velocity P-wave (km/s) = 6.30891 7.00251 6.66474
#
# Compressibility (1/GPa) = 0.02056563
#
# Stress axis : x y z
#
# Youngs Moduli (GPa) = 39.47563 51.62532 67.78696
#
# Poissons Ratio (x) = 0.46671 0.24503
# Poissons Ratio (y) = 0.35687 0.46024
# Poissons Ratio (z) = 0.14269 0.35051
#
# Static dielectric constant tensor:
#      x y z
#    x 1.706160 0.002070 -0.010960 
#    y 0.002070 1.640460 0.004830 
#    z -0.010960 0.004830 1.713230 
# 
# From -- ./inp_files/243871.got.cif
#   From: 2010.05.17/outbox.cif.g08.bks.cpg/sg2_122_cif.got.tgz:243871.got - 2010.06.03 11:33:40.
