data_PCOD9105807
_publ_section_title
;
Structure prediction by ZEFSAII (Michael W. Deem and Ramdas Pophale) SiO2 
 PCOD9105807
Probable space group: P -1
;
_chemical_formula_sum "Si O2"
_cell_formula_units_Z 11
_cell_length_a 9.303806
_cell_length_b 7.169478
_cell_length_c 8.819779
_cell_angle_alpha 124.591197
_cell_angle_beta 116.970368
_cell_angle_gamma 54.430507
_cell_volume 387.207744
_symmetry_space_group_name_H-M "P -1"
_symmetry_group_IT_number 2
_symmetry_cell_setting 'triclinic'
loop_
_space_group_symop_operation_xyz
x,y,z
-x,-y,-z
loop_
_atom_site_type_symbol
_atom_site_label
_atom_site_fract_x
_atom_site_fract_y
_atom_site_fract_z
Si Si1 0.181642 0.854577 0.610190
Si Si2 0.500000 0.500000 0.000000
Si Si3 0.960185 0.857005 0.777338
Si Si4 0.662609 0.823646 0.758882
Si Si5 0.650804 0.752348 0.070219
Si Si6 0.605430 0.268094 0.620184
O O1 0.315811 0.660354 0.462647
O O2 0.262867 0.056809 0.771789
O O3 0.000000 0.000000 0.500000
O O4 0.117330 0.767171 0.688440
O O5 0.291186 0.498145 0.923967
O O6 0.503662 0.455467 0.793129
O O7 0.781459 0.050800 0.684500
O O8 0.865980 0.702512 0.743312
O O9 0.000000 0.000000 0.000000
O O10 0.531480 0.823388 0.564411
O O11 0.556445 0.132825 0.899247
O O12 0.656448 0.729870 0.882657
#
# Coordination Sequence:
#
# PCOD9105807 Si02
#       6
#     2   1   2   2   2   2
#     4   9  20  36  62  90 118 156 209 251 297 357
#     4  12  24  38  62  90 134 158 208 250 316 362
#     4  11  19  36  66  96 118 151 208 268 298 350
#     4  10  20  39  66  88 118 160 226 243 291 365
#     4  10  21  38  61  95 120 163 205 259 295 369
#     4  10  23  38  61  93 118 170 203 253 301 367
#
# _framework density 28.408522999999999
#
# number of rings (size 3 to 8) (size 9 to 14) (size 15 to 20)
#    0.000    1.818    3.636    0.545    5.091    0.727 
#    0.000    3.636    0.000    2.182    0.000    0.000 
#    0.000    0.000    0.000    0.000    0.000    0.000 
#
# Total GULP energy -61243.501214 kJ/mol
# GULP energy per Si atom -5567.591019 kJ/mol
# Density = 2.834386 g / cm^3
# Si number density = 28.408523 Si / 1000 Ang^3
#
#
#
# Elastic Constant Matrix: (Units=GPa)
#
#
# Indices 1 2 3 4 5 6 
#
# 1 264.9490 44.9510 111.0689 -19.9928 -38.0880 38.8366
# 2 44.9510 84.5049 31.0026 -18.6158 -17.2233 15.4566
# 3 111.0689 31.0026 291.4329 -11.2312 -34.7351 15.1264
# 4 -19.9928 -18.6158 -11.2312 41.3403 0.1497 -18.4352
# 5 -38.0880 -17.2233 -34.7351 0.1497 68.8906 -13.8526
# 6 38.8366 15.4566 15.1264 -18.4352 -13.8526 55.6154
#
#
#
# Elastic Compliance Matrix: (Units=1/GPa)
#
#
# Indices 1 2 3 4 5 6 
#
# 1 0.005229 -0.001430 -0.001550 0.000396 0.001271 -0.002384
# 2 -0.001430 0.014582 -0.000469 0.005530 0.002512 -0.000468
# 3 -0.001550 -0.000469 0.004210 0.000408 0.001251 0.000515
# 4 0.000396 0.005530 0.000408 0.031110 0.003607 0.009286
# 5 0.001271 0.002512 0.001251 0.003607 0.017183 0.003549
# 6 -0.002384 -0.000468 0.000515 0.009286 0.003549 0.023598
#
#
# Mechanical properties :
#
#
# Convention : Reuss Voigt Hill
#
# Bulk Modulus (GPa) = 58.40484 112.77019 85.58751
# Shear Modulus (GPa) = 46.07468 63.42689 54.75078
#
# Velocity S-wave (km/s) = 4.03160 4.73024 4.39483
# Velocity P-wave (km/s) = 6.50195 8.34360 7.47967
#
# Compressibility (1/GPa) = 0.01712187
#
# Stress axis : x y z
#
# Youngs Moduli (GPa) = 191.24296 68.57599 237.52256
#
# Poissons Ratio (x) = 0.09809 0.36819
# Poissons Ratio (y) = 0.27354 0.11148
# Poissons Ratio (z) = 0.29645 0.03219
#
# Static dielectric constant tensor:
#      x y z
#    x 2.383080 -0.568630 -0.046880 
#    y -0.568630 -4.154420 -1.971290 
#    z -0.046880 -1.971290 1.626560 
# 
# From -- ./inp_files/144951.got.cif
#   From: 2010.05.17/outbox.cif.g08.bks.cpg/sg2_73_cif.got.tgz:144951.got - 2010.06.03 11:33:40.
