data_PCOD9105537
_publ_section_title
;
Structure prediction by ZEFSAII (Michael W. Deem and Ramdas Pophale) SiO2 
 PCOD9105537
Probable space group: P -1
;
_chemical_formula_sum "Si O2"
_cell_formula_units_Z 16
_cell_length_a 18.222510
_cell_length_b 7.648884
_cell_length_c 18.431204
_cell_angle_alpha 89.453261
_cell_angle_beta 15.972301
_cell_angle_gamma 95.683786
_cell_volume 649.921524
_symmetry_space_group_name_H-M "P -1"
_symmetry_group_IT_number 2
_symmetry_cell_setting 'triclinic'
loop_
_space_group_symop_operation_xyz
x,y,z
-x,-y,-z
loop_
_atom_site_type_symbol
_atom_site_label
_atom_site_fract_x
_atom_site_fract_y
_atom_site_fract_z
Si Si1 0.322445 0.295512 0.135749
Si Si2 0.380874 0.411875 0.476141
Si Si3 0.653975 0.833210 0.032259
Si Si4 0.036355 0.650464 0.861257
Si Si5 0.681099 0.971041 0.743362
Si Si6 0.496516 0.064167 0.685886
Si Si7 0.322557 0.840965 0.726363
Si Si8 0.255821 0.164041 0.463639
O O1 0.976523 0.161248 0.473646
O O2 0.436436 0.156909 0.073660
O O3 0.500000 0.500000 0.000000
O O4 0.361664 0.322375 0.011405
O O5 0.168198 0.492649 0.717790
O O6 0.474224 0.262187 0.434184
O O7 0.252288 0.326548 0.519903
O O8 0.699816 0.577758 0.163689
O O9 0.532414 0.958969 0.097493
O O10 0.498623 0.788725 0.256688
O O11 0.979422 0.969185 0.740666
O O12 0.227632 0.825967 0.627468
O O13 0.077729 0.703820 0.906548
O O14 0.736344 0.830182 0.630999
O O15 0.249650 0.954448 0.861590
O O16 0.491742 0.888940 0.740989
O O17 0.500000 0.000000 0.500000
#
# Coordination Sequence:
#
# PCOD9105537 Si02
#       8
#     2   2   2   2   2   2   2   2
#     4  10  21  38  63  92 126 160 210 266 324 386
#     4  11  24  40  64  93 134 164 214 270 332 371
#     4  10  20  39  65  86 123 167 211 257 320 387
#     4  11  24  41  61  97 129 165 213 279 322 381
#     4   9  20  40  60  91 126 165 211 262 319 391
#     4   9  21  40  62  86 122 167 215 255 323 390
#     4   9  20  43  63  90 121 173 215 266 321 390
#     4   9  21  39  61  86 123 173 207 258 317 388
#
# _framework density 24.618358000000001
#
# number of rings (size 3 to 8) (size 9 to 14) (size 15 to 20)
#    0.000    2.250    0.000    1.125    7.000    1.500 
#    6.750    2.500    0.000    0.000    0.000    0.000 
#    0.000    0.000    0.000    0.000    0.000    0.000 
#
# Total GULP energy -89178.454838 kJ/mol
# GULP energy per Si atom -5573.653427 kJ/mol
# Density = 2.456233 g / cm^3
# Si number density = 24.618358 Si / 1000 Ang^3
#
#
#
# Elastic Constant Matrix: (Units=GPa)
#
#
# Indices 1 2 3 4 5 6 
#
# 1 155.6233 67.1035 44.8601 -4.3815 5.0862 47.5600
# 2 67.1035 99.4901 22.0033 -21.7948 -4.1974 36.3776
# 3 44.8601 22.0033 54.1688 -5.7561 1.1855 27.0518
# 4 -4.3815 -21.7948 -5.7561 29.5053 1.7077 -7.5505
# 5 5.0862 -4.1974 1.1855 1.7077 36.7793 -0.9567
# 6 47.5600 36.3776 27.0518 -7.5505 -0.9567 74.7811
#
#
#
# Elastic Compliance Matrix: (Units=1/GPa)
#
#
# Indices 1 2 3 4 5 6 
#
# 1 0.011917 -0.006948 -0.006318 -0.005104 -0.002064 -0.002456
# 2 -0.006948 0.018536 0.001357 0.011798 0.002384 -0.003868
# 3 -0.006318 0.001357 0.026457 0.003741 -0.000150 -0.005837
# 4 -0.005104 0.011798 0.003741 0.042700 -0.000039 0.000465
# 5 -0.002064 0.002384 -0.000150 -0.000039 0.027768 0.000559
# 6 -0.002456 -0.003868 -0.005837 0.000465 0.000559 0.018981
#
#
# Mechanical properties :
#
#
# Convention : Reuss Voigt Hill
#
# Bulk Modulus (GPa) = 30.21648 64.13512 47.17580
# Shear Modulus (GPa) = 27.59263 39.90082 33.74672
#
# Velocity S-wave (km/s) = 3.35149 4.03025 3.70644
# Velocity P-wave (km/s) = 5.22276 6.91126 6.12547
#
# Compressibility (1/GPa) = 0.03309452
#
# Stress axis : x y z
#
# Youngs Moduli (GPa) = 83.91383 53.94793 37.79652
#
# Poissons Ratio (x) = 0.37482 0.23879
# Poissons Ratio (y) = 0.58301 -0.05130
# Poissons Ratio (z) = 0.53015 -0.07323
#
# Static dielectric constant tensor:
#      x y z
#    x 1.969240 0.053200 0.012040 
#    y 0.053200 2.194340 0.106220 
#    z 0.012040 0.106220 2.052560 
# 
# From -- ./inp_files/143097.got.cif
#   From: 2010.05.17/outbox.cif.g08.bks.cpg/sg2_72_cif.got.tgz:143097.got - 2010.06.03 11:33:40.
