data_PCOD9105446
_publ_section_title
;
Structure prediction by ZEFSAII (Michael W. Deem and Ramdas Pophale) SiO2 
 PCOD9105446
Probable space group: P -1
;
_chemical_formula_sum "Si O2"
_cell_formula_units_Z 16
_cell_length_a 12.650508
_cell_length_b 9.666227
_cell_length_c 22.547790
_cell_angle_alpha 29.289386
_cell_angle_beta 27.139655
_cell_angle_gamma 40.588088
_cell_volume 613.576529
_symmetry_space_group_name_H-M "P -1"
_symmetry_group_IT_number 2
_symmetry_cell_setting 'triclinic'
loop_
_space_group_symop_operation_xyz
x,y,z
-x,-y,-z
loop_
_atom_site_type_symbol
_atom_site_label
_atom_site_fract_x
_atom_site_fract_y
_atom_site_fract_z
Si Si1 0.222361 0.267348 0.286262
Si Si2 0.385835 0.819639 0.179920
Si Si3 0.615673 0.093242 0.069995
Si Si4 0.932991 0.727798 0.829676
Si Si5 0.239142 0.319951 0.759041
Si Si6 0.504994 0.320053 0.236733
Si Si7 0.733559 0.009511 0.340972
Si Si8 0.222151 0.475293 0.577563
O O1 0.372360 0.157212 0.198580
O O2 0.340214 0.181218 0.320917
O O3 0.944830 0.268047 0.429699
O O4 0.281304 0.614259 0.119899
O O5 0.363484 0.504263 0.284290
O O6 0.561184 0.864893 0.130586
O O7 0.153469 0.966571 0.258306
O O8 0.500000 0.000000 0.000000
O O9 0.778118 0.967545 0.086105
O O10 0.089424 0.565021 0.767824
O O11 0.074493 0.787249 0.797630
O O12 0.699662 0.526203 0.029850
O O13 0.198213 0.307625 0.714325
O O14 0.508657 0.420490 0.598076
O O15 0.649203 0.121688 0.278691
O O16 0.500000 0.000000 0.500000
O O17 0.828890 0.710484 0.386643
#
# Coordination Sequence:
#
# PCOD9105446 Si02
#       8
#     2   2   2   2   2   2   2   2
#     4  11  24  44  67  99 132 163 220 281 320 383
#     4  10  20  39  64  95 129 168 206 261 323 390
#     4  11  23  41  67  99 128 167 222 270 329 383
#     4  11  22  43  69  97 129 173 214 272 327 385
#     4  11  25  45  67  95 130 181 217 263 333 392
#     4  11  24  43  68 100 130 174 215 267 336 382
#     4  12  25  44  64 100 136 170 218 267 321 390
#     4  11  26  45  65  92 137 175 217 269 324 391
#
# _framework density 26.076618
#
# number of rings (size 3 to 8) (size 9 to 14) (size 15 to 20)
#    0.000    1.000    3.750    3.375    5.250    1.000 
#    2.250    1.250    0.000    0.000    0.000    0.000 
#    0.000    0.000    0.000    0.000    0.000    0.000 
#
# Total GULP energy -89685.803355 kJ/mol
# GULP energy per Si atom -5605.362710 kJ/mol
# Density = 2.601727 g / cm^3
# Si number density = 26.076618 Si / 1000 Ang^3
#
#
#
# Elastic Constant Matrix: (Units=GPa)
#
#
# Indices 1 2 3 4 5 6 
#
# 1 112.4471 15.2540 -15.5916 5.8814 -9.8858 15.2956
# 2 15.2540 168.2476 3.2068 38.9457 -8.1322 16.9479
# 3 -15.5916 3.2068 53.8923 22.1897 -20.4281 2.4532
# 4 5.8814 38.9457 22.1897 31.7846 -7.9233 -3.7481
# 5 -9.8858 -8.1322 -20.4281 -7.9233 31.5940 -0.2358
# 6 15.2956 16.9479 2.4532 -3.7481 -0.2358 52.6179
#
#
#
# Elastic Compliance Matrix: (Units=1/GPa)
#
#
# Indices 1 2 3 4 5 6 
#
# 1 0.012583 0.002592 0.012548 -0.012593 0.009516 -0.005932
# 2 0.002592 0.011530 0.011608 -0.022064 0.005703 -0.006555
# 3 0.012548 0.011608 0.052679 -0.047657 0.028926 -0.013108
# 4 -0.012593 -0.022064 -0.047657 0.092109 -0.017189 0.019473
# 5 0.009516 0.005703 0.028926 -0.017189 0.050437 -0.006950
# 6 -0.005932 -0.006555 -0.013108 0.019473 -0.006950 0.024808
#
#
# Mechanical properties :
#
#
# Convention : Reuss Voigt Hill
#
# Bulk Modulus (GPa) = 7.67514 37.81392 22.74453
# Shear Modulus (GPa) = 21.36033 45.31382 33.33707
#
# Velocity S-wave (km/s) = 2.86516 4.17312 3.57939
# Velocity P-wave (km/s) = 3.72763 6.14430 5.08172
#
# Compressibility (1/GPa) = 0.13029077
#
# Stress axis : x y z
#
# Youngs Moduli (GPa) = 79.46945 86.72652 18.98299
#
# Poissons Ratio (x) = -0.22483 -0.23820
# Poissons Ratio (y) = -0.20602 -0.22036
# Poissons Ratio (z) = -0.99720 -1.00676
#
# Static dielectric constant tensor:
#      x y z
#    x 2.031670 -0.078770 0.040300 
#    y -0.078770 2.163630 -0.128540 
#    z 0.040300 -0.128540 2.168570 
# 
# From -- ./inp_files/505468.got.cif
#   From: 2010.05.17/outbox.cif.g08.bks.cpg/sg2_253_cif.got.tgz:505468.got - 2010.06.03 11:33:40.
