data_PCOD9105021
_publ_section_title
;
Structure prediction by ZEFSAII (Michael W. Deem and Ramdas Pophale) SiO2 
 PCOD9105021
Probable space group: P -1
;
_chemical_formula_sum "Si O2"
_cell_formula_units_Z 16
_cell_length_a 15.554309
_cell_length_b 11.735809
_cell_length_c 16.452343
_cell_angle_alpha 58.229173
_cell_angle_beta 33.834460
_cell_angle_gamma 33.176699
_cell_volume 761.963413
_symmetry_space_group_name_H-M "P -1"
_symmetry_group_IT_number 2
_symmetry_cell_setting 'triclinic'
loop_
_space_group_symop_operation_xyz
x,y,z
-x,-y,-z
loop_
_atom_site_type_symbol
_atom_site_label
_atom_site_fract_x
_atom_site_fract_y
_atom_site_fract_z
Si Si1 0.042908 0.370100 0.872772
Si Si2 0.972883 0.846718 0.722944
Si Si3 0.927245 0.935596 0.449321
Si Si4 0.787232 0.879052 0.328119
Si Si5 0.481524 0.293856 0.518164
Si Si6 0.318508 0.010183 0.941154
Si Si7 0.853296 0.475017 0.663440
Si Si8 0.419292 0.947070 0.181536
O O1 0.051432 0.262466 0.830101
O O2 0.249443 0.345201 0.699017
O O3 0.172282 0.203069 0.912856
O O4 0.726977 0.655360 0.032601
O O5 0.295120 0.564136 0.554682
O O6 0.760187 0.909683 0.813841
O O7 0.910463 0.873343 0.857183
O O8 0.905987 0.048272 0.676814
O O9 0.107261 0.678627 0.370259
O O10 0.690713 0.141884 0.488145
O O11 0.767563 0.007806 0.628564
O O12 0.977213 0.685514 0.326529
O O13 0.500000 0.000000 0.500000
O O14 0.669405 0.110445 0.361805
O O15 0.530313 0.952509 0.847269
O O16 0.522787 0.748235 0.840719
O O17 0.000000 0.500000 0.500000
#
# Coordination Sequence:
#
# PCOD9105021 Si02
#       8
#     2   2   2   2   2   2   2   2
#     4  11  21  39  63  93 121 158 210 264 295 358
#     4  12  26  38  62  94 125 166 200 254 310 368
#     4  11  24  43  61  90 129 162 201 247 317 368
#     4   9  20  33  58  93 124 152 199 256 306 347
#     4  10  20  39  63  88 125 162 202 249 305 366
#     4  12  23  39  65  91 120 163 212 252 306 358
#     4  11  21  39  66  90 122 161 206 256 299 369
#     4  12  23  40  63  89 127 158 209 257 300 363
#
# _framework density 20.998383
#
# number of rings (size 3 to 8) (size 9 to 14) (size 15 to 20)
#    0.000    1.000    3.750    4.500    3.500    1.500 
#    0.000    0.000    0.000    4.500    0.000    0.000 
#    0.000    0.000    0.000    0.000    0.000    0.000 
#
# Total GULP energy -89479.425998 kJ/mol
# GULP energy per Si atom -5592.464125 kJ/mol
# Density = 2.095059 g / cm^3
# Si number density = 20.998383 Si / 1000 Ang^3
#
#
#
# Elastic Constant Matrix: (Units=GPa)
#
#
# Indices 1 2 3 4 5 6 
#
# 1 81.2596 34.6110 29.0101 6.9878 28.0457 6.9973
# 2 34.6110 81.9172 19.1018 20.0963 7.7978 22.9558
# 3 29.0101 19.1018 50.5111 8.0571 23.7594 13.8162
# 4 6.9878 20.0963 8.0571 45.0633 2.9299 0.4768
# 5 28.0457 7.7978 23.7594 2.9299 24.5024 7.0583
# 6 6.9973 22.9558 13.8162 0.4768 7.0583 30.7141
#
#
#
# Elastic Compliance Matrix: (Units=1/GPa)
#
#
# Indices 1 2 3 4 5 6 
#
# 1 0.026480 -0.011780 0.000232 0.002948 -0.029871 0.009486
# 2 -0.011780 0.023312 -0.003122 -0.008806 0.014936 -0.016631
# 3 0.000232 -0.003122 0.040271 -0.003441 -0.035730 -0.007571
# 4 0.002948 -0.008806 -0.003441 0.026364 -0.002589 0.007644
# 5 -0.029871 0.014936 -0.035730 -0.002589 0.109038 -0.013303
# 6 0.009486 -0.016631 -0.007571 0.007644 -0.013303 0.049171
#
#
# Mechanical properties :
#
#
# Convention : Reuss Voigt Hill
#
# Bulk Modulus (GPa) = 16.46811 42.12595 29.29703
# Shear Modulus (GPa) = 15.42178 28.78696 22.10437
#
# Velocity S-wave (km/s) = 2.71297 3.70660 3.24801
# Velocity P-wave (km/s) = 4.20395 6.19868 5.29607
#
# Compressibility (1/GPa) = 0.06072343
#
# Stress axis : x y z
#
# Youngs Moduli (GPa) = 37.76431 42.89660 24.83156
#
# Poissons Ratio (x) = 0.50533 -0.00577
# Poissons Ratio (y) = 0.44487 0.07752
# Poissons Ratio (z) = -0.00877 0.13392
#
# Static dielectric constant tensor:
#      x y z
#    x 1.776000 0.039850 -0.000470 
#    y 0.039850 1.746810 -0.006770 
#    z -0.000470 -0.006770 1.744810 
# 
# From -- ./inp_files/190005.got.cif
#   From: 2010.05.17/outbox.cif.g08.bks.cpg/sg2_96_cif.got.tgz:190005.got - 2010.06.03 11:33:40.
