data_PCOD9105726
_publ_section_title
;
Structure prediction by ZEFSAII (Michael W. Deem and Ramdas Pophale) SiO2 
 PCOD9105726
Probable space group: P -1
;
_chemical_formula_sum "Si O2"
_cell_formula_units_Z 16
_cell_length_a 9.662984
_cell_length_b 9.483081
_cell_length_c 12.518201
_cell_angle_alpha 125.080439
_cell_angle_beta 57.955316
_cell_angle_gamma 101.904358
_cell_volume 787.608500
_symmetry_space_group_name_H-M "P -1"
_symmetry_group_IT_number 2
_symmetry_cell_setting 'triclinic'
loop_
_space_group_symop_operation_xyz
x,y,z
-x,-y,-z
loop_
_atom_site_type_symbol
_atom_site_label
_atom_site_fract_x
_atom_site_fract_y
_atom_site_fract_z
Si Si1 0.535048 0.970952 0.728215
Si Si2 0.564529 0.326332 0.966349
Si Si3 0.192381 0.469047 0.933909
Si Si4 0.666902 0.759365 0.782692
Si Si5 0.637922 0.657289 0.410122
Si Si6 0.830176 0.863320 0.082238
Si Si7 0.976380 0.884989 0.797476
Si Si8 0.734238 0.428684 0.472037
O O1 0.341793 0.009210 0.796705
O O2 0.551786 0.858724 0.781855
O O3 0.632677 0.850241 0.545228
O O4 0.597004 0.155648 0.804220
O O5 0.720965 0.371009 0.989598
O O6 0.430961 0.276940 0.086213
O O7 0.500000 0.500000 0.000000
O O8 0.285889 0.384272 0.754423
O O9 0.211841 0.324129 0.954356
O O10 0.000000 0.500000 0.000000
O O11 0.812831 0.872978 0.792753
O O12 0.743196 0.575107 0.621304
O O13 0.733580 0.522500 0.397581
O O14 0.447203 0.627354 0.470591
O O15 0.921177 0.857130 0.929643
O O16 0.947218 0.935965 0.153396
O O17 0.121031 0.729702 0.643490
#
# Coordination Sequence:
#
# PCOD9105726 Si02
#       8
#     2   2   2   2   2   2   2   2
#     4  11  23  43  65  96 130 171 217 266 319 388
#     4  12  24  43  64  98 132 171 213 266 330 387
#     4  12  26  44  68  94 130 174 220 265 330 392
#     4  11  23  39  69  96 127 172 219 267 324 381
#     4  10  22  41  67  95 128 171 216 263 327 388
#     4  11  24  39  64  96 128 176 210 271 323 381
#     4  11  22  39  63  97 132 158 221 271 316 378
#     4  10  20  39  65  96 127 168 213 272 317 381
#
# _framework density 20.314661000000001
#
# number of rings (size 3 to 8) (size 9 to 14) (size 15 to 20)
#    0.000    1.000    5.000    1.500    1.750    1.500 
#    2.250    0.625    0.000    0.000    0.000    0.000 
#    0.000    0.000    0.000    0.000    0.000    0.000 
#
# Total GULP energy -89411.017659 kJ/mol
# GULP energy per Si atom -5588.188604 kJ/mol
# Density = 2.026842 g / cm^3
# Si number density = 20.314661 Si / 1000 Ang^3
#
#
#
# Elastic Constant Matrix: (Units=GPa)
#
#
# Indices 1 2 3 4 5 6 
#
# 1 101.9729 7.2529 8.8394 5.1244 4.2412 25.9415
# 2 7.2529 51.4250 15.2797 11.0558 3.5645 19.1985
# 3 8.8394 15.2797 56.8269 10.1399 12.8524 18.0166
# 4 5.1244 11.0558 10.1399 22.4530 6.5034 8.9011
# 5 4.2412 3.5645 12.8524 6.5034 32.9963 11.6778
# 6 25.9415 19.1985 18.0166 8.9011 11.6778 33.5032
#
#
#
# Elastic Compliance Matrix: (Units=1/GPa)
#
#
# Indices 1 2 3 4 5 6 
#
# 1 0.012618 0.002477 0.000826 -0.000216 0.002200 -0.012343
# 2 0.002477 0.027040 -0.002337 -0.007989 0.004805 -0.015708
# 3 0.000826 -0.002337 0.022721 -0.004485 -0.004751 -0.008671
# 4 -0.000216 -0.007989 -0.004485 0.054387 -0.006275 -0.005105
# 5 0.002200 0.004805 -0.004751 -0.006275 0.037273 -0.013226
# 6 -0.012343 -0.015708 -0.008671 -0.005105 -0.013226 0.059036
#
#
# Mechanical properties :
#
#
# Convention : Reuss Voigt Hill
#
# Bulk Modulus (GPa) = 15.54953 30.32984 22.93968
# Shear Modulus (GPa) = 21.49798 29.71402 25.60600
#
# Velocity S-wave (km/s) = 3.25660 3.82866 3.55416
# Velocity P-wave (km/s) = 4.67029 5.87429 5.30655
#
# Compressibility (1/GPa) = 0.06431062
#
# Stress axis : x y z
#
# Youngs Moduli (GPa) = 79.25088 36.98286 44.01185
#
# Poissons Ratio (x) = -0.09161 -0.03633
# Poissons Ratio (y) = -0.19631 0.10284
# Poissons Ratio (z) = -0.06542 0.08642
#
# Static dielectric constant tensor:
#      x y z
#    x 1.757920 0.000050 0.019790 
#    y 0.000050 1.714080 0.024840 
#    z 0.019790 0.024840 1.706930 
# 
# From -- ./inp_files/261947.got.cif
#   From: 2010.05.17/outbox.cif.g08.bks.cpg/sg2_131_cif.got.tgz:261947.got - 2010.06.03 11:33:40.
