data_PCOD9105054
_publ_section_title
;
Structure prediction by ZEFSAII (Michael W. Deem and Ramdas Pophale) SiO2 
 PCOD9105054
Probable space group: P -1
;
_chemical_formula_sum "Si O2"
_cell_formula_units_Z 12
_cell_length_a 8.851896
_cell_length_b 10.872953
_cell_length_c 7.488163
_cell_angle_alpha 70.343333
_cell_angle_beta 132.647659
_cell_angle_gamma 87.018192
_cell_volume 456.635618
_symmetry_space_group_name_H-M "P -1"
_symmetry_group_IT_number 2
_symmetry_cell_setting 'triclinic'
loop_
_space_group_symop_operation_xyz
x,y,z
-x,-y,-z
loop_
_atom_site_type_symbol
_atom_site_label
_atom_site_fract_x
_atom_site_fract_y
_atom_site_fract_z
Si Si1 0.233581 0.333931 0.574113
Si Si2 0.805222 0.912269 0.760736
Si Si3 0.582181 0.100013 0.141609
Si Si4 0.161565 0.720148 0.902554
Si Si5 0.447651 0.805276 0.442568
Si Si6 0.582225 0.459685 0.289001
O O1 0.420592 0.265538 0.598597
O O2 0.218834 0.491282 0.526065
O O3 0.017232 0.311826 0.346591
O O4 0.349384 0.241210 0.885767
O O5 0.642355 0.831637 0.693056
O O6 0.043793 0.793972 0.955205
O O7 0.711714 0.003997 0.458432
O O8 0.748275 0.034171 0.805318
O O9 0.753270 0.168274 0.174840
O O10 0.500000 0.000000 0.000000
O O11 0.364436 0.568050 0.169038
O O12 0.375360 0.699401 0.549895
O O13 0.500000 0.500000 0.000000
#
# Coordination Sequence:
#
# PCOD9105054 Si02
#       6
#     2   2   2   2   2   2
#     4  10  22  39  64  89 122 167 200 250 305 361
#     4  10  21  37  64  92 123 162 198 252 302 363
#     4  11  19  36  61  91 123 157 197 251 301 351
#     4  10  22  38  64  91 121 160 210 243 302 368
#     4  10  20  39  63  89 127 160 200 249 308 355
#     4  11  24  42  62  88 123 163 205 258 302 357
#
# _framework density 26.279157000000001
#
# number of rings (size 3 to 8) (size 9 to 14) (size 15 to 20)
#    0.000    1.667    3.333    3.000    0.000    3.333 
#    0.000    3.333    0.000    2.000    0.000    0.000 
#    0.000    0.000    0.000    0.000    0.000    0.000 
#
# Total GULP energy -67102.146436 kJ/mol
# GULP energy per Si atom -5591.845536 kJ/mol
# Density = 2.621934 g / cm^3
# Si number density = 26.279157 Si / 1000 Ang^3
#
#
#
# Elastic Constant Matrix: (Units=GPa)
#
#
# Indices 1 2 3 4 5 6 
#
# 1 63.8780 40.1950 32.1260 6.8893 4.3315 6.9927
# 2 40.1950 213.6830 38.6259 17.5268 -5.2394 36.9156
# 3 32.1260 38.6259 91.0576 9.8500 -9.1651 16.2161
# 4 6.8893 17.5268 9.8500 46.7639 6.2704 7.0584
# 5 4.3315 -5.2394 -9.1651 6.2704 40.6639 -7.9249
# 6 6.9927 36.9156 16.2161 7.0584 -7.9249 51.6616
#
#
#
# Elastic Compliance Matrix: (Units=1/GPa)
#
#
# Indices 1 2 3 4 5 6 
#
# 1 0.021099 -0.002977 -0.006702 -0.000169 -0.003962 0.000791
# 2 -0.002977 0.006085 -0.000734 -0.001222 0.000446 -0.003479
# 3 -0.006702 -0.000734 0.014666 -0.001983 0.003778 -0.002321
# 4 -0.000169 -0.001222 -0.001983 0.023264 -0.004636 -0.002371
# 5 -0.003962 0.000446 0.003778 -0.004636 0.027391 0.003867
# 6 0.000791 -0.003479 -0.002321 -0.002371 0.003867 0.023382
#
#
# Mechanical properties :
#
#
# Convention : Reuss Voigt Hill
#
# Bulk Modulus (GPa) = 47.56680 65.61249 56.58965
# Shear Modulus (GPa) = 34.78924 44.99600 39.89262
#
# Velocity S-wave (km/s) = 3.64240 4.14240 3.90042
# Velocity P-wave (km/s) = 5.98576 6.92106 6.47033
#
# Compressibility (1/GPa) = 0.02102307
#
# Stress axis : x y z
#
# Youngs Moduli (GPa) = 47.39470 164.34441 68.18347
#
# Poissons Ratio (x) = 0.48929 0.45700
# Poissons Ratio (y) = 0.14111 0.05005
# Poissons Ratio (z) = 0.31766 0.12063
#
# Static dielectric constant tensor:
#      x y z
#    x 2.248260 -0.071540 -0.028840 
#    y -0.071540 2.124150 0.046220 
#    z -0.028840 0.046220 2.085920 
# 
# From -- ./inp_files/185453.got.cif
#   From: 2010.05.17/outbox.cif.g08.bks.cpg/sg2_93_cif.got.tgz:185453.got - 2010.06.03 11:33:40.
