data_PCOD9105947
_publ_section_title
;
Structure prediction by ZEFSAII (Michael W. Deem and Ramdas Pophale) SiO2 
 PCOD9105947
Probable space group: P -1
;
_chemical_formula_sum "Si O2"
_cell_formula_units_Z 14
_cell_length_a 16.102972
_cell_length_b 5.924742
_cell_length_c 8.379198
_cell_angle_alpha 89.647742
_cell_angle_beta 124.217090
_cell_angle_gamma 114.677778
_cell_volume 572.198448
_symmetry_space_group_name_H-M "P -1"
_symmetry_group_IT_number 2
_symmetry_cell_setting 'triclinic'
loop_
_space_group_symop_operation_xyz
x,y,z
-x,-y,-z
loop_
_atom_site_type_symbol
_atom_site_label
_atom_site_fract_x
_atom_site_fract_y
_atom_site_fract_z
Si Si1 0.528844 0.382363 0.688606
Si Si2 0.946974 0.130460 0.325220
Si Si3 0.274360 0.107232 0.411622
Si Si4 0.290366 0.777643 0.153441
Si Si5 0.380041 0.762367 0.936183
Si Si6 0.838576 0.339611 0.465260
Si Si7 0.879139 0.785151 0.951476
O O1 0.500000 0.500000 0.500000
O O2 0.601032 0.261868 0.682725
O O3 0.400052 0.239332 0.624756
O O4 0.602615 0.446674 0.936866
O O5 0.881295 0.241675 0.360098
O O6 0.057522 0.383378 0.371236
O O7 0.000000 0.000000 0.500000
O O8 0.875644 0.930939 0.108679
O O9 0.289811 0.985817 0.266196
O O10 0.187658 0.872540 0.428443
O O11 0.216174 0.268111 0.287023
O O12 0.166152 0.510482 0.035646
O O13 0.329806 0.875457 0.016705
O O14 0.276997 0.644887 0.697616
O O15 0.500000 0.000000 0.000000
O O16 0.000000 0.000000 0.000000
#
# Coordination Sequence:
#
# PCOD9105947 Si02
#       7
#     2   2   2   2   2   2   2
#     4  10  21  41  68  97 133 173 217 278 335 398
#     4  11  25  43  65  92 134 175 220 275 332 388
#     4  12  22  41  69  96 131 171 221 273 332 396
#     4  10  23  39  67  94 132 171 218 270 330 392
#     4  10  20  39  66  95 131 168 216 270 329 398
#     4  11  23  42  67  96 130 175 221 272 334 395
#     4  12  25  42  64  97 132 173 225 273 328 397
#
# _framework density 24.467037999999999
#
# number of rings (size 3 to 8) (size 9 to 14) (size 15 to 20)
#    0.857    0.286    2.857    3.857    0.000    4.571 
#    0.000    0.000    3.143    5.143    0.000    0.000 
#    0.000    0.000    0.000    0.000    0.000    0.000 
#
# Total GULP energy -77958.299756 kJ/mol
# GULP energy per Si atom -5568.449983 kJ/mol
# Density = 2.441135 g / cm^3
# Si number density = 24.467038 Si / 1000 Ang^3
#
#
#
# Elastic Constant Matrix: (Units=GPa)
#
#
# Indices 1 2 3 4 5 6 
#
# 1 79.3955 9.7729 7.2638 5.3061 8.8011 24.7122
# 2 9.7729 67.4653 16.9774 -7.7756 8.6974 31.1496
# 3 7.2638 16.9774 109.4225 -18.0268 18.6201 -6.8866
# 4 5.3061 -7.7756 -18.0268 40.4964 2.5531 0.3163
# 5 8.8011 8.6974 18.6201 2.5531 40.1007 -2.1281
# 6 24.7122 31.1496 -6.8866 0.3163 -2.1281 40.3633
#
#
#
# Elastic Compliance Matrix: (Units=1/GPa)
#
#
# Indices 1 2 3 4 5 6 
#
# 1 0.017780 0.005919 -0.002636 -0.001944 -0.004695 -0.016136
# 2 0.005919 0.029077 -0.004891 0.003284 -0.006992 -0.027292
# 3 -0.002636 -0.004891 0.011995 0.004933 -0.003863 0.007193
# 4 -0.001944 0.003284 0.004933 0.028061 -0.004413 -0.000955
# 5 -0.004695 -0.006992 -0.003863 -0.004413 0.030049 0.009230
# 6 -0.016136 -0.027292 0.007193 -0.000955 0.009230 0.057437
#
#
# Mechanical properties :
#
#
# Convention : Reuss Voigt Hill
#
# Bulk Modulus (GPa) = 17.97370 36.03460 27.00415
# Shear Modulus (GPa) = 25.48925 39.01002 32.24963
#
# Velocity S-wave (km/s) = 3.23116 3.99731 3.63448
# Velocity P-wave (km/s) = 4.61330 6.00537 5.35477
#
# Compressibility (1/GPa) = 0.05563684
#
# Stress axis : x y z
#
# Youngs Moduli (GPa) = 56.24165 34.39154 83.36462
#
# Poissons Ratio (x) = -0.20355 0.21972
# Poissons Ratio (y) = -0.33288 0.40775
# Poissons Ratio (z) = 0.14823 0.16821
#
# Static dielectric constant tensor:
#      x y z
#    x 2.036990 0.024000 0.051250 
#    y 0.024000 1.996870 -0.026270 
#    z 0.051250 -0.026270 2.008040 
# 
# From -- ./inp_files/323619.got.cif
#   From: 2010.05.17/outbox.cif.g08.bks.cpg/sg2_162_cif.got.tgz:323619.got - 2010.06.03 11:33:40.
