data_PCOD9105067
_publ_section_title
;
Structure prediction by ZEFSAII (Michael W. Deem and Ramdas Pophale) SiO2 
 PCOD9105067
Probable space group: P -1
;
_chemical_formula_sum "Si O2"
_cell_formula_units_Z 16
_cell_length_a 24.021668
_cell_length_b 5.531885
_cell_length_c 7.992211
_cell_angle_alpha 87.343528
_cell_angle_beta 45.846580
_cell_angle_gamma 61.245834
_cell_volume 593.488155
_symmetry_space_group_name_H-M "P -1"
_symmetry_group_IT_number 2
_symmetry_cell_setting 'triclinic'
loop_
_space_group_symop_operation_xyz
x,y,z
-x,-y,-z
loop_
_atom_site_type_symbol
_atom_site_label
_atom_site_fract_x
_atom_site_fract_y
_atom_site_fract_z
Si Si1 0.497640 0.517006 0.803474
Si Si2 0.866965 0.820532 0.982876
Si Si3 0.967320 0.249122 0.203299
Si Si4 0.733392 0.728439 0.073366
Si Si5 0.888126 0.060847 0.612137
Si Si6 0.681804 0.341267 0.525950
Si Si7 0.460831 0.062108 0.347381
Si Si8 0.776764 0.915200 0.646160
O O1 0.618003 0.306661 0.528097
O O2 0.470443 0.834487 0.784419
O O3 0.472791 0.306177 0.790745
O O4 0.500000 0.500000 0.000000
O O5 0.960976 0.661009 0.913588
O O6 0.906779 0.821756 0.718435
O O7 0.800798 0.714156 0.082731
O O8 0.788927 0.157328 0.224234
O O9 0.972574 0.072543 0.366923
O O10 0.852949 0.565431 0.425866
O O11 0.000000 0.000000 0.000000
O O12 0.627547 0.820882 0.341975
O O13 0.801205 0.388584 0.863044
O O14 0.729334 0.928330 0.921558
O O15 0.844478 0.012329 0.543645
O O16 0.610867 0.717856 0.669362
O O17 0.698100 0.159500 0.667003
#
# Coordination Sequence:
#
# PCOD9105067 Si02
#       8
#     2   2   2   2   2   2   2   2
#     4  10  21  38  68 103 131 161 210 263 316 382
#     4  11  21  38  60  87 119 165 223 267 312 387
#     4  11  25  39  58  84 126 168 214 274 329 376
#     4  10  20  39  63  90 123 165 218 262 316 381
#     4  10  21  38  57  84 117 167 216 269 318 375
#     4  10  22  37  65  92 125 168 208 265 322 381
#     4  10  20  39  67  98 125 169 209 261 312 387
#     4  10  24  41  57  91 127 165 214 270 323 377
#
# _framework density 26.95926
#
# number of rings (size 3 to 8) (size 9 to 14) (size 15 to 20)
#    0.750    1.000    2.500    1.500    1.750   11.500 
#    0.000    0.000    0.000    1.500    0.000    0.000 
#    0.000    0.000    0.000    0.000    0.000    0.000 
#
# Total GULP energy -89301.836905 kJ/mol
# GULP energy per Si atom -5581.364807 kJ/mol
# Density = 2.689790 g / cm^3
# Si number density = 26.959260 Si / 1000 Ang^3
#
#
#
# Elastic Constant Matrix: (Units=GPa)
#
#
# Indices 1 2 3 4 5 6 
#
# 1 99.0664 42.4604 4.3550 0.0075 5.4887 2.6473
# 2 42.4604 133.2710 34.4911 -6.0693 6.5657 31.7203
# 3 4.3550 34.4911 96.0651 -14.4118 6.6391 17.0432
# 4 0.0075 -6.0693 -14.4118 56.7244 -0.9863 8.0149
# 5 5.4887 6.5657 6.6391 -0.9863 29.2124 -2.4790
# 6 2.6473 31.7203 17.0432 8.0149 -2.4790 42.2939
#
#
#
# Elastic Compliance Matrix: (Units=1/GPa)
#
#
# Indices 1 2 3 4 5 6 
#
# 1 0.012018 -0.004553 0.000629 -0.000699 -0.001191 0.002472
# 2 -0.004553 0.011583 -0.002135 0.001794 -0.001880 -0.007992
# 3 0.000629 -0.002135 0.012647 0.003554 -0.002763 -0.004370
# 4 -0.000699 0.001794 0.003554 0.019627 -0.000969 -0.006510
# 5 -0.001191 -0.001880 -0.002763 -0.000969 0.035888 0.004886
# 6 0.002472 -0.007992 -0.004370 -0.006510 0.004886 0.032764
#
#
# Mechanical properties :
#
#
# Convention : Reuss Voigt Hill
#
# Bulk Modulus (GPa) = 41.44362 54.55727 48.00045
# Shear Modulus (GPa) = 34.55631 42.11921 38.33776
#
# Velocity S-wave (km/s) = 3.58410 3.95692 3.77512
# Velocity P-wave (km/s) = 5.70384 6.41538 6.07005
#
# Compressibility (1/GPa) = 0.02412916
#
# Stress axis : x y z
#
# Youngs Moduli (GPa) = 83.20752 86.33024 79.06880
#
# Poissons Ratio (x) = 0.39308 -0.04973
# Poissons Ratio (y) = 0.37886 0.16885
# Poissons Ratio (z) = -0.05233 0.18436
#
# Static dielectric constant tensor:
#      x y z
#    x 2.098630 -0.009330 -0.010490 
#    y -0.009330 2.173180 -0.061120 
#    z -0.010490 -0.061120 2.171340 
# 
# From -- ./inp_files/52046.got.cif
#   From: 2010.05.17/outbox.cif.g08.bks.cpg/sg2_27_cif.got.tgz:52046.got - 2010.06.03 11:33:40.
