data_PCOD9105063
_publ_section_title
;
Structure prediction by ZEFSAII (Michael W. Deem and Ramdas Pophale) SiO2 
 PCOD9105063
Probable space group: P -1
;
_chemical_formula_sum "Si O2"
_cell_formula_units_Z 14
_cell_length_a 10.851597
_cell_length_b 9.739636
_cell_length_c 9.064487
_cell_angle_alpha 114.524680
_cell_angle_beta 83.023089
_cell_angle_gamma 139.511823
_cell_volume 534.459026
_symmetry_space_group_name_H-M "P -1"
_symmetry_group_IT_number 2
_symmetry_cell_setting 'triclinic'
loop_
_space_group_symop_operation_xyz
x,y,z
-x,-y,-z
loop_
_atom_site_type_symbol
_atom_site_label
_atom_site_fract_x
_atom_site_fract_y
_atom_site_fract_z
Si Si1 0.594625 0.360052 0.210990
Si Si2 0.204231 0.644727 0.292973
Si Si3 0.747201 0.628072 0.883688
Si Si4 0.979980 0.206134 0.654321
Si Si5 0.322673 0.146640 0.879156
Si Si6 0.645425 0.143551 0.327158
Si Si7 0.769930 0.726507 0.582154
O O1 0.421099 0.204937 0.050339
O O2 0.620639 0.224442 0.225461
O O3 0.597486 0.486441 0.397066
O O4 0.806746 0.594614 0.204167
O O5 0.136994 0.419808 0.138703
O O6 0.079239 0.676820 0.301772
O O7 0.246625 0.667761 0.471244
O O8 0.421031 0.888122 0.298065
O O9 0.810277 0.833487 0.062160
O O10 0.750347 0.671657 0.730635
O O11 0.511158 0.373179 0.847881
O O12 0.037547 0.179594 0.478808
O O13 0.815218 0.944401 0.637233
O O14 0.756754 0.090875 0.265632
#
# Coordination Sequence:
#
# PCOD9105063 Si02
#       7
#     2   2   2   2   2   2   2
#     4  10  20  39  63  90 121 163 197 255 304 357
#     4  10  20  39  65  92 121 152 215 253 291 364
#     4  10  21  40  60  89 120 168 196 251 302 355
#     4   9  21  39  64  93 121 153 212 259 290 356
#     4  10  23  38  60  90 137 149 202 251 309 368
#     4  10  21  36  61  98 119 162 199 249 314 350
#     4   9  20  39  62  92 116 160 215 237 308 351
#
# _framework density 26.194710000000001
#
# number of rings (size 3 to 8) (size 9 to 14) (size 15 to 20)
#    0.857    1.429    1.429    0.429    2.000    7.429 
#    0.000    3.571    0.000    0.000    0.000    0.000 
#    0.000    0.000    0.000    0.000    0.000    0.000 
#
# Total GULP energy -78377.683113 kJ/mol
# GULP energy per Si atom -5598.405937 kJ/mol
# Density = 2.613509 g / cm^3
# Si number density = 26.194710 Si / 1000 Ang^3
#
#
#
# Elastic Constant Matrix: (Units=GPa)
#
#
# Indices 1 2 3 4 5 6 
#
# 1 120.3167 39.0629 33.6260 4.4778 -20.4423 -32.3818
# 2 39.0629 104.6508 54.6298 -10.4782 -7.3650 -28.0445
# 3 33.6260 54.6298 115.7114 -11.6182 -23.5839 -20.7652
# 4 4.4778 -10.4782 -11.6182 38.6243 -4.5996 -2.5082
# 5 -20.4423 -7.3650 -23.5839 -4.5996 35.3935 5.7653
# 6 -32.3818 -28.0445 -20.7652 -2.5082 5.7653 52.4441
#
#
#
# Elastic Compliance Matrix: (Units=1/GPa)
#
#
# Indices 1 2 3 4 5 6 
#
# 1 0.011447 -0.002525 -0.000372 -0.001221 0.004869 0.004977
# 2 -0.002525 0.014745 -0.005692 0.002564 -0.002579 0.004478
# 3 -0.000372 -0.005692 0.013687 0.003658 0.007961 0.001446
# 4 -0.001221 0.002564 0.003658 0.028670 0.005531 0.002829
# 5 0.004869 -0.002579 0.007961 0.005531 0.036383 0.001044
# 6 0.004977 0.004478 0.001446 0.002829 0.001044 0.025129
#
#
# Mechanical properties :
#
#
# Convention : Reuss Voigt Hill
#
# Bulk Modulus (GPa) = 44.04908 66.14627 55.09767
# Shear Modulus (GPa) = 32.29881 39.51641 35.90761
#
# Velocity S-wave (km/s) = 3.51526 3.88824 3.70644
# Velocity P-wave (km/s) = 5.77309 6.74273 6.27666
#
# Compressibility (1/GPa) = 0.02270195
#
# Stress axis : x y z
#
# Youngs Moduli (GPa) = 87.35746 67.82093 73.06301
#
# Poissons Ratio (x) = 0.17122 0.02715
# Poissons Ratio (y) = 0.22055 0.41589
# Poissons Ratio (z) = 0.03246 0.38605
#
# Static dielectric constant tensor:
#      x y z
#    x 2.158530 0.062590 -0.073310 
#    y 0.062590 2.046460 -0.007800 
#    z -0.073310 -0.007800 2.005040 
# 
# From -- ./inp_files/244519.got.cif
#   From: 2010.05.17/outbox.cif.g08.bks.cpg/sg2_123_cif.got.tgz:244519.got - 2010.06.03 11:33:40.
