data_PCOD9105318
_publ_section_title
;
Structure prediction by ZEFSAII (Michael W. Deem and Ramdas Pophale) SiO2 
 PCOD9105318
Probable space group: P -1
;
_chemical_formula_sum "Si O2"
_cell_formula_units_Z 16
_cell_length_a 13.975955
_cell_length_b 9.635608
_cell_length_c 6.891871
_cell_angle_alpha 55.587652
_cell_angle_beta 98.277479
_cell_angle_gamma 85.350110
_cell_volume 742.555500
_symmetry_space_group_name_H-M "P -1"
_symmetry_group_IT_number 2
_symmetry_cell_setting 'triclinic'
loop_
_space_group_symop_operation_xyz
x,y,z
-x,-y,-z
loop_
_atom_site_type_symbol
_atom_site_label
_atom_site_fract_x
_atom_site_fract_y
_atom_site_fract_z
Si Si1 0.610308 0.419889 0.814083
Si Si2 0.741429 0.891696 0.440424
Si Si3 0.860962 0.644040 0.383489
Si Si4 0.359890 0.289704 0.151309
Si Si5 0.293571 0.554976 0.573728
Si Si6 0.214100 0.767836 0.715580
Si Si7 0.048242 0.546668 0.781822
Si Si8 0.476145 0.903568 0.878770
O O1 0.582925 0.598664 0.779820
O O2 0.629357 0.446686 0.573132
O O3 0.713262 0.326168 0.020435
O O4 0.538311 0.289158 0.927321
O O5 0.782811 0.802328 0.322529
O O6 0.728905 0.753638 0.710353
O O7 0.805253 0.030436 0.410903
O O8 0.629494 0.994578 0.302916
O O9 0.806432 0.482649 0.522803
O O10 0.894981 0.619812 0.189813
O O11 0.958739 0.631144 0.548936
O O12 0.434066 0.123392 0.224539
O O13 0.322421 0.405723 0.861316
O O14 0.272235 0.725877 0.561388
O O15 0.121863 0.675260 0.743547
O O16 0.000000 0.500000 0.000000
O O17 0.500000 0.000000 0.000000
#
# Coordination Sequence:
#
# PCOD9105318 Si02
#       8
#     2   2   2   2   2   2   2   2
#     4  10  21  41  64  85 125 165 213 257 297 369
#     4  11  23  43  62  89 133 162 201 258 311 370
#     4  10  21  38  64  91 122 158 205 249 300 375
#     4  11  23  40  64  88 123 170 212 256 298 365
#     4  10  20  39  64  90 116 170 215 243 304 365
#     4   9  22  39  62  94 125 162 202 250 316 362
#     4  10  21  39  67  94 121 157 206 255 303 370
#     4  11  25  41  60  93 126 163 211 258 317 353
#
# _framework density 21.547211999999998
#
# number of rings (size 3 to 8) (size 9 to 14) (size 15 to 20)
#    0.000    1.750    1.250    2.250    5.250    1.000 
#    2.250    0.625    0.000    0.000    0.000    0.000 
#    0.000    0.000    0.000    0.000    0.000    0.000 
#
# Total GULP energy -89370.281516 kJ/mol
# GULP energy per Si atom -5585.642595 kJ/mol
# Density = 2.149817 g / cm^3
# Si number density = 21.547212 Si / 1000 Ang^3
#
#
#
# Elastic Constant Matrix: (Units=GPa)
#
#
# Indices 1 2 3 4 5 6 
#
# 1 83.4860 34.1538 32.3782 16.5313 -14.8080 0.5447
# 2 34.1538 150.0326 33.0979 29.0998 -26.5971 -0.6768
# 3 32.3782 33.0979 74.5878 21.4958 -18.3749 6.4252
# 4 16.5313 29.0998 21.4958 25.7309 -12.0942 -3.1970
# 5 -14.8080 -26.5971 -18.3749 -12.0942 28.1231 11.3857
# 6 0.5447 -0.6768 6.4252 -3.1970 11.3857 42.8509
#
#
#
# Elastic Compliance Matrix: (Units=1/GPa)
#
#
# Indices 1 2 3 4 5 6 
#
# 1 0.015408 -0.001401 -0.004362 -0.003490 0.002651 -0.000529
# 2 -0.001401 0.009412 0.000182 -0.007360 0.005920 -0.001983
# 3 -0.004362 0.000182 0.021515 -0.011698 0.009567 -0.006582
# 4 -0.003490 -0.007360 -0.011698 0.064190 0.009573 0.003928
# 5 0.002651 0.005920 0.009567 0.009573 0.059599 -0.016496
# 6 -0.000529 -0.001983 -0.006582 0.003928 -0.016496 0.028975
#
#
# Mechanical properties :
#
#
# Convention : Reuss Voigt Hill
#
# Bulk Modulus (GPa) = 28.43103 56.37401 42.40252
# Shear Modulus (GPa) = 22.52400 33.23942 27.88171
#
# Velocity S-wave (km/s) = 3.23667 3.93190 3.60110
# Velocity P-wave (km/s) = 5.21454 6.84346 6.08376
#
# Compressibility (1/GPa) = 0.03517283
#
# Stress axis : x y z
#
# Youngs Moduli (GPa) = 64.90276 106.24667 46.47888
#
# Poissons Ratio (x) = 0.14880 0.20276
# Poissons Ratio (y) = 0.09090 -0.00846
# Poissons Ratio (z) = 0.28313 -0.01933
#
# Static dielectric constant tensor:
#      x y z
#    x 1.810100 -0.018720 0.025560 
#    y -0.018720 1.795600 -0.018980 
#    z 0.025560 -0.018980 1.808360 
# 
# From -- ./inp_files/55517.got.cif
#   From: 2010.05.17/outbox.cif.g08.bks.cpg/sg2_28_cif.got.tgz:55517.got - 2010.06.03 11:33:40.
