data_PCOD9105746
_publ_section_title
;
Structure prediction by ZEFSAII (Michael W. Deem and Ramdas Pophale) SiO2 
 PCOD9105746
Probable space group: P -1
;
_chemical_formula_sum "Si O2"
_cell_formula_units_Z 14
_cell_length_a 7.886818
_cell_length_b 13.740645
_cell_length_c 12.248319
_cell_angle_alpha 134.588004
_cell_angle_beta 141.376839
_cell_angle_gamma 42.950501
_cell_volume 537.442697
_symmetry_space_group_name_H-M "P -1"
_symmetry_group_IT_number 2
_symmetry_cell_setting 'triclinic'
loop_
_space_group_symop_operation_xyz
x,y,z
-x,-y,-z
loop_
_atom_site_type_symbol
_atom_site_label
_atom_site_fract_x
_atom_site_fract_y
_atom_site_fract_z
Si Si1 0.459476 0.505131 0.854092
Si Si2 0.486331 0.750210 0.446799
Si Si3 0.887328 0.623606 0.883185
Si Si4 0.302142 0.104418 0.148412
Si Si5 0.958757 0.022946 0.364690
Si Si6 0.546411 0.218061 0.021026
Si Si7 0.052009 0.694828 0.356178
O O1 0.335942 0.392198 0.651443
O O2 0.500000 0.500000 0.000000
O O3 0.314654 0.673387 0.871659
O O4 0.810429 0.437194 0.941424
O O5 0.643502 0.840042 0.661512
O O6 0.324301 0.693897 0.416757
O O7 0.224204 0.873708 0.339012
O O8 0.890885 0.747011 0.897915
O O9 0.879925 0.474238 0.709432
O O10 0.607084 0.706887 0.884588
O O11 0.626446 0.039143 0.198191
O O12 0.239669 0.956658 0.001093
O O13 0.982240 0.177828 0.471979
O O14 0.000000 0.000000 0.500000
O O15 0.262988 0.239963 0.816707
#
# Coordination Sequence:
#
# PCOD9105746 Si02
#       7
#     2   2   2   2   2   2   2
#     4  11  23  38  56  73 102 147 185 212 254 318
#     4  10  16  34  54  78 109 138 171 211 267 308
#     4  11  20  31  56  85 109 129 180 217 264 303
#     4  10  19  30  55  85 110 133 165 224 267 310
#     4   8  14  26  51  77 109 128 168 202 268 301
#     4  11  17  35  56  81 106 137 173 215 265 312
#     4   9  14  29  51  79 105 137 162 213 253 314
#
# _framework density 26.049289999999999
#
# number of rings (size 3 to 8) (size 9 to 14) (size 15 to 20)
#    0.000    2.286    7.143    1.286    0.000    2.286 
#    0.000    2.143    0.000    0.000    0.000    0.000 
#    0.000    0.000    0.000    0.000    0.000    0.000 
#
# Total GULP energy -78262.099445 kJ/mol
# GULP energy per Si atom -5590.149960 kJ/mol
# Density = 2.599000 g / cm^3
# Si number density = 26.049290 Si / 1000 Ang^3
#
#
#
# Elastic Constant Matrix: (Units=GPa)
#
#
# Indices 1 2 3 4 5 6 
#
# 1 68.1221 27.4223 8.4311 10.0842 -8.7087 -4.1199
# 2 27.4223 206.4085 62.8819 56.8624 -0.9459 14.5708
# 3 8.4311 62.8819 97.2041 47.1741 -12.9058 -1.6483
# 4 10.0842 56.8624 47.1741 64.4973 -8.8868 11.1907
# 5 -8.7087 -0.9459 -12.9058 -8.8868 13.8174 -18.4766
# 6 -4.1199 14.5708 -1.6483 11.1907 -18.4766 5.0643
#
#
#
# Elastic Compliance Matrix: (Units=1/GPa)
#
#
# Indices 1 2 3 4 5 6 
#
# 1 0.013815 -0.000819 -0.002050 0.000972 -0.005615 -0.009704
# 2 -0.000819 0.006273 -0.000826 -0.005325 0.003592 0.005889
# 3 -0.002050 -0.000826 0.013476 -0.008102 -0.009483 -0.011599
# 4 0.000972 -0.005325 -0.008102 0.027421 0.013585 0.002444
# 5 -0.005615 0.003592 -0.009483 0.013585 -0.001228 -0.052489
# 6 -0.009704 0.005889 -0.011599 0.002444 -0.052489 -0.028055
#
#
# Mechanical properties :
#
#
# Convention : Reuss Voigt Hill
#
# Bulk Modulus (GPa) = 38.20629 63.24503 50.72566
# Shear Modulus (GPa) = 104.56819 34.87575 69.72197
#
# Velocity S-wave (km/s) = 6.34268 3.66298 5.17914
# Velocity P-wave (km/s) = 8.26669 6.49782 7.43505
#
# Compressibility (1/GPa) = 0.02617370
#
# Stress axis : x y z
#
# Youngs Moduli (GPa) = 72.38762 159.41623 74.20649
#
# Poissons Ratio (x) = 0.13060 0.15211
# Poissons Ratio (y) = 0.05930 0.06128
# Poissons Ratio (z) = 0.14838 0.13164
#
# Static dielectric constant tensor:
#      x y z
#    x 2.092360 -0.008290 -0.017360 
#    y -0.008290 2.098800 0.026390 
#    z -0.017360 0.026390 2.107230 
# 
# From -- ./inp_files/292545.got.cif
#   From: 2010.05.17/outbox.cif.g08.bks.cpg/sg2_147_cif.got.tgz:292545.got - 2010.06.03 11:33:40.
