data_PCOD9105112
_publ_section_title
;
Structure prediction by ZEFSAII (Michael W. Deem and Ramdas Pophale) SiO2 
 PCOD9105112
Probable space group: P -1
;
_chemical_formula_sum "Si O2"
_cell_formula_units_Z 14
_cell_length_a 8.142250
_cell_length_b 24.104339
_cell_length_c 17.298491
_cell_angle_alpha 158.636735
_cell_angle_beta 28.817201
_cell_angle_gamma 150.588285
_cell_volume 565.964655
_symmetry_space_group_name_H-M "P -1"
_symmetry_group_IT_number 2
_symmetry_cell_setting 'triclinic'
loop_
_space_group_symop_operation_xyz
x,y,z
-x,-y,-z
loop_
_atom_site_type_symbol
_atom_site_label
_atom_site_fract_x
_atom_site_fract_y
_atom_site_fract_z
Si Si1 0.047561 0.508433 0.901200
Si Si2 0.185330 0.970219 0.502109
Si Si3 0.852407 0.744105 0.200564
Si Si4 0.031714 0.026832 0.805045
Si Si5 0.950281 0.436465 0.249263
Si Si6 0.165747 0.368015 0.226916
Si Si7 0.152441 0.294570 0.456740
O O1 0.466614 0.618233 0.861946
O O2 0.051563 0.346626 0.649681
O O3 0.000000 0.500000 0.000000
O O4 0.762135 0.572182 0.056434
O O5 0.533799 0.919211 0.310969
O O6 0.989568 0.855365 0.363876
O O7 0.325671 0.148622 0.637819
O O8 0.946132 0.972205 0.679614
O O9 0.091812 0.695517 0.971889
O O10 0.929950 0.181402 0.076077
O O11 0.918327 0.892755 0.744585
O O12 0.566414 0.384427 0.382791
O O13 0.034635 0.616142 0.412016
O O14 0.219336 0.416156 0.177384
O O15 0.000000 0.500000 0.500000
#
# Coordination Sequence:
#
# PCOD9105112 Si02
#       7
#     2   2   2   2   2   2   2
#     4  11  23  40  66  96 132 175 221 266 327 394
#     4  10  21  38  65  96 132 165 209 277 334 376
#     4  10  20  39  63  91 131 172 210 265 331 386
#     4  11  23  41  67  99 130 167 222 272 323 389
#     4  10  22  43  64  91 133 179 213 266 332 392
#     4  12  24  45  66  94 136 176 214 268 331 393
#     4  10  23  41  66  93 131 172 222 270 322 389
#
# _framework density 24.736528
#
# number of rings (size 3 to 8) (size 9 to 14) (size 15 to 20)
#    0.000    1.429    4.286    0.857    2.000    1.714 
#    0.000    5.714    0.000    0.000    0.000    0.000 
#    0.000    0.000    0.000    0.000    0.000    0.000 
#
# Total GULP energy -78000.712934 kJ/mol
# GULP energy per Si atom -5571.479495 kJ/mol
# Density = 2.468023 g / cm^3
# Si number density = 24.736528 Si / 1000 Ang^3
#
#
#
# Elastic Constant Matrix: (Units=GPa)
#
#
# Indices 1 2 3 4 5 6 
#
# 1 117.0876 14.6562 36.4594 -1.4778 0.2571 -15.9873
# 2 14.6562 71.0251 44.8260 14.3044 5.2742 -28.0641
# 3 36.4594 44.8260 162.6933 24.9694 8.2465 -21.9412
# 4 -1.4778 14.3044 24.9694 36.8969 -11.0278 -10.9268
# 5 0.2571 5.2742 8.2465 -11.0278 48.6197 3.4383
# 6 -15.9873 -28.0641 -21.9412 -10.9268 3.4383 31.4236
#
#
#
# Elastic Compliance Matrix: (Units=1/GPa)
#
#
# Indices 1 2 3 4 5 6 
#
# 1 0.009910 0.000709 -0.002269 0.003394 0.000658 0.005199
# 2 0.000709 0.024798 -0.003791 -0.002452 -0.003982 0.019444
# 3 -0.002269 -0.003791 0.008583 -0.005107 -0.002185 -0.000084
# 4 0.003394 -0.002452 -0.005107 0.036582 0.008866 0.007721
# 5 0.000658 -0.003982 -0.002185 0.008866 0.023679 -0.004255
# 6 0.005199 0.019444 -0.000084 0.007721 -0.004255 0.054925
#
#
# Mechanical properties :
#
#
# Convention : Reuss Voigt Hill
#
# Bulk Modulus (GPa) = 30.68573 60.29878 45.49226
# Shear Modulus (GPa) = 27.77146 40.37901 34.07524
#
# Velocity S-wave (km/s) = 3.35429 4.04464 3.71553
# Velocity P-wave (km/s) = 5.23771 6.80011 6.06939
#
# Compressibility (1/GPa) = 0.03258844
#
# Stress axis : x y z
#
# Youngs Moduli (GPa) = 100.91151 40.32549 116.51155
#
# Poissons Ratio (x) = -0.02859 0.26439
# Poissons Ratio (y) = -0.07156 0.44170
# Poissons Ratio (z) = 0.22899 0.15288
#
# Static dielectric constant tensor:
#      x y z
#    x 2.016240 0.023760 -0.019490 
#    y 0.023760 2.039470 -0.015460 
#    z -0.019490 -0.015460 2.010450 
# 
# From -- ./inp_files/159119.got.cif
#   From: 2010.05.17/outbox.cif.g08.bks.cpg/sg2_80_cif.got.tgz:159119.got - 2010.06.03 11:33:40.
