data_PCOD9105163
_publ_section_title
;
Structure prediction by ZEFSAII (Michael W. Deem and Ramdas Pophale) SiO2 
 PCOD9105163
Probable space group: P -1
;
_chemical_formula_sum "Si O2"
_cell_formula_units_Z 16
_cell_length_a 20.618009
_cell_length_b 9.222340
_cell_length_c 8.459455
_cell_angle_alpha 116.664710
_cell_angle_beta 150.495195
_cell_angle_gamma 60.129079
_cell_volume 686.512115
_symmetry_space_group_name_H-M "P -1"
_symmetry_group_IT_number 2
_symmetry_cell_setting 'triclinic'
loop_
_space_group_symop_operation_xyz
x,y,z
-x,-y,-z
loop_
_atom_site_type_symbol
_atom_site_label
_atom_site_fract_x
_atom_site_fract_y
_atom_site_fract_z
Si Si1 0.007406 0.846986 0.322802
Si Si2 0.879908 0.517794 0.546486
Si Si3 0.442285 0.679376 0.821005
Si Si4 0.907396 0.874643 0.794666
Si Si5 0.251661 0.940601 0.725500
Si Si6 0.588236 0.627317 0.806895
Si Si7 0.708374 0.552261 0.499382
Si Si8 0.367694 0.151152 0.282832
O O1 0.027645 0.669625 0.367981
O O2 0.144026 0.837606 0.501192
O O3 0.000000 0.000000 0.500000
O O4 0.895378 0.885164 0.963964
O O5 0.945437 0.676319 0.736205
O O6 0.835877 0.525738 0.642354
O O7 0.740136 0.548183 0.161321
O O8 0.392311 0.813774 0.917349
O O9 0.490293 0.738221 0.786153
O O10 0.318857 0.586403 0.503063
O O11 0.583511 0.557790 0.116352
O O12 0.780679 0.952114 0.451419
O O13 0.000000 0.000000 0.000000
O O14 0.254489 0.063065 0.935646
O O15 0.500000 0.500000 0.500000
O O16 0.605311 0.733526 0.744792
O O17 0.680774 0.728626 0.614586
O O18 0.500000 0.000000 0.500000
#
# Coordination Sequence:
#
# PCOD9105163 Si02
#       8
#     2   2   2   2   2   2   2   2
#     4  11  26  46  70  98 124 172 242 300 343 396
#     4  11  23  45  73  95 136 183 224 285 353 404
#     4  10  20  39  63  93 136 180 210 258 332 413
#     4  10  24  47  67  94 131 177 235 288 342 402
#     4  11  23  44  63  94 137 174 216 282 343 396
#     4  11  24  39  66 105 141 172 225 262 333 428
#     4  10  21  37  64  99 131 176 219 256 332 420
#     4  12  24  39  63 101 143 174 218 270 326 407
#
# _framework density 23.306215000000002
#
# number of rings (size 3 to 8) (size 9 to 14) (size 15 to 20)
#    0.000    1.250    5.000    0.375    3.500    2.500 
#    0.000    2.500    0.000    0.000    0.000    0.000 
#    0.000    0.000    0.000    0.000    0.000    0.000 
#
# Total GULP energy -89210.339222 kJ/mol
# GULP energy per Si atom -5575.646201 kJ/mol
# Density = 2.325317 g / cm^3
# Si number density = 23.306215 Si / 1000 Ang^3
#
#
#
# Elastic Constant Matrix: (Units=GPa)
#
#
# Indices 1 2 3 4 5 6 
#
# 1 69.7568 29.4967 11.2909 0.6499 4.9118 -0.2758
# 2 29.4967 146.5690 40.1576 16.1792 -8.1970 8.8176
# 3 11.2909 40.1576 86.2294 14.3068 -9.8389 8.2630
# 4 0.6499 16.1792 14.3068 41.0333 2.9275 -3.2236
# 5 4.9118 -8.1970 -9.8389 2.9275 36.1288 7.2491
# 6 -0.2758 8.8176 8.2630 -3.2236 7.2491 43.4037
#
#
#
# Elastic Compliance Matrix: (Units=1/GPa)
#
#
# Indices 1 2 3 4 5 6 
#
# 1 0.016296 -0.003427 -0.001511 0.002051 -0.003952 0.001900
# 2 -0.003427 0.008816 -0.002751 -0.002776 0.002319 -0.001883
# 3 -0.001511 -0.002751 0.014691 -0.004608 0.004630 -0.003363
# 4 0.002051 -0.002776 -0.004608 0.027763 -0.005296 0.004401
# 5 -0.003952 0.002319 0.004630 -0.005296 0.031855 -0.007092
# 6 0.001900 -0.001883 -0.003363 0.004401 -0.007092 0.025586
#
#
# Mechanical properties :
#
#
# Convention : Reuss Voigt Hill
#
# Bulk Modulus (GPa) = 40.94340 51.60507 46.27424
# Shear Modulus (GPa) = 33.66405 38.88717 36.27561
#
# Velocity S-wave (km/s) = 3.80468 4.08920 3.94950
# Velocity P-wave (km/s) = 6.07507 6.66976 6.37935
#
# Compressibility (1/GPa) = 0.02442396
#
# Stress axis : x y z
#
# Youngs Moduli (GPa) = 61.36473 113.43516 68.06800
#
# Poissons Ratio (x) = 0.38878 0.10285
# Poissons Ratio (y) = 0.21031 0.18726
# Poissons Ratio (z) = 0.09272 0.31207
#
# Static dielectric constant tensor:
#      x y z
#    x 1.900970 0.025440 0.024010 
#    y 0.025440 1.940010 -0.005970 
#    z 0.024010 -0.005970 2.048400 
# 
# From -- ./inp_files/299574.got.cif
#   From: 2010.05.17/outbox.cif.g08.bks.cpg/sg2_150_cif.got.tgz:299574.got - 2010.06.03 11:33:40.
