data_PCOD9105029
_publ_section_title
;
Structure prediction by ZEFSAII (Michael W. Deem and Ramdas Pophale) SiO2 
 PCOD9105029
Probable space group: P -1
;
_chemical_formula_sum "Si O2"
_cell_formula_units_Z 16
_cell_length_a 13.244224
_cell_length_b 12.700867
_cell_length_c 12.980311
_cell_angle_alpha 71.006936
_cell_angle_beta 147.725306
_cell_angle_gamma 86.015364
_cell_volume 805.640356
_symmetry_space_group_name_H-M "P -1"
_symmetry_group_IT_number 2
_symmetry_cell_setting 'triclinic'
loop_
_space_group_symop_operation_xyz
x,y,z
-x,-y,-z
loop_
_atom_site_type_symbol
_atom_site_label
_atom_site_fract_x
_atom_site_fract_y
_atom_site_fract_z
Si Si1 0.181787 0.669444 0.923220
Si Si2 0.708324 0.164016 0.688423
Si Si3 0.489137 0.669854 0.750015
Si Si4 0.313062 0.173923 0.450212
Si Si5 0.170928 0.041674 0.621348
Si Si6 0.943489 0.880464 0.277979
Si Si7 0.408259 0.144558 0.125051
Si Si8 0.638820 0.209093 0.835998
O O1 0.994839 0.704914 0.844923
O O2 0.990931 0.805373 0.634336
O O3 0.328589 0.508113 0.051351
O O4 0.372625 0.688166 0.125219
O O5 0.647259 0.250146 0.503174
O O6 0.480860 0.162439 0.507920
O O7 0.678894 0.242588 0.745494
O O8 0.000000 0.000000 0.000000
O O9 0.633360 0.722050 0.898061
O O10 0.249447 0.746200 0.595891
O O11 0.408506 0.212560 0.617779
O O12 0.415855 0.007530 0.604649
O O13 0.203567 0.071311 0.756027
O O14 0.425105 0.908908 0.818588
O O15 0.000000 0.000000 0.500000
O O16 0.838999 0.829730 0.125694
O O17 0.873914 0.031819 0.126845
#
# Coordination Sequence:
#
# PCOD9105029 Si02
#       8
#     2   2   2   2   2   2   2   2
#     4  11  23  39  58  89 122 159 187 243 295 357
#     4  10  20  39  63  89 114 156 200 245 283 340
#     4  12  24  37  58  90 128 149 193 242 300 343
#     4   8  20  38  58  83 114 152 202 233 279 345
#     4  11  20  39  68  83 113 156 201 242 296 343
#     4  11  20  41  61  90 112 155 201 247 285 344
#     4  10  21  39  62  90 114 151 199 249 283 351
#     4   9  19  39  61  80 118 147 207 236 280 343
#
# _framework density 19.859978000000002
#
# number of rings (size 3 to 8) (size 9 to 14) (size 15 to 20)
#    0.750    1.000    3.750    1.125    0.000    3.000 
#    2.250    0.625    0.000    0.000    0.000    0.000 
#    0.000    0.000    0.000    0.000    0.000    0.000 
#
# Total GULP energy -89128.573680 kJ/mol
# GULP energy per Si atom -5570.535855 kJ/mol
# Density = 1.981478 g / cm^3
# Si number density = 19.859978 Si / 1000 Ang^3
#
#
#
# Elastic Constant Matrix: (Units=GPa)
#
#
# Indices 1 2 3 4 5 6 
#
# 1 66.0379 5.6373 2.9201 -5.0447 1.2661 1.0477
# 2 5.6373 159.1855 32.2204 -4.1392 2.4580 -7.2984
# 3 2.9201 32.2204 31.8501 -1.2135 1.4656 5.1850
# 4 -5.0447 -4.1392 -1.2135 18.6920 -1.9622 -1.7435
# 5 1.2661 2.4580 1.4656 -1.9622 26.2457 15.4448
# 6 1.0477 -7.2984 5.1850 -1.7435 15.4448 19.8418
#
#
#
# Elastic Compliance Matrix: (Units=1/GPa)
#
#
# Indices 1 2 3 4 5 6 
#
# 1 0.015523 -0.000233 -0.001017 0.004033 -0.000371 0.000003
# 2 -0.000233 0.009176 -0.010809 0.001629 -0.007128 0.011904
# 3 -0.001017 -0.010809 0.046185 -0.000697 0.014534 -0.027366
# 4 0.004033 0.001629 -0.000697 0.055448 0.001173 0.004528
# 5 -0.000371 -0.007128 0.014534 0.001173 0.077073 -0.066291
# 6 0.000003 0.011904 -0.027366 0.004528 -0.066291 0.113927
#
#
# Mechanical properties :
#
#
# Convention : Reuss Voigt Hill
#
# Bulk Modulus (GPa) = 21.38359 37.62546 29.50452
# Shear Modulus (GPa) = 14.00401 27.37561 20.68981
#
# Velocity S-wave (km/s) = 2.65832 3.71675 3.23117
# Velocity P-wave (km/s) = 4.49586 6.11600 5.36741
#
# Compressibility (1/GPa) = 0.04676483
#
# Stress axis : x y z
#
# Youngs Moduli (GPa) = 64.42121 108.97579 21.65197
#
# Poissons Ratio (x) = 0.02540 0.02203
# Poissons Ratio (y) = 0.01501 0.23405
# Poissons Ratio (z) = 0.06553 1.17797
#
# Static dielectric constant tensor:
#      x y z
#    x 1.751880 -0.015380 0.002800 
#    y -0.015380 1.692980 0.036240 
#    z 0.002800 0.036240 1.704830 
# 
# From -- ./inp_files/443924.got.cif
#   From: 2010.05.17/outbox.cif.g08.bks.cpg/sg2_222_cif.got.tgz:443924.got - 2010.06.03 11:33:40.
