data_PCOD9105278
_publ_section_title
;
Structure prediction by ZEFSAII (Michael W. Deem and Ramdas Pophale) SiO2 
 PCOD9105278
Probable space group: P -1
;
_chemical_formula_sum "Si O2"
_cell_formula_units_Z 16
_cell_length_a 7.184948
_cell_length_b 18.259659
_cell_length_c 10.490818
_cell_angle_alpha 43.521048
_cell_angle_beta 133.505115
_cell_angle_gamma 130.843594
_cell_volume 653.580594
_symmetry_space_group_name_H-M "P -1"
_symmetry_group_IT_number 2
_symmetry_cell_setting 'triclinic'
loop_
_space_group_symop_operation_xyz
x,y,z
-x,-y,-z
loop_
_atom_site_type_symbol
_atom_site_label
_atom_site_fract_x
_atom_site_fract_y
_atom_site_fract_z
Si Si1 0.161834 0.572968 0.243738
Si Si2 0.685743 0.154804 0.780379
Si Si3 0.796459 0.662884 0.090936
Si Si4 0.287144 0.387587 0.388259
Si Si5 0.897689 0.155013 0.450410
Si Si6 0.523511 0.243807 0.007697
Si Si7 0.332048 0.261158 0.332779
Si Si8 0.213343 0.072665 0.873891
O O1 0.143452 0.474149 0.261755
O O2 0.429301 0.589597 0.434254
O O3 0.224706 0.687040 0.047598
O O4 0.903330 0.562094 0.223322
O O5 0.579548 0.215987 0.540422
O O6 0.444384 0.118197 0.816623
O O7 0.936717 0.243404 0.852602
O O8 0.760199 0.044565 0.919387
O O9 0.585096 0.659179 0.107338
O O10 0.684328 0.708139 0.857817
O O11 0.076048 0.265852 0.470182
O O12 0.342301 0.369361 0.288935
O O13 0.071070 0.164101 0.389269
O O14 0.936055 0.060799 0.681174
O O15 0.625191 0.174485 0.250065
O O16 0.303321 0.160737 0.919480
#
# Coordination Sequence:
#
# PCOD9105278 Si02
#       8
#     2   2   2   2   2   2   2   2
#     4  11  19  43  63  89 119 152 205 240 292 360
#     4  10  20  39  64  88 117 157 200 245 296 347
#     4  12  23  37  62  89 121 159 194 243 293 350
#     4   9  19  37  73  81 115 168 185 246 306 334
#     4   9  18  38  60  87 116 157 194 240 294 345
#     4  12  23  37  62  89 121 159 194 243 293 350
#     4   9  18  38  60  87 116 157 194 240 294 345
#     4  10  20  39  64  88 117 157 200 245 296 347
#
# _framework density 24.480533000000001
#
# number of rings (size 3 to 8) (size 9 to 14) (size 15 to 20)
#    0.750    1.000    5.000    0.000    0.000    4.500 
#    0.000   10.000    0.000    0.000    0.000    0.000 
#    0.000    0.000    0.000    0.000    0.000    0.000 
#
# Total GULP energy -89390.869333 kJ/mol
# GULP energy per Si atom -5586.929333 kJ/mol
# Density = 2.442481 g / cm^3
# Si number density = 24.480533 Si / 1000 Ang^3
#
#
#
# Elastic Constant Matrix: (Units=GPa)
#
#
# Indices 1 2 3 4 5 6 
#
# 1 74.9391 18.2129 6.2670 -1.0946 5.0256 -15.7907
# 2 18.2129 -13.8557 54.3341 -35.5973 23.1961 15.9595
# 3 6.2670 54.3341 102.5324 34.9583 -2.5893 -38.6484
# 4 -1.0946 -35.5973 34.9583 9.6279 5.0120 28.5220
# 5 5.0256 23.1961 -2.5893 5.0120 2.3510 -17.5728
# 6 -15.7907 15.9595 -38.6484 28.5220 -17.5728 9.0406
#
#
#
# Elastic Compliance Matrix: (Units=1/GPa)
#
#
# Indices 1 2 3 4 5 6 
#
# 1 0.014729 -0.000929 -0.000284 0.000562 -0.011708 0.001622
# 2 -0.000929 0.024903 0.002897 -0.013101 0.011221 0.029945
# 3 -0.000284 0.002897 0.008356 -0.003657 -0.022198 -0.001501
# 4 0.000562 -0.013101 -0.003657 0.036410 0.055352 0.001197
# 5 -0.011708 0.011221 -0.022198 0.055352 0.156578 -0.005436
# 6 0.001622 0.029945 -0.001501 0.001197 -0.005436 0.039826
#
#
# Mechanical properties :
#
#
# Convention : Reuss Voigt Hill
#
# Bulk Modulus (GPa) = 19.47160 35.69374 27.58267
# Shear Modulus (GPa) = 16.97497 9.85736 13.41617
#
# Velocity S-wave (km/s) = 2.63612 2.00882 2.34355
# Velocity P-wave (km/s) = 4.15171 4.47131 4.31447
#
# Compressibility (1/GPa) = 0.05135684
#
# Stress axis : x y z
#
# Youngs Moduli (GPa) = 67.89433 40.15534 119.67970
#
# Poissons Ratio (x) = 0.03730 0.03398
# Poissons Ratio (y) = 0.06306 -0.34675
# Poissons Ratio (z) = 0.01928 -0.11634
#
# Static dielectric constant tensor:
#      x y z
#    x 1.964810 -0.013530 0.022620 
#    y -0.013530 1.910590 -0.046250 
#    z 0.022620 -0.046250 1.972320 
# 
# From -- ./inp_files/401988.got.cif
#   From: 2010.05.17/outbox.cif.g08.bks.cpg/sg2_201_cif.got.tgz:401988.got - 2010.06.03 11:33:40.
