data_PCOD9105048
_publ_section_title
;
Structure prediction by ZEFSAII (Michael W. Deem and Ramdas Pophale) SiO2 
 PCOD9105048
Probable space group: P -1
;
_chemical_formula_sum "Si O2"
_cell_formula_units_Z 16
_cell_length_a 14.793483
_cell_length_b 8.189372
_cell_length_c 7.683786
_cell_angle_alpha 62.128012
_cell_angle_beta 121.474370
_cell_angle_gamma 106.376295
_cell_volume 700.942482
_symmetry_space_group_name_H-M "P -1"
_symmetry_group_IT_number 2
_symmetry_cell_setting 'triclinic'
loop_
_space_group_symop_operation_xyz
x,y,z
-x,-y,-z
loop_
_atom_site_type_symbol
_atom_site_label
_atom_site_fract_x
_atom_site_fract_y
_atom_site_fract_z
Si Si1 0.588699 0.284836 0.965584
Si Si2 0.350798 0.056286 0.240377
Si Si3 0.440797 0.082885 0.682081
Si Si4 0.233888 0.746734 0.112384
Si Si5 0.877381 0.022851 0.411678
Si Si6 0.856309 0.608210 0.623609
Si Si7 0.728356 0.571227 0.155177
Si Si8 0.927110 0.402475 0.332345
O O1 0.665383 0.315248 0.863827
O O2 0.475169 0.243405 0.775641
O O3 0.610306 0.088509 0.175295
O O4 0.624471 0.440910 0.064088
O O5 0.454720 0.000948 0.263139
O O6 0.375588 0.129353 0.422799
O O7 0.275771 0.870686 0.254719
O O8 0.299963 0.220128 0.005391
O O9 0.169067 0.562215 0.191200
O O10 0.176575 0.888963 0.856313
O O11 0.882009 0.200896 0.452597
O O12 0.832229 0.823348 0.529623
O O13 0.000000 0.000000 0.500000
O O14 0.783023 0.557258 0.405469
O O15 0.983543 0.614016 0.716506
O O16 0.823618 0.517694 0.148200
O O17 0.000000 0.500000 0.500000
#
# Coordination Sequence:
#
# PCOD9105048 Si02
#       8
#     2   2   2   2   2   2   2   2
#     4  10  21  39  61  84 124 158 200 259 315 360
#     4  10  21  39  66  89 121 160 214 250 315 382
#     4   9  21  42  61  85 121 167 196 269 321 359
#     4  11  21  41  62  94 123 166 211 253 296 379
#     4  10  20  39  63  89 124 167 209 249 302 362
#     4  10  22  39  66  89 129 171 205 247 310 355
#     4  11  20  38  62  93 122 163 207 256 303 370
#     4   9  20  38  61  89 130 160 199 256 300 354
#
# _framework density 22.826409000000002
#
# number of rings (size 3 to 8) (size 9 to 14) (size 15 to 20)
#    0.000    2.000    2.500    0.750    0.000    3.000 
#    2.250    0.625    0.000    0.000    0.000    0.000 
#    0.000    0.000    0.000    0.000    0.000    0.000 
#
# Total GULP energy -89163.952725 kJ/mol
# GULP energy per Si atom -5572.747045 kJ/mol
# Density = 2.277446 g / cm^3
# Si number density = 22.826409 Si / 1000 Ang^3
#
#
#
# Elastic Constant Matrix: (Units=GPa)
#
#
# Indices 1 2 3 4 5 6 
#
# 1 39.3500 25.3408 9.3766 -18.0177 -5.3648 11.3876
# 2 25.3408 173.9964 39.8887 6.9816 -1.1026 25.1082
# 3 9.3766 39.8887 87.8115 3.5688 -1.0379 3.3449
# 4 -18.0177 6.9816 3.5688 45.4979 -4.0160 -9.3566
# 5 -5.3648 -1.1026 -1.0379 -4.0160 16.8352 -8.8975
# 6 11.3876 25.1082 3.3449 -9.3566 -8.8975 23.8027
#
#
#
# Elastic Compliance Matrix: (Units=1/GPa)
#
#
# Indices 1 2 3 4 5 6 
#
# 1 0.040757 -0.006374 -0.002095 0.019242 0.017986 0.001806
# 2 -0.006374 0.009519 -0.002954 -0.007431 -0.010446 -0.013402
# 3 -0.002095 -0.002954 0.012909 -0.000819 0.000981 0.002349
# 4 0.019242 -0.007431 -0.000819 0.038149 0.027365 0.023973
# 5 0.017986 -0.010446 0.000981 0.027365 0.097107 0.049331
# 6 0.001806 -0.013402 0.002349 0.023973 0.049331 0.082818
#
#
# Mechanical properties :
#
#
# Convention : Reuss Voigt Hill
#
# Bulk Modulus (GPa) = 24.79040 50.04111 37.41576
# Shear Modulus (GPa) = 15.74544 32.33062 24.03803
#
# Velocity S-wave (km/s) = 2.62924 3.76755 3.24864
# Velocity P-wave (km/s) = 4.48343 6.39500 5.52255
#
# Compressibility (1/GPa) = 0.04033819
#
# Stress axis : x y z
#
# Youngs Moduli (GPa) = 24.53567 105.05552 77.46493
#
# Poissons Ratio (x) = 0.66967 0.16227
# Poissons Ratio (y) = 0.15640 0.22885
# Poissons Ratio (z) = 0.05139 0.31036
#
# Static dielectric constant tensor:
#      x y z
#    x 1.879910 -0.067500 0.022320 
#    y -0.067500 1.671170 0.151940 
#    z 0.022320 0.151940 1.806920 
# 
# From -- ./inp_files/316183.got.cif
#   From: 2010.05.17/outbox.cif.g08.bks.cpg/sg2_159_cif.got.tgz:316183.got - 2010.06.03 11:33:40.
