data_PCOD9105114
_publ_section_title
;
Structure prediction by ZEFSAII (Michael W. Deem and Ramdas Pophale) SiO2 
 PCOD9105114
Probable space group: P -1
;
_chemical_formula_sum "Si O2"
_cell_formula_units_Z 14
_cell_length_a 9.682080
_cell_length_b 14.364374
_cell_length_c 5.528955
_cell_angle_alpha 56.191823
_cell_angle_beta 69.071322
_cell_angle_gamma 89.508319
_cell_volume 578.578438
_symmetry_space_group_name_H-M "P -1"
_symmetry_group_IT_number 2
_symmetry_cell_setting 'triclinic'
loop_
_space_group_symop_operation_xyz
x,y,z
-x,-y,-z
loop_
_atom_site_type_symbol
_atom_site_label
_atom_site_fract_x
_atom_site_fract_y
_atom_site_fract_z
Si Si1 0.861193 0.883976 0.226695
Si Si2 0.256244 0.762839 0.563894
Si Si3 0.972668 0.862943 0.685728
Si Si4 0.471269 0.063777 0.673167
Si Si5 0.374036 0.443524 0.960019
Si Si6 0.148365 0.532790 0.202501
Si Si7 0.398007 0.650758 0.259884
O O1 0.871785 0.825747 0.564263
O O2 0.698826 0.915870 0.249556
O O3 0.899051 0.818394 0.056515
O O4 0.000000 0.000000 0.000000
O O5 0.398976 0.815500 0.573034
O O6 0.342829 0.753743 0.271853
O O7 0.136595 0.839297 0.562593
O O8 0.151549 0.633711 0.861665
O O9 0.000000 0.000000 0.500000
O O10 0.500000 0.000000 0.500000
O O11 0.500000 0.000000 0.000000
O O12 0.384368 0.547583 0.613439
O O13 0.432688 0.338558 0.962761
O O14 0.500000 0.500000 0.000000
O O15 0.207901 0.428894 0.199525
O O16 0.278492 0.597357 0.209344
O O17 0.000000 0.500000 0.500000
#
# Coordination Sequence:
#
# PCOD9105114 Si02
#       7
#     2   2   2   2   2   2   2
#     4  10  20  39  63  91 131 177 225 283 352 410
#     4  11  25  40  70 102 135 189 241 296 351 432
#     4  10  21  40  64  93 136 184 227 289 351 410
#     4  12  25  43  72 103 139 189 244 299 361 425
#     4   8  16  36  64  93 125 175 211 286 358 413
#     4  10  22  41  68 100 138 178 231 288 359 430
#     4   9  19  38  67  91 133 171 230 286 353 422
#
# _framework density 24.197240000000001
#
# number of rings (size 3 to 8) (size 9 to 14) (size 15 to 20)
#    0.000    2.000    0.000    4.286    4.000    2.286 
#    0.000   10.000    6.286    0.000    0.000    0.000 
#    0.000    0.000    0.000    0.000    0.000    0.000 
#
# Total GULP energy -78139.641657 kJ/mol
# GULP energy per Si atom -5581.402976 kJ/mol
# Density = 2.414217 g / cm^3
# Si number density = 24.197240 Si / 1000 Ang^3
#
#
#
# Elastic Constant Matrix: (Units=GPa)
#
#
# Indices 1 2 3 4 5 6 
#
# 1 162.0725 61.5458 51.1938 23.3673 -33.7144 -38.6846
# 2 61.5458 151.8719 52.4326 49.2981 -27.7888 -41.9872
# 3 51.1938 52.4326 107.4458 24.5223 -18.9229 -3.2345
# 4 23.3673 49.2981 24.5223 52.5876 0.5887 -13.1027
# 5 -33.7144 -27.7888 -18.9229 0.5887 52.9497 23.7897
# 6 -38.6846 -41.9872 -3.2345 -13.1027 23.7897 49.4372
#
#
#
# Elastic Compliance Matrix: (Units=1/GPa)
#
#
# Indices 1 2 3 4 5 6 
#
# 1 0.009280 -0.000411 -0.003548 -0.000721 0.001936 0.005558
# 2 -0.000411 0.013304 -0.003689 -0.008760 0.002193 0.007359
# 3 -0.003548 -0.003689 0.014198 -0.003670 0.004585 -0.008160
# 4 -0.000721 -0.008760 -0.003670 0.030312 -0.008434 0.003849
# 5 0.001936 0.002193 0.004585 -0.008434 0.028520 -0.012282
# 6 0.005558 0.007359 -0.008160 0.003849 -0.012282 0.037223
#
#
# Mechanical properties :
#
#
# Convention : Reuss Voigt Hill
#
# Bulk Modulus (GPa) = 46.54606 83.52606 65.03606
# Shear Modulus (GPa) = 32.19643 48.07610 40.13627
#
# Velocity S-wave (km/s) = 3.65167 4.46224 4.07715
# Velocity P-wave (km/s) = 6.08749 7.81937 7.00714
#
# Compressibility (1/GPa) = 0.02148410
#
# Stress axis : x y z
#
# Youngs Moduli (GPa) = 107.75624 75.16487 70.43485
#
# Poissons Ratio (x) = 0.03090 0.24993
# Poissons Ratio (y) = 0.04429 0.25987
# Poissons Ratio (z) = 0.38236 0.27732
#
# Static dielectric constant tensor:
#      x y z
#    x 1.889670 -0.033970 0.065120 
#    y -0.033970 1.985460 -0.056640 
#    z 0.065120 -0.056640 2.191120 
# 
# From -- ./inp_files/36856.got.cif
#   From: 2010.05.17/outbox.cif.g08.bks.cpg/sg2_19_cif.got.tgz:36856.got - 2010.06.03 11:33:40.
