data_PCOD9105595
_publ_section_title
;
Structure prediction by ZEFSAII (Michael W. Deem and Ramdas Pophale) SiO2 
 PCOD9105595
Probable space group: P -1
;
_chemical_formula_sum "Si O2"
_cell_formula_units_Z 16
_cell_length_a 5.051051
_cell_length_b 18.215034
_cell_length_c 24.925586
_cell_angle_alpha 18.285538
_cell_angle_beta 119.004778
_cell_angle_gamma 116.408164
_cell_volume 628.257589
_symmetry_space_group_name_H-M "P -1"
_symmetry_group_IT_number 2
_symmetry_cell_setting 'triclinic'
loop_
_space_group_symop_operation_xyz
x,y,z
-x,-y,-z
loop_
_atom_site_type_symbol
_atom_site_label
_atom_site_fract_x
_atom_site_fract_y
_atom_site_fract_z
Si Si1 0.777602 0.912872 0.739745
Si Si2 0.176944 0.029702 0.420314
Si Si3 0.976578 0.668871 0.453367
Si Si4 0.592509 0.280853 0.073106
Si Si5 0.666575 0.132407 0.737231
Si Si6 0.947812 0.385868 0.234476
Si Si7 0.887381 0.737977 0.169542
Si Si8 0.833352 0.251274 0.918669
O O1 0.054642 0.717401 0.903842
O O2 0.762984 0.976819 0.632039
O O3 0.493577 0.806611 0.815011
O O4 0.888946 0.135579 0.629192
O O5 0.031087 0.259272 0.275279
O O6 0.500000 0.000000 0.500000
O O7 0.004516 0.809273 0.579026
O O8 0.010437 0.570920 0.345611
O O9 0.205523 0.671474 0.424547
O O10 0.636536 0.758628 0.340024
O O11 0.469564 0.074800 0.167374
O O12 0.396311 0.511438 0.877573
O O13 0.963255 0.992626 0.887604
O O14 0.126728 0.604467 0.122382
O O15 0.015158 0.630985 0.199898
O O16 0.522420 0.762184 0.116844
O O17 0.000000 0.000000 0.000000
#
# Coordination Sequence:
#
# PCOD9105595 Si02
#       8
#     2   2   2   2   2   2   2   2
#     4  10  22  39  63  88 123 168 215 261 318 365
#     4  11  26  40  58  93 136 167 219 270 309 378
#     4  10  20  39  65  91 129 170 212 263 318 385
#     4   9  21  39  63  89 119 165 220 264 308 374
#     4   9  19  39  64  97 122 165 221 261 310 387
#     4  10  25  42  63  92 127 172 217 265 320 377
#     4  12  26  44  67 103 134 166 213 268 323 395
#     4  11  24  44  72  93 130 176 215 264 330 390
#
# _framework density 25.467262000000002
#
# number of rings (size 3 to 8) (size 9 to 14) (size 15 to 20)
#    0.000    1.750    0.000    2.625    8.750    4.000 
#    0.000    3.750    0.000    0.000    0.000    0.000 
#    0.000    0.000    0.000    0.000    0.000    0.000 
#
# Total GULP energy -89594.527329 kJ/mol
# GULP energy per Si atom -5599.657958 kJ/mol
# Density = 2.540930 g / cm^3
# Si number density = 25.467262 Si / 1000 Ang^3
#
#
#
# Elastic Constant Matrix: (Units=GPa)
#
#
# Indices 1 2 3 4 5 6 
#
# 1 121.3835 19.2757 15.9629 -4.5340 6.4311 4.2815
# 2 19.2757 56.6671 15.0278 -17.0893 9.1353 -8.2108
# 3 15.9629 15.0278 119.9217 -7.4876 -8.0441 1.5616
# 4 -4.5340 -17.0893 -7.4876 28.9857 -7.2842 8.2762
# 5 6.4311 9.1353 -8.0441 -7.2842 36.7209 13.8152
# 6 4.2815 -8.2108 1.5616 8.2762 13.8152 37.2899
#
#
#
# Elastic Compliance Matrix: (Units=1/GPa)
#
#
# Indices 1 2 3 4 5 6 
#
# 1 0.008893 -0.003017 -0.000847 -0.000353 -0.000548 -0.001369
# 2 -0.003017 0.024191 -0.002515 0.009861 -0.006316 0.005930
# 3 -0.000847 -0.002515 0.009291 0.002835 0.004562 -0.003165
# 4 -0.000353 0.009861 0.002835 0.047984 0.012744 -0.013278
# 5 -0.000548 -0.006316 0.004562 0.012744 0.039579 -0.019010
# 6 -0.001369 0.005930 -0.003165 -0.013278 -0.019010 0.038402
#
#
# Mechanical properties :
#
#
# Convention : Reuss Voigt Hill
#
# Bulk Modulus (GPa) = 33.76372 44.27835 39.02103
# Shear Modulus (GPa) = 26.18209 37.11304 31.64756
#
# Velocity S-wave (km/s) = 3.20983 3.82158 3.52899
# Velocity P-wave (km/s) = 5.19844 6.07427 5.65334
#
# Compressibility (1/GPa) = 0.02961759
#
# Stress axis : x y z
#
# Youngs Moduli (GPa) = 112.44947 41.33733 107.63216
#
# Poissons Ratio (x) = 0.12472 0.09112
# Poissons Ratio (y) = 0.33926 0.27070
# Poissons Ratio (z) = 0.09520 0.10397
#
# Static dielectric constant tensor:
#      x y z
#    x 1.970530 -0.025150 -0.034620 
#    y -0.025150 2.076990 0.008900 
#    z -0.034620 0.008900 2.044940 
# 
# From -- ./inp_files/604983.got.cif
#   From: 2010.05.17/outbox.cif.g08.bks.cpg/sg2_303_cif.got.tgz:604983.got - 2010.06.03 11:33:40.
