data_PCOD9105353
_publ_section_title
;
Structure prediction by ZEFSAII (Michael W. Deem and Ramdas Pophale) SiO2 
 PCOD9105353
Probable space group: P -1
;
_chemical_formula_sum "Si O2"
_cell_formula_units_Z 12
_cell_length_a 5.693793
_cell_length_b 8.786345
_cell_length_c 13.796320
_cell_angle_alpha 48.100167
_cell_angle_beta 114.015936
_cell_angle_gamma 89.819822
_cell_volume 429.168242
_symmetry_space_group_name_H-M "P -1"
_symmetry_group_IT_number 2
_symmetry_cell_setting 'triclinic'
loop_
_space_group_symop_operation_xyz
x,y,z
-x,-y,-z
loop_
_atom_site_type_symbol
_atom_site_label
_atom_site_fract_x
_atom_site_fract_y
_atom_site_fract_z
Si Si1 0.322624 0.465563 0.159103
Si Si2 0.800454 0.025982 0.046053
Si Si3 0.854650 0.592912 0.302414
Si Si4 0.855830 0.331966 0.215232
Si Si5 0.675866 0.120749 0.524800
Si Si6 0.577785 0.702894 0.399327
O O1 0.531396 0.365773 0.146131
O O2 0.522874 0.353331 0.338064
O O3 0.056775 0.399871 0.149604
O O4 0.241447 0.731343 0.025429
O O5 0.962033 0.792922 0.228748
O O6 0.500000 0.000000 0.000000
O O7 0.000000 0.000000 0.000000
O O8 0.848247 0.498510 0.233695
O O9 0.593788 0.707156 0.284651
O O10 0.091817 0.374219 0.484497
O O11 0.012234 0.061697 0.365653
O O12 0.605248 0.123126 0.625887
O O13 0.500000 0.000000 0.500000
O O14 0.500000 0.500000 0.500000
#
# Coordination Sequence:
#
# PCOD9105353 Si02
#       6
#     2   2   2   2   2   2
#     4  11  20  36  58  94 121 157 211 263 311 363
#     4  12  22  37  63  92 130 166 213 267 314 380
#     4  11  23  37  62  95 126 165 212 263 328 369
#     4  11  21  38  63  93 120 160 215 259 311 374
#     4  10  20  39  64  91 125 169 214 263 318 381
#     4  11  23  40  61  93 135 163 212 269 327 379
#
# _framework density 27.961061999999998
#
# number of rings (size 3 to 8) (size 9 to 14) (size 15 to 20)
#    0.000    1.000    6.667    1.500    2.333    0.000 
#    3.000    0.000    0.000    5.000    0.000    0.000 
#    0.000    0.000    0.000    0.000    0.000    0.000 
#
# Total GULP energy -66842.817739 kJ/mol
# GULP energy per Si atom -5570.234812 kJ/mol
# Density = 2.789742 g / cm^3
# Si number density = 27.961062 Si / 1000 Ang^3
#
#
#
# Elastic Constant Matrix: (Units=GPa)
#
#
# Indices 1 2 3 4 5 6 
#
# 1 214.7113 49.5267 66.1175 1.4905 -14.8195 -33.8238
# 2 49.5267 137.5580 45.6560 -24.1977 -14.2388 -27.6871
# 3 66.1175 45.6560 124.3050 -28.3013 -27.6118 -16.8176
# 4 1.4905 -24.1977 -28.3013 50.2320 -3.9436 -5.2335
# 5 -14.8195 -14.2388 -27.6118 -3.9436 74.3148 -2.1238
# 6 -33.8238 -27.6871 -16.8176 -5.2335 -2.1238 58.5374
#
#
#
# Elastic Compliance Matrix: (Units=1/GPa)
#
#
# Indices 1 2 3 4 5 6 
#
# 1 0.006227 -0.001258 -0.003212 -0.002428 -0.000268 0.001853
# 2 -0.001258 0.009899 -0.000922 0.004854 0.001680 0.004185
# 3 -0.003212 -0.000922 0.013165 0.007669 0.004548 0.002341
# 4 -0.002428 0.004854 0.007669 0.027624 0.004925 0.005745
# 5 -0.000268 0.001680 0.004548 0.004925 0.015760 0.002959
# 6 0.001853 0.004185 0.002341 0.005745 0.002959 0.021427
#
#
# Mechanical properties :
#
#
# Convention : Reuss Voigt Hill
#
# Bulk Modulus (GPa) = 54.03275 88.79717 71.41496
# Shear Modulus (GPa) = 45.02284 57.63512 51.32898
#
# Velocity S-wave (km/s) = 4.01708 4.54504 4.28919
# Velocity P-wave (km/s) = 6.39391 7.70516 7.07996
#
# Compressibility (1/GPa) = 0.01850729
#
# Stress axis : x y z
#
# Youngs Moduli (GPa) = 160.59375 101.02263 75.95987
#
# Poissons Ratio (x) = 0.12707 0.24397
# Poissons Ratio (y) = 0.20200 0.07003
# Poissons Ratio (z) = 0.51580 0.09314
#
# Static dielectric constant tensor:
#      x y z
#    x 2.234350 0.037720 0.027800 
#    y 0.037720 2.230410 0.080660 
#    z 0.027800 0.080660 2.698440 
# 
# From -- ./inp_files/73811.got.cif
#   From: 2010.05.17/outbox.cif.g08.bks.cpg/sg2_37_cif.got.tgz:73811.got - 2010.06.03 11:33:40.
