data_PCOD9105846
_publ_section_title
;
Structure prediction by ZEFSAII (Michael W. Deem and Ramdas Pophale) SiO2 
 PCOD9105846
Probable space group: P -1
;
_chemical_formula_sum "Si O2"
_cell_formula_units_Z 14
_cell_length_a 17.469198
_cell_length_b 7.198598
_cell_length_c 8.973797
_cell_angle_alpha 75.007543
_cell_angle_beta 142.762190
_cell_angle_gamma 87.729403
_cell_volume 598.594131
_symmetry_space_group_name_H-M "P -1"
_symmetry_group_IT_number 2
_symmetry_cell_setting 'triclinic'
loop_
_space_group_symop_operation_xyz
x,y,z
-x,-y,-z
loop_
_atom_site_type_symbol
_atom_site_label
_atom_site_fract_x
_atom_site_fract_y
_atom_site_fract_z
Si Si1 0.403054 0.242055 0.845284
Si Si2 0.728668 0.244625 0.925998
Si Si3 0.989569 0.335108 0.234856
Si Si4 0.372542 0.150222 0.376030
Si Si5 0.528012 0.547448 0.335043
Si Si6 0.765452 0.770625 0.142663
Si Si7 0.828513 0.765257 0.717856
O O1 0.466173 0.392513 0.838815
O O2 0.357153 0.244892 0.943248
O O3 0.259731 0.308722 0.518027
O O4 0.500000 0.000000 0.000000
O O5 0.638679 0.325474 0.616841
O O6 0.627092 0.397259 0.863027
O O7 0.872978 0.261638 0.124379
O O8 0.748087 0.012199 0.050205
O O9 0.090199 0.340226 0.522586
O O10 0.078380 0.178335 0.268381
O O11 0.921801 0.563987 0.003201
O O12 0.429291 0.288899 0.535719
O O13 0.287500 0.075648 0.381451
O O14 0.500000 0.000000 0.500000
O O15 0.255696 0.285061 0.046200
#
# Coordination Sequence:
#
# PCOD9105846 Si02
#       7
#     2   2   2   2   2   2   2
#     4  10  16  34  54  85 101 147 196 230 260 337
#     4  11  19  37  56  90 111 148 190 243 275 332
#     4  10  20  37  58  83 115 152 195 225 275 341
#     4  11  19  38  57  87 113 146 189 240 284 336
#     4  10  21  35  64  79 116 152 191 231 289 330
#     4  11  22  31  62  86 113 143 196 238 278 329
#     4   9  20  36  57  83 110 157 188 228 275 350
#
# _framework density 23.388134000000001
#
# number of rings (size 3 to 8) (size 9 to 14) (size 15 to 20)
#    0.000    1.714    5.714    1.286    0.000    0.571 
#    0.000    0.714    0.000    8.571    0.000    0.000 
#    0.000    0.000    0.000    0.000    0.000    0.000 
#
# Total GULP energy -78083.934259 kJ/mol
# GULP energy per Si atom -5577.423876 kJ/mol
# Density = 2.333490 g / cm^3
# Si number density = 23.388134 Si / 1000 Ang^3
#
#
#
# Elastic Constant Matrix: (Units=GPa)
#
#
# Indices 1 2 3 4 5 6 
#
# 1 228.0003 20.8666 35.6649 22.5151 3.2100 9.8035
# 2 20.8666 37.0024 15.6440 5.7647 -3.2467 -6.7599
# 3 35.6649 15.6440 110.2593 3.8087 -5.4346 -0.6145
# 4 22.5151 5.7647 3.8087 25.6714 2.3650 -5.7234
# 5 3.2100 -3.2467 -5.4346 2.3650 44.6571 1.9251
# 6 9.8035 -6.7599 -0.6145 -5.7234 1.9251 35.9337
#
#
#
# Elastic Compliance Matrix: (Units=1/GPa)
#
#
# Indices 1 2 3 4 5 6 
#
# 1 0.005363 -0.002281 -0.001286 -0.004552 -0.000354 -0.002620
# 2 -0.002281 0.031566 -0.003492 -0.003447 0.001964 0.005847
# 3 -0.001286 -0.003492 0.010022 0.000296 0.001049 -0.000144
# 4 -0.004552 -0.003447 0.000296 0.045709 -0.002654 0.008021
# 5 -0.000354 0.001964 0.001049 -0.002654 0.022879 -0.001164
# 6 -0.002620 0.005847 -0.000144 0.008021 -0.001164 0.030981
#
#
# Mechanical properties :
#
#
# Convention : Reuss Voigt Hill
#
# Bulk Modulus (GPa) = 30.45851 57.73477 44.09664
# Shear Modulus (GPa) = 29.14039 41.45820 35.29929
#
# Velocity S-wave (km/s) = 3.53363 4.21481 3.88916
# Velocity P-wave (km/s) = 5.44977 6.95883 6.25001
#
# Compressibility (1/GPa) = 0.03283154
#
# Stress axis : x y z
#
# Youngs Moduli (GPa) = 186.46025 31.67994 99.78451
#
# Poissons Ratio (x) = 0.07227 0.12831
# Poissons Ratio (y) = 0.42537 0.34847
# Poissons Ratio (z) = 0.23976 0.11063
#
# Static dielectric constant tensor:
#      x y z
#    x 2.019030 0.005630 0.033800 
#    y 0.005630 1.919710 -0.034080 
#    z 0.033800 -0.034080 1.924310 
# 
# From -- ./inp_files/325992.got.cif
#   From: 2010.05.17/outbox.cif.g08.bks.cpg/sg2_163_cif.got.tgz:325992.got - 2010.06.03 11:33:40.
