data_PCOD9105544
_publ_section_title
;
Structure prediction by ZEFSAII (Michael W. Deem and Ramdas Pophale) SiO2 
 PCOD9105544
Probable space group: P -1
;
_chemical_formula_sum "Si O2"
_cell_formula_units_Z 16
_cell_length_a 13.271514
_cell_length_b 11.617020
_cell_length_c 7.494881
_cell_angle_alpha 94.814067
_cell_angle_beta 69.600009
_cell_angle_gamma 42.479303
_cell_volume 616.197463
_symmetry_space_group_name_H-M "P -1"
_symmetry_group_IT_number 2
_symmetry_cell_setting 'triclinic'
loop_
_space_group_symop_operation_xyz
x,y,z
-x,-y,-z
loop_
_atom_site_type_symbol
_atom_site_label
_atom_site_fract_x
_atom_site_fract_y
_atom_site_fract_z
Si Si1 0.331850 0.067058 0.244012
Si Si2 0.133835 0.017091 0.396906
Si Si3 0.715448 0.595985 0.921292
Si Si4 0.328600 0.229574 0.576558
Si Si5 0.849501 0.701804 0.949465
Si Si6 0.534140 0.364042 0.095541
Si Si7 0.819183 0.413446 0.197137
Si Si8 0.238734 0.728082 0.530430
O O1 0.295658 0.215152 0.395505
O O2 0.316719 0.096076 0.043759
O O3 0.171143 0.118791 0.405025
O O4 0.528574 0.830490 0.137367
O O5 0.263948 0.860660 0.126192
O O6 0.212715 0.884202 0.509897
O O7 0.917612 0.182401 0.505638
O O8 0.616977 0.605586 0.835235
O O9 0.792620 0.442162 0.005826
O O10 0.867187 0.564901 0.811855
O O11 0.341765 0.355992 0.599425
O O12 0.500000 0.000000 0.500000
O O13 0.185744 0.310703 0.829066
O O14 0.001332 0.669838 0.859596
O O15 0.500000 0.500000 0.000000
O O16 0.453311 0.495357 0.339505
O O17 0.823820 0.280980 0.252738
#
# Coordination Sequence:
#
# PCOD9105544 Si02
#       8
#     2   2   2   2   2   2   2   2
#     4  11  21  40  65  90 125 171 215 257 329 388
#     4   9  20  39  63  91 121 166 213 270 314 381
#     4  10  21  38  61  87 133 162 200 272 322 375
#     4  11  23  38  61  91 129 162 210 258 318 388
#     4  11  23  39  60  92 130 167 205 264 321 386
#     4   9  20  38  63  89 117 166 217 259 315 385
#     4  11  23  40  58  95 129 165 206 267 325 380
#     4  10  20  39  65  87 126 163 214 265 320 383
#
# _framework density 25.965702
#
# number of rings (size 3 to 8) (size 9 to 14) (size 15 to 20)
#    0.000    1.750    3.750    1.875    1.750    3.500 
#    0.000    5.625    2.750    4.500    0.000    0.000 
#    0.000    0.000    0.000    0.000    0.000    0.000 
#
# Total GULP energy -89144.066628 kJ/mol
# GULP energy per Si atom -5571.504164 kJ/mol
# Density = 2.590660 g / cm^3
# Si number density = 25.965702 Si / 1000 Ang^3
#
#
#
# Elastic Constant Matrix: (Units=GPa)
#
#
# Indices 1 2 3 4 5 6 
#
# 1 71.0730 1.2861 8.6376 -5.9348 -5.6253 -1.7466
# 2 1.2861 95.0465 34.1329 -19.8398 2.4031 -7.6873
# 3 8.6376 34.1329 66.1367 -3.5049 -6.3108 -3.8848
# 4 -5.9348 -19.8398 -3.5049 61.1753 4.8633 -4.5476
# 5 -5.6253 2.4031 -6.3108 4.8633 32.5198 -6.0645
# 6 -1.7466 -7.6873 -3.8848 -4.5476 -6.0645 39.8613
#
#
#
# Elastic Compliance Matrix: (Units=1/GPa)
#
#
# Indices 1 2 3 4 5 6 
#
# 1 0.014615 0.000880 -0.002023 0.001506 0.002050 0.001097
# 2 0.000880 0.014403 -0.007420 0.004707 -0.002640 0.002228
# 3 -0.002023 -0.007420 0.019593 -0.001768 0.004426 0.000862
# 4 0.001506 0.004707 -0.001768 0.018317 -0.002707 0.002479
# 5 0.002050 -0.002640 0.004426 -0.002707 0.033458 0.004793
# 6 0.001097 0.002228 0.000862 0.002479 0.004793 0.026661
#
#
# Mechanical properties :
#
#
# Convention : Reuss Voigt Hill
#
# Bulk Modulus (GPa) = 31.76112 35.59661 33.67887
# Shear Modulus (GPa) = 32.32709 39.25791 35.79250
#
# Velocity S-wave (km/s) = 3.53227 3.89255 3.71678
# Velocity P-wave (km/s) = 5.37535 5.82593 5.60517
#
# Compressibility (1/GPa) = 0.03148504
#
# Stress axis : x y z
#
# Youngs Moduli (GPa) = 68.42327 69.42767 51.03828
#
# Poissons Ratio (x) = -0.06109 0.10326
# Poissons Ratio (y) = -0.06021 0.37871
# Poissons Ratio (z) = 0.13843 0.51516
#
# Static dielectric constant tensor:
#      x y z
#    x 2.144200 -0.128080 -0.094210 
#    y -0.128080 2.474330 0.312800 
#    z -0.094210 0.312800 2.341560 
# 
# From -- ./inp_files/305096.got.cif
#   From: 2010.05.17/outbox.cif.g08.bks.cpg/sg2_153_cif.got.tgz:305096.got - 2010.06.03 11:33:40.
