data_PCOD9105462
_publ_section_title
;
Structure prediction by ZEFSAII (Michael W. Deem and Ramdas Pophale) SiO2 
 PCOD9105462
Probable space group: P -1
;
_chemical_formula_sum "Si O2"
_cell_formula_units_Z 16
_cell_length_a 23.753386
_cell_length_b 12.295952
_cell_length_c 9.015608
_cell_angle_alpha 129.031799
_cell_angle_beta 38.903471
_cell_angle_gamma 150.900217
_cell_volume 793.285684
_symmetry_space_group_name_H-M "P -1"
_symmetry_group_IT_number 2
_symmetry_cell_setting 'triclinic'
loop_
_space_group_symop_operation_xyz
x,y,z
-x,-y,-z
loop_
_atom_site_type_symbol
_atom_site_label
_atom_site_fract_x
_atom_site_fract_y
_atom_site_fract_z
Si Si1 0.051620 0.924800 0.906933
Si Si2 0.847043 0.432055 0.198267
Si Si3 0.947620 0.084335 0.744981
Si Si4 0.683822 0.942526 0.176134
Si Si5 0.563239 0.968162 0.960607
Si Si6 0.561866 0.219093 0.626960
Si Si7 0.892452 0.453396 0.787664
Si Si8 0.377278 0.231743 0.517548
O O1 0.943359 0.674176 0.852490
O O2 0.219373 0.094889 0.676811
O O3 0.043607 0.919741 0.097899
O O4 0.000000 0.000000 0.000000
O O5 0.771905 0.199793 0.217846
O O6 0.726722 0.407098 0.398688
O O7 0.959305 0.660012 0.260752
O O8 0.910888 0.458817 0.932762
O O9 0.785700 0.938924 0.912564
O O10 0.000000 0.000000 0.500000
O O11 0.542279 0.790444 0.233895
O O12 0.639097 0.853974 0.358955
O O13 0.724305 0.214890 0.893402
O O14 0.578883 0.837947 0.740966
O O15 0.500000 0.000000 0.000000
O O16 0.459048 0.820887 0.189135
O O17 0.500000 0.000000 0.500000
O O18 0.000000 0.500000 0.500000
O O19 0.500000 0.500000 0.500000
#
# Coordination Sequence:
#
# PCOD9105462 Si02
#       8
#     2   2   2   2   2   2   2   2
#     4  10  24  43  61  90 131 173 207 265 331 381
#     4  10  21  41  68  94 131 168 215 269 319 387
#     4  10  23  40  61  95 129 166 213 262 320 385
#     4  10  21  43  66  90 130 168 216 270 323 383
#     4  12  24  41  68  99 127 170 224 274 322 388
#     4  10  20  39  64  96 127 163 212 264 327 377
#     4  11  22  42  68  98 128 168 227 271 321 389
#     4  11  26  43  62  97 134 168 217 273 332 388
#
# _framework density 20.169280000000001
#
# number of rings (size 3 to 8) (size 9 to 14) (size 15 to 20)
#    0.000    1.500    3.750    1.875    1.750    5.000 
#    4.500    1.250    0.000    0.000    0.000    0.000 
#    0.000    0.000    0.000    0.000    0.000    0.000 
#
# Total GULP energy -89245.664158 kJ/mol
# GULP energy per Si atom -5577.854010 kJ/mol
# Density = 2.012337 g / cm^3
# Si number density = 20.169280 Si / 1000 Ang^3
#
#
#
# Elastic Constant Matrix: (Units=GPa)
#
#
# Indices 1 2 3 4 5 6 
#
# 1 94.1626 8.3229 37.3580 7.9448 -18.0011 -16.6120
# 2 8.3229 97.9510 29.4617 16.6094 -0.9553 -16.8577
# 3 37.3580 29.4617 149.1877 16.9682 -7.7939 -6.4732
# 4 7.9448 16.6094 16.9682 31.5571 -1.9215 -1.7221
# 5 -18.0011 -0.9553 -7.7939 -1.9215 30.4946 -4.3814
# 6 -16.6120 -16.8577 -6.4732 -1.7221 -4.3814 34.3175
#
#
#
# Elastic Compliance Matrix: (Units=1/GPa)
#
#
# Indices 1 2 3 4 5 6 
#
# 1 0.015147 0.001522 -0.003010 -0.001958 0.009333 0.008606
# 2 0.001522 0.012744 -0.001902 -0.005627 0.001396 0.006534
# 3 -0.003010 -0.001902 0.008085 -0.002649 -0.000082 -0.001009
# 4 -0.001958 -0.005627 -0.002649 0.036434 -0.000057 -0.002391
# 5 0.009333 0.001396 -0.000082 -0.000057 0.039796 0.010266
# 6 0.008606 0.006534 -0.001009 -0.002391 0.010266 0.037516
#
#
# Mechanical properties :
#
#
# Convention : Reuss Voigt Hill
#
# Bulk Modulus (GPa) = 34.24821 54.62073 44.43447
# Shear Modulus (GPa) = 30.07830 37.01775 33.54803
#
# Velocity S-wave (km/s) = 3.86592 4.28875 4.08281
# Velocity P-wave (km/s) = 6.07818 7.18780 6.65615
#
# Compressibility (1/GPa) = 0.02919860
#
# Stress axis : x y z
#
# Youngs Moduli (GPa) = 66.01921 78.46775 123.67959
#
# Poissons Ratio (x) = -0.11946 0.37227
# Poissons Ratio (y) = -0.10051 0.23518
# Poissons Ratio (z) = 0.19871 0.14921
#
# Static dielectric constant tensor:
#      x y z
#    x 1.760330 -0.006450 -0.051780 
#    y -0.006450 2.303020 0.194290 
#    z -0.051780 0.194290 1.779920 
# 
# From -- ./inp_files/353661.got.cif
#   From: 2010.05.17/outbox.cif.g08.bks.cpg/sg2_177_cif.got.tgz:353661.got - 2010.06.03 11:33:40.
