data_PCOD9105331
_publ_section_title
;
Structure prediction by ZEFSAII (Michael W. Deem and Ramdas Pophale) SiO2 
 PCOD9105331
Probable space group: P -1
;
_chemical_formula_sum "Si O2"
_cell_formula_units_Z 10
_cell_length_a 12.935409
_cell_length_b 13.447306
_cell_length_c 4.969069
_cell_angle_alpha 119.685924
_cell_angle_beta 83.475856
_cell_angle_gamma 140.745667
_cell_volume 413.949736
_symmetry_space_group_name_H-M "P -1"
_symmetry_group_IT_number 2
_symmetry_cell_setting 'triclinic'
loop_
_space_group_symop_operation_xyz
x,y,z
-x,-y,-z
loop_
_atom_site_type_symbol
_atom_site_label
_atom_site_fract_x
_atom_site_fract_y
_atom_site_fract_z
Si Si1 0.251600 0.722561 0.490144
Si Si2 0.152637 0.048749 0.421987
Si Si3 0.610484 0.714534 0.833192
Si Si4 0.347073 0.683454 0.917322
Si Si5 0.965361 0.296471 0.756875
O O1 0.323924 0.763971 0.818768
O O2 0.202488 0.802459 0.500555
O O3 0.386396 0.777884 0.318818
O O4 0.052713 0.472453 0.168386
O O5 0.208059 0.109910 0.176967
O O6 0.087616 0.862867 0.275703
O O7 0.333823 0.238078 0.807773
O O8 0.000000 0.000000 0.500000
O O9 0.500000 0.500000 0.500000
O O10 0.486265 0.713483 0.823648
O O11 0.142689 0.438161 0.697678
#
# Coordination Sequence:
#
# PCOD9105331 Si02
#       5
#     2   2   2   2   2
#     4   9  20  36  69  91 125 169 204 249 311 381
#     4  12  27  43  67  96 124 164 219 267 305 373
#     4  12  27  44  64  92 131 170 208 260 328 371
#     4  10  20  39  64  90 125 169 207 245 321 367
#     4   9  22  38  68  92 128 160 221 244 310 370
#
# _framework density 24.157520000000002
#
# number of rings (size 3 to 8) (size 9 to 14) (size 15 to 20)
#    1.200    0.400    0.000    4.200    5.600    0.000 
#    0.000    6.000    0.000    0.000    0.000    0.000 
#    0.000    0.000    0.000    0.000    0.000    0.000 
#
# Total GULP energy -55960.606903 kJ/mol
# GULP energy per Si atom -5596.060690 kJ/mol
# Density = 2.410254 g / cm^3
# Si number density = 24.157520 Si / 1000 Ang^3
#
#
#
# Elastic Constant Matrix: (Units=GPa)
#
#
# Indices 1 2 3 4 5 6 
#
# 1 130.9374 28.5142 -12.1774 6.0842 -4.0341 9.0534
# 2 28.5142 107.3007 6.5151 2.6087 -13.9074 -7.5190
# 3 -12.1774 6.5151 53.2611 -8.5749 -3.6150 -10.6427
# 4 6.0842 2.6087 -8.5749 43.8616 -8.1341 -9.8047
# 5 -4.0341 -13.9074 -3.6150 -8.1341 26.4868 -2.2002
# 6 9.0534 -7.5190 -10.6427 -9.8047 -2.2002 47.1776
#
#
#
# Elastic Compliance Matrix: (Units=1/GPa)
#
#
# Indices 1 2 3 4 5 6 
#
# 1 0.008517 -0.002512 0.001655 -0.001199 -0.000324 -0.001926
# 2 -0.002512 0.010943 -0.000813 0.001193 0.005831 0.002562
# 3 0.001655 -0.000813 0.021859 0.006429 0.005287 0.006067
# 4 -0.001199 0.001193 0.006429 0.027940 0.010580 0.008170
# 5 -0.000324 0.005831 0.005287 0.010580 0.045277 0.006495
# 6 -0.001926 0.002562 0.006067 0.008170 0.006495 0.025344
#
#
# Mechanical properties :
#
#
# Convention : Reuss Voigt Hill
#
# Bulk Modulus (GPa) = 26.33005 37.46702 31.89853
# Shear Modulus (GPa) = 32.07609 41.41504 36.74556
#
# Velocity S-wave (km/s) = 3.64784 4.14499 3.90434
# Velocity P-wave (km/s) = 5.35400 6.20089 5.79294
#
# Compressibility (1/GPa) = 0.03797942
#
# Stress axis : x y z
#
# Youngs Moduli (GPa) = 117.41294 91.38457 45.74712
#
# Poissons Ratio (x) = 0.22952 -0.07570
# Poissons Ratio (y) = 0.29489 0.03719
# Poissons Ratio (z) = -0.19428 0.07429
#
# Static dielectric constant tensor:
#      x y z
#    x 1.876490 0.028360 0.016500 
#    y 0.028360 1.933310 0.057090 
#    z 0.016500 0.057090 1.935720 
# 
# From -- ./inp_files/2333.got.cif
#   From: 2010.05.17/outbox.cif.g08.bks.cpg/sg2_2_cif.got.tgz:2333.got - 2010.06.03 11:33:40.
