data_PCOD9105965
_publ_section_title
;
Structure prediction by ZEFSAII (Michael W. Deem and Ramdas Pophale) SiO2 
 PCOD9105965
Probable space group: P -1
;
_chemical_formula_sum "Si O2"
_cell_formula_units_Z 16
_cell_length_a 22.436011
_cell_length_b 17.653705
_cell_length_c 8.706735
_cell_angle_alpha 27.762782
_cell_angle_beta 34.138715
_cell_angle_gamma 21.293022
_cell_volume 583.231471
_symmetry_space_group_name_H-M "P -1"
_symmetry_group_IT_number 2
_symmetry_cell_setting 'triclinic'
loop_
_space_group_symop_operation_xyz
x,y,z
-x,-y,-z
loop_
_atom_site_type_symbol
_atom_site_label
_atom_site_fract_x
_atom_site_fract_y
_atom_site_fract_z
Si Si1 0.887431 0.184248 0.550495
Si Si2 0.684719 0.744698 0.771694
Si Si3 0.241986 0.181158 0.222674
Si Si4 0.022509 0.706826 0.240202
Si Si5 0.426670 0.838212 0.958069
Si Si6 0.148358 0.079572 0.346412
Si Si7 0.438436 0.408671 0.379587
Si Si8 0.724954 0.392037 0.933365
O O1 0.693335 0.418664 0.512932
O O2 0.000000 0.000000 0.500000
O O3 0.977407 0.229769 0.361548
O O4 0.907560 0.997512 0.943368
O O5 0.682097 0.768105 0.919287
O O6 0.863874 0.470990 0.828433
O O7 0.537272 0.812435 0.889116
O O8 0.655916 0.949997 0.375571
O O9 0.092972 0.296784 0.442429
O O10 0.167849 0.228375 0.126707
O O11 0.400782 0.879061 0.415809
O O12 0.159895 0.604165 0.249941
O O13 0.283930 0.919066 0.211473
O O14 0.558109 0.576206 0.057903
O O15 0.185819 0.884758 0.732077
O O16 0.500000 0.500000 0.000000
O O17 0.323400 0.482536 0.353717
#
# Coordination Sequence:
#
# PCOD9105965 Si02
#       8
#     2   2   2   2   2   2   2   2
#     4  11  26  43  66 103 138 165 212 279 342 387
#     4  10  23  42  67  91 128 181 229 259 316 393
#     4  12  23  40  68  97 131 173 223 266 322 397
#     4  10  22  42  67  93 129 178 220 264 318 401
#     4  10  22  41  65  96 127 176 224 272 314 392
#     4  11  24  39  65  98 134 165 213 281 344 370
#     4  12  22  38  68  99 132 172 213 267 331 394
#     4  10  20  39  66  96 132 165 217 270 332 389
#
# _framework density 27.433361000000001
#
# number of rings (size 3 to 8) (size 9 to 14) (size 15 to 20)
#    0.000    1.250    3.750    1.500    3.500    5.500 
#    0.000    0.625    0.000    0.000    0.000    0.000 
#    0.000    0.000    0.000    0.000    0.000    0.000 
#
# Total GULP energy -89565.203956 kJ/mol
# GULP energy per Si atom -5597.825247 kJ/mol
# Density = 2.737092 g / cm^3
# Si number density = 27.433361 Si / 1000 Ang^3
#
#
#
# Elastic Constant Matrix: (Units=GPa)
#
#
# Indices 1 2 3 4 5 6 
#
# 1 144.1151 28.4254 14.4715 3.4254 0.7190 0.5747
# 2 28.4254 181.7030 33.3061 25.2356 0.1827 -20.4487
# 3 14.4715 33.3061 68.5669 8.2550 11.1817 -8.6584
# 4 3.4254 25.2356 8.2550 60.6978 -11.6056 6.1702
# 5 0.7190 0.1827 11.1817 -11.6056 36.6262 4.8645
# 6 0.5747 -20.4487 -8.6584 6.1702 4.8645 34.9607
#
#
#
# Elastic Compliance Matrix: (Units=1/GPa)
#
#
# Indices 1 2 3 4 5 6 
#
# 1 0.007279 -0.001105 -0.001307 0.000463 0.000575 -0.001251
# 2 -0.001105 0.006981 -0.002080 -0.003174 -0.000952 0.004279
# 3 -0.001307 -0.002080 0.018070 -0.003393 -0.007204 0.004881
# 4 0.000463 -0.003174 -0.003393 0.020638 0.008583 -0.007541
# 5 0.000575 -0.000952 -0.007204 0.008583 0.033345 -0.008505
# 6 -0.001251 0.004279 0.004881 -0.007541 -0.008505 0.034850
#
#
# Mechanical properties :
#
#
# Convention : Reuss Voigt Hill
#
# Bulk Modulus (GPa) = 42.83362 60.75454 51.79408
# Shear Modulus (GPa) = 36.25039 47.66908 41.95974
#
# Velocity S-wave (km/s) = 3.63905 4.17301 3.91514
# Velocity P-wave (km/s) = 5.77100 6.73892 6.27366
#
# Compressibility (1/GPa) = 0.02334615
#
# Stress axis : x y z
#
# Youngs Moduli (GPa) = 137.37770 143.24697 55.33981
#
# Poissons Ratio (x) = 0.15828 0.07234
# Poissons Ratio (y) = 0.15179 0.11511
# Poissons Ratio (z) = 0.17958 0.29795
#
# Static dielectric constant tensor:
#      x y z
#    x 2.290470 0.074840 0.008900 
#    y 0.074840 2.109270 0.008360 
#    z 0.008900 0.008360 2.246430 
# 
# From -- ./inp_files/348212.got.cif
#   From: 2010.05.17/outbox.cif.g08.bks.cpg/sg2_175_cif.got.tgz:348212.got - 2010.06.03 11:33:40.
