data_PCOD9105871
_publ_section_title
;
Structure prediction by ZEFSAII (Michael W. Deem and Ramdas Pophale) SiO2 
 PCOD9105871
Probable space group: P -1
;
_chemical_formula_sum "Si O2"
_cell_formula_units_Z 16
_cell_length_a 12.415843
_cell_length_b 19.180918
_cell_length_c 9.694276
_cell_angle_alpha 34.468349
_cell_angle_beta 37.085629
_cell_angle_gamma 37.218440
_cell_volume 719.929744
_symmetry_space_group_name_H-M "P -1"
_symmetry_group_IT_number 2
_symmetry_cell_setting 'triclinic'
loop_
_space_group_symop_operation_xyz
x,y,z
-x,-y,-z
loop_
_atom_site_type_symbol
_atom_site_label
_atom_site_fract_x
_atom_site_fract_y
_atom_site_fract_z
Si Si1 0.917921 0.120255 0.226673
Si Si2 0.271331 0.494031 0.601776
Si Si3 0.647619 0.251755 0.542672
Si Si4 0.457496 0.130529 0.423411
Si Si5 0.190203 0.783908 0.111124
Si Si6 0.986272 0.831346 0.517863
Si Si7 0.362674 0.019348 0.977455
Si Si8 0.824091 0.644151 0.846156
O O1 0.747519 0.200699 0.375849
O O2 0.129526 0.090495 0.124847
O O3 0.908486 0.198595 0.965995
O O4 0.909292 0.976478 0.433309
O O5 0.443357 0.378094 0.533945
O O6 0.284230 0.632353 0.320755
O O7 0.037092 0.537590 0.752420
O O8 0.293322 0.432815 0.834212
O O9 0.817807 0.262248 0.446729
O O10 0.607556 0.130895 0.852123
O O11 0.285214 0.259523 0.323545
O O12 0.500000 0.000000 0.500000
O O13 0.416103 0.096289 0.675207
O O14 0.646615 0.161313 0.168983
O O15 0.042806 0.859855 0.259742
O O16 0.859336 0.744747 0.759463
O O17 0.500000 0.000000 0.000000
#
# Coordination Sequence:
#
# PCOD9105871 Si02
#       8
#     2   2   2   2   2   2   2   2
#     4  11  23  42  64  94 129 166 211 263 325 377
#     4  10  23  41  62  91 130 173 215 253 315 381
#     4  11  24  40  63  92 130 172 211 257 317 389
#     4  12  23  38  65  99 125 156 211 271 321 364
#     4  11  23  40  65  92 129 170 210 260 313 380
#     4  10  20  39  66  92 120 163 214 268 323 368
#     4  11  23  41  64  94 128 162 207 263 322 375
#     4  10  22  40  66  96 128 164 214 271 313 371
#
# _framework density 22.224392000000002
#
# number of rings (size 3 to 8) (size 9 to 14) (size 15 to 20)
#    0.000    1.250    0.000    7.875    0.000    9.000 
#    0.000    0.000    0.000    3.750    0.000    0.000 
#    0.000    0.000    0.000    0.000    0.000    0.000 
#
# Total GULP energy -89444.435622 kJ/mol
# GULP energy per Si atom -5590.277226 kJ/mol
# Density = 2.217381 g / cm^3
# Si number density = 22.224392 Si / 1000 Ang^3
#
#
#
# Elastic Constant Matrix: (Units=GPa)
#
#
# Indices 1 2 3 4 5 6 
#
# 1 120.1269 41.8651 51.9644 0.8211 22.7559 -15.2007
# 2 41.8651 151.2721 61.8775 20.9264 19.2098 -19.1121
# 3 51.9644 61.8775 160.3783 -4.8503 23.6854 4.6872
# 4 0.8211 20.9264 -4.8503 35.4080 -0.1308 3.2505
# 5 22.7559 19.2098 23.6854 -0.1308 45.5124 -0.4679
# 6 -15.2007 -19.1121 4.6872 3.2505 -0.4679 25.9555
#
#
#
# Elastic Compliance Matrix: (Units=1/GPa)
#
#
# Indices 1 2 3 4 5 6 
#
# 1 0.011496 -0.000254 -0.003308 -0.001248 -0.003849 0.007230
# 2 -0.000254 0.011124 -0.004417 -0.008082 -0.002192 0.009813
# 3 -0.003308 -0.004417 0.009601 0.004689 -0.001542 -0.007538
# 4 -0.001248 -0.008082 0.004689 0.034784 0.001573 -0.011857
# 5 -0.003849 -0.002192 -0.001542 0.001573 0.025595 -0.003325
# 6 0.007230 0.009813 -0.007538 -0.011857 -0.003325 0.052773
#
#
# Mechanical properties :
#
#
# Convention : Reuss Voigt Hill
#
# Bulk Modulus (GPa) = 61.48513 82.57683 72.03098
# Shear Modulus (GPa) = 29.98467 39.77989 34.88228
#
# Velocity S-wave (km/s) = 3.67710 4.23533 3.96605
# Velocity P-wave (km/s) = 6.76415 7.82010 7.31122
#
# Compressibility (1/GPa) = 0.01626410
#
# Stress axis : x y z
#
# Youngs Moduli (GPa) = 86.98448 89.89719 104.15502
#
# Poissons Ratio (x) = 0.02282 0.34450
# Poissons Ratio (y) = 0.02208 0.46006
# Poissons Ratio (z) = 0.28771 0.39708
#
# Static dielectric constant tensor:
#      x y z
#    x 1.906380 0.005590 -0.034090 
#    y 0.005590 1.878930 -0.036490 
#    z -0.034090 -0.036490 1.860220 
# 
# From -- ./inp_files/278745.got.cif
#   From: 2010.05.17/outbox.cif.g08.bks.cpg/sg2_140_cif.got.tgz:278745.got - 2010.06.03 11:33:40.
