data_PCOD9105137
_publ_section_title
;
Structure prediction by ZEFSAII (Michael W. Deem and Ramdas Pophale) SiO2 
 PCOD9105137
Probable space group: P -1
;
_chemical_formula_sum "Si O2"
_cell_formula_units_Z 14
_cell_length_a 9.351628
_cell_length_b 21.680386
_cell_length_c 8.007685
_cell_angle_alpha 52.132412
_cell_angle_beta 54.251230
_cell_angle_gamma 27.373356
_cell_volume 585.860690
_symmetry_space_group_name_H-M "P -1"
_symmetry_group_IT_number 2
_symmetry_cell_setting 'triclinic'
loop_
_space_group_symop_operation_xyz
x,y,z
-x,-y,-z
loop_
_atom_site_type_symbol
_atom_site_label
_atom_site_fract_x
_atom_site_fract_y
_atom_site_fract_z
Si Si1 0.297186 0.702965 0.401307
Si Si2 0.812302 0.926796 0.612424
Si Si3 0.884516 0.804955 0.255242
Si Si4 0.859682 0.739356 0.034510
Si Si5 0.280756 0.450590 0.318778
Si Si6 0.791649 0.173811 0.212198
Si Si7 0.349773 0.844160 0.981365
O O1 0.521000 0.596465 0.575358
O O2 0.448845 0.719103 0.170425
O O3 0.993904 0.858667 0.428778
O O4 0.155646 0.689775 0.397096
O O5 0.963499 0.931499 0.631704
O O6 0.441505 0.064071 0.644960
O O7 0.916602 0.804132 0.818228
O O8 0.814908 0.769444 0.213815
O O9 0.011233 0.838205 0.023081
O O10 0.575863 0.812267 0.995313
O O11 0.140042 0.575353 0.108684
O O12 0.503930 0.320509 0.259358
O O13 0.000000 0.500000 0.500000
O O14 0.652190 0.157417 0.216441
O O15 0.000000 0.000000 0.000000
#
# Coordination Sequence:
#
# PCOD9105137 Si02
#       7
#     2   2   2   2   2   2   2
#     4  10  22  40  61  88 127 160 193 259 300 353
#     4  10  20  40  64  92 125 153 200 257 308 355
#     4  10  20  39  63  93 121 155 201 252 310 358
#     4  11  22  38  64  86 121 164 201 249 297 362
#     4  11  23  44  58  86 127 161 210 250 292 353
#     4   9  21  38  63  84 123 164 192 249 306 350
#     4  11  21  40  63  93 120 159 205 245 309 368
#
# _framework density 23.896466
#
# number of rings (size 3 to 8) (size 9 to 14) (size 15 to 20)
#    0.000    1.714    1.429    4.714    0.000    6.286 
#    5.143    2.143    0.000    0.000    0.000    0.000 
#    0.000    0.000    0.000    0.000    0.000    0.000 
#
# Total GULP energy -78178.632652 kJ/mol
# GULP energy per Si atom -5584.188047 kJ/mol
# Density = 2.384208 g / cm^3
# Si number density = 23.896466 Si / 1000 Ang^3
#
#
#
# Elastic Constant Matrix: (Units=GPa)
#
#
# Indices 1 2 3 4 5 6 
#
# 1 217.4374 41.9348 34.8316 -9.1026 37.8054 -22.8858
# 2 41.9348 72.7340 21.3740 -5.0039 0.4397 -27.2063
# 3 34.8316 21.3740 51.4871 -13.9412 7.5524 -11.4785
# 4 -9.1026 -5.0039 -13.9412 34.2470 -2.3618 2.7510
# 5 37.8054 0.4397 7.5524 -2.3618 41.4914 -1.3676
# 6 -22.8858 -27.2063 -11.4785 2.7510 -1.3676 25.7602
#
#
#
# Elastic Compliance Matrix: (Units=1/GPa)
#
#
# Indices 1 2 3 4 5 6 
#
# 1 0.006579 -0.002317 -0.002222 -0.000044 -0.005498 0.002121
# 2 -0.002317 0.024621 -0.004267 -0.000313 0.003342 0.022254
# 3 -0.002222 -0.004267 0.026388 0.009047 -0.002080 0.004201
# 4 -0.000044 -0.000313 0.009047 0.032830 0.000271 0.000171
# 5 -0.005498 0.003342 -0.002080 0.000271 0.029445 -0.000747
# 6 0.002121 0.022254 0.004201 0.000171 -0.000747 0.066022
#
#
# Mechanical properties :
#
#
# Convention : Reuss Voigt Hill
#
# Bulk Modulus (GPa) = 25.01418 59.77103 42.39261
# Shear Modulus (GPa) = 23.06035 36.53426 29.79730
#
# Velocity S-wave (km/s) = 3.10983 3.91430 3.53503
# Velocity P-wave (km/s) = 4.83582 6.74506 5.86860
#
# Compressibility (1/GPa) = 0.03997732
#
# Stress axis : x y z
#
# Youngs Moduli (GPa) = 151.99690 40.61568 37.89577
#
# Poissons Ratio (x) = 0.09409 0.08419
# Poissons Ratio (y) = 0.35213 0.16171
# Poissons Ratio (z) = 0.33767 0.17332
#
# Static dielectric constant tensor:
#      x y z
#    x 1.990460 0.022330 -0.001530 
#    y 0.022330 1.868260 0.009860 
#    z -0.001530 0.009860 1.988640 
# 
# From -- ./inp_files/221938.got.cif
#   From: 2010.05.17/outbox.cif.g08.bks.cpg/sg2_111_cif.got.tgz:221938.got - 2010.06.03 11:33:40.
