data_PCOD9105022
_publ_section_title
;
Structure prediction by ZEFSAII (Michael W. Deem and Ramdas Pophale) SiO2 
 PCOD9105022
Probable space group: P -1
;
_chemical_formula_sum "Si O2"
_cell_formula_units_Z 16
_cell_length_a 9.600097
_cell_length_b 7.830306
_cell_length_c 16.085155
_cell_angle_alpha 125.536154
_cell_angle_beta 49.968017
_cell_angle_gamma 113.971635
_cell_volume 752.369455
_symmetry_space_group_name_H-M "P -1"
_symmetry_group_IT_number 2
_symmetry_cell_setting 'triclinic'
loop_
_space_group_symop_operation_xyz
x,y,z
-x,-y,-z
loop_
_atom_site_type_symbol
_atom_site_label
_atom_site_fract_x
_atom_site_fract_y
_atom_site_fract_z
Si Si1 0.682842 0.755601 0.009764
Si Si2 0.061559 0.194356 0.590245
Si Si3 0.813895 0.617690 0.099604
Si Si4 0.840631 0.447090 0.476571
Si Si5 0.430413 0.488521 0.265017
Si Si6 0.333266 0.686180 0.199520
Si Si7 0.090240 0.034827 0.709050
Si Si8 0.706956 0.934021 0.887737
O O1 0.778881 0.687759 0.037896
O O2 0.485614 0.831706 0.135990
O O3 0.643836 0.546343 0.910696
O O4 0.778044 0.905812 0.947728
O O5 0.146949 0.380576 0.552807
O O6 0.872278 0.211293 0.367329
O O7 0.155126 0.113115 0.614709
O O8 0.000000 0.000000 0.500000
O O9 0.643527 0.471642 0.158695
O O10 0.818126 0.820301 0.214469
O O11 0.000000 0.500000 0.000000
O O12 0.647199 0.463011 0.601605
O O13 0.000000 0.500000 0.500000
O O14 0.377179 0.676798 0.277388
O O15 0.321197 0.279880 0.214981
O O16 0.126262 0.724858 0.280548
O O17 0.872042 0.058984 0.813755
O O18 0.500000 0.000000 0.000000
#
# Coordination Sequence:
#
# PCOD9105022 Si02
#       8
#     2   2   2   2   2   2   2   2
#     4   9  19  34  58  85 122 168 202 257 316 372
#     4  12  21  36  64  93 124 160 209 271 326 368
#     4  11  24  42  61  92 135 173 213 258 322 394
#     4  12  21  42  64  95 124 159 215 274 321 376
#     4  10  20  39  63  88 126 165 207 271 315 374
#     4   9  16  32  58  89 116 152 208 255 313 366
#     4  12  25  39  63  96 129 171 211 265 324 384
#     4  11  20  36  62  96 126 161 220 270 317 378
#
# _framework density 21.266148000000001
#
# number of rings (size 3 to 8) (size 9 to 14) (size 15 to 20)
#    0.000    1.250    3.750    3.750    0.000    1.000 
#    0.000    1.875    0.000    0.000    0.000    0.000 
#    0.000    0.000    0.000    0.000    0.000    0.000 
#
# Total GULP energy -89227.167255 kJ/mol
# GULP energy per Si atom -5576.697953 kJ/mol
# Density = 2.121775 g / cm^3
# Si number density = 21.266148 Si / 1000 Ang^3
#
#
#
# Elastic Constant Matrix: (Units=GPa)
#
#
# Indices 1 2 3 4 5 6 
#
# 1 54.0885 19.8164 26.4508 -24.0989 5.7742 0.1416
# 2 19.8164 84.5855 48.6613 -25.3862 19.3040 -12.0065
# 3 26.4508 48.6613 116.6647 -32.5334 9.9737 -15.1959
# 4 -24.0989 -25.3862 -32.5334 39.6575 -6.7171 8.9893
# 5 5.7742 19.3040 9.9737 -6.7171 28.8626 -1.2682
# 6 0.1416 -12.0065 -15.1959 8.9893 -1.2682 25.7909
#
#
#
# Elastic Compliance Matrix: (Units=1/GPa)
#
#
# Indices 1 2 3 4 5 6 
#
# 1 0.026959 -0.001423 -0.002187 0.015289 -0.000455 -0.007450
# 2 -0.001423 0.019222 -0.005034 0.004824 -0.009540 0.003840
# 3 -0.002187 -0.005034 0.013102 0.005526 0.000716 0.003498
# 4 0.015289 0.004824 0.005526 0.044712 0.001768 -0.010080
# 5 -0.000455 -0.009540 0.000716 0.001768 0.041168 -0.002609
# 6 -0.007450 0.003840 0.003498 -0.010080 -0.002609 0.046047
#
#
# Mechanical properties :
#
#
# Convention : Reuss Voigt Hill
#
# Bulk Modulus (GPa) = 23.81157 49.46617 36.63887
# Shear Modulus (GPa) = 22.47225 29.55623 26.01424
#
# Velocity S-wave (km/s) = 3.25424 3.73208 3.50132
# Velocity P-wave (km/s) = 5.03402 6.47165 5.79757
#
# Compressibility (1/GPa) = 0.04199639
#
# Stress axis : x y z
#
# Youngs Moduli (GPa) = 37.09332 52.02426 76.32232
#
# Poissons Ratio (x) = 0.07402 0.16689
# Poissons Ratio (y) = 0.05278 0.38420
# Poissons Ratio (z) = 0.08111 0.26189
#
# Static dielectric constant tensor:
#      x y z
#    x 1.810270 -0.046640 -0.016790 
#    y -0.046640 1.806480 -0.034550 
#    z -0.016790 -0.034550 1.784650 
# 
# From -- ./inp_files/493357.got.cif
#   From: 2010.05.17/outbox.cif.g08.bks.cpg/sg2_247_cif.got.tgz:493357.got - 2010.06.03 11:33:40.
