data_PCOD9105752
_publ_section_title
;
Structure prediction by ZEFSAII (Michael W. Deem and Ramdas Pophale) SiO2 
 PCOD9105752
Probable space group: P -1
;
_chemical_formula_sum "Si O2"
_cell_formula_units_Z 14
_cell_length_a 5.230787
_cell_length_b 11.268962
_cell_length_c 10.393506
_cell_angle_alpha 82.347867
_cell_angle_beta 91.817688
_cell_angle_gamma 63.488876
_cell_volume 540.469338
_symmetry_space_group_name_H-M "P -1"
_symmetry_group_IT_number 2
_symmetry_cell_setting 'triclinic'
loop_
_space_group_symop_operation_xyz
x,y,z
-x,-y,-z
loop_
_atom_site_type_symbol
_atom_site_label
_atom_site_fract_x
_atom_site_fract_y
_atom_site_fract_z
Si Si1 0.257265 0.930128 0.112402
Si Si2 0.801514 0.890315 0.461718
Si Si3 0.725207 0.645702 0.479808
Si Si4 0.294544 0.831401 0.663482
Si Si5 0.991554 0.397285 0.913800
Si Si6 0.335949 0.164754 0.104949
Si Si7 0.450995 0.646042 0.235727
O O1 0.247739 0.805235 0.196540
O O2 0.293136 0.042177 0.180272
O O3 0.523958 0.872773 0.027887
O O4 0.000000 0.000000 0.000000
O O5 0.783129 0.768053 0.404815
O O6 0.031461 0.819015 0.590711
O O7 0.500000 0.000000 0.500000
O O8 0.851669 0.002514 0.367749
O O9 0.561090 0.725226 0.594369
O O10 0.503409 0.622183 0.389884
O O11 0.000000 0.500000 0.500000
O O12 0.453904 0.801489 0.808277
O O13 0.246959 0.381200 0.821807
O O14 0.706197 0.429255 0.825392
O O15 0.034733 0.280483 0.035917
O O16 0.000000 0.500000 0.000000
#
# Coordination Sequence:
#
# PCOD9105752 Si02
#       7
#     2   2   2   2   2   2   2
#     4  10  20  39  65  97 134 168 225 281 351 403
#     4   9  21  43  61  97 128 179 228 282 351 405
#     4  11  26  42  66  99 136 187 233 281 353 412
#     4  10  22  41  69  95 136 176 231 292 344 419
#     4  11  25  45  68  96 134 180 224 280 345 407
#     4  10  22  38  64 101 128 175 222 281 348 413
#     4  11  25  45  69  98 136 178 228 289 338 414
#
# _framework density 25.903410999999998
#
# number of rings (size 3 to 8) (size 9 to 14) (size 15 to 20)
#    0.000    1.714    1.429    1.286    4.000    7.429 
#    0.000    0.000    0.000    0.000    0.000    0.000 
#    0.000    0.000    0.000    0.000    0.000    0.000 
#
# Total GULP energy -78035.556031 kJ/mol
# GULP energy per Si atom -5573.968288 kJ/mol
# Density = 2.584445 g / cm^3
# Si number density = 25.903411 Si / 1000 Ang^3
#
#
#
# Elastic Constant Matrix: (Units=GPa)
#
#
# Indices 1 2 3 4 5 6 
#
# 1 95.2052 21.1061 26.1261 11.3548 22.7406 6.0173
# 2 21.1061 127.0711 42.1599 20.7559 2.3685 1.1887
# 3 26.1261 42.1599 103.1780 22.4237 31.0893 3.9808
# 4 11.3548 20.7559 22.4237 37.9289 -1.3719 6.0890
# 5 22.7406 2.3685 31.0893 -1.3719 49.5345 5.8582
# 6 6.0173 1.1887 3.9808 6.0890 5.8582 26.8114
#
#
#
# Elastic Compliance Matrix: (Units=1/GPa)
#
#
# Indices 1 2 3 4 5 6 
#
# 1 0.012615 -0.001415 -0.000291 -0.002891 -0.005519 -0.000863
# 2 -0.001415 0.009750 -0.003801 -0.002661 0.002434 0.000522
# 3 -0.000291 -0.003801 0.016062 -0.008003 -0.010211 0.001898
# 4 -0.002891 -0.002661 -0.008003 0.034975 0.008370 -0.007817
# 5 -0.005519 0.002434 -0.010211 0.008370 0.029931 -0.005794
# 6 -0.000863 0.000522 0.001898 -0.007817 -0.005794 0.040228
#
#
# Mechanical properties :
#
#
# Convention : Reuss Voigt Hill
#
# Bulk Modulus (GPa) = 36.48156 56.02650 46.25403
# Shear Modulus (GPa) = 30.54120 38.59243 34.56682
#
# Velocity S-wave (km/s) = 3.43744 3.86406 3.65698
# Velocity P-wave (km/s) = 5.46525 6.44856 5.97716
#
# Compressibility (1/GPa) = 0.02741111
#
# Stress axis : x y z
#
# Youngs Moduli (GPa) = 79.27123 102.56308 62.25998
#
# Poissons Ratio (x) = 0.14518 0.01815
# Poissons Ratio (y) = 0.11221 0.23664
# Poissons Ratio (z) = 0.02310 0.38983
#
# Static dielectric constant tensor:
#      x y z
#    x 2.191290 0.188450 -0.136320 
#    y 0.188450 2.120250 0.135400 
#    z -0.136320 0.135400 2.186570 
# 
# From -- ./inp_files/123384.got.cif
#   From: 2010.05.17/outbox.cif.g08.bks.cpg/sg2_62_cif.got.tgz:123384.got - 2010.06.03 11:33:40.
