data_PCOD9105365
_publ_section_title
;
Structure prediction by ZEFSAII (Michael W. Deem and Ramdas Pophale) SiO2 
 PCOD9105365
Probable space group: P -1
;
_chemical_formula_sum "Si O2"
_cell_formula_units_Z 16
_cell_length_a 13.489319
_cell_length_b 7.319908
_cell_length_c 9.985768
_cell_angle_alpha 73.491403
_cell_angle_beta 50.744213
_cell_angle_gamma 57.209874
_cell_volume 639.234120
_symmetry_space_group_name_H-M "P -1"
_symmetry_group_IT_number 2
_symmetry_cell_setting 'triclinic'
loop_
_space_group_symop_operation_xyz
x,y,z
-x,-y,-z
loop_
_atom_site_type_symbol
_atom_site_label
_atom_site_fract_x
_atom_site_fract_y
_atom_site_fract_z
Si Si1 0.759306 0.243245 0.691646
Si Si2 0.747892 0.849262 0.782514
Si Si3 0.468133 0.436070 0.755799
Si Si4 0.136284 0.125140 0.775907
Si Si5 0.513245 0.026459 0.179579
Si Si6 0.555220 0.171276 0.389649
Si Si7 0.053488 0.531367 0.597060
Si Si8 0.171869 0.834720 0.038821
O O1 0.584796 0.371975 0.789769
O O2 0.852134 0.347259 0.529461
O O3 0.794660 0.195199 0.827368
O O4 0.801973 0.008533 0.639294
O O5 0.890400 0.666120 0.769598
O O6 0.654123 0.808044 0.758206
O O7 0.624196 0.971177 0.973830
O O8 0.475182 0.210589 0.748720
O O9 0.523632 0.570120 0.586252
O O10 0.301670 0.615320 0.901989
O O11 0.291214 0.921496 0.644782
O O12 0.139831 0.331390 0.665989
O O13 0.985934 0.148939 0.847305
O O14 0.144293 0.058853 0.940321
O O15 0.561017 0.135377 0.230462
O O16 0.500000 0.000000 0.500000
O O17 0.000000 0.500000 0.500000
#
# Coordination Sequence:
#
# PCOD9105365 Si02
#       8
#     2   2   2   2   2   2   2   2
#     4  11  22  39  66  97 127 170 221 272 332 390
#     4  10  23  42  63  97 131 165 222 277 330 382
#     4  10  22  40  66  97 129 171 224 269 331 388
#     4  10  22  39  57  94 126 172 221 256 329 398
#     4  10  23  42  67  97 131 169 223 281 322 390
#     4  11  24  41  65  94 138 178 219 270 335 397
#     4  12  24  39  65  93 130 173 218 269 328 393
#     4  10  20  39  64  91 133 171 217 270 325 394
#
# _framework density 25.029952999999999
#
# number of rings (size 3 to 8) (size 9 to 14) (size 15 to 20)
#    0.000    1.500    1.250    3.750    3.500    1.500 
#    0.000    8.125    0.000    0.000    0.000    0.000 
#    0.000    0.000    0.000    0.000    0.000    0.000 
#
# Total GULP energy -89204.001627 kJ/mol
# GULP energy per Si atom -5575.250102 kJ/mol
# Density = 2.497298 g / cm^3
# Si number density = 25.029953 Si / 1000 Ang^3
#
#
#
# Elastic Constant Matrix: (Units=GPa)
#
#
# Indices 1 2 3 4 5 6 
#
# 1 113.8919 47.6173 12.2423 4.6467 0.1197 -2.5173
# 2 47.6173 118.9264 32.7842 -30.9149 -4.0440 -26.7599
# 3 12.2423 32.7842 80.7388 -31.2770 -5.2890 5.8644
# 4 4.6467 -30.9149 -31.2770 51.3741 0.8027 -4.7416
# 5 0.1197 -4.0440 -5.2890 0.8027 32.5333 -8.0712
# 6 -2.5173 -26.7599 5.8644 -4.7416 -8.0712 39.3491
#
#
#
# Elastic Compliance Matrix: (Units=1/GPa)
#
#
# Indices 1 2 3 4 5 6 
#
# 1 0.012328 -0.007798 -0.001162 -0.007002 -0.002442 -0.005686
# 2 -0.007798 0.018994 -0.002710 0.011819 0.005470 0.015369
# 3 -0.001162 -0.002710 0.017374 0.008738 0.001496 -0.003147
# 4 -0.007002 0.011819 0.008738 0.033499 0.004899 0.011329
# 5 -0.002442 0.005470 0.001496 0.004899 0.034268 0.010961
# 6 -0.005686 0.015369 -0.003147 0.011329 0.010961 0.039584
#
#
# Mechanical properties :
#
#
# Convention : Reuss Voigt Hill
#
# Bulk Modulus (GPa) = 39.43929 55.42720 47.43324
# Shear Modulus (GPa) = 26.61845 39.37885 32.99865
#
# Velocity S-wave (km/s) = 3.26462 3.97075 3.63487
# Velocity P-wave (km/s) = 5.47735 6.57380 6.05046
#
# Compressibility (1/GPa) = 0.02535543
#
# Stress axis : x y z
#
# Youngs Moduli (GPa) = 81.11500 52.64721 57.55852
#
# Poissons Ratio (x) = 0.41056 0.06689
# Poissons Ratio (y) = 0.63256 0.15597
# Poissons Ratio (z) = 0.09427 0.14267
#
# Static dielectric constant tensor:
#      x y z
#    x 1.957050 -0.003220 0.015220 
#    y -0.003220 2.163290 0.001720 
#    z 0.015220 0.001720 2.186580 
# 
# From -- ./inp_files/445621.got.cif
#   From: 2010.05.17/outbox.cif.g08.bks.cpg/sg2_223_cif.got.tgz:445621.got - 2010.06.03 11:33:40.
