data_PCOD9105524
_publ_section_title
;
Structure prediction by ZEFSAII (Michael W. Deem and Ramdas Pophale) SiO2 
 PCOD9105524
Probable space group: P -1
;
_chemical_formula_sum "Si O2"
_cell_formula_units_Z 16
_cell_length_a 19.206995
_cell_length_b 10.814661
_cell_length_c 9.443904
_cell_angle_alpha 122.178772
_cell_angle_beta 41.713792
_cell_angle_gamma 145.169547
_cell_volume 728.746393
_symmetry_space_group_name_H-M "P -1"
_symmetry_group_IT_number 2
_symmetry_cell_setting 'triclinic'
loop_
_space_group_symop_operation_xyz
x,y,z
-x,-y,-z
loop_
_atom_site_type_symbol
_atom_site_label
_atom_site_fract_x
_atom_site_fract_y
_atom_site_fract_z
Si Si1 0.096613 0.984043 0.005791
Si Si2 0.730658 0.768553 0.712748
Si Si3 0.096614 0.360440 0.681039
Si Si4 0.424348 0.349115 0.815964
Si Si5 0.582090 0.214439 0.422363
Si Si6 0.095928 0.752284 0.340678
Si Si7 0.079470 0.293600 0.179107
Si Si8 0.363110 0.786132 0.979807
O O1 0.052525 0.834887 0.112556
O O2 0.056811 0.111568 0.175431
O O3 0.992430 0.813271 0.931393
O O4 0.284003 0.194817 0.820628
O O5 0.828646 0.719747 0.523767
O O6 0.580452 0.612573 0.737297
O O7 0.828699 0.014127 0.677406
O O8 0.660625 0.705488 0.939175
O O9 0.231597 0.580773 0.701477
O O10 0.046211 0.407582 0.654725
O O11 0.501874 0.272499 0.645470
O O12 0.500000 0.000000 0.500000
O O13 0.563495 0.183229 0.263310
O O14 0.227825 0.766427 0.144006
O O15 0.023012 0.697926 0.573285
O O16 0.260063 0.542076 0.050002
O O17 0.500000 0.000000 0.000000
#
# Coordination Sequence:
#
# PCOD9105524 Si02
#       8
#     2   2   2   2   2   2   2   2
#     4  11  22  43  71 102 131 177 223 294 331 402
#     4  10  20  39  65 110 129 164 218 283 346 395
#     4  11  22  43  73 102 135 165 235 292 329 396
#     4  10  22  37  68  96 138 166 219 280 338 389
#     4  11  26  46  66  99 135 181 224 279 336 400
#     4  12  24  42  71  97 133 184 222 278 342 393
#     4  11  26  45  67  99 138 179 229 272 349 404
#     4  12  30  48  64  96 144 187 230 269 334 417
#
# _framework density 21.955511000000001
#
# number of rings (size 3 to 8) (size 9 to 14) (size 15 to 20)
#    0.000    1.000    3.750    2.250    5.250    1.500 
#    0.000    1.250    0.000    0.000    0.000    0.000 
#    0.000    0.000    0.000    0.000    0.000    0.000 
#
# Total GULP energy -89357.656138 kJ/mol
# GULP energy per Si atom -5584.853509 kJ/mol
# Density = 2.190554 g / cm^3
# Si number density = 21.955511 Si / 1000 Ang^3
#
#
#
# Elastic Constant Matrix: (Units=GPa)
#
#
# Indices 1 2 3 4 5 6 
#
# 1 38.6203 31.8085 14.9080 4.3323 -7.1111 14.6455
# 2 31.8085 85.5599 -17.7098 10.5043 20.5458 32.6944
# 3 14.9080 -17.7098 17.9048 2.6958 15.1565 2.4411
# 4 4.3323 10.5043 2.6958 21.3883 3.1049 0.1881
# 5 -7.1111 20.5458 15.1565 3.1049 25.6112 -7.7747
# 6 14.6455 32.6944 2.4411 0.1881 -7.7747 38.6731
#
#
#
# Elastic Compliance Matrix: (Units=1/GPa)
#
#
# Indices 1 2 3 4 5 6 
#
# 1 0.015892 0.010280 0.016399 -0.007473 -0.018532 -0.019433
# 2 0.010280 0.000491 -0.020084 -0.001902 0.014543 -0.000108
# 3 0.016399 -0.020084 -0.003580 0.002864 0.027444 0.016498
# 4 -0.007473 -0.001902 0.002864 0.049914 -0.007536 0.002500
# 5 -0.018532 0.014543 0.027444 -0.007536 0.005100 -0.005947
# 6 -0.019433 -0.000108 0.016498 0.002500 -0.005947 0.031059
#
#
# Mechanical properties :
#
#
# Convention : Reuss Voigt Hill
#
# Bulk Modulus (GPa) = 38.47121 22.23315 30.35218
# Shear Modulus (GPa) = 52.99451 24.67308 38.83379
#
# Velocity S-wave (km/s) = 4.91829 3.35591 4.21021
# Velocity P-wave (km/s) = 7.05785 5.01644 6.12282
#
# Compressibility (1/GPa) = 0.02599346
#
# Stress axis : x y z
#
# Youngs Moduli (GPa) = 62.92645 2035.89014 -279.34648
#
# Poissons Ratio (x) = -20.92906 4.58094
# Poissons Ratio (y) = -0.64689 -5.61027
# Poissons Ratio (z) = -1.03192 40.88794
#
# Static dielectric constant tensor:
#      x y z
#    x 1.845340 0.071690 0.004280 
#    y 0.071690 1.910600 0.072290 
#    z 0.004280 0.072290 1.834510 
# 
# From -- ./inp_files/208286.got.cif
#   From: 2010.05.17/outbox.cif.g08.bks.cpg/sg2_105_cif.got.tgz:208286.got - 2010.06.03 11:33:40.
