data_PCOD9105692
_publ_section_title
;
Structure prediction by ZEFSAII (Michael W. Deem and Ramdas Pophale) SiO2 
 PCOD9105692
Probable space group: P -1
;
_chemical_formula_sum "Si O2"
_cell_formula_units_Z 16
_cell_length_a 12.526146
_cell_length_b 9.113542
_cell_length_c 10.932444
_cell_angle_alpha 128.343249
_cell_angle_beta 120.690889
_cell_angle_gamma 54.476864
_cell_volume 774.361178
_symmetry_space_group_name_H-M "P -1"
_symmetry_group_IT_number 2
_symmetry_cell_setting 'triclinic'
loop_
_space_group_symop_operation_xyz
x,y,z
-x,-y,-z
loop_
_atom_site_type_symbol
_atom_site_label
_atom_site_fract_x
_atom_site_fract_y
_atom_site_fract_z
Si Si1 0.622151 0.339249 0.801437
Si Si2 0.728014 0.975326 0.069152
Si Si3 0.577428 0.836897 0.356102
Si Si4 0.561116 0.727056 0.833817
Si Si5 0.145773 0.832120 0.964434
Si Si6 0.879163 0.571669 0.368213
Si Si7 0.120971 0.070813 0.624911
Si Si8 0.597446 0.198554 0.439962
O O1 0.502237 0.307502 0.788150
O O2 0.609874 0.565194 0.887370
O O3 0.604100 0.268667 0.617603
O O4 0.760193 0.213969 0.884703
O O5 0.844025 0.895762 0.198345
O O6 0.585876 0.119345 0.123891
O O7 0.779738 0.085941 0.052946
O O8 0.680742 0.798790 0.908400
O O9 0.731986 0.700962 0.408521
O O10 0.500000 0.000000 0.500000
O O11 0.575279 0.984341 0.319973
O O12 0.517758 0.662571 0.646033
O O13 0.131217 0.626448 0.803103
O O14 0.000000 0.000000 0.000000
O O15 0.897636 0.731646 0.365624
O O16 0.000000 0.500000 0.500000
O O17 0.252052 0.874883 0.559258
O O18 0.000000 0.000000 0.500000
#
# Coordination Sequence:
#
# PCOD9105692 Si02
#       8
#     2   2   2   2   2   2   2   2
#     4  11  22  38  63  94 131 162 221 270 337 390
#     4  10  22  41  64  88 129 168 216 274 338 393
#     4   9  20  38  68  94 129 168 214 272 332 391
#     4  10  20  39  65  95 121 160 218 277 341 395
#     4  12  28  43  64  94 139 184 226 277 332 396
#     4  11  24  43  68  99 135 177 231 270 332 406
#     4  10  21  39  65  90 125 174 219 269 332 392
#     4   9  20  37  61  93 126 163 206 272 331 396
#
# _framework density 20.662194
#
# number of rings (size 3 to 8) (size 9 to 14) (size 15 to 20)
#    0.000    1.750    0.000    3.375    7.000    5.000 
#    2.250    1.250    0.000    0.000    0.000    0.000 
#    0.000    0.000    0.000    0.000    0.000    0.000 
#
# Total GULP energy -89207.863262 kJ/mol
# GULP energy per Si atom -5575.491454 kJ/mol
# Density = 2.061517 g / cm^3
# Si number density = 20.662194 Si / 1000 Ang^3
#
#
#
# Elastic Constant Matrix: (Units=GPa)
#
#
# Indices 1 2 3 4 5 6 
#
# 1 95.3627 44.9577 58.1955 -6.2735 31.8119 3.7916
# 2 44.9577 125.9909 62.3633 -31.7943 22.0682 4.8440
# 3 58.1955 62.3633 115.0358 -15.8080 27.5505 10.0844
# 4 -6.2735 -31.7943 -15.8080 43.6126 1.0643 2.3262
# 5 31.8119 22.0682 27.5505 1.0643 38.6479 3.0208
# 6 3.7916 4.8440 10.0844 2.3262 3.0208 28.3982
#
#
#
# Elastic Compliance Matrix: (Units=1/GPa)
#
#
# Indices 1 2 3 4 5 6 
#
# 1 0.018251 -0.002143 -0.006008 -0.000943 -0.009581 0.001158
# 2 -0.002143 0.013407 -0.004294 0.008026 -0.002988 -0.000815
# 3 -0.006008 -0.004294 0.015459 0.001891 -0.003382 -0.003750
# 4 -0.000943 0.008026 0.001891 0.029668 -0.005680 -0.003741
# 5 -0.009581 -0.002988 -0.003382 -0.005680 0.038081 -0.000596
# 6 0.001158 -0.000815 -0.003750 -0.003741 -0.000596 0.036899
#
#
# Mechanical properties :
#
#
# Convention : Reuss Voigt Hill
#
# Bulk Modulus (GPa) = 44.99053 74.15804 59.57428
# Shear Modulus (GPa) = 27.16448 33.52329 30.34388
#
# Velocity S-wave (km/s) = 3.62981 4.03233 3.83635
# Velocity P-wave (km/s) = 6.27606 7.59264 6.96553
#
# Compressibility (1/GPa) = 0.02222690
#
# Stress axis : x y z
#
# Youngs Moduli (GPa) = 54.79221 74.58537 64.68855
#
# Poissons Ratio (x) = 0.15984 0.38862
# Poissons Ratio (y) = 0.11742 0.27780
# Poissons Ratio (z) = 0.32917 0.32030
#
# Static dielectric constant tensor:
#      x y z
#    x 1.403340 0.069130 0.156180 
#    y 0.069130 1.783420 0.046660 
#    z 0.156180 0.046660 1.704740 
# 
# From -- ./inp_files/420129.got.cif
#   From: 2010.05.17/outbox.cif.g08.bks.cpg/sg2_211_cif.got.tgz:420129.got - 2010.06.03 11:33:40.
