data_PCOD9105419
_publ_section_title
;
Structure prediction by ZEFSAII (Michael W. Deem and Ramdas Pophale) SiO2 
 PCOD9105419
Probable space group: P -1
;
_chemical_formula_sum "Si O2"
_cell_formula_units_Z 16
_cell_length_a 5.187484
_cell_length_b 13.406804
_cell_length_c 11.730706
_cell_angle_alpha 116.807363
_cell_angle_beta 109.914498
_cell_angle_gamma 93.110744
_cell_volume 663.279573
_symmetry_space_group_name_H-M "P -1"
_symmetry_group_IT_number 2
_symmetry_cell_setting 'triclinic'
loop_
_space_group_symop_operation_xyz
x,y,z
-x,-y,-z
loop_
_atom_site_type_symbol
_atom_site_label
_atom_site_fract_x
_atom_site_fract_y
_atom_site_fract_z
Si Si1 0.283412 0.374601 0.691579
Si Si2 0.412905 0.288843 0.892089
Si Si3 0.465208 0.636670 0.800806
Si Si4 0.031979 0.229807 0.200271
Si Si5 0.713188 0.101807 0.889421
Si Si6 0.108650 0.927179 0.345478
Si Si7 0.646966 0.229172 0.544699
Si Si8 0.810862 0.093051 0.310203
O O1 0.438477 0.379077 0.840424
O O2 0.347859 0.499779 0.710043
O O3 0.414058 0.289617 0.589271
O O4 0.949785 0.324184 0.637762
O O5 0.666663 0.225973 0.908229
O O6 0.156430 0.183960 0.759230
O O7 0.379428 0.332519 0.036688
O O8 0.210021 0.699394 0.793889
O O9 0.681107 0.686608 0.758096
O O10 0.011357 0.166776 0.284758
O O11 0.936398 0.130585 0.038559
O O12 0.795471 0.050940 0.759532
O O13 0.418587 0.014047 0.835656
O O14 0.335246 0.878134 0.424780
O O15 0.982524 0.038503 0.403412
O O16 0.643926 0.174433 0.391280
#
# Coordination Sequence:
#
# PCOD9105419 Si02
#       8
#     2   2   2   2   2   2   2   2
#     4  11  23  42  67  93 126 166 212 264 317 363
#     4   9  19  38  61 100 127 156 199 267 324 380
#     4  11  23  42  67  93 126 166 212 264 317 363
#     4  11  25  43  63  97 128 163 215 258 306 381
#     4  10  20  39  64  94 128 159 204 259 320 377
#     4  10  20  39  64  94 128 159 204 259 320 377
#     4  11  25  43  63  97 128 163 215 258 306 381
#     4  11  26  40  64  90 130 178 204 253 312 374
#
# _framework density 24.12256
#
# number of rings (size 3 to 8) (size 9 to 14) (size 15 to 20)
#    0.000    1.500    2.500    1.875    3.500    1.000 
#    0.000    7.500    0.000    0.000    0.000    0.000 
#    0.000    0.000    0.000    0.000    0.000    0.000 
#
# Total GULP energy -89493.358919 kJ/mol
# GULP energy per Si atom -5593.334932 kJ/mol
# Density = 2.406766 g / cm^3
# Si number density = 24.122560 Si / 1000 Ang^3
#
#
#
# Elastic Constant Matrix: (Units=GPa)
#
#
# Indices 1 2 3 4 5 6 
#
# 1 96.1131 38.6273 -1.5232 0.4727 -8.9426 18.4307
# 2 38.6273 150.2177 26.4002 0.4955 3.4914 26.7542
# 3 -1.5232 26.4002 36.3552 -3.1250 0.2533 6.8850
# 4 0.4727 0.4955 -3.1250 27.4956 6.5176 -3.1315
# 5 -8.9426 3.4914 0.2533 6.5176 27.9408 -4.1861
# 6 18.4307 26.7542 6.8850 -3.1315 -4.1861 28.0035
#
#
#
# Elastic Compliance Matrix: (Units=1/GPa)
#
#
# Indices 1 2 3 4 5 6 
#
# 1 0.013280 -0.003046 0.003819 -0.001403 0.003975 -0.006332
# 2 -0.003046 0.009690 -0.006024 -0.000842 -0.002878 -0.006296
# 3 0.003819 -0.006024 0.033173 0.003242 0.000242 -0.004516
# 4 -0.001403 -0.000842 0.003242 0.039355 -0.008955 0.003993
# 5 0.003975 -0.002878 0.000242 -0.008955 0.040271 0.005093
# 6 -0.006332 -0.006296 -0.004516 0.003993 0.005093 0.048210
#
#
# Mechanical properties :
#
#
# Convention : Reuss Voigt Hill
#
# Bulk Modulus (GPa) = 21.91001 45.52161 33.71581
# Shear Modulus (GPa) = 23.84407 31.30010 27.57209
#
# Velocity S-wave (km/s) = 3.14738 3.60605 3.38450
# Velocity P-wave (km/s) = 4.72340 6.02080 5.41113
#
# Compressibility (1/GPa) = 0.04564124
#
# Stress axis : x y z
#
# Youngs Moduli (GPa) = 75.30068 103.19863 30.14481
#
# Poissons Ratio (x) = 0.31436 -0.11513
# Poissons Ratio (y) = 0.22938 0.18160
# Poissons Ratio (z) = -0.28760 0.62169
#
# Static dielectric constant tensor:
#      x y z
#    x 1.993250 -0.015360 0.029210 
#    y -0.015360 1.892240 -0.035860 
#    z 0.029210 -0.035860 1.966560 
# 
# From -- ./inp_files/70719.got.cif
#   From: 2010.05.17/outbox.cif.g08.bks.cpg/sg2_36_cif.got.tgz:70719.got - 2010.06.03 11:33:40.
