data_PCOD9105912
_publ_section_title
;
Structure prediction by ZEFSAII (Michael W. Deem and Ramdas Pophale) SiO2 
 PCOD9105912
Probable space group: P -1
;
_chemical_formula_sum "Si O2"
_cell_formula_units_Z 16
_cell_length_a 17.039306
_cell_length_b 10.972082
_cell_length_c 17.653374
_cell_angle_alpha 148.066512
_cell_angle_beta 148.360846
_cell_angle_gamma 31.057087
_cell_volume 801.631514
_symmetry_space_group_name_H-M "P -1"
_symmetry_group_IT_number 2
_symmetry_cell_setting 'triclinic'
loop_
_space_group_symop_operation_xyz
x,y,z
-x,-y,-z
loop_
_atom_site_type_symbol
_atom_site_label
_atom_site_fract_x
_atom_site_fract_y
_atom_site_fract_z
Si Si1 0.575443 0.564253 0.991032
Si Si2 0.940851 0.390041 0.204200
Si Si3 0.344094 0.931734 0.122049
Si Si4 0.375786 0.829344 0.818998
Si Si5 0.695246 0.656446 0.895135
Si Si6 0.361800 0.405840 0.355717
Si Si7 0.132128 0.697917 0.464263
Si Si8 0.949570 0.143784 0.920782
O O1 0.616731 0.264958 0.879429
O O2 0.513236 0.669859 0.912434
O O3 0.743813 0.576947 0.163807
O O4 0.420727 0.747480 0.015180
O O5 0.042261 0.539234 0.340970
O O6 0.913096 0.266286 0.039041
O O7 0.033608 0.146133 0.210057
O O8 0.429641 0.117107 0.295475
O O9 0.139556 0.094481 0.031797
O O10 0.493494 0.792199 0.822733
O O11 0.262035 0.699497 0.634289
O O12 0.264904 0.129044 0.917001
O O13 0.712364 0.625725 0.802780
O O14 0.808386 0.365279 0.868485
O O15 0.500000 0.500000 0.500000
O O16 0.226650 0.586067 0.402829
O O17 0.000000 0.000000 0.500000
#
# Coordination Sequence:
#
# PCOD9105912 Si02
#       8
#     2   2   2   2   2   2   2   2
#     4  10  21  42  71  93 125 172 216 267 309 391
#     4  10  21  40  66  92 128 164 214 263 324 374
#     4  10  22  40  67  95 124 169 217 256 326 378
#     4  11  23  40  66  98 127 169 222 259 326 378
#     4  11  23  40  67  93 128 172 218 267 311 391
#     4  12  25  42  60  94 133 169 212 263 325 381
#     4  12  27  42  63  98 133 172 209 272 331 378
#     4  10  20  39  66  94 120 166 219 266 307 381
#
# _framework density 19.959295000000001
#
# number of rings (size 3 to 8) (size 9 to 14) (size 15 to 20)
#    0.000    1.250    5.000    0.750    3.500    1.500 
#    2.250    1.250    0.000    3.000    0.000    0.000 
#    0.000    0.000    0.000    0.000    0.000    0.000 
#
# Total GULP energy -89226.969664 kJ/mol
# GULP energy per Si atom -5576.685604 kJ/mol
# Density = 1.991387 g / cm^3
# Si number density = 19.959295 Si / 1000 Ang^3
#
#
#
# Elastic Constant Matrix: (Units=GPa)
#
#
# Indices 1 2 3 4 5 6 
#
# 1 99.8805 47.7012 37.3527 14.8771 15.6125 7.1736
# 2 47.7012 111.6623 37.9039 11.0284 5.1039 9.5972
# 3 37.3527 37.9039 64.3494 18.6769 14.1757 15.0796
# 4 14.8771 11.0284 18.6769 18.8797 6.3392 3.1818
# 5 15.6125 5.1039 14.1757 6.3392 39.7756 10.0252
# 6 7.1736 9.5972 15.0796 3.1818 10.0252 30.9079
#
#
#
# Elastic Compliance Matrix: (Units=1/GPa)
#
#
# Indices 1 2 3 4 5 6 
#
# 1 0.014780 -0.004389 -0.004546 -0.003708 -0.003443 0.001649
# 2 -0.004389 0.012542 -0.005306 0.000842 0.002139 -0.001068
# 3 -0.004546 -0.005306 0.029948 -0.020540 -0.002686 -0.008923
# 4 -0.003708 0.000842 -0.020540 0.076547 -0.004599 0.004232
# 5 -0.003443 0.002139 -0.002686 -0.004599 0.029866 -0.007769
# 6 0.001649 -0.001068 -0.008923 0.004232 -0.007769 0.038741
#
#
# Mechanical properties :
#
#
# Convention : Reuss Voigt Hill
#
# Bulk Modulus (GPa) = 34.73478 57.97865 46.35671
# Shear Modulus (GPa) = 20.78981 28.10824 24.44902
#
# Velocity S-wave (km/s) = 3.23090 3.75677 3.50372
# Velocity P-wave (km/s) = 5.59990 6.92310 6.29636
#
# Compressibility (1/GPa) = 0.02878959
#
# Stress axis : x y z
#
# Youngs Moduli (GPa) = 67.65852 79.72999 33.39077
#
# Poissons Ratio (x) = 0.34993 0.15179
# Poissons Ratio (y) = 0.29695 0.17716
# Poissons Ratio (z) = 0.30757 0.42302
#
# Static dielectric constant tensor:
#      x y z
#    x 1.763900 -0.019430 0.029120 
#    y -0.019430 1.760460 0.023290 
#    z 0.029120 0.023290 1.714750 
# 
# From -- ./inp_files/576010.got.cif
#   From: 2010.05.17/outbox.cif.g08.bks.cpg/sg2_289_cif.got.tgz:576010.got - 2010.06.03 11:33:40.
