data_PCOD9105068
_publ_section_title
;
Structure prediction by ZEFSAII (Michael W. Deem and Ramdas Pophale) SiO2 
 PCOD9105068
Probable space group: P -1
;
_chemical_formula_sum "Si O2"
_cell_formula_units_Z 16
_cell_length_a 30.475528
_cell_length_b 6.452590
_cell_length_c 9.218307
_cell_angle_alpha 102.816423
_cell_angle_beta 152.444417
_cell_angle_gamma 70.611534
_cell_volume 780.045153
_symmetry_space_group_name_H-M "P -1"
_symmetry_group_IT_number 2
_symmetry_cell_setting 'triclinic'
loop_
_space_group_symop_operation_xyz
x,y,z
-x,-y,-z
loop_
_atom_site_type_symbol
_atom_site_label
_atom_site_fract_x
_atom_site_fract_y
_atom_site_fract_z
Si Si1 0.168990 0.646516 0.793360
Si Si2 0.629945 0.316314 0.260692
Si Si3 0.981381 0.039498 0.780477
Si Si4 0.095894 0.309186 0.687914
Si Si5 0.499918 0.227544 0.109027
Si Si6 0.845656 0.030407 0.947050
Si Si7 0.460995 0.804838 0.296248
Si Si8 0.376205 0.672236 0.284089
O O1 0.166798 0.412718 0.815529
O O2 0.099263 0.726689 0.462124
O O3 0.123582 0.810917 0.820614
O O4 0.273896 0.679527 0.061888
O O5 0.573976 0.328896 0.250578
O O6 0.741983 0.177379 0.599308
O O7 0.603231 0.570739 0.162595
O O8 0.578804 0.182564 0.981520
O O9 0.941226 0.851505 0.554840
O O10 0.078644 0.037715 0.973777
O O11 0.000000 0.000000 0.000000
O O12 0.000000 0.500000 0.500000
O O13 0.152956 0.175371 0.975010
O O14 0.556566 0.191804 0.421135
O O15 0.500000 0.000000 0.000000
O O16 0.370747 0.764490 0.119937
O O17 0.553412 0.581113 0.545634
O O18 0.500000 0.000000 0.500000
#
# Coordination Sequence:
#
# PCOD9105068 Si02
#       8
#     2   2   2   2   2   2   2   2
#     4  11  22  43  67  92 128 172 222 266 324 399
#     4  10  22  38  59  95 128 159 210 268 316 383
#     4  11  25  42  66  96 134 164 211 283 331 384
#     4  11  21  44  69  91 126 180 221 264 327 393
#     4  10  20  39  63  90 124 161 210 262 318 380
#     4  11  22  42  65  95 130 168 215 273 329 382
#     4  10  22  41  63  86 134 172 206 264 330 386
#     4  10  22  40  61  94 124 167 216 263 318 388
#
# _framework density 20.511631999999999
#
# number of rings (size 3 to 8) (size 9 to 14) (size 15 to 20)
#    0.000    1.500    3.750    1.500    1.750    3.500 
#    0.000    0.000    0.000    0.000    0.000    0.000 
#    0.000    0.000    0.000    0.000    0.000    0.000 
#
# Total GULP energy -89206.183860 kJ/mol
# GULP energy per Si atom -5575.386491 kJ/mol
# Density = 2.046495 g / cm^3
# Si number density = 20.511632 Si / 1000 Ang^3
#
#
#
# Elastic Constant Matrix: (Units=GPa)
#
#
# Indices 1 2 3 4 5 6 
#
# 1 126.7413 25.6153 49.4066 -7.0467 -11.7212 16.9617
# 2 25.6153 82.4088 38.3738 2.8744 1.4567 1.3715
# 3 49.4066 38.3738 114.4461 -21.6915 -9.9235 7.1692
# 4 -7.0467 2.8744 -21.6915 21.5234 -3.9264 -6.1123
# 5 -11.7212 1.4567 -9.9235 -3.9264 34.5354 2.7389
# 6 16.9617 1.3715 7.1692 -6.1123 2.7389 28.9072
#
#
#
# Elastic Compliance Matrix: (Units=1/GPa)
#
#
# Indices 1 2 3 4 5 6 
#
# 1 0.010605 -0.001503 -0.003673 -0.001128 0.002936 -0.005757
# 2 -0.001503 0.016482 -0.007345 -0.010914 -0.004560 0.000046
# 3 -0.003673 -0.007345 0.016597 0.018024 0.005750 0.001654
# 4 -0.001128 -0.010914 0.018024 0.070985 0.012491 0.010536
# 5 0.002936 -0.004560 0.005750 0.012491 0.033492 -0.003464
# 6 -0.005757 0.000046 0.001654 0.010536 -0.003464 0.040115
#
#
# Mechanical properties :
#
#
# Convention : Reuss Voigt Hill
#
# Bulk Modulus (GPa) = 53.63761 61.15416 57.39589
# Shear Modulus (GPa) = 22.77583 31.00655 26.89119
#
# Velocity S-wave (km/s) = 3.33586 3.89222 3.62473
# Velocity P-wave (km/s) = 6.40655 7.07660 6.74990
#
# Compressibility (1/GPa) = 0.01864364
#
# Stress axis : x y z
#
# Youngs Moduli (GPa) = 94.29701 60.67112 60.25115
#
# Poissons Ratio (x) = 0.09117 0.22130
# Poissons Ratio (y) = 0.14170 0.44252
# Poissons Ratio (z) = 0.34635 0.44561
#
# Static dielectric constant tensor:
#      x y z
#    x 1.871300 0.010790 0.058300 
#    y 0.010790 1.776060 -0.028090 
#    z 0.058300 -0.028090 1.772600 
# 
# From -- ./inp_files/358248.got.cif
#   From: 2010.05.17/outbox.cif.g08.bks.cpg/sg2_180_cif.got.tgz:358248.got - 2010.06.03 11:33:40.
