data_PCOD9105922
_publ_section_title
;
Structure prediction by ZEFSAII (Michael W. Deem and Ramdas Pophale) SiO2 
 PCOD9105922
Probable space group: P -1
;
_chemical_formula_sum "Si O2"
_cell_formula_units_Z 13
_cell_length_a 18.283183
_cell_length_b 8.061069
_cell_length_c 18.733751
_cell_angle_alpha 134.412491
_cell_angle_beta 164.313325
_cell_angle_gamma 44.728627
_cell_volume 523.537646
_symmetry_space_group_name_H-M "P -1"
_symmetry_group_IT_number 2
_symmetry_cell_setting 'triclinic'
loop_
_space_group_symop_operation_xyz
x,y,z
-x,-y,-z
loop_
_atom_site_type_symbol
_atom_site_label
_atom_site_fract_x
_atom_site_fract_y
_atom_site_fract_z
Si Si1 0.978156 0.531038 0.074885
Si Si2 0.838021 0.040238 0.251606
Si Si3 0.496805 0.302896 0.781205
Si Si4 0.641434 0.237763 0.282659
Si Si5 0.938597 0.993817 0.742832
Si Si6 0.545242 0.231240 0.570291
Si Si7 0.500000 0.500000 0.000000
O O1 0.256308 0.391947 0.328059
O O2 0.954793 0.811051 0.146534
O O3 0.000000 0.500000 0.000000
O O4 0.733428 0.404790 0.832070
O O5 0.775895 0.151034 0.306184
O O6 0.731680 0.255150 0.162941
O O7 0.153967 0.906249 0.510589
O O8 0.646457 0.845853 0.007803
O O9 0.403830 0.480370 0.681749
O O10 0.239982 0.173731 0.514642
O O11 0.540584 0.446251 0.936809
O O12 0.794024 0.134766 0.000538
O O13 0.708890 0.129557 0.622115
O O14 0.500000 0.000000 0.500000
#
# Coordination Sequence:
#
# PCOD9105922 Si02
#       7
#     2   2   2   2   2   2   1
#     4  10  20  39  66  94 129 169 204 247 322 394
#     4   9  18  34  56  79 106 147 207 250 305 362
#     4  11  23  39  62  89 126 167 218 262 312 368
#     4   9  18  34  55  79 110 153 193 251 311 364
#     4  11  22  40  64  94 128 170 209 257 317 385
#     4  11  22  40  68  99 129 163 207 257 315 386
#     4  10  24  40  62  90 120 168 220 270 306 358
#
# _framework density 24.831071000000001
#
# number of rings (size 3 to 8) (size 9 to 14) (size 15 to 20)
#    0.000    1.846    0.000    6.000    0.000    6.154 
#    0.000    6.154    0.000    1.846    0.000    0.000 
#    0.000    0.000    0.000    0.000    0.000    0.000 
#
# Total GULP energy -72493.983580 kJ/mol
# GULP energy per Si atom -5576.460275 kJ/mol
# Density = 2.477455 g / cm^3
# Si number density = 24.831071 Si / 1000 Ang^3
#
#
#
# Elastic Constant Matrix: (Units=GPa)
#
#
# Indices 1 2 3 4 5 6 
#
# 1 53.5008 187.6920 28.0704 147.7482 126.2643 -77.7880
# 2 187.6920-1901.4316 -330.8023-1875.8234-1490.7985 1113.8136
# 3 28.0704 -330.8023 68.6361 -412.7461 -282.0372 229.8031
# 4 147.7482-1875.8234 -412.7461-1665.1246-1323.7485 946.8368
# 5 126.2643-1490.7985 -282.0372-1323.7485-1062.8116 775.5513
# 6 -77.7880 1113.8136 229.8031 946.8368 775.5513 -528.8356
#
#
#
# Elastic Compliance Matrix: (Units=1/GPa)
#
#
# Indices 1 2 3 4 5 6 
#
# 1 0.016000 -0.000393 0.000887 -0.002868 -0.000024 -0.007966
# 2 -0.000393 0.006373 -0.001717 0.001877 -0.012494 -0.002228
# 3 0.000887 -0.001717 0.005050 -0.009153 0.007373 -0.007127
# 4 -0.002868 0.001877 -0.009153 -0.021161 0.022023 -0.005192
# 5 -0.000024 -0.012494 0.007373 0.022023 0.012738 0.035005
# 6 -0.007966 -0.002228 -0.007127 -0.005192 0.035005 0.033530
#
#
# Mechanical properties :
#
#
# Convention : Reuss Voigt Hill
#
# Bulk Modulus (GPa) = 40.03716 -223.26385 -91.61335
# Shear Modulus (GPa) = 78.98810 -762.30467 -341.65828
#
# Velocity S-wave (km/s) = 5.64617 -17.54032 -11.74273
# Velocity P-wave (km/s) = 7.65927 22.36795 14.86036
#
# Compressibility (1/GPa) = 0.02497680
#
# Stress axis : x y z
#
# Youngs Moduli (GPa) = 62.50122 156.91523 198.03158
#
# Poissons Ratio (x) = 0.06171 -0.17573
# Poissons Ratio (y) = 0.02458 0.33999
# Poissons Ratio (z) = -0.05546 0.26940
#
# Static dielectric constant tensor:
#      x y z
#    x 2.038970 -0.093230 -0.032860 
#    y -0.093230 2.023330 0.062440 
#    z -0.032860 0.062440 1.915520 
# 
# From -- ./inp_files/614010.got.cif
#   From: 2010.05.17/outbox.cif.g08.bks.cpg/sg2_308_cif.got.tgz:614010.got - 2010.06.03 11:33:40.
