data_PCOD9105728
_publ_section_title
;
Structure prediction by ZEFSAII (Michael W. Deem and Ramdas Pophale) SiO2 
 PCOD9105728
Probable space group: P -1
;
_chemical_formula_sum "Si O2"
_cell_formula_units_Z 14
_cell_length_a 5.137857
_cell_length_b 15.409332
_cell_length_c 12.942686
_cell_angle_alpha 143.998891
_cell_angle_beta 106.046914
_cell_angle_gamma 81.450653
_cell_volume 573.722037
_symmetry_space_group_name_H-M "P -1"
_symmetry_group_IT_number 2
_symmetry_cell_setting 'triclinic'
loop_
_space_group_symop_operation_xyz
x,y,z
-x,-y,-z
loop_
_atom_site_type_symbol
_atom_site_label
_atom_site_fract_x
_atom_site_fract_y
_atom_site_fract_z
Si Si1 0.873391 0.613348 0.665486
Si Si2 0.172929 0.349495 0.811694
Si Si3 0.749780 0.500487 0.821048
Si Si4 0.589864 0.322150 0.454867
Si Si5 0.655135 0.164911 0.687244
Si Si6 0.192679 0.958716 0.885140
Si Si7 0.995963 0.207089 0.967582
O O1 0.691011 0.492733 0.598879
O O2 0.690913 0.709058 0.669261
O O3 0.000000 0.500000 0.500000
O O4 0.081404 0.714110 0.858648
O O5 0.050254 0.442842 0.797588
O O6 0.922144 0.227704 0.709209
O O7 0.420249 0.263236 0.730675
O O8 0.273313 0.462080 0.024687
O O9 0.567377 0.360459 0.610892
O O10 0.779322 0.667330 0.937724
O O11 0.786677 0.205954 0.322899
O O12 0.761027 0.178340 0.830157
O O13 0.500000 0.000000 0.500000
O O14 0.118169 0.062390 0.881817
O O15 0.500000 0.000000 0.000000
O O16 0.000000 0.000000 0.000000
#
# Coordination Sequence:
#
# PCOD9105728 Si02
#       7
#     2   2   2   2   2   2   2
#     4  10  20  39  65  96 129 173 228 284 332 405
#     4  10  23  46  70 101 136 178 229 287 339 407
#     4   9  22  43  71 101 132 181 230 287 339 404
#     4  10  22  39  65  96 133 176 229 276 342 407
#     4  11  25  45  70 102 141 179 226 282 349 410
#     4  12  26  46  65  98 142 184 226 280 342 412
#     4  10  23  43  68  98 136 181 228 281 345 401
#
# _framework density 24.402062000000001
#
# number of rings (size 3 to 8) (size 9 to 14) (size 15 to 20)
#    0.000    1.714    1.429    1.286    4.000    7.429 
#    5.143    0.000    0.000    0.000    0.000    0.000 
#    0.000    0.000    0.000    0.000    0.000    0.000 
#
# Total GULP energy -78035.162044 kJ/mol
# GULP energy per Si atom -5573.940146 kJ/mol
# Density = 2.434652 g / cm^3
# Si number density = 24.402062 Si / 1000 Ang^3
#
#
#
# Elastic Constant Matrix: (Units=GPa)
#
#
# Indices 1 2 3 4 5 6 
#
# 1 108.3643 35.6566 35.9820 10.4673 0.5262 -8.1479
# 2 35.6566 144.2966 39.5097 22.8845 0.0801 -9.6095
# 3 35.9820 39.5097 158.4834 10.1356 14.8826 6.5753
# 4 10.4673 22.8845 10.1356 44.3030 -3.1486 -5.1831
# 5 0.5262 0.0801 14.8826 -3.1486 33.5576 5.7891
# 6 -8.1479 -9.6095 6.5753 -5.1831 5.7891 21.2489
#
#
#
# Elastic Compliance Matrix: (Units=1/GPa)
#
#
# Indices 1 2 3 4 5 6 
#
# 1 0.010872 -0.001723 -0.002158 -0.000729 0.000056 0.003865
# 2 -0.001723 0.008519 -0.001636 -0.003283 -0.000079 0.002919
# 3 -0.002158 -0.001636 0.007683 -0.001006 -0.002877 -0.003407
# 4 -0.000729 -0.003283 -0.001006 0.025306 0.002125 0.004140
# 5 0.000056 -0.000079 -0.002877 0.002125 0.032564 -0.007478
# 6 0.003865 0.002919 -0.003407 0.004140 -0.007478 0.053965
#
#
# Mechanical properties :
#
#
# Convention : Reuss Voigt Hill
#
# Bulk Modulus (GPa) = 62.34116 70.38231 66.36173
# Shear Modulus (GPa) = 32.19787 39.82165 36.00976
#
# Velocity S-wave (km/s) = 3.63640 4.04406 3.84563
# Velocity P-wave (km/s) = 6.57527 7.12118 6.85366
#
# Compressibility (1/GPa) = 0.01604077
#
# Stress axis : x y z
#
# Youngs Moduli (GPa) = 91.97721 117.38382 130.14988
#
# Poissons Ratio (x) = 0.20223 0.28085
# Poissons Ratio (y) = 0.15846 0.21297
# Poissons Ratio (z) = 0.19847 0.19208
#
# Static dielectric constant tensor:
#      x y z
#    x 2.154050 0.218710 -0.149230 
#    y 0.218710 2.306490 -0.181310 
#    z -0.149230 -0.181310 2.297890 
# 
# From -- ./inp_files/485078.got.cif
#   From: 2010.05.17/outbox.cif.g08.bks.cpg/sg2_243_cif.got.tgz:485078.got - 2010.06.03 11:33:40.
