data_PCOD9105339
_publ_section_title
;
Structure prediction by ZEFSAII (Michael W. Deem and Ramdas Pophale) SiO2 
 PCOD9105339
Probable space group: P -1
;
_chemical_formula_sum "Si O2"
_cell_formula_units_Z 16
_cell_length_a 8.871435
_cell_length_b 5.702473
_cell_length_c 19.043719
_cell_angle_alpha 75.839315
_cell_angle_beta 81.347430
_cell_angle_gamma 44.899562
_cell_volume 659.003501
_symmetry_space_group_name_H-M "P -1"
_symmetry_group_IT_number 2
_symmetry_cell_setting 'triclinic'
loop_
_space_group_symop_operation_xyz
x,y,z
-x,-y,-z
loop_
_atom_site_type_symbol
_atom_site_label
_atom_site_fract_x
_atom_site_fract_y
_atom_site_fract_z
Si Si1 0.702658 0.513845 0.323494
Si Si2 0.663501 0.444434 0.708477
Si Si3 0.306344 0.272329 0.546024
Si Si4 0.659662 0.648729 0.838580
Si Si5 0.058161 0.078150 0.060557
Si Si6 0.993926 0.307009 0.193266
Si Si7 0.591966 0.116959 0.028955
Si Si8 0.963715 0.219696 0.583015
O O1 0.527621 0.512952 0.309601
O O2 0.616506 0.757119 0.378629
O O3 0.806300 0.533603 0.247604
O O4 0.902999 0.157483 0.372989
O O5 0.592908 0.690667 0.759917
O O6 0.785630 0.454351 0.638692
O O7 0.846275 0.069420 0.756819
O O8 0.173013 0.632959 0.489659
O O9 0.138174 0.238941 0.565193
O O10 0.500000 0.000000 0.500000
O O11 0.847150 0.640961 0.831616
O O12 0.458628 0.895694 0.886468
O O13 0.772053 0.280331 0.885001
O O14 0.915605 0.312024 0.120259
O O15 0.181199 0.146465 0.005596
O O16 0.000000 0.000000 0.000000
O O17 0.500000 0.500000 0.000000
O O18 0.500000 0.000000 0.000000
#
# Coordination Sequence:
#
# PCOD9105339 Si02
#       8
#     2   2   2   2   2   2   2   2
#     4  11  24  42  66  96 128 172 223 268 334 400
#     4  10  23  40  63  92 128 172 216 272 329 401
#     4  11  24  41  68 100 129 169 219 267 334 401
#     4  10  21  41  60  85 129 171 217 273 338 403
#     4  10  22  39  60  93 125 169 222 282 341 405
#     4  10  22  42  61  89 130 169 220 272 337 396
#     4  10  20  39  64  90 129 173 224 281 348 412
#     4  10  23  43  66  93 135 169 213 272 330 393
#
# _framework density 24.279083
#
# number of rings (size 3 to 8) (size 9 to 14) (size 15 to 20)
#    0.000    1.750    1.250    1.875    1.750    8.500 
#    2.250    0.000    0.000    0.000    0.000    0.000 
#    0.000    0.000    0.000    0.000    0.000    0.000 
#
# Total GULP energy -89207.917538 kJ/mol
# GULP energy per Si atom -5575.494846 kJ/mol
# Density = 2.422382 g / cm^3
# Si number density = 24.279083 Si / 1000 Ang^3
#
#
#
# Elastic Constant Matrix: (Units=GPa)
#
#
# Indices 1 2 3 4 5 6 
#
# 1 116.6680 7.1935 76.1523 36.4513 -5.4974 -6.7381
# 2 7.1935 108.6355 64.7415 19.4173 -5.7984 -17.2743
# 3 76.1523 64.7415 252.0110 55.9303 -0.9611 -16.8563
# 4 36.4513 19.4173 55.9303 55.0788 -4.1598 4.2580
# 5 -5.4974 -5.7984 -0.9611 -4.1598 57.4534 7.0967
# 6 -6.7381 -17.2743 -16.8563 4.2580 7.0967 18.2126
#
#
#
# Elastic Compliance Matrix: (Units=1/GPa)
#
#
# Indices 1 2 3 4 5 6 
#
# 1 0.012801 0.003143 -0.002519 -0.007567 0.000072 0.007127
# 2 0.003143 0.013436 -0.002284 -0.005555 -0.000421 0.013256
# 3 -0.002519 -0.002284 0.006687 -0.004779 -0.001287 0.004710
# 4 -0.007567 -0.005555 -0.004779 0.031896 0.003581 -0.021344
# 5 0.000072 -0.000421 -0.001287 0.003581 0.018810 -0.009731
# 6 0.007127 0.013256 0.004710 -0.021344 -0.009731 0.083257
#
#
# Mechanical properties :
#
#
# Convention : Reuss Voigt Hill
#
# Bulk Modulus (GPa) = 33.77832 85.94325 59.86078
# Shear Modulus (GPa) = 27.76630 48.09744 37.93187
#
# Velocity S-wave (km/s) = 3.38543 4.45570 3.95692
# Velocity P-wave (km/s) = 5.40594 7.87057 6.75167
#
# Compressibility (1/GPa) = 0.02960479
#
# Stress axis : x y z
#
# Youngs Moduli (GPa) = 78.11712 74.42602 149.54708
#
# Poissons Ratio (x) = -0.23396 0.37676
# Poissons Ratio (y) = -0.24556 0.34154
# Poissons Ratio (z) = 0.19681 0.16998
#
# Static dielectric constant tensor:
#      x y z
#    x 2.113410 0.056160 0.064410 
#    y 0.056160 2.044070 -0.002990 
#    z 0.064410 -0.002990 1.953240 
# 
# From -- ./inp_files/553431.got.cif
#   From: 2010.05.17/outbox.cif.g08.bks.cpg/sg2_277_cif.got.tgz:553431.got - 2010.06.03 11:33:40.
