data_PCOD9105834
_publ_section_title
;
Structure prediction by ZEFSAII (Michael W. Deem and Ramdas Pophale) SiO2 
 PCOD9105834
Probable space group: P -1
;
_chemical_formula_sum "Si O2"
_cell_formula_units_Z 16
_cell_length_a 8.300353
_cell_length_b 14.660498
_cell_length_c 9.723982
_cell_angle_alpha 104.943796
_cell_angle_beta 96.141321
_cell_angle_gamma 132.958422
_cell_volume 766.910934
_symmetry_space_group_name_H-M "P -1"
_symmetry_group_IT_number 2
_symmetry_cell_setting 'triclinic'
loop_
_space_group_symop_operation_xyz
x,y,z
-x,-y,-z
loop_
_atom_site_type_symbol
_atom_site_label
_atom_site_fract_x
_atom_site_fract_y
_atom_site_fract_z
Si Si1 0.505335 0.353891 0.802778
Si Si2 0.419309 0.643883 0.898986
Si Si3 0.432016 0.903960 0.661310
Si Si4 0.516891 0.523001 0.671820
Si Si5 0.752263 0.950521 0.939211
Si Si6 0.089206 0.793130 0.823859
Si Si7 0.065730 0.636827 0.987184
Si Si8 0.406763 0.821729 0.321970
O O1 0.417162 0.388003 0.691861
O O2 0.471172 0.228148 0.717355
O O3 0.786075 0.504136 0.885070
O O4 0.434147 0.337702 0.950135
O O5 0.379203 0.550126 0.741814
O O6 0.560906 0.791258 0.904800
O O7 0.191688 0.595669 0.929531
O O8 0.654589 0.954238 0.788398
O O9 0.197149 0.797600 0.695577
O O10 0.395024 0.832599 0.487721
O O11 0.475396 0.032576 0.673845
O O12 0.500000 0.500000 0.500000
O O13 0.801446 0.672538 0.767142
O O14 0.786144 0.053071 0.083435
O O15 0.000000 0.000000 0.000000
O O16 0.165176 0.760261 0.944346
O O17 0.154749 0.702877 0.172143
#
# Coordination Sequence:
#
# PCOD9105834 Si02
#       8
#     2   2   2   2   2   2   2   2
#     4  10  23  40  66  89 123 168 218 251 303 385
#     4  11  21  40  63  89 120 167 207 255 312 359
#     4  11  23  39  66  95 128 159 208 268 310 369
#     4  11  26  41  59  92 133 167 203 259 319 373
#     4  12  23  39  66  92 127 165 209 258 305 382
#     4  11  21  40  63  92 120 167 215 249 305 375
#     4  10  20  39  66  90 118 164 216 255 299 375
#     4  10  21  38  63  96 124 157 205 268 315 350
#
# _framework density 20.862916999999999
#
# number of rings (size 3 to 8) (size 9 to 14) (size 15 to 20)
#    0.000    1.250    3.750    3.750    1.750    2.000 
#    0.000    5.000    0.000    7.500    0.000    0.000 
#    0.000    0.000    0.000    0.000    0.000    0.000 
#
# Total GULP energy -89170.733043 kJ/mol
# GULP energy per Si atom -5573.170815 kJ/mol
# Density = 2.081543 g / cm^3
# Si number density = 20.862917 Si / 1000 Ang^3
#
#
#
# Elastic Constant Matrix: (Units=GPa)
#
#
# Indices 1 2 3 4 5 6 
#
# 1 47.3419 11.6374 29.4543 0.8188 -7.3706 -9.9945
# 2 11.6374 90.2298 27.5911 -7.3620 -6.0281 -35.2898
# 3 29.4543 27.5911 142.1257 -15.2791 -23.9503 -11.4258
# 4 0.8188 -7.3620 -15.2791 31.5908 -5.3296 2.1235
# 5 -7.3706 -6.0281 -23.9503 -5.3296 23.4004 2.1660
# 6 -9.9945 -35.2898 -11.4258 2.1235 2.1660 32.5793
#
#
#
# Elastic Compliance Matrix: (Units=1/GPa)
#
#
# Indices 1 2 3 4 5 6 
#
# 1 0.025864 0.000889 -0.004945 -0.003010 0.001960 0.007229
# 2 0.000889 0.020157 -0.001676 0.002853 0.002447 0.021170
# 3 -0.004945 -0.001676 0.010886 0.006867 0.010780 -0.000679
# 4 -0.003010 0.002853 0.006867 0.038251 0.015430 0.001057
# 5 0.001960 0.002447 0.010780 0.015430 0.058330 0.002149
# 6 0.007229 0.021170 -0.000679 0.001057 0.002149 0.055394
#
#
# Mechanical properties :
#
#
# Convention : Reuss Voigt Hill
#
# Bulk Modulus (GPa) = 22.00545 46.34032 34.17288
# Shear Modulus (GPa) = 21.23188 31.58174 26.40681
#
# Velocity S-wave (km/s) = 3.19358 3.89495 3.56157
# Velocity P-wave (km/s) = 4.91621 6.51824 5.77307
#
# Compressibility (1/GPa) = 0.04544329
#
# Stress axis : x y z
#
# Youngs Moduli (GPa) = 38.66338 49.61087 91.85740
#
# Poissons Ratio (x) = -0.04410 0.45422
# Poissons Ratio (y) = -0.03437 0.15398
# Poissons Ratio (z) = 0.19119 0.08316
#
# Static dielectric constant tensor:
#      x y z
#    x 1.834200 -0.032970 0.048450 
#    y -0.032970 1.781240 -0.029690 
#    z 0.048450 -0.029690 1.746330 
# 
# From -- ./inp_files/203168.got.cif
#   From: 2010.05.17/outbox.cif.g08.bks.cpg/sg2_102_cif.got.tgz:203168.got - 2010.06.03 11:33:40.
