data_PCOD9105821
_publ_section_title
;
Structure prediction by ZEFSAII (Michael W. Deem and Ramdas Pophale) SiO2 
 PCOD9105821
Probable space group: P -1
;
_chemical_formula_sum "Si O2"
_cell_formula_units_Z 16
_cell_length_a 14.387024
_cell_length_b 5.782800
_cell_length_c 9.509374
_cell_angle_alpha 95.573771
_cell_angle_beta 83.595056
_cell_angle_gamma 108.220496
_cell_volume 745.169716
_symmetry_space_group_name_H-M "P -1"
_symmetry_group_IT_number 2
_symmetry_cell_setting 'triclinic'
loop_
_space_group_symop_operation_xyz
x,y,z
-x,-y,-z
loop_
_atom_site_type_symbol
_atom_site_label
_atom_site_fract_x
_atom_site_fract_y
_atom_site_fract_z
Si Si1 0.600476 0.454507 0.096535
Si Si2 0.100246 0.595843 0.573602
Si Si3 0.551197 0.286425 0.794998
Si Si4 0.240359 0.079226 0.588972
Si Si5 0.300457 0.498712 0.432627
Si Si6 0.396110 0.837369 0.669779
Si Si7 0.895108 0.398318 0.087403
Si Si8 0.205248 0.193321 0.907034
O O1 0.516513 0.534004 0.198085
O O2 0.644545 0.308025 0.190641
O O3 0.682900 0.701993 0.049817
O O4 0.559594 0.283837 0.961151
O O5 0.193470 0.518376 0.494103
O O6 0.093034 0.562389 0.742077
O O7 0.000000 0.500000 0.500000
O O8 0.138980 0.883975 0.557597
O O9 0.658047 0.401841 0.717759
O O10 0.496591 0.034795 0.710707
O O11 0.287110 0.220387 0.450927
O O12 0.216115 0.212859 0.736655
O O13 0.320429 0.968694 0.634084
O O14 0.386146 0.642669 0.536298
O O15 0.842004 0.588778 0.041657
O O16 0.846633 0.096396 0.063237
O O17 0.000000 0.500000 0.000000
#
# Coordination Sequence:
#
# PCOD9105821 Si02
#       8
#     2   2   2   2   2   2   2   2
#     4  11  23  40  60  93 131 173 212 269 333 388
#     4  10  23  42  63  92 125 163 213 272 338 390
#     4  11  25  38  59  96 132 165 218 271 333 391
#     4  10  20  39  66  89 123 167 216 261 326 391
#     4  11  22  41  63  93 124 169 217 267 330 398
#     4  11  20  40  64  88 126 174 222 265 317 394
#     4  11  24  43  69  98 127 171 228 276 332 401
#     4  11  20  43  68  94 131 175 222 269 329 402
#
# _framework density 21.471620000000001
#
# number of rings (size 3 to 8) (size 9 to 14) (size 15 to 20)
#    0.000    1.250    3.750    2.625    0.000    5.500 
#    2.250    0.000    0.000    0.000    0.000    0.000 
#    0.000    0.000    0.000    0.000    0.000    0.000 
#
# Total GULP energy -89083.663240 kJ/mol
# GULP energy per Si atom -5567.728952 kJ/mol
# Density = 2.142275 g / cm^3
# Si number density = 21.471620 Si / 1000 Ang^3
#
#
#
# Elastic Constant Matrix: (Units=GPa)
#
#
# Indices 1 2 3 4 5 6 
#
# 1 76.0183 43.3404 19.2453 -2.6365 -11.1085 15.2781
# 2 43.3404 101.9255 22.4668 -14.3340 6.9540 26.0212
# 3 19.2453 22.4668 38.0774 -1.3808 -2.5248 14.1724
# 4 -2.6365 -14.3340 -1.3808 21.1524 14.8338 4.2171
# 5 -11.1085 6.9540 -2.5248 14.8338 31.7583 -0.8631
# 6 15.2781 26.0212 14.1724 4.2171 -0.8631 33.2000
#
#
#
# Elastic Compliance Matrix: (Units=1/GPa)
#
#
# Indices 1 2 3 4 5 6 
#
# 1 0.026036 -0.018502 -0.004983 -0.030617 0.027314 0.009246
# 2 -0.018502 0.035766 -0.002549 0.056147 -0.041455 -0.026639
# 3 -0.004983 -0.002549 0.034304 0.001656 0.000482 -0.010551
# 4 -0.030617 0.056147 0.001656 0.162735 -0.100348 -0.053904
# 5 0.027314 -0.041455 0.000482 -0.100348 0.097980 0.035010
# 6 0.009246 -0.026639 -0.010551 -0.053904 0.035010 0.059005
#
#
# Mechanical properties :
#
#
# Convention : Reuss Voigt Hill
#
# Bulk Modulus (GPa) = 22.70817 42.90290 32.80553
# Shear Modulus (GPa) = 10.36113 25.95340 18.15726
#
# Velocity S-wave (km/s) = 2.19908 3.48045 2.91114
# Velocity P-wave (km/s) = 4.12878 6.01465 5.15862
#
# Compressibility (1/GPa) = 0.04403701
#
# Stress axis : x y z
#
# Youngs Moduli (GPa) = 38.40798 27.95979 29.15133
#
# Poissons Ratio (x) = 0.51732 0.14526
# Poissons Ratio (y) = 0.71064 0.07430
# Poissons Ratio (z) = 0.19139 0.07127
#
# Static dielectric constant tensor:
#      x y z
#    x 1.832790 -0.034110 -0.015380 
#    y -0.034110 1.928830 0.032400 
#    z -0.015380 0.032400 1.780700 
# 
# From -- ./inp_files/288855.got.cif
#   From: 2010.05.17/outbox.cif.g08.bks.cpg/sg2_145_cif.got.tgz:288855.got - 2010.06.03 11:33:40.
