data_PCOD9105589
_publ_section_title
;
Structure prediction by ZEFSAII (Michael W. Deem and Ramdas Pophale) SiO2 
 PCOD9105589
Probable space group: P -1
;
_chemical_formula_sum "Si O2"
_cell_formula_units_Z 12
_cell_length_a 8.596287
_cell_length_b 8.985745
_cell_length_c 12.724292
_cell_angle_alpha 75.403308
_cell_angle_beta 132.293343
_cell_angle_gamma 69.124641
_cell_volume 477.301182
_symmetry_space_group_name_H-M "P -1"
_symmetry_group_IT_number 2
_symmetry_cell_setting 'triclinic'
loop_
_space_group_symop_operation_xyz
x,y,z
-x,-y,-z
loop_
_atom_site_type_symbol
_atom_site_label
_atom_site_fract_x
_atom_site_fract_y
_atom_site_fract_z
Si Si1 0.294101 0.878532 0.951914
Si Si2 0.151667 0.887450 0.475368
Si Si3 0.294989 0.456841 0.624472
Si Si4 0.282624 0.179639 0.010075
Si Si5 0.494720 0.907348 0.348734
Si Si6 0.798924 0.696850 0.740893
O O1 0.557670 0.822805 0.013823
O O2 0.481137 0.665792 0.150946
O O3 0.070670 0.936945 0.750346
O O4 0.142338 0.095643 0.916141
O O5 0.192257 0.683305 0.514997
O O6 0.483949 0.787160 0.624967
O O7 0.000000 0.000000 0.500000
O O8 0.000000 0.500000 0.500000
O O9 0.492306 0.273418 0.652997
O O10 0.527376 0.988241 0.242223
O O11 0.188370 0.152590 0.213415
O O12 0.740593 0.776035 0.578707
O O13 0.059534 0.428154 0.912690
#
# Coordination Sequence:
#
# PCOD9105589 Si02
#       6
#     2   2   2   2   2   2
#     4  10  22  39  64  94 125 163 207 253 307 368
#     4  12  26  42  62  94 129 160 205 263 313 362
#     4  11  22  41  66  90 123 167 209 251 307 371
#     4  10  20  39  65  91 121 163 210 251 300 367
#     4  10  22  39  62  90 121 163 209 250 303 369
#     4  11  23  39  63  92 125 162 204 255 309 363
#
# _framework density 25.141358
#
# number of rings (size 3 to 8) (size 9 to 14) (size 15 to 20)
#    0.000    1.333    0.000    7.500    0.000    6.000 
#    0.000    3.333    0.000    0.000    0.000    0.000 
#    0.000    0.000    0.000    0.000    0.000    0.000 
#
# Total GULP energy -67094.750705 kJ/mol
# GULP energy per Si atom -5591.229225 kJ/mol
# Density = 2.508414 g / cm^3
# Si number density = 25.141358 Si / 1000 Ang^3
#
#
#
# Elastic Constant Matrix: (Units=GPa)
#
#
# Indices 1 2 3 4 5 6 
#
# 1 59.3594 28.9740 31.8958 3.3381 4.3022 2.8889
# 2 28.9740 97.2151 41.8484 -9.0535 3.8497 -34.1294
# 3 31.8958 41.8484 124.3744 -6.6057 -20.3913 -7.1191
# 4 3.3381 -9.0535 -6.6057 45.4448 -4.0027 -0.8850
# 5 4.3022 3.8497 -20.3913 -4.0027 48.8354 3.6604
# 6 2.8889 -34.1294 -7.1191 -0.8850 3.6604 32.8456
#
#
#
# Elastic Compliance Matrix: (Units=1/GPa)
#
#
# Indices 1 2 3 4 5 6 
#
# 1 0.026085 -0.011650 -0.004334 -0.005383 -0.002491 -0.015206
# 2 -0.011650 0.026350 -0.004746 0.005549 -0.004680 0.028047
# 3 -0.004334 -0.004746 0.011654 0.001539 0.005946 -0.002645
# 4 -0.005383 0.005549 0.001539 0.024053 0.002127 0.006984
# 5 -0.002491 -0.004680 0.005946 0.002127 0.024172 -0.005991
# 6 -0.015206 0.028047 -0.002645 0.006984 -0.005991 0.061209
#
#
# Mechanical properties :
#
#
# Convention : Reuss Voigt Hill
#
# Bulk Modulus (GPa) = 44.18983 54.04283 49.11633
# Shear Modulus (GPa) = 22.46937 37.30719 29.88828
#
# Velocity S-wave (km/s) = 2.99276 3.85632 3.45165
# Velocity P-wave (km/s) = 5.43662 6.43199 5.95514
#
# Compressibility (1/GPa) = 0.02262964
#
# Stress axis : x y z
#
# Youngs Moduli (GPa) = 38.33591 37.95055 85.80871
#
# Poissons Ratio (x) = 0.44211 0.37193
# Poissons Ratio (y) = 0.44660 0.40722
# Poissons Ratio (z) = 0.16616 0.18010
#
# Static dielectric constant tensor:
#      x y z
#    x 2.033410 -0.003020 0.033270 
#    y -0.003020 2.047280 0.043560 
#    z 0.033270 0.043560 1.942640 
# 
# From -- ./inp_files/513147.got.cif
#   From: 2010.05.17/outbox.cif.g08.bks.cpg/sg2_257_cif.got.tgz:513147.got - 2010.06.03 11:33:40.
