data_PCOD9105928
_publ_section_title
;
Structure prediction by ZEFSAII (Michael W. Deem and Ramdas Pophale) SiO2 
 PCOD9105928
Probable space group: P -1
;
_chemical_formula_sum "Si O2"
_cell_formula_units_Z 15
_cell_length_a 8.842666
_cell_length_b 8.814832
_cell_length_c 14.479697
_cell_angle_alpha 70.349535
_cell_angle_beta 40.755098
_cell_angle_gamma 63.396787
_cell_volume 658.794083
_symmetry_space_group_name_H-M "P -1"
_symmetry_group_IT_number 2
_symmetry_cell_setting 'triclinic'
loop_
_space_group_symop_operation_xyz
x,y,z
-x,-y,-z
loop_
_atom_site_type_symbol
_atom_site_label
_atom_site_fract_x
_atom_site_fract_y
_atom_site_fract_z
Si Si1 0.574344 0.097648 0.363689
Si Si2 0.807858 0.775570 0.212881
Si Si3 0.031305 0.739390 0.788867
Si Si4 0.689983 0.609060 0.696223
Si Si5 0.377920 0.704056 0.992661
Si Si6 0.591440 0.565982 0.250804
Si Si7 0.813732 0.485209 0.413817
Si Si8 0.500000 0.000000 0.000000
O O1 0.785593 0.158888 0.294939
O O2 0.361720 0.258580 0.391268
O O3 0.500000 0.000000 0.500000
O O4 0.685069 0.967723 0.257723
O O5 0.659299 0.735594 0.202455
O O6 0.765740 0.655411 0.340570
O O7 0.099240 0.732042 0.082939
O O8 0.143326 0.574785 0.835205
O O9 0.075912 0.665996 0.679766
O O10 0.763736 0.857622 0.907268
O O11 0.557592 0.468827 0.759802
O O12 0.967688 0.530452 0.612750
O O13 0.542514 0.717982 0.826837
O O14 0.500000 0.500000 0.000000
O O15 0.385898 0.848153 0.033719
O O16 0.419087 0.538442 0.420871
#
# Coordination Sequence:
#
# PCOD9105928 Si02
#       8
#     2   2   2   2   2   2   2   1
#     4  11  23  42  64  98 139 175 222 286 353 423
#     4  11  21  40  67  95 129 186 228 277 355 419
#     4  10  20  39  66  94 130 185 221 278 363 403
#     4  11  24  42  66 100 138 181 232 289 351 412
#     4  12  24  46  71 100 141 183 241 288 349 427
#     4  10  22  40  64  99 136 179 229 290 348 417
#     4  11  20  42  71  97 135 180 236 291 347 418
#     4  12  22  44  70 102 144 182 232 300 344 412
#
# _framework density 22.768875000000001
#
# number of rings (size 3 to 8) (size 9 to 14) (size 15 to 20)
#    0.000    1.067    4.000    5.200    0.000    1.067 
#    2.400    4.000    0.000    0.000    0.000    0.000 
#    0.000    0.000    0.000    0.000    0.000    0.000 
#
# Total GULP energy -83542.603485 kJ/mol
# GULP energy per Si atom -5569.506899 kJ/mol
# Density = 2.271705 g / cm^3
# Si number density = 22.768875 Si / 1000 Ang^3
#
#
#
# Elastic Constant Matrix: (Units=GPa)
#
#
# Indices 1 2 3 4 5 6 
#
# 1 128.1851 73.5521 22.3169 32.1072 -19.7356 15.3290
# 2 73.5521 106.0372 34.9612 22.7330 -15.9761 26.7612
# 3 22.3169 34.9612 68.7694 23.0664 -10.4135 -16.2352
# 4 32.1072 22.7330 23.0664 28.3968 -17.4221 3.2991
# 5 -19.7356 -15.9761 -10.4135 -17.4221 28.0089 6.7905
# 6 15.3290 26.7612 -16.2352 3.2991 6.7905 45.4272
#
#
#
# Elastic Compliance Matrix: (Units=1/GPa)
#
#
# Indices 1 2 3 4 5 6 
#
# 1 0.017412 -0.013864 0.009738 -0.022450 -0.008070 0.008609
# 2 -0.013864 0.031492 -0.023591 0.026850 0.022832 -0.027668
# 3 0.009738 -0.023591 0.043656 -0.049722 -0.029595 0.034249
# 4 -0.022450 0.026850 -0.049722 0.129546 0.072817 -0.046305
# 5 -0.008070 0.022832 -0.029595 0.072817 0.086927 -0.039586
# 6 0.008609 -0.027668 0.034249 -0.046305 -0.039586 0.056928
#
#
# Mechanical properties :
#
#
# Convention : Reuss Voigt Hill
#
# Bulk Modulus (GPa) = 26.93550 62.73911 44.83731
# Shear Modulus (GPa) = 11.52682 31.84402 21.68542
#
# Velocity S-wave (km/s) = 2.25245 3.74381 3.08947
# Velocity P-wave (km/s) = 4.31513 6.80461 5.69750
#
# Compressibility (1/GPa) = 0.03712573
#
# Stress axis : x y z
#
# Youngs Moduli (GPa) = 57.43108 31.75419 22.90632
#
# Poissons Ratio (x) = 0.44024 -0.22306
# Poissons Ratio (y) = 0.79623 0.54039
# Poissons Ratio (z) = -0.55927 0.74912
#
# Static dielectric constant tensor:
#      x y z
#    x 1.906190 0.019670 0.087760 
#    y 0.019670 1.584650 0.032330 
#    z 0.087760 0.032330 1.871560 
# 
# From -- ./inp_files/208633.got.cif
#   From: 2010.05.17/outbox.cif.g08.bks.cpg/sg2_105_cif.got.tgz:208633.got - 2010.06.03 11:33:40.
