data_PCOD9105554
_publ_section_title
;
Structure prediction by ZEFSAII (Michael W. Deem and Ramdas Pophale) SiO2 
 PCOD9105554
Probable space group: P -1
;
_chemical_formula_sum "Si O2"
_cell_formula_units_Z 16
_cell_length_a 27.001141
_cell_length_b 5.295785
_cell_length_c 6.303885
_cell_angle_alpha 76.127079
_cell_angle_beta 49.847123
_cell_angle_gamma 72.210205
_cell_volume 654.892068
_symmetry_space_group_name_H-M "P -1"
_symmetry_group_IT_number 2
_symmetry_cell_setting 'triclinic'
loop_
_space_group_symop_operation_xyz
x,y,z
-x,-y,-z
loop_
_atom_site_type_symbol
_atom_site_label
_atom_site_fract_x
_atom_site_fract_y
_atom_site_fract_z
Si Si1 0.506629 0.286704 0.334963
Si Si2 0.649808 0.118752 0.043666
Si Si3 0.944522 0.371515 0.961185
Si Si4 0.636836 0.549578 0.370047
Si Si5 0.254391 0.653518 0.542876
Si Si6 0.865215 0.204104 0.848099
Si Si7 0.173852 0.381801 0.504722
Si Si8 0.085647 0.122611 0.583330
O O1 0.500000 0.500000 0.500000
O O2 0.583142 0.235166 0.068295
O O3 0.440822 0.385087 0.358502
O O4 0.500000 0.000000 0.500000
O O5 0.646938 0.304165 0.224602
O O6 0.649517 0.815895 0.165490
O O7 0.712114 0.150968 0.728361
O O8 0.916980 0.327265 0.815450
O O9 0.022278 0.361804 0.743167
O O10 0.891616 0.601181 0.170262
O O11 0.932971 0.120200 0.185560
O O12 0.688563 0.490908 0.428149
O O13 0.228560 0.443835 0.502338
O O14 0.194176 0.805718 0.823518
O O15 0.834006 0.390186 0.700806
O O16 0.906332 0.946254 0.672486
O O17 0.159276 0.146406 0.445292
#
# Coordination Sequence:
#
# PCOD9105554 Si02
#       8
#     2   2   2   2   2   2   2   2
#     4   8  16  35  68  96 132 168 219 282 337 384
#     4  10  22  44  67 102 136 176 226 282 333 398
#     4   9  20  38  63  92 118 153 208 270 336 393
#     4  10  22  44  68 100 134 180 224 280 339 393
#     4  11  24  44  60  94 136 180 225 266 330 407
#     4  10  22  41  56  89 123 165 213 263 332 393
#     4  10  22  41  57  91 123 165 212 268 324 397
#     4  10  20  39  65  88 119 159 209 270 329 395
#
# _framework density 24.431507
#
# number of rings (size 3 to 8) (size 9 to 14) (size 15 to 20)
#    0.000    2.250    0.000    1.500    0.000    4.000 
#   29.250    0.000    0.000    9.000    0.000    0.000 
#    0.000    0.000    0.000    0.000    0.000    0.000 
#
# Total GULP energy -89361.681952 kJ/mol
# GULP energy per Si atom -5585.105122 kJ/mol
# Density = 2.437590 g / cm^3
# Si number density = 24.431507 Si / 1000 Ang^3
#
#
#
# Elastic Constant Matrix: (Units=GPa)
#
#
# Indices 1 2 3 4 5 6 
#
# 1 187.1972 2.3636 35.8349 3.3111 -13.1517 4.3684
# 2 2.3636 64.9782 0.8635 1.7031 -3.4795 18.5215
# 3 35.8349 0.8635 74.1882 -4.6331 -17.7618 7.7598
# 4 3.3111 1.7031 -4.6331 22.5666 3.6403 -2.6912
# 5 -13.1517 -3.4795 -17.7618 3.6403 40.9075 2.2265
# 6 4.3684 18.5215 7.7598 -2.6912 2.2265 35.0068
#
#
#
# Elastic Compliance Matrix: (Units=1/GPa)
#
#
# Indices 1 2 3 4 5 6 
#
# 1 0.005964 0.000001 -0.002735 -0.001619 0.000891 -0.000319
# 2 0.000001 0.018626 0.001439 -0.002863 0.003041 -0.010588
# 3 -0.002735 0.001439 0.016979 0.002174 0.006664 -0.004441
# 4 -0.001619 -0.002863 0.002174 0.046502 -0.004235 0.005079
# 5 0.000891 0.003041 0.006664 -0.004235 0.028551 -0.005338
# 6 -0.000319 -0.010588 -0.004441 0.005079 -0.005338 0.035922
#
#
# Mechanical properties :
#
#
# Convention : Reuss Voigt Hill
#
# Bulk Modulus (GPa) = 25.65440 44.94308 35.29874
# Shear Modulus (GPa) = 29.73918 38.84961 34.29440
#
# Velocity S-wave (km/s) = 3.49269 3.99199 3.75066
# Velocity P-wave (km/s) = 5.17576 6.29948 5.76507
#
# Compressibility (1/GPa) = 0.03897967
#
# Stress axis : x y z
#
# Youngs Moduli (GPa) = 167.66568 53.68732 58.89540
#
# Poissons Ratio (x) = -0.00003 0.16109
# Poissons Ratio (y) = -0.00010 -0.08478
# Poissons Ratio (z) = 0.45859 -0.07728
#
# Static dielectric constant tensor:
#      x y z
#    x 1.948850 -0.061050 -0.010390 
#    y -0.061050 2.058030 0.034440 
#    z -0.010390 0.034440 1.941900 
# 
# From -- ./inp_files/13288.got.cif
#   From: 2010.05.17/outbox.cif.g08.bks.cpg/sg2_7_cif.got.tgz:13288.got - 2010.06.03 11:33:40.
