data_PCOD9105342
_publ_section_title
;
Structure prediction by ZEFSAII (Michael W. Deem and Ramdas Pophale) SiO2 
 PCOD9105342
Probable space group: P -1
;
_chemical_formula_sum "Si O2"
_cell_formula_units_Z 16
_cell_length_a 12.528595
_cell_length_b 9.139076
_cell_length_c 14.969076
_cell_angle_alpha 110.083410
_cell_angle_beta 72.083401
_cell_angle_gamma 48.083121
_cell_volume 766.527048
_symmetry_space_group_name_H-M "P -1"
_symmetry_group_IT_number 2
_symmetry_cell_setting 'triclinic'
loop_
_space_group_symop_operation_xyz
x,y,z
-x,-y,-z
loop_
_atom_site_type_symbol
_atom_site_label
_atom_site_fract_x
_atom_site_fract_y
_atom_site_fract_z
Si Si1 0.470550 0.387792 0.921883
Si Si2 0.038779 0.235246 0.301376
Si Si3 0.668772 0.070063 0.345655
Si Si4 0.623689 0.836671 0.647284
Si Si5 0.557441 0.911460 0.069242
Si Si6 0.257920 0.538385 0.843689
Si Si7 0.036682 0.372147 0.131157
Si Si8 0.757821 0.296352 0.309190
O O1 0.380559 0.343244 0.986015
O O2 0.302182 0.602112 0.927393
O O3 0.732893 0.043675 0.759722
O O4 0.500000 0.500000 0.000000
O O5 0.850901 0.551485 0.472956
O O6 0.086069 0.251799 0.194055
O O7 0.933697 0.191775 0.296618
O O8 0.516764 0.150751 0.335400
O O9 0.783388 0.083223 0.275962
O O10 0.490588 0.351153 0.521386
O O11 0.845927 0.733773 0.267422
O O12 0.629646 0.835576 0.753336
O O13 0.472518 0.163096 0.719240
O O14 0.760012 0.787523 0.004009
O O15 0.500000 0.000000 0.000000
O O16 0.057223 0.655174 0.911391
O O17 0.236265 0.663831 0.786723
#
# Coordination Sequence:
#
# PCOD9105342 Si02
#       8
#     2   2   2   2   2   2   2   2
#     4  11  25  41  59  87 128 160 195 244 305 361
#     4  10  20  40  62  89 118 161 199 242 298 361
#     4   9  18  33  61  89 121 152 197 255 291 351
#     4   9  20  37  63  86 119 153 207 246 290 350
#     4  11  23  41  60  90 123 158 197 252 300 349
#     4   9  20  38  61  89 116 159 201 248 290 359
#     4  10  20  39  64  91 115 155 205 247 299 344
#     4   9  18  35  58  91 121 154 198 243 304 350
#
# _framework density 20.873366999999998
#
# number of rings (size 3 to 8) (size 9 to 14) (size 15 to 20)
#    0.000    2.250    1.250    0.750    1.750   10.500 
#    2.250    1.250    0.000    3.000    0.000    0.000 
#    0.000    0.000    0.000    0.000    0.000    0.000 
#
# Total GULP energy -89268.523823 kJ/mol
# GULP energy per Si atom -5579.282739 kJ/mol
# Density = 2.082586 g / cm^3
# Si number density = 20.873367 Si / 1000 Ang^3
#
#
#
# Elastic Constant Matrix: (Units=GPa)
#
#
# Indices 1 2 3 4 5 6 
#
# 1 138.3193 41.8117 31.0778 -16.7999 -6.7777 0.0596
# 2 41.8117 68.1600 11.5245 -14.2939 -3.9579 -9.1441
# 3 31.0778 11.5245 75.1048 -4.7762 -4.4529 -5.8526
# 4 -16.7999 -14.2939 -4.7762 24.5101 0.2760 1.0831
# 5 -6.7777 -3.9579 -4.4529 0.2760 34.3988 -4.2864
# 6 0.0596 -9.1441 -5.8526 1.0831 -4.2864 37.3443
#
#
#
# Elastic Compliance Matrix: (Units=1/GPa)
#
#
# Indices 1 2 3 4 5 6 
#
# 1 0.009912 -0.005041 -0.003214 0.003298 0.000710 -0.001768
# 2 -0.005041 0.020238 -0.000007 0.008106 0.001885 0.004944
# 3 -0.003214 -0.000007 0.014975 0.000582 0.001614 0.002519
# 4 0.003298 0.008106 0.000582 0.047848 0.001379 0.000841
# 5 0.000710 0.001885 0.001614 0.001379 0.030140 0.004133
# 6 -0.001768 0.004944 0.002519 0.000841 0.004133 0.028836
#
#
# Mechanical properties :
#
#
# Convention : Reuss Voigt Hill
#
# Bulk Modulus (GPa) = 34.96493 50.04579 42.50536
# Shear Modulus (GPa) = 28.08916 32.39533 30.24224
#
# Velocity S-wave (km/s) = 3.67235 3.94381 3.81050
# Velocity P-wave (km/s) = 5.89651 6.69075 6.30615
#
# Compressibility (1/GPa) = 0.02860009
#
# Stress axis : x y z
#
# Youngs Moduli (GPa) = 100.89109 49.41321 66.77994
#
# Poissons Ratio (x) = 0.24910 0.21462
# Poissons Ratio (y) = 0.50861 0.00046
# Poissons Ratio (z) = 0.32424 0.00034
#
# Static dielectric constant tensor:
#      x y z
#    x 1.792720 -0.010240 0.032190 
#    y -0.010240 1.734010 0.024880 
#    z 0.032190 0.024880 1.814930 
# 
# From -- ./inp_files/312614.got.cif
#   From: 2010.05.17/outbox.cif.g08.bks.cpg/sg2_157_cif.got.tgz:312614.got - 2010.06.03 11:33:40.
