data_PCOD9105625
_publ_section_title
;
Structure prediction by ZEFSAII (Michael W. Deem and Ramdas Pophale) SiO2 
 PCOD9105625
Probable space group: P -1
;
_chemical_formula_sum "Si O2"
_cell_formula_units_Z 16
_cell_length_a 5.524867
_cell_length_b 14.911965
_cell_length_c 7.860885
_cell_angle_alpha 78.818279
_cell_angle_beta 78.007455
_cell_angle_gamma 86.872734
_cell_volume 621.402726
_symmetry_space_group_name_H-M "P -1"
_symmetry_group_IT_number 2
_symmetry_cell_setting 'triclinic'
loop_
_space_group_symop_operation_xyz
x,y,z
-x,-y,-z
loop_
_atom_site_type_symbol
_atom_site_label
_atom_site_fract_x
_atom_site_fract_y
_atom_site_fract_z
Si Si1 0.460523 0.856678 0.452692
Si Si2 0.555109 0.318966 0.683428
Si Si3 0.081607 0.103513 0.400454
Si Si4 0.355755 0.001571 0.848412
Si Si5 0.025557 0.654249 0.966857
Si Si6 0.464650 0.391563 0.052285
Si Si7 0.972898 0.861567 0.972874
Si Si8 0.056136 0.408200 0.628568
O O1 0.484568 0.785856 0.319230
O O2 0.700254 0.851451 0.539489
O O3 0.483184 0.959324 0.338916
O O4 0.183492 0.843498 0.565388
O O5 0.504577 0.345511 0.877285
O O6 0.342884 0.374993 0.588608
O O7 0.843255 0.342184 0.611941
O O8 0.166159 0.112507 0.190111
O O9 0.000000 0.000000 0.500000
O O10 0.135218 0.078440 0.878219
O O11 0.239325 0.903796 0.882235
O O12 0.500000 0.000000 0.000000
O O13 0.983589 0.753577 0.021807
O O14 0.304310 0.646341 0.860040
O O15 0.818253 0.633838 0.864428
O O16 0.993677 0.586105 0.159892
O O17 0.500000 0.500000 0.000000
O O18 0.000000 0.500000 0.500000
#
# Coordination Sequence:
#
# PCOD9105625 Si02
#       8
#     2   2   2   2   2   2   2   2
#     4  12  26  46  73 102 146 192 240 290 352 413
#     4  10  22  40  66 100 128 173 228 285 333 421
#     4  12  26  48  67 100 144 198 239 287 349 414
#     4  11  25  40  73 106 141 191 239 289 356 418
#     4  10  23  40  65  97 133 172 224 283 338 416
#     4  10  21  42  67  95 131 176 216 286 361 413
#     4  11  26  44  68 106 144 187 239 294 350 420
#     4  10  20  39  65  92 130 172 216 286 348 410
#
# _framework density 25.748196
#
# number of rings (size 3 to 8) (size 9 to 14) (size 15 to 20)
#    0.000    1.250    1.250    4.125    8.750    0.000 
#    0.000   15.000    0.000    0.000    0.000    0.000 
#    0.000    0.000    0.000    0.000    0.000    0.000 
#
# Total GULP energy -89481.263301 kJ/mol
# GULP energy per Si atom -5592.578956 kJ/mol
# Density = 2.568959 g / cm^3
# Si number density = 25.748196 Si / 1000 Ang^3
#
#
#
# Elastic Constant Matrix: (Units=GPa)
#
#
# Indices 1 2 3 4 5 6 
#
# 1 221.6878 32.5217 12.6132 9.6977 9.3123 28.9426
# 2 32.5217 100.5020 2.9877 8.9929 -9.2712 18.3939
# 3 12.6132 2.9877 59.6994 1.4706 5.2143 -1.2547
# 4 9.6977 8.9929 1.4706 35.5945 -3.6283 4.3625
# 5 9.3123 -9.2712 5.2143 -3.6283 30.4532 8.2760
# 6 28.9426 18.3939 -1.2547 4.3625 8.2760 50.9290
#
#
#
# Elastic Compliance Matrix: (Units=1/GPa)
#
#
# Indices 1 2 3 4 5 6 
#
# 1 0.005131 -0.001272 -0.000930 -0.000903 -0.001310 -0.002189
# 2 -0.001272 0.011770 -0.000815 -0.001556 0.005078 -0.004240
# 3 -0.000930 -0.000815 0.017359 -0.000853 -0.003554 0.001901
# 4 -0.000903 -0.001556 -0.000853 0.029440 0.004033 -0.002123
# 5 -0.001310 0.005078 -0.003554 0.004033 0.037963 -0.007692
# 6 -0.002189 -0.004240 0.001901 -0.002123 -0.007692 0.023889
#
#
# Mechanical properties :
#
#
# Convention : Reuss Voigt Hill
#
# Bulk Modulus (GPa) = 35.42727 53.12605 44.27666
# Shear Modulus (GPa) = 35.46266 45.64646 40.55456
#
# Velocity S-wave (km/s) = 3.71521 4.21503 3.97299
# Velocity P-wave (km/s) = 5.67386 6.66081 6.18705
#
# Compressibility (1/GPa) = 0.02822685
#
# Stress axis : x y z
#
# Youngs Moduli (GPa) = 194.90670 84.96480 57.60638
#
# Poissons Ratio (x) = 0.10807 0.05356
# Poissons Ratio (y) = 0.24791 0.04693
# Poissons Ratio (z) = 0.18121 0.06921
#
# Static dielectric constant tensor:
#      x y z
#    x 2.159210 -0.069260 -0.041340 
#    y -0.069260 2.086170 0.110600 
#    z -0.041340 0.110600 2.189880 
# 
# From -- ./inp_files/134993.got.cif
#   From: 2010.05.17/outbox.cif.g08.bks.cpg/sg2_68_cif.got.tgz:134993.got - 2010.06.03 11:33:40.
