data_PCOD9105893
_publ_section_title
;
Structure prediction by ZEFSAII (Michael W. Deem and Ramdas Pophale) SiO2 
 PCOD9105893
Probable space group: P -1
;
_chemical_formula_sum "Si O2"
_cell_formula_units_Z 14
_cell_length_a 8.386342
_cell_length_b 9.173964
_cell_length_c 9.044233
_cell_angle_alpha 67.244557
_cell_angle_beta 109.678549
_cell_angle_gamma 104.547674
_cell_volume 598.302748
_symmetry_space_group_name_H-M "P -1"
_symmetry_group_IT_number 2
_symmetry_cell_setting 'triclinic'
loop_
_space_group_symop_operation_xyz
x,y,z
-x,-y,-z
loop_
_atom_site_type_symbol
_atom_site_label
_atom_site_fract_x
_atom_site_fract_y
_atom_site_fract_z
Si Si1 0.346281 0.107974 0.223297
Si Si2 0.306152 0.659120 0.755249
Si Si3 0.724195 0.724328 0.158098
Si Si4 0.017700 0.322521 0.520693
Si Si5 0.806458 0.427158 0.926987
Si Si6 0.574642 0.232300 0.720778
Si Si7 0.691301 0.704163 0.618349
O O1 0.519991 0.227701 0.257340
O O2 0.260143 0.127627 0.347634
O O3 0.392315 0.938069 0.259841
O O4 0.261204 0.182947 0.027563
O O5 0.306431 0.469223 0.797759
O O6 0.165038 0.729845 0.586283
O O7 0.261510 0.665137 0.911832
O O8 0.901385 0.764880 0.286400
O O9 0.567150 0.771017 0.190424
O O10 0.159877 0.324705 0.437151
O O11 0.000000 0.500000 0.500000
O O12 0.753900 0.318391 0.809570
O O13 0.702575 0.571924 0.799262
O O14 0.000000 0.500000 0.000000
O O15 0.483389 0.312453 0.524831
#
# Coordination Sequence:
#
# PCOD9105893 Si02
#       7
#     2   2   2   2   2   2   2
#     4  12  23  41  68  95 132 173 217 266 317 387
#     4  11  21  40  67  99 127 166 217 269 325 378
#     4  10  20  39  66  93 124 172 218 259 314 386
#     4   9  21  40  64  96 131 160 215 268 322 374
#     4  12  23  41  69  95 129 168 218 273 321 382
#     4  11  25  42  63  96 132 173 218 263 325 381
#     4  11  23  43  67  96 130 172 219 264 318 386
#
# _framework density 23.399522999999999
#
# number of rings (size 3 to 8) (size 9 to 14) (size 15 to 20)
#    0.000    1.143    4.286    2.571    0.000    2.286 
#    0.000    5.000    3.143    0.000    0.000    0.000 
#    0.000    0.000    0.000    0.000    0.000    0.000 
#
# Total GULP energy -78262.729773 kJ/mol
# GULP energy per Si atom -5590.194984 kJ/mol
# Density = 2.334626 g / cm^3
# Si number density = 23.399523 Si / 1000 Ang^3
#
#
#
# Elastic Constant Matrix: (Units=GPa)
#
#
# Indices 1 2 3 4 5 6 
#
# 1 71.7426 37.6541 54.7759 10.2471 23.3624 -12.8441
# 2 37.6541 139.6299 49.3877 10.0310 17.7839 -21.5355
# 3 54.7759 49.3877 165.6904 28.7999 43.4600 0.7623
# 4 10.2471 10.0310 28.7999 30.0501 -0.3006 -4.9984
# 5 23.3624 17.7839 43.4600 -0.3006 38.4457 9.0594
# 6 -12.8441 -21.5355 0.7623 -4.9984 9.0594 15.4728
#
#
#
# Elastic Compliance Matrix: (Units=1/GPa)
#
#
# Indices 1 2 3 4 5 6 
#
# 1 0.034598 0.004328 -0.005322 0.000257 -0.029323 0.052258
# 2 0.004328 0.012961 -0.002158 0.001094 -0.013205 0.029824
# 3 -0.005322 -0.002158 0.012553 -0.010662 -0.008510 -0.006501
# 4 0.000257 0.001094 -0.010662 0.045052 0.009026 0.011530
# 5 -0.029323 -0.013205 -0.008510 0.009026 0.079938 -0.086189
# 6 0.052258 0.029824 -0.006501 0.011530 -0.086189 0.204028
#
#
# Mechanical properties :
#
#
# Convention : Reuss Voigt Hill
#
# Bulk Modulus (GPa) = 18.58413 73.41093 45.99753
# Shear Modulus (GPa) = 12.09575 32.47674 22.28624
#
# Velocity S-wave (km/s) = 2.27606 3.72953 3.08948
# Velocity P-wave (km/s) = 3.85572 7.07013 5.69444
#
# Compressibility (1/GPa) = 0.05380937
#
# Stress axis : x y z
#
# Youngs Moduli (GPa) = 28.90351 77.15494 79.66097
#
# Poissons Ratio (x) = -0.33395 0.42394
# Poissons Ratio (y) = -0.12510 0.17190
# Poissons Ratio (z) = 0.15382 0.16649
#
# Static dielectric constant tensor:
#      x y z
#    x 2.000780 -0.080980 -0.037670 
#    y -0.080980 1.963490 0.045410 
#    z -0.037670 0.045410 1.882920 
# 
# From -- ./inp_files/157616.got.cif
#   From: 2010.05.17/outbox.cif.g08.bks.cpg/sg2_79_cif.got.tgz:157616.got - 2010.06.03 11:33:40.
