data_PCOD9105141
_publ_section_title
;
Structure prediction by ZEFSAII (Michael W. Deem and Ramdas Pophale) SiO2 
 PCOD9105141
Probable space group: P -1
;
_chemical_formula_sum "Si O2"
_cell_formula_units_Z 13
_cell_length_a 5.055173
_cell_length_b 18.347341
_cell_length_c 7.287276
_cell_angle_alpha 89.817768
_cell_angle_beta 48.946091
_cell_angle_gamma 79.230092
_cell_volume 494.141016
_symmetry_space_group_name_H-M "P -1"
_symmetry_group_IT_number 2
_symmetry_cell_setting 'triclinic'
loop_
_space_group_symop_operation_xyz
x,y,z
-x,-y,-z
loop_
_atom_site_type_symbol
_atom_site_label
_atom_site_fract_x
_atom_site_fract_y
_atom_site_fract_z
Si Si1 0.484343 0.114592 0.813303
Si Si2 0.500000 0.000000 0.500000
Si Si3 0.990931 0.514086 0.286176
Si Si4 0.576464 0.268553 0.667905
Si Si5 0.252826 0.913493 0.890870
Si Si6 0.750241 0.376282 0.339304
Si Si7 0.235476 0.655421 0.069683
O O1 0.610432 0.040508 0.633113
O O2 0.643728 0.180461 0.660039
O O3 0.596760 0.099627 0.973710
O O4 0.042659 0.134488 0.007371
O O5 0.474044 0.080289 0.394673
O O6 0.010491 0.432589 0.190729
O O7 0.597049 0.566677 0.413013
O O8 0.000000 0.500000 0.500000
O O9 0.240879 0.569731 0.123123
O O10 0.850898 0.304888 0.426586
O O11 0.575081 0.302766 0.871110
O O12 0.184390 0.298238 0.752774
O O13 0.000000 0.000000 0.000000
O O14 0.632943 0.349480 0.198983
#
# Coordination Sequence:
#
# PCOD9105141 Si02
#       7
#     2   1   2   2   2   2   2
#     4  11  24  41  64  94 131 162 208 261 311 376
#     4  10  22  42  70  94 120 164 202 254 318 366
#     4  10  20  39  63  93 125 160 218 275 303 365
#     4  11  25  42  59  92 130 167 212 260 308 381
#     4  10  22  41  64  96 124 154 203 257 306 373
#     4  10  23  40  61  92 126 168 215 261 318 369
#     4  11  24  41  64  88 127 174 212 260 319 368
#
# _framework density 26.30828
#
# number of rings (size 3 to 8) (size 9 to 14) (size 15 to 20)
#    0.000    1.538    1.538    3.231    2.154    8.615 
#    0.000    0.000    0.000    0.000    0.000    0.000 
#    0.000    0.000    0.000    0.000    0.000    0.000 
#
# Total GULP energy -72503.901113 kJ/mol
# GULP energy per Si atom -5577.223163 kJ/mol
# Density = 2.624840 g / cm^3
# Si number density = 26.308280 Si / 1000 Ang^3
#
#
#
# Elastic Constant Matrix: (Units=GPa)
#
#
# Indices 1 2 3 4 5 6 
#
# 1 111.5444 37.4697 40.2141 -7.6807 18.7225 16.2457
# 2 37.4697 119.6748 40.5716 -27.4176 0.9509 33.9714
# 3 40.2141 40.5716 118.7422 -27.6056 37.1067 14.4533
# 4 -7.6807 -27.4176 -27.6056 39.4421 2.2249 0.8668
# 5 18.7225 0.9509 37.1067 2.2249 48.9537 1.5623
# 6 16.2457 33.9714 14.4533 0.8668 1.5623 34.0083
#
#
#
# Elastic Compliance Matrix: (Units=1/GPa)
#
#
# Indices 1 2 3 4 5 6 
#
# 1 0.011186 -0.002403 -0.002138 -0.000805 -0.002514 -0.001899
# 2 -0.002403 0.015905 -0.000836 0.010256 0.001247 -0.014703
# 3 -0.002138 -0.000836 0.016354 0.011227 -0.011919 -0.004832
# 4 -0.000805 0.010256 0.011227 0.041070 -0.009782 -0.015229
# 5 -0.002514 0.001247 -0.011919 -0.009782 0.030720 0.003859
# 6 -0.001899 -0.014703 -0.004832 -0.015229 0.003859 0.047264
#
#
# Mechanical properties :
#
#
# Convention : Reuss Voigt Hill
#
# Bulk Modulus (GPa) = 30.58912 65.16359 47.87636
# Shear Modulus (GPa) = 27.15152 39.92787 33.53970
#
# Velocity S-wave (km/s) = 3.21604 3.89998 3.57441
# Velocity P-wave (km/s) = 5.04411 6.71586 5.93910
#
# Compressibility (1/GPa) = 0.03269136
#
# Stress axis : x y z
#
# Youngs Moduli (GPa) = 89.39744 62.87169 61.14616
#
# Poissons Ratio (x) = 0.15108 0.13071
# Poissons Ratio (y) = 0.21483 0.05114
# Poissons Ratio (z) = 0.19110 0.05259
#
# Static dielectric constant tensor:
#      x y z
#    x 2.186070 -0.025390 -0.150060 
#    y -0.025390 2.044120 0.005000 
#    z -0.150060 0.005000 2.127030 
# 
# From -- ./inp_files/6470.got.cif
#   From: 2010.05.17/outbox.cif.g08.bks.cpg/sg2_4_cif.got.tgz:6470.got - 2010.06.03 11:33:40.
