data_PCOD9105628
_publ_section_title
;
Structure prediction by ZEFSAII (Michael W. Deem and Ramdas Pophale) SiO2 
 PCOD9105628
Probable space group: P -1
;
_chemical_formula_sum "Si O2"
_cell_formula_units_Z 16
_cell_length_a 15.919124
_cell_length_b 12.918562
_cell_length_c 9.196862
_cell_angle_alpha 31.490917
_cell_angle_beta 49.852227
_cell_angle_gamma 44.252289
_cell_volume 686.425776
_symmetry_space_group_name_H-M "P -1"
_symmetry_group_IT_number 2
_symmetry_cell_setting 'triclinic'
loop_
_space_group_symop_operation_xyz
x,y,z
-x,-y,-z
loop_
_atom_site_type_symbol
_atom_site_label
_atom_site_fract_x
_atom_site_fract_y
_atom_site_fract_z
Si Si1 0.276906 0.483153 0.229912
Si Si2 0.883189 0.698398 0.959852
Si Si3 0.592401 0.283149 0.348304
Si Si4 0.955378 0.432546 0.481743
Si Si5 0.184123 0.389053 0.143895
Si Si6 0.802369 0.192289 0.459118
Si Si7 0.590040 0.359233 0.695367
Si Si8 0.540649 0.957126 0.339562
O O1 0.147030 0.636667 0.259914
O O2 0.263818 0.382959 0.204830
O O3 0.343919 0.272522 0.505790
O O4 0.354459 0.620745 0.953298
O O5 0.781666 0.708334 0.940924
O O6 0.882137 0.936467 0.680061
O O7 0.884484 0.618055 0.219112
O O8 0.000000 0.500000 0.000000
O O9 0.693530 0.225501 0.428613
O O10 0.466215 0.475148 0.308965
O O11 0.564862 0.080457 0.580211
O O12 0.000000 0.500000 0.500000
O O13 0.084353 0.303636 0.412469
O O14 0.137261 0.650316 0.851090
O O15 0.728291 0.285408 0.580106
O O16 0.500000 0.500000 0.500000
O O17 0.569448 0.144509 0.011179
O O18 0.500000 0.000000 0.500000
#
# Coordination Sequence:
#
# PCOD9105628 Si02
#       8
#     2   2   2   2   2   2   2   2
#     4  10  20  39  65  92 131 174 218 272 334 387
#     4  10  21  38  63  91 123 167 216 267 334 392
#     4  10  23  41  62  91 135 175 222 275 323 398
#     4   9  19  38  65  90 122 164 209 266 328 385
#     4   9  21  40  64  91 130 168 216 274 326 398
#     4  10  22  38  65  93 126 171 217 267 336 390
#     4  10  23  41  59  93 130 169 226 271 326 390
#     4  12  24  38  64  92 134 178 223 268 334 394
#
# _framework density 23.309148
#
# number of rings (size 3 to 8) (size 9 to 14) (size 15 to 20)
#    0.000    2.000    1.250    1.125    1.750    6.000 
#    0.000    0.000    2.750   10.500    0.000    0.000 
#    0.000    0.000    0.000    0.000    0.000    0.000 
#
# Total GULP energy -89118.633511 kJ/mol
# GULP energy per Si atom -5569.914594 kJ/mol
# Density = 2.325610 g / cm^3
# Si number density = 23.309148 Si / 1000 Ang^3
#
#
#
# Elastic Constant Matrix: (Units=GPa)
#
#
# Indices 1 2 3 4 5 6 
#
# 1 94.4799 16.4621 19.7771 3.3901 14.5241 16.3816
# 2 16.4621 62.7608 42.2913 9.6813 -11.1371 -14.8016
# 3 19.7771 42.2913 110.5121 3.1807 10.2088 1.0446
# 4 3.3901 9.6813 3.1807 37.7879 -0.3480 3.7551
# 5 14.5241 -11.1371 10.2088 -0.3480 33.4414 1.4067
# 6 16.3816 -14.8016 1.0446 3.7551 1.4067 33.0286
#
#
#
# Elastic Compliance Matrix: (Units=1/GPa)
#
#
# Indices 1 2 3 4 5 6 
#
# 1 0.015742 -0.011011 0.002436 0.002361 -0.010692 -0.012632
# 2 -0.011011 0.040426 -0.015450 -0.010283 0.021833 0.024306
# 3 0.002436 -0.015450 0.015488 0.003187 -0.010539 -0.008535
# 4 0.002361 -0.010283 0.003187 0.029472 -0.004736 -0.009029
# 5 -0.010692 0.021833 -0.010539 -0.004736 0.044394 0.014068
# 6 -0.012632 0.024306 -0.008535 -0.009029 0.014068 0.048132
#
#
# Mechanical properties :
#
#
# Convention : Reuss Voigt Hill
#
# Bulk Modulus (GPa) = 42.36506 47.20153 44.78329
# Shear Modulus (GPa) = 20.03421 33.46641 26.75031
#
# Velocity S-wave (km/s) = 2.93490 3.79326 3.39135
# Velocity P-wave (km/s) = 5.44974 6.28325 5.88128
#
# Compressibility (1/GPa) = 0.02360436
#
# Stress axis : x y z
#
# Youngs Moduli (GPa) = 63.52362 24.73673 64.56595
#
# Poissons Ratio (x) = 0.27238 -0.15727
# Poissons Ratio (y) = 0.69947 0.99757
# Poissons Ratio (z) = -0.15473 0.38219
#
# Static dielectric constant tensor:
#      x y z
#    x 1.978420 -0.048990 -0.002630 
#    y -0.048990 1.918870 0.002080 
#    z -0.002630 0.002080 1.781600 
# 
# From -- ./inp_files/332637.got.cif
#   From: 2010.05.17/outbox.cif.g08.bks.cpg/sg2_167_cif.got.tgz:332637.got - 2010.06.03 11:33:40.
