data_PCOD9105454
_publ_section_title
;
Structure prediction by ZEFSAII (Michael W. Deem and Ramdas Pophale) SiO2 
 PCOD9105454
Probable space group: P -1
;
_chemical_formula_sum "Si O2"
_cell_formula_units_Z 14
_cell_length_a 7.959660
_cell_length_b 10.389761
_cell_length_c 10.404937
_cell_angle_alpha 133.826094
_cell_angle_beta 77.410629
_cell_angle_gamma 118.948189
_cell_volume 533.780334
_symmetry_space_group_name_H-M "P -1"
_symmetry_group_IT_number 2
_symmetry_cell_setting 'triclinic'
loop_
_space_group_symop_operation_xyz
x,y,z
-x,-y,-z
loop_
_atom_site_type_symbol
_atom_site_label
_atom_site_fract_x
_atom_site_fract_y
_atom_site_fract_z
Si Si1 0.890180 0.686227 0.401396
Si Si2 0.365143 0.678460 0.628822
Si Si3 0.039030 0.385954 0.089234
Si Si4 0.533723 0.371972 0.702910
Si Si5 0.656588 0.790006 0.879053
Si Si6 0.827134 0.871458 0.288639
Si Si7 0.075311 0.827891 0.782190
O O1 0.739533 0.537961 0.429637
O O2 0.830109 0.808112 0.394479
O O3 0.946018 0.538387 0.204580
O O4 0.062347 0.885993 0.583454
O O5 0.473990 0.705498 0.494812
O O6 0.526923 0.814060 0.803431
O O7 0.177607 0.700261 0.627791
O O8 0.244952 0.534259 0.221110
O O9 0.911191 0.218813 0.099044
O O10 0.080149 0.252492 0.885256
O O11 0.516621 0.576369 0.822676
O O12 0.406184 0.229544 0.741173
O O13 0.853798 0.791929 0.789313
O O14 0.754804 0.941553 0.086841
#
# Coordination Sequence:
#
# PCOD9105454 Si02
#       7
#     2   2   2   2   2   2   2
#     4  10  24  42  70  96 129 178 229 269 348 396
#     4  11  22  43  66 100 137 168 224 292 323 411
#     4  10  23  44  64  94 137 174 223 279 328 412
#     4  11  24  41  64  98 129 173 225 268 350 392
#     4  10  20  39  64  95 136 173 214 277 341 394
#     4  11  23  44  66  96 131 181 221 277 335 413
#     4   9  22  39  64 102 129 176 224 268 350 397
#
# _framework density 26.228019
#
# number of rings (size 3 to 8) (size 9 to 14) (size 15 to 20)
#    0.000    1.714    1.429    1.714    2.000    6.857 
#    7.714    0.000    0.000    0.000    0.000    0.000 
#    0.000    0.000    0.000    0.000    0.000    0.000 
#
# Total GULP energy -77946.712891 kJ/mol
# GULP energy per Si atom -5567.622349 kJ/mol
# Density = 2.616832 g / cm^3
# Si number density = 26.228019 Si / 1000 Ang^3
#
#
#
# Elastic Constant Matrix: (Units=GPa)
#
#
# Indices 1 2 3 4 5 6 
#
# 1 99.5289 9.5314 29.7897 3.4490 -11.6833 -3.5374
# 2 9.5314 89.0350 24.8177 -4.8525 -26.4239 33.2751
# 3 29.7897 24.8177 100.1838 -3.1070 -7.3474 27.3395
# 4 3.4490 -4.8525 -3.1070 32.4260 11.3269 -1.9112
# 5 -11.6833 -26.4239 -7.3474 11.3269 30.5888 -2.1437
# 6 -3.5374 33.2751 27.3395 -1.9112 -2.1437 42.0636
#
#
#
# Elastic Compliance Matrix: (Units=1/GPa)
#
#
# Indices 1 2 3 4 5 6 
#
# 1 0.012253 -0.000521 -0.004487 -0.003169 0.004637 0.004451
# 2 -0.000521 0.024157 0.000698 -0.004809 0.021304 -0.018740
# 3 -0.004487 0.000698 0.013962 0.000913 0.001211 -0.009901
# 4 -0.003169 -0.004809 0.000913 0.037292 -0.018696 0.003686
# 5 0.004637 0.021304 0.001211 -0.018696 0.059022 -0.015091
# 6 0.004451 -0.018740 -0.009901 0.003686 -0.015091 0.044806
#
#
# Mechanical properties :
#
#
# Convention : Reuss Voigt Hill
#
# Bulk Modulus (GPa) = 23.95134 46.33617 35.14375
# Shear Modulus (GPa) = 23.36122 35.98961 29.67541
#
# Velocity S-wave (km/s) = 2.98769 3.70832 3.36734
# Velocity P-wave (km/s) = 4.58841 6.00337 5.34294
#
# Compressibility (1/GPa) = 0.04175133
#
# Stress axis : x y z
#
# Youngs Moduli (GPa) = 81.61511 41.39596 71.62266
#
# Poissons Ratio (x) = 0.02156 0.32138
# Poissons Ratio (y) = 0.04252 -0.04999
# Poissons Ratio (z) = 0.36622 -0.02889
#
# Static dielectric constant tensor:
#      x y z
#    x 2.416490 -0.052310 0.149870 
#    y -0.052310 2.185380 0.065960 
#    z 0.149870 0.065960 2.303390 
# 
# From -- ./inp_files/391556.got.cif
#   From: 2010.05.17/outbox.cif.g08.bks.cpg/sg2_196_cif.got.tgz:391556.got - 2010.06.03 11:33:40.
