data_PCOD9105094
_publ_section_title
;
Structure prediction by ZEFSAII (Michael W. Deem and Ramdas Pophale) SiO2 
 PCOD9105094
Probable space group: P -1
;
_chemical_formula_sum "Si O2"
_cell_formula_units_Z 16
_cell_length_a 17.997042
_cell_length_b 10.083460
_cell_length_c 7.988871
_cell_angle_alpha 137.983449
_cell_angle_beta 48.096047
_cell_angle_gamma 127.519970
_cell_volume 703.458933
_symmetry_space_group_name_H-M "P -1"
_symmetry_group_IT_number 2
_symmetry_cell_setting 'triclinic'
loop_
_space_group_symop_operation_xyz
x,y,z
-x,-y,-z
loop_
_atom_site_type_symbol
_atom_site_label
_atom_site_fract_x
_atom_site_fract_y
_atom_site_fract_z
Si Si1 0.175589 0.393754 0.301785
Si Si2 0.235068 0.001408 0.941979
Si Si3 0.269710 0.946623 0.433886
Si Si4 0.090497 0.133463 0.876309
Si Si5 0.045866 0.640288 0.910829
Si Si6 0.363519 0.617949 0.089937
Si Si7 0.451975 0.014306 0.767888
Si Si8 0.452536 0.300235 0.490885
O O1 0.157076 0.305346 0.058596
O O2 0.083075 0.495302 0.582913
O O3 0.283213 0.560037 0.308596
O O4 0.187164 0.199492 0.208178
O O5 0.148558 0.810428 0.951095
O O6 0.336637 0.027530 0.923290
O O7 0.262791 0.974115 0.675519
O O8 0.363171 0.119400 0.382946
O O9 0.297741 0.728548 0.166356
O O10 0.163667 0.989023 0.569556
O O11 0.037192 0.242949 0.921970
O O12 0.000000 0.000000 0.000000
O O13 0.000000 0.500000 0.000000
O O14 0.470243 0.783436 0.092722
O O15 0.392879 0.404454 0.815076
O O16 0.466978 0.818814 0.666318
O O17 0.500000 0.000000 0.500000
O O18 0.500000 0.500000 0.500000
#
# Coordination Sequence:
#
# PCOD9105094 Si02
#       8
#     2   2   2   2   2   2   2   2
#     4  11  21  41  72  91 123 173 222 249 313 395
#     4  11  21  42  60  94 129 164 213 259 305 387
#     4  10  20  39  63  91 124 159 218 257 293 386
#     4  11  20  42  70  92 121 173 220 258 309 386
#     4  12  26  42  65 100 133 158 211 281 323 359
#     4  11  20  39  68  94 121 170 212 251 309 380
#     4  11  21  38  65  95 127 163 208 256 309 379
#     4  11  24  40  60  93 130 160 208 267 311 362
#
# _framework density 22.744752999999999
#
# number of rings (size 3 to 8) (size 9 to 14) (size 15 to 20)
#    0.000    1.000    8.750    0.375    0.000    6.500 
#    0.000    1.250    0.000    0.000    0.000    0.000 
#    0.000    0.000    0.000    0.000    0.000    0.000 
#
# Total GULP energy -89335.624124 kJ/mol
# GULP energy per Si atom -5583.476508 kJ/mol
# Density = 2.269298 g / cm^3
# Si number density = 22.744753 Si / 1000 Ang^3
#
#
#
# Elastic Constant Matrix: (Units=GPa)
#
#
# Indices 1 2 3 4 5 6 
#
# 1 106.1587 40.6718 26.4367 5.2374 -43.0793 0.9031
# 2 40.6718 171.1068 0.4548 8.8347 -7.9056 6.3965
# 3 26.4367 0.4548 47.5779 20.5823 -16.2013 1.8591
# 4 5.2374 8.8347 20.5823 40.5224 -2.1524 -4.1213
# 5 -43.0793 -7.9056 -16.2013 -2.1524 29.5470 0.6378
# 6 0.9031 6.3965 1.8591 -4.1213 0.6378 27.2279
#
#
#
# Elastic Compliance Matrix: (Units=1/GPa)
#
#
# Indices 1 2 3 4 5 6 
#
# 1 0.026340 -0.004640 -0.002819 0.000905 0.035688 -0.000290
# 2 -0.004640 0.006974 0.002426 -0.002548 -0.003713 -0.001949
# 3 -0.002819 0.002426 0.035725 -0.018128 0.014936 -0.006009
# 4 0.000905 -0.002548 -0.018128 0.034690 -0.006930 0.007219
# 5 0.035688 -0.003713 0.014936 -0.006930 0.092667 -0.004551
# 6 -0.000290 -0.001949 -0.006009 0.007219 -0.004551 0.038804
#
#
# Mechanical properties :
#
#
# Convention : Reuss Voigt Hill
#
# Bulk Modulus (GPa) = 16.95762 51.10777 34.03270
# Shear Modulus (GPa) = 18.87340 36.61147 27.74244
#
# Velocity S-wave (km/s) = 2.88374 4.01642 3.49625
# Velocity P-wave (km/s) = 4.30810 6.63534 5.59408
#
# Compressibility (1/GPa) = 0.05897053
#
# Stress axis : x y z
#
# Youngs Moduli (GPa) = 37.96550 143.39496 27.99192
#
# Poissons Ratio (x) = 0.66542 0.07892
# Poissons Ratio (y) = 0.17618 -0.06791
# Poissons Ratio (z) = 0.10703 -0.34786
#
# Static dielectric constant tensor:
#      x y z
#    x 1.936030 0.023210 0.190840 
#    y 0.023210 1.848600 -0.009320 
#    z 0.190840 -0.009320 2.260520 
# 
# From -- ./inp_files/327952.got.cif
#   From: 2010.05.17/outbox.cif.g08.bks.cpg/sg2_164_cif.got.tgz:327952.got - 2010.06.03 11:33:40.
