data_PCOD9105416
_publ_section_title
;
Structure prediction by ZEFSAII (Michael W. Deem and Ramdas Pophale) SiO2 
 PCOD9105416
Probable space group: P -1
;
_chemical_formula_sum "Si O2"
_cell_formula_units_Z 16
_cell_length_a 14.188535
_cell_length_b 9.141355
_cell_length_c 14.698790
_cell_angle_alpha 66.845991
_cell_angle_beta 148.076529
_cell_angle_gamma 91.580242
_cell_volume 720.058798
_symmetry_space_group_name_H-M "P -1"
_symmetry_group_IT_number 2
_symmetry_cell_setting 'triclinic'
loop_
_space_group_symop_operation_xyz
x,y,z
-x,-y,-z
loop_
_atom_site_type_symbol
_atom_site_label
_atom_site_fract_x
_atom_site_fract_y
_atom_site_fract_z
Si Si1 0.762621 0.214555 0.781008
Si Si2 0.878039 0.778029 0.629767
Si Si3 0.752267 0.157253 0.344883
Si Si4 0.823437 0.892099 0.297592
Si Si5 0.644542 0.650380 0.889292
Si Si6 0.562384 0.802152 0.219703
Si Si7 0.477930 0.058995 0.571145
Si Si8 0.508714 0.479990 0.670100
O O1 0.575065 0.179115 0.635962
O O2 0.729828 0.311080 0.830075
O O3 0.688242 0.377848 0.600679
O O4 0.000000 0.000000 0.000000
O O5 0.662970 0.835370 0.381142
O O6 0.787209 0.807161 0.649310
O O7 0.900503 0.949144 0.578787
O O8 0.098883 0.555041 0.839275
O O9 0.512000 0.305443 0.163040
O O10 0.904879 0.230263 0.449934
O O11 0.737591 0.076320 0.255335
O O12 0.736586 0.770676 0.292847
O O13 0.687513 0.001975 0.066735
O O14 0.548141 0.611886 0.731493
O O15 0.619971 0.849036 0.796888
O O16 0.551033 0.626484 0.282576
O O17 0.500000 0.000000 0.500000
#
# Coordination Sequence:
#
# PCOD9105416 Si02
#       8
#     2   2   2   2   2   2   2   2
#     4  11  26  43  66  93 132 173 211 267 322 383
#     4  10  22  40  64  93 132 168 213 269 312 386
#     4   9  20  42  64  95 126 172 217 258 327 386
#     4   9  19  40  70  90 130 172 212 271 323 387
#     4  11  24  39  68  94 130 173 214 265 320 386
#     4  10  20  39  64  94 126 172 208 264 332 369
#     4  11  23  43  63  96 126 171 220 256 324 385
#     4  11  24  43  61  98 132 166 219 264 321 385
#
# _framework density 22.220407000000002
#
# number of rings (size 3 to 8) (size 9 to 14) (size 15 to 20)
#    0.000    1.750    2.500    0.750    3.500    1.500 
#    0.000   13.750    0.000    0.000    0.000    0.000 
#    0.000    0.000    0.000    0.000    0.000    0.000 
#
# Total GULP energy -89350.999024 kJ/mol
# GULP energy per Si atom -5584.437439 kJ/mol
# Density = 2.216983 g / cm^3
# Si number density = 22.220407 Si / 1000 Ang^3
#
#
#
# Elastic Constant Matrix: (Units=GPa)
#
#
# Indices 1 2 3 4 5 6 
#
# 1 102.7073 21.3290 51.3781 -16.0155 5.9445 -2.7692
# 2 21.3290 46.5360 19.1798 -13.8887 0.4034 4.2626
# 3 51.3781 19.1798 87.9067 -16.8505 11.8142 -5.7974
# 4 -16.0155 -13.8887 -16.8505 34.0528 -7.4053 0.1821
# 5 5.9445 0.4034 11.8142 -7.4053 21.8273 -12.9077
# 6 -2.7692 4.2626 -5.7974 0.1821 -12.9077 47.9471
#
#
#
# Elastic Compliance Matrix: (Units=1/GPa)
#
#
# Indices 1 2 3 4 5 6 
#
# 1 0.014358 -0.002923 -0.007476 0.002121 0.001207 0.000502
# 2 -0.002923 0.026911 -0.003100 0.008917 0.003860 -0.001931
# 3 -0.007476 -0.003100 0.017815 0.002615 -0.006525 0.000231
# 4 0.002121 0.008917 0.002615 0.037977 0.012408 0.002842
# 5 0.001207 0.003860 -0.006525 0.012408 0.062440 0.015700
# 6 0.000502 -0.001931 0.000231 0.002842 0.015700 0.025301
#
#
# Mechanical properties :
#
#
# Convention : Reuss Voigt Hill
#
# Bulk Modulus (GPa) = 31.16713 46.76931 38.96822
# Shear Modulus (GPa) = 22.47243 30.44963 26.46103
#
# Velocity S-wave (km/s) = 3.18361 3.70583 3.45460
# Velocity P-wave (km/s) = 5.25077 6.27730 5.78685
#
# Compressibility (1/GPa) = 0.03208509
#
# Stress axis : x y z
#
# Youngs Moduli (GPa) = 69.64882 37.15998 56.13183
#
# Poissons Ratio (x) = 0.10861 0.41967
# Poissons Ratio (y) = 0.20357 0.17401
# Poissons Ratio (z) = 0.52072 0.11520
#
# Static dielectric constant tensor:
#      x y z
#    x 1.890700 0.011910 -0.002340 
#    y 0.011910 1.806030 -0.009140 
#    z -0.002340 -0.009140 1.821610 
# 
# From -- ./inp_files/207244.got.cif
#   From: 2010.05.17/outbox.cif.g08.bks.cpg/sg2_104_cif.got.tgz:207244.got - 2010.06.03 11:33:40.
