data_PCOD9105119
_publ_section_title
;
Structure prediction by ZEFSAII (Michael W. Deem and Ramdas Pophale) SiO2 
 PCOD9105119
Probable space group: P -1
;
_chemical_formula_sum "Si O2"
_cell_formula_units_Z 16
_cell_length_a 11.445073
_cell_length_b 14.922758
_cell_length_c 14.232153
_cell_angle_alpha 32.250448
_cell_angle_beta 123.335096
_cell_angle_gamma 144.157242
_cell_volume 683.776863
_symmetry_space_group_name_H-M "P -1"
_symmetry_group_IT_number 2
_symmetry_cell_setting 'triclinic'
loop_
_space_group_symop_operation_xyz
x,y,z
-x,-y,-z
loop_
_atom_site_type_symbol
_atom_site_label
_atom_site_fract_x
_atom_site_fract_y
_atom_site_fract_z
Si Si1 0.800004 0.949745 0.178593
Si Si2 0.542918 0.917335 0.239690
Si Si3 0.623565 0.387877 0.831428
Si Si4 0.380596 0.108779 0.304754
Si Si5 0.964775 0.723675 0.189845
Si Si6 0.554265 0.164751 0.519296
Si Si7 0.112153 0.346585 0.460923
Si Si8 0.352912 0.262026 0.976240
O O1 0.735523 0.000681 0.194412
O O2 0.568591 0.713163 0.229965
O O3 0.876895 0.836628 0.339440
O O4 0.962719 0.190997 0.962448
O O5 0.548895 0.891728 0.376034
O O6 0.308831 0.634120 0.343909
O O7 0.569963 0.140941 0.037018
O O8 0.843148 0.606943 0.672420
O O9 0.581632 0.444152 0.860619
O O10 0.501786 0.072074 0.334129
O O11 0.130173 0.819285 0.472475
O O12 0.487723 0.226351 0.349976
O O13 0.377873 0.262657 0.097106
O O14 0.818903 0.428965 0.411551
O O15 0.792994 0.716599 0.140895
O O16 0.186666 0.955325 0.142387
#
# Coordination Sequence:
#
# PCOD9105119 Si02
#       8
#     2   2   2   2   2   2   2   2
#     4  10  21  37  59  96 123 146 194 250 301 352
#     4  11  22  38  62  92 118 157 200 243 299 354
#     4  10  21  35  61  95 119 150 193 251 298 350
#     4  11  24  44  57  86 122 160 205 242 298 348
#     4  10  22  37  65  92 116 155 194 251 300 352
#     4  11  26  40  61  84 123 163 198 249 291 352
#     4  11  22  38  65  87 122 156 193 254 297 350
#     4  10  20  39  63  92 118 145 206 245 297 357
#
# _framework density 23.399445
#
# number of rings (size 3 to 8) (size 9 to 14) (size 15 to 20)
#    0.000    1.500    2.500    3.750   10.500    1.500 
#    0.000    2.500    0.000    0.000    0.000    0.000 
#    0.000    0.000    0.000    0.000    0.000    0.000 
#
# Total GULP energy -89463.014991 kJ/mol
# GULP energy per Si atom -5591.438437 kJ/mol
# Density = 2.334619 g / cm^3
# Si number density = 23.399445 Si / 1000 Ang^3
#
#
#
# Elastic Constant Matrix: (Units=GPa)
#
#
# Indices 1 2 3 4 5 6 
#
# 1 119.7324 21.4622 20.4534 7.3874 -29.3998 -20.1181
# 2 21.4622 60.9950 19.6603 25.8996 -5.0333 -21.9681
# 3 20.4534 19.6603 54.7421 16.8556 -12.7169 -12.4951
# 4 7.3874 25.8996 16.8556 19.2987 -13.4044 2.0574
# 5 -29.3998 -5.0333 -12.7169 -13.4044 31.6542 23.0965
# 6 -20.1181 -21.9681 -12.4951 2.0574 23.0965 21.4230
#
#
#
# Elastic Compliance Matrix: (Units=1/GPa)
#
#
# Indices 1 2 3 4 5 6 
#
# 1 0.010491 0.000780 -0.000922 -0.003057 0.002853 0.007332
# 2 0.000780 0.005758 -0.007151 0.015345 0.021286 -0.021957
# 3 -0.000922 -0.007151 0.023090 -0.002570 0.010173 -0.005452
# 4 -0.003057 0.015345 -0.002570 0.003935 -0.036480 0.050318
# 5 0.002853 0.021286 0.010173 -0.036480 0.007020 0.026376
# 6 0.007332 -0.021957 -0.005452 0.050318 0.026376 -0.005400
#
#
# Mechanical properties :
#
#
# Convention : Reuss Voigt Hill
#
# Bulk Modulus (GPa) = 40.40039 39.84682 40.12361
# Shear Modulus (GPa) = 73.82154 26.06808 49.94481
#
# Velocity S-wave (km/s) = 5.62289 3.34136 4.62502
# Velocity P-wave (km/s) = 7.71096 5.65262 6.76059
#
# Compressibility (1/GPa) = 0.02475223
#
# Stress axis : x y z
#
# Youngs Moduli (GPa) = 95.32232 173.67407 43.30824
#
# Poissons Ratio (x) = -0.13549 0.03994
# Poissons Ratio (y) = -0.07436 0.30971
# Poissons Ratio (z) = 0.08791 1.24198
#
# Static dielectric constant tensor:
#      x y z
#    x 1.900230 -0.042580 0.014070 
#    y -0.042580 1.888020 -0.006330 
#    z 0.014070 -0.006330 1.916290 
# 
# From -- ./inp_files/329074.got.cif
#   From: 2010.05.17/outbox.cif.g08.bks.cpg/sg2_165_cif.got.tgz:329074.got - 2010.06.03 11:33:40.
