data_PCOD9105822
_publ_section_title
;
Structure prediction by ZEFSAII (Michael W. Deem and Ramdas Pophale) SiO2 
 PCOD9105822
Probable space group: P -1
;
_chemical_formula_sum "Si O2"
_cell_formula_units_Z 16
_cell_length_a 16.051229
_cell_length_b 8.804527
_cell_length_c 13.277867
_cell_angle_alpha 110.276135
_cell_angle_beta 27.918068
_cell_angle_gamma 112.317563
_cell_volume 812.507496
_symmetry_space_group_name_H-M "P -1"
_symmetry_group_IT_number 2
_symmetry_cell_setting 'triclinic'
loop_
_space_group_symop_operation_xyz
x,y,z
-x,-y,-z
loop_
_atom_site_type_symbol
_atom_site_label
_atom_site_fract_x
_atom_site_fract_y
_atom_site_fract_z
Si Si1 0.976023 0.742112 0.709556
Si Si2 0.026329 0.087313 0.851934
Si Si3 0.464772 0.398134 0.119962
Si Si4 0.988380 0.417451 0.882490
Si Si5 0.795396 0.397030 0.894802
Si Si6 0.731256 0.359915 0.510901
Si Si7 0.302994 0.955634 0.653921
Si Si8 0.079213 0.192646 0.448142
O O1 0.838485 0.590426 0.866391
O O2 0.935206 0.767359 0.644457
O O3 0.166778 0.679823 0.505713
O O4 0.984591 0.910726 0.801090
O O5 0.048219 0.240840 0.790003
O O6 0.206920 0.087080 0.725270
O O7 0.853585 0.102971 0.109967
O O8 0.416754 0.533661 0.280260
O O9 0.288104 0.257335 0.267642
O O10 0.500000 0.500000 0.000000
O O11 0.627480 0.330199 0.986306
O O12 0.124643 0.538152 0.694807
O O13 0.802853 0.388836 0.007472
O O14 0.000000 0.500000 0.000000
O O15 0.955635 0.301274 0.665988
O O16 0.672338 0.187989 0.481797
O O17 0.500000 0.000000 0.500000
O O18 0.000000 0.000000 0.500000
#
# Coordination Sequence:
#
# PCOD9105822 Si02
#       8
#     2   2   2   2   2   2   2   2
#     4  10  20  39  66  89 123 174 211 265 326 393
#     4  10  22  39  61  91 125 166 217 270 323 377
#     4  12  24  42  70  99 129 173 226 271 328 401
#     4  11  21  42  66  91 132 177 213 268 331 382
#     4  11  24  42  66  96 130 173 222 266 326 402
#     4  10  22  41  64  94 129 169 221 263 322 401
#     4  10  22  39  62  91 126 167 220 267 315 387
#     4  12  24  43  69  96 134 169 215 277 340 391
#
# _framework density 19.692125999999998
#
# number of rings (size 3 to 8) (size 9 to 14) (size 15 to 20)
#    0.000    1.250    5.000    1.875    3.500    0.500 
#    2.250    1.250    0.000    0.000    0.000    0.000 
#    0.000    0.000    0.000    0.000    0.000    0.000 
#
# Total GULP energy -89182.975498 kJ/mol
# GULP energy per Si atom -5573.935969 kJ/mol
# Density = 1.964731 g / cm^3
# Si number density = 19.692126 Si / 1000 Ang^3
#
#
#
# Elastic Constant Matrix: (Units=GPa)
#
#
# Indices 1 2 3 4 5 6 
#
# 1 171.0796 47.6606 46.2988 -14.8243 -20.0525 0.1718
# 2 47.6606 105.0860 13.7672 -3.4662 -16.8962 -3.4030
# 3 46.2988 13.7672 54.3769 -0.3863 -10.6839 10.1051
# 4 -14.8243 -3.4662 -0.3863 18.6799 11.8451 4.7358
# 5 -20.0525 -16.8962 -10.6839 11.8451 36.7849 -5.0829
# 6 0.1718 -3.4030 10.1051 4.7358 -5.0829 29.0308
#
#
#
# Elastic Compliance Matrix: (Units=1/GPa)
#
#
# Indices 1 2 3 4 5 6 
#
# 1 0.009176 -0.003043 -0.007273 0.006659 -0.000522 0.000943
# 2 -0.003043 0.011742 0.000126 -0.004628 0.005690 0.003102
# 3 -0.007273 0.000126 0.026847 -0.006469 0.004956 -0.007364
# 4 0.006659 -0.004628 -0.006469 0.079967 -0.028383 -0.016345
# 5 -0.000522 0.005690 0.004956 -0.028383 0.041594 0.010858
# 6 0.000943 0.003102 -0.007364 -0.016345 0.010858 0.041935
#
#
# Mechanical properties :
#
#
# Convention : Reuss Voigt Hill
#
# Bulk Modulus (GPa) = 36.51374 60.66619 48.58996
# Shear Modulus (GPa) = 20.76684 31.75353 26.26019
#
# Velocity S-wave (km/s) = 3.25095 4.01995 3.65572
# Velocity P-wave (km/s) = 5.71613 7.24023 6.52284
#
# Compressibility (1/GPa) = 0.02738695
#
# Stress axis : x y z
#
# Youngs Moduli (GPa) = 108.97976 85.16371 37.24806
#
# Poissons Ratio (x) = 0.25912 0.27090
# Poissons Ratio (y) = 0.33158 -0.00471
# Poissons Ratio (z) = 0.79261 -0.01077
#
# Static dielectric constant tensor:
#      x y z
#    x 1.766800 0.010450 -0.013920 
#    y 0.010450 1.709990 -0.019080 
#    z -0.013920 -0.019080 1.706490 
# 
# From -- ./inp_files/348580.got.cif
#   From: 2010.05.17/outbox.cif.g08.bks.cpg/sg2_175_cif.got.tgz:348580.got - 2010.06.03 11:33:40.
