data_PCOD9105835
_publ_section_title
;
Structure prediction by ZEFSAII (Michael W. Deem and Ramdas Pophale) SiO2 
 PCOD9105835
Probable space group: P -1
;
_chemical_formula_sum "Si O2"
_cell_formula_units_Z 16
_cell_length_a 21.822859
_cell_length_b 12.262209
_cell_length_c 14.546170
_cell_angle_alpha 36.840132
_cell_angle_beta 27.624338
_cell_angle_gamma 23.139684
_cell_volume 707.034866
_symmetry_space_group_name_H-M "P -1"
_symmetry_group_IT_number 2
_symmetry_cell_setting 'triclinic'
loop_
_space_group_symop_operation_xyz
x,y,z
-x,-y,-z
loop_
_atom_site_type_symbol
_atom_site_label
_atom_site_fract_x
_atom_site_fract_y
_atom_site_fract_z
Si Si1 0.571293 0.997979 0.139169
Si Si2 0.768670 0.895939 0.442316
Si Si3 0.952106 0.426824 0.965686
Si Si4 0.612775 0.070490 0.323379
Si Si5 0.300645 0.648128 0.722396
Si Si6 0.983297 0.670183 0.586201
Si Si7 0.541452 0.165190 0.865295
Si Si8 0.618071 0.543762 0.771920
O O1 0.479629 0.188713 0.220848
O O2 0.420024 0.987138 0.328945
O O3 0.555233 0.141351 0.973698
O O4 0.797503 0.688633 0.062786
O O5 0.682105 0.015074 0.373254
O O6 0.826342 0.034966 0.306019
O O7 0.935872 0.562474 0.437934
O O8 0.967640 0.558740 0.773033
O O9 0.834963 0.366251 0.133508
O O10 0.183764 0.132794 0.871408
O O11 0.447748 0.383874 0.295560
O O12 0.500000 0.000000 0.500000
O O13 0.500000 0.500000 0.500000
O O14 0.380531 0.470445 0.830265
O O15 0.146011 0.660612 0.390693
O O16 0.762482 0.978888 0.656434
O O17 0.500000 0.000000 0.000000
O O18 0.500000 0.500000 0.000000
#
# Coordination Sequence:
#
# PCOD9105835 Si02
#       8
#     2   2   2   2   2   2   2   2
#     4  10  20  41  62  90 124 163 205 252 319 378
#     4  10  21  40  65  93 128 162 212 256 315 363
#     4  10  20  39  66  90 121 164 208 251 317 365
#     4  11  21  41  65  85 122 172 206 256 309 369
#     4  12  23  39  65  99 134 152 212 269 299 376
#     4   9  20  41  63  85 127 166 205 247 316 379
#     4  11  21  40  65  89 126 171 200 250 320 371
#     4  11  24  42  60  91 128 157 211 266 302 367
#
# _framework density 22.629718
#
# number of rings (size 3 to 8) (size 9 to 14) (size 15 to 20)
#    0.000    1.500    7.500    0.000    1.750    3.500 
#    0.000    8.125    0.000    0.000    0.000    0.000 
#    0.000    0.000    0.000    0.000    0.000    0.000 
#
# Total GULP energy -89279.004773 kJ/mol
# GULP energy per Si atom -5579.937798 kJ/mol
# Density = 2.257821 g / cm^3
# Si number density = 22.629718 Si / 1000 Ang^3
#
#
#
# Elastic Constant Matrix: (Units=GPa)
#
#
# Indices 1 2 3 4 5 6 
#
# 1 54.2908 -7.0929 11.1444 1.9454 0.8225 -7.5858
# 2 -7.0929 35.1758 11.9982 10.3142 -6.1716 -0.3974
# 3 11.1444 11.9982 125.1204 7.3285 -21.7976 0.2217
# 4 1.9454 10.3142 7.3285 47.9088 -2.6462 -2.1535
# 5 0.8225 -6.1716 -21.7976 -2.6462 33.3833 -2.8845
# 6 -7.5858 -0.3974 0.2217 -2.1535 -2.8845 24.8932
#
#
#
# Elastic Compliance Matrix: (Units=1/GPa)
#
#
# Indices 1 2 3 4 5 6 
#
# 1 0.020522 0.005307 -0.002382 -0.001371 -0.000656 0.006165
# 2 0.005307 0.033033 -0.002568 -0.006624 0.003952 0.002052
# 3 -0.002382 -0.002568 0.009475 -0.000495 0.005711 -0.000232
# 4 -0.001371 -0.006624 -0.000495 0.022519 0.000399 0.001475
# 5 -0.000656 0.003952 0.005711 0.000399 0.034798 0.003879
# 6 0.006165 0.002052 -0.000232 0.001475 0.003879 0.042662
#
#
# Mechanical properties :
#
#
# Convention : Reuss Voigt Hill
#
# Bulk Modulus (GPa) = 15.68727 27.40960 21.54843
# Shear Modulus (GPa) = 27.24169 34.47289 30.85729
#
# Velocity S-wave (km/s) = 3.47335 3.90724 3.69667
# Velocity P-wave (km/s) = 4.79924 5.70034 5.26909
#
# Compressibility (1/GPa) = 0.06374594
#
# Stress axis : x y z
#
# Youngs Moduli (GPa) = 48.72812 30.27251 105.54038
#
# Poissons Ratio (x) = -0.16066 0.25136
# Poissons Ratio (y) = -0.25860 0.27098
# Poissons Ratio (z) = 0.11605 0.07773
#
# Static dielectric constant tensor:
#      x y z
#    x 1.889570 0.019530 -0.007370 
#    y 0.019530 1.983260 -0.113510 
#    z -0.007370 -0.113510 1.986610 
# 
# From -- ./inp_files/179373.got.cif
#   From: 2010.05.17/outbox.cif.g08.bks.cpg/sg2_90_cif.got.tgz:179373.got - 2010.06.03 11:33:40.
