data_PCOD9105282
_publ_section_title
;
Structure prediction by ZEFSAII (Michael W. Deem and Ramdas Pophale) SiO2 
 PCOD9105282
Probable space group: P -1
;
_chemical_formula_sum "Si O2"
_cell_formula_units_Z 14
_cell_length_a 6.801284
_cell_length_b 12.888076
_cell_length_c 11.787661
_cell_angle_alpha 64.189982
_cell_angle_beta 127.438168
_cell_angle_gamma 128.322401
_cell_volume 640.803632
_symmetry_space_group_name_H-M "P -1"
_symmetry_group_IT_number 2
_symmetry_cell_setting 'triclinic'
loop_
_space_group_symop_operation_xyz
x,y,z
-x,-y,-z
loop_
_atom_site_type_symbol
_atom_site_label
_atom_site_fract_x
_atom_site_fract_y
_atom_site_fract_z
Si Si1 0.715746 0.003271 0.666828
Si Si2 0.793042 0.307660 0.838432
Si Si3 0.630356 0.365193 0.992165
Si Si4 0.721030 0.288899 0.304388
Si Si5 0.183680 0.256363 0.612453
Si Si6 0.273181 0.464942 0.744366
Si Si7 0.980965 0.130701 0.911857
O O1 0.578812 0.849663 0.725928
O O2 0.500000 0.000000 0.500000
O O3 0.748006 0.088060 0.749788
O O4 0.023549 0.103158 0.673752
O O5 0.787784 0.361736 0.935470
O O6 0.501241 0.285665 0.689460
O O7 0.853474 0.185431 0.935166
O O8 0.029446 0.393467 0.787516
O O9 0.563433 0.485152 0.895519
O O10 0.302893 0.240253 0.938273
O O11 0.755224 0.347342 0.161695
O O12 0.708452 0.394614 0.335013
O O13 0.982474 0.265564 0.440969
O O14 0.212647 0.368317 0.661496
O O15 0.000000 0.000000 0.000000
#
# Coordination Sequence:
#
# PCOD9105282 Si02
#       7
#     2   2   2   2   2   2   2
#     4  10  20  39  64  88 121 154 202 252 298 356
#     4  10  21  39  65  84 123 163 202 245 300 365
#     4  10  21  39  62  91 122 159 204 248 299 358
#     4  11  22  37  64  94 124 157 205 253 299 356
#     4  10  21  43  64  87 121 166 202 246 305 360
#     4  10  21  40  66  86 122 168 199 248 303 354
#     4  11  20  40  64  88 117 164 202 244 307 361
#
# _framework density 21.847567000000002
#
# number of rings (size 3 to 8) (size 9 to 14) (size 15 to 20)
#    0.000    1.714    5.714    0.857    0.000    1.714 
#    0.000    8.571    6.286    0.000    0.000    0.000 
#    0.000    0.000    0.000    0.000    0.000    0.000 
#
# Total GULP energy -77960.556676 kJ/mol
# GULP energy per Si atom -5568.611191 kJ/mol
# Density = 2.179784 g / cm^3
# Si number density = 21.847567 Si / 1000 Ang^3
#
#
#
# Elastic Constant Matrix: (Units=GPa)
#
#
# Indices 1 2 3 4 5 6 
#
# 1 131.3667 34.3403 29.1589 4.9903 24.9601 -6.1255
# 2 34.3403 74.7324 3.2751 0.9890 17.2506 -3.5957
# 3 29.1589 3.2751 102.5446 8.8837 17.1100 -1.2096
# 4 4.9903 0.9890 8.8837 34.2008 -4.7744 6.0176
# 5 24.9601 17.2506 17.1100 -4.7744 24.7633 -1.7945
# 6 -6.1255 -3.5957 -1.2096 6.0176 -1.7945 21.9319
#
#
#
# Elastic Compliance Matrix: (Units=1/GPa)
#
#
# Indices 1 2 3 4 5 6 
#
# 1 0.010330 -0.002692 -0.001258 -0.002650 -0.008002 0.002447
# 2 -0.002692 0.017254 0.002352 -0.002648 -0.011297 0.002009
# 3 -0.001258 0.002352 0.012020 -0.004533 -0.009466 0.001167
# 4 -0.002650 -0.002648 -0.004533 0.034498 0.013591 -0.009778
# 5 -0.008002 -0.011297 -0.009466 0.013591 0.065261 -0.002998
# 6 0.002447 0.002009 0.001167 -0.009778 -0.002998 0.049110
#
#
# Mechanical properties :
#
#
# Convention : Reuss Voigt Hill
#
# Bulk Modulus (GPa) = 27.46499 49.13246 38.29873
# Shear Modulus (GPa) = 24.53328 32.30382 28.41855
#
# Velocity S-wave (km/s) = 3.35465 3.84943 3.61052
# Velocity P-wave (km/s) = 5.25389 6.50346 5.91179
#
# Compressibility (1/GPa) = 0.03640998
#
# Stress axis : x y z
#
# Youngs Moduli (GPa) = 96.80252 57.95672 83.19264
#
# Poissons Ratio (x) = 0.15601 0.10465
# Poissons Ratio (y) = 0.26058 -0.19570
# Poissons Ratio (z) = 0.12177 -0.13633
#
# Static dielectric constant tensor:
#      x y z
#    x 1.767560 0.009780 -0.014350 
#    y 0.009780 1.909230 -0.015930 
#    z -0.014350 -0.015930 1.892830 
# 
# From -- ./inp_files/72255.got.cif
#   From: 2010.05.17/outbox.cif.g08.bks.cpg/sg2_37_cif.got.tgz:72255.got - 2010.06.03 11:33:40.
