data_PCOD9105332
_publ_section_title
;
Structure prediction by ZEFSAII (Michael W. Deem and Ramdas Pophale) SiO2 
 PCOD9105332
Probable space group: P -1
;
_chemical_formula_sum "Si O2"
_cell_formula_units_Z 14
_cell_length_a 13.806212
_cell_length_b 9.310557
_cell_length_c 9.341368
_cell_angle_alpha 130.786353
_cell_angle_beta 128.892192
_cell_angle_gamma 55.471304
_cell_volume 682.162298
_symmetry_space_group_name_H-M "P -1"
_symmetry_group_IT_number 2
_symmetry_cell_setting 'triclinic'
loop_
_space_group_symop_operation_xyz
x,y,z
-x,-y,-z
loop_
_atom_site_type_symbol
_atom_site_label
_atom_site_fract_x
_atom_site_fract_y
_atom_site_fract_z
Si Si1 0.954401 0.063090 0.157709
Si Si2 0.680894 0.364686 0.131471
Si Si3 0.372782 0.757724 0.676517
Si Si4 0.480593 0.235503 0.656632
Si Si5 0.112035 0.301152 0.975456
Si Si6 0.887078 0.925298 0.429848
Si Si7 0.611623 0.656133 0.674939
O O1 0.830318 0.251670 0.172897
O O2 0.068004 0.106420 0.387248
O O3 0.922453 0.875692 0.084307
O O4 0.000000 0.000000 0.000000
O O5 0.643162 0.288198 0.201350
O O6 0.637664 0.604399 0.264921
O O7 0.600647 0.287987 0.882864
O O8 0.515748 0.773361 0.783295
O O9 0.362929 0.577606 0.447527
O O10 0.251562 0.927426 0.626422
O O11 0.457852 0.297572 0.511599
O O12 0.500000 0.000000 0.500000
O O13 0.124081 0.259730 0.790560
O O14 0.249445 0.306164 0.167666
O O15 0.000000 0.500000 0.000000
O O16 0.000000 0.000000 0.500000
#
# Coordination Sequence:
#
# PCOD9105332 Si02
#       7
#     2   2   2   2   2   2   2
#     4  11  24  43  67  90 131 181 224 264 338 403
#     4  10  21  42  63  90 129 175 213 266 338 395
#     4  10  20  40  65  92 122 169 213 260 331 390
#     4  10  22  39  61  91 128 168 210 268 332 395
#     4  11  23  42  66  97 128 168 221 281 329 384
#     4  10  20  39  64  90 125 169 214 263 328 392
#     4  10  22  38  65  92 126 160 217 266 321 395
#
# _framework density 20.522974000000001
#
# number of rings (size 3 to 8) (size 9 to 14) (size 15 to 20)
#    0.000    1.714    2.857    2.571    4.000    0.571 
#    5.143    0.714    0.000    0.000    0.000    0.000 
#    0.000    0.000    0.000    0.000    0.000    0.000 
#
# Total GULP energy -77979.549354 kJ/mol
# GULP energy per Si atom -5569.967811 kJ/mol
# Density = 2.047626 g / cm^3
# Si number density = 20.522974 Si / 1000 Ang^3
#
#
#
# Elastic Constant Matrix: (Units=GPa)
#
#
# Indices 1 2 3 4 5 6 
#
# 1 79.5916 44.0614 43.7628 -4.2550 -16.7805 -25.7730
# 2 44.0614 130.7470 62.4222 13.8674 -9.1974 -42.9411
# 3 43.7628 62.4222 136.0566 -14.5483 -23.0844 -8.5020
# 4 -4.2550 13.8674 -14.5483 46.0021 -3.0727 -7.1915
# 5 -16.7805 -9.1974 -23.0844 -3.0727 30.3510 4.3240
# 6 -25.7730 -42.9411 -8.5020 -7.1915 4.3240 30.1774
#
#
#
# Elastic Compliance Matrix: (Units=1/GPa)
#
#
# Indices 1 2 3 4 5 6 
#
# 1 0.022607 0.001482 -0.005231 0.003527 0.006498 0.019852
# 2 0.001482 0.021447 -0.009932 -0.005351 -0.004824 0.028402
# 3 -0.005231 -0.009932 0.014594 0.005408 0.007785 -0.014317
# 4 0.003527 -0.005351 0.005408 0.026183 0.006780 0.002189
# 5 0.006498 -0.004824 0.007785 0.006780 0.042192 -0.003551
# 6 0.019852 0.028402 -0.014317 0.002189 -0.003551 0.087504
#
#
# Mechanical properties :
#
#
# Convention : Reuss Voigt Hill
#
# Bulk Modulus (GPa) = 31.96435 71.87643 51.92039
# Shear Modulus (GPa) = 19.81618 34.38268 27.09943
#
# Velocity S-wave (km/s) = 3.11072 4.09752 3.63773
# Velocity P-wave (km/s) = 5.33955 7.58186 6.55727
#
# Compressibility (1/GPa) = 0.03128485
#
# Stress axis : x y z
#
# Youngs Moduli (GPa) = 44.23371 46.62622 68.52146
#
# Poissons Ratio (x) = -0.06911 0.35846
# Poissons Ratio (y) = -0.06556 0.68059
# Poissons Ratio (z) = 0.23140 0.46311
#
# Static dielectric constant tensor:
#      x y z
#    x 1.818720 -0.020510 0.003410 
#    y -0.020510 1.804590 0.062040 
#    z 0.003410 0.062040 1.765050 
# 
# From -- ./inp_files/246138.got.cif
#   From: 2010.05.17/outbox.cif.g08.bks.cpg/sg2_124_cif.got.tgz:246138.got - 2010.06.03 11:33:40.
