data_PCOD9105915
_publ_section_title
;
Structure prediction by ZEFSAII (Michael W. Deem and Ramdas Pophale) SiO2 
 PCOD9105915
Probable space group: P -1
;
_chemical_formula_sum "Si O2"
_cell_formula_units_Z 16
_cell_length_a 16.298991
_cell_length_b 25.487012
_cell_length_c 18.837239
_cell_angle_alpha 161.028487
_cell_angle_beta 150.507146
_cell_angle_gamma 18.619588
_cell_volume 786.823730
_symmetry_space_group_name_H-M "P -1"
_symmetry_group_IT_number 2
_symmetry_cell_setting 'triclinic'
loop_
_space_group_symop_operation_xyz
x,y,z
-x,-y,-z
loop_
_atom_site_type_symbol
_atom_site_label
_atom_site_fract_x
_atom_site_fract_y
_atom_site_fract_z
Si Si1 0.447139 0.388405 0.213399
Si Si2 0.831282 0.133018 0.303126
Si Si3 0.656889 0.482125 0.980819
Si Si4 0.145712 0.487943 0.495867
Si Si5 0.412716 0.070602 0.284098
Si Si6 0.604244 0.217121 0.693702
Si Si7 0.212555 0.161818 0.020161
Si Si8 0.305682 0.721131 0.889235
O O1 0.681553 0.264867 0.285346
O O2 0.220473 0.679359 0.442077
O O3 0.521559 0.361631 0.154343
O O4 0.436143 0.203821 0.977030
O O5 0.139761 0.911159 0.236813
O O6 0.754689 0.020575 0.137622
O O7 0.597541 0.341532 0.779934
O O8 0.449458 0.680979 0.016999
O O9 0.616756 0.596781 0.174252
O O10 0.964795 0.289401 0.947137
O O11 0.307217 0.258611 0.380509
O O12 0.115856 0.392871 0.285096
O O13 0.301597 0.531187 0.649492
O O14 0.862641 0.755538 0.658318
O O15 0.593850 0.044966 0.437335
O O16 0.500000 0.000000 0.000000
O O17 0.000000 0.000000 0.000000
#
# Coordination Sequence:
#
# PCOD9105915 Si02
#       8
#     2   2   2   2   2   2   2   2
#     4  11  23  42  62  92 133 170 216 256 334 393
#     4  10  23  42  66  92 125 177 216 262 328 394
#     4  10  22  39  65  99 129 167 222 264 323 389
#     4  11  22  38  64  97 124 166 221 263 318 380
#     4  11  21  38  65  94 125 165 215 271 309 380
#     4  10  20  39  66  94 125 166 221 271 312 381
#     4  11  22  43  67  95 130 172 218 271 318 385
#     4  12  23  40  63  98 134 172 206 271 334 382
#
# _framework density 20.334921999999999
#
# number of rings (size 3 to 8) (size 9 to 14) (size 15 to 20)
#    0.000    1.250    5.000    1.500    0.000    0.500 
#    2.250    8.125    0.000    0.000    0.000    0.000 
#    0.000    0.000    0.000    0.000    0.000    0.000 
#
# Total GULP energy -89157.650938 kJ/mol
# GULP energy per Si atom -5572.353184 kJ/mol
# Density = 2.028864 g / cm^3
# Si number density = 20.334922 Si / 1000 Ang^3
#
#
#
# Elastic Constant Matrix: (Units=GPa)
#
#
# Indices 1 2 3 4 5 6 
#
# 1 53.1090 32.0081 5.5426 -6.8291 7.4949 -0.1674
# 2 32.0081 89.3150 -1.2480 -10.9993 2.9844 -4.7584
# 3 5.5426 -1.2480 107.3161 -10.9267 4.1672 -4.4109
# 4 -6.8291 -10.9993 -10.9267 24.4788 0.3970 0.0561
# 5 7.4949 2.9844 4.1672 0.3970 22.3078 -5.0791
# 6 -0.1674 -4.7584 -4.4109 0.0561 -5.0791 27.9080
#
#
#
# Elastic Compliance Matrix: (Units=1/GPa)
#
#
# Indices 1 2 3 4 5 6 
#
# 1 0.025702 -0.008749 -0.000938 0.002957 -0.008014 -0.002950
# 2 -0.008749 0.015056 0.001189 0.004828 0.001284 0.002926
# 3 -0.000938 0.001189 0.009982 0.004748 -0.001451 0.001501
# 4 0.002957 0.004828 0.004748 0.046014 -0.003134 0.000929
# 5 -0.008014 0.001284 -0.001451 -0.003134 0.049724 0.008997
# 6 -0.002950 0.002926 0.001501 0.000929 0.008997 0.038186
#
#
# Mechanical properties :
#
#
# Convention : Reuss Voigt Hill
#
# Bulk Modulus (GPa) = 29.63577 35.81616 32.72596
# Shear Modulus (GPa) = 23.48428 29.16809 26.32619
#
# Velocity S-wave (km/s) = 3.40203 3.79144 3.60200
# Velocity P-wave (km/s) = 5.48062 6.06778 5.78166
#
# Compressibility (1/GPa) = 0.03374301
#
# Stress axis : x y z
#
# Youngs Moduli (GPa) = 38.90739 66.41883 100.17972
#
# Poissons Ratio (x) = 0.58112 0.09399
# Poissons Ratio (y) = 0.34041 -0.11911
# Poissons Ratio (z) = 0.03650 -0.07897
#
# Static dielectric constant tensor:
#      x y z
#    x 1.730410 -0.002340 -0.011230 
#    y -0.002340 1.756970 0.037580 
#    z -0.011230 0.037580 1.757120 
# 
# From -- ./inp_files/218335.got.cif
#   From: 2010.05.17/outbox.cif.g08.bks.cpg/sg2_110_cif.got.tgz:218335.got - 2010.06.03 11:33:40.
