data_PCOD9105588
_publ_section_title
;
Structure prediction by ZEFSAII (Michael W. Deem and Ramdas Pophale) SiO2 
 PCOD9105588
Probable space group: P -1
;
_chemical_formula_sum "Si O2"
_cell_formula_units_Z 14
_cell_length_a 11.236444
_cell_length_b 7.922483
_cell_length_c 10.735071
_cell_angle_alpha 111.617513
_cell_angle_beta 139.254263
_cell_angle_gamma 60.687784
_cell_volume 543.883433
_symmetry_space_group_name_H-M "P -1"
_symmetry_group_IT_number 2
_symmetry_cell_setting 'triclinic'
loop_
_space_group_symop_operation_xyz
x,y,z
-x,-y,-z
loop_
_atom_site_type_symbol
_atom_site_label
_atom_site_fract_x
_atom_site_fract_y
_atom_site_fract_z
Si Si1 0.838217 0.910702 0.226209
Si Si2 0.464021 0.268068 0.471009
Si Si3 0.238549 0.301720 0.538759
Si Si4 0.718896 0.113491 0.430119
Si Si5 0.800604 0.282994 0.918583
Si Si6 0.198145 0.468982 0.795259
Si Si7 0.193306 0.102626 0.076732
O O1 0.851333 0.718101 0.256191
O O2 0.059542 0.897819 0.373479
O O3 0.721180 0.082085 0.274278
O O4 0.741415 0.905797 0.015654
O O5 0.311167 0.368083 0.486750
O O6 0.546864 0.294095 0.405244
O O7 0.658410 0.247081 0.695029
O O8 0.352923 0.120372 0.303410
O O9 0.310656 0.403694 0.737530
O O10 0.006322 0.370705 0.361450
O O11 0.297189 0.075615 0.561273
O O12 0.852266 0.092276 0.993111
O O13 0.723627 0.457557 0.001390
O O14 0.995897 0.278342 0.001564
#
# Coordination Sequence:
#
# PCOD9105588 Si02
#       7
#     2   2   2   2   2   2   2
#     4  10  22  39  61  90 128 163 196 248 311 364
#     4  12  23  40  67  94 117 156 217 258 287 356
#     4  10  20  39  65  91 120 161 208 250 296 360
#     4  10  20  39  65  91 120 161 208 250 296 360
#     4  11  22  39  65  91 119 161 207 251 299 358
#     4  10  22  39  61  90 128 163 196 248 311 364
#     4  11  22  39  65  91 119 161 207 251 299 358
#
# _framework density 25.74081
#
# number of rings (size 3 to 8) (size 9 to 14) (size 15 to 20)
#    0.000    1.429    2.857    3.429    0.000    2.857 
#    0.000    2.857    0.000    0.000    0.000    0.000 
#    0.000    0.000    0.000    0.000    0.000    0.000 
#
# Total GULP energy -78060.971926 kJ/mol
# GULP energy per Si atom -5575.783709 kJ/mol
# Density = 2.568222 g / cm^3
# Si number density = 25.740810 Si / 1000 Ang^3
#
#
#
# Elastic Constant Matrix: (Units=GPa)
#
#
# Indices 1 2 3 4 5 6 
#
# 1 129.2443 15.7829 52.6714 24.9342 -19.9108 -25.1513
# 2 15.7829 25.2192 24.4280 4.3209 -7.8094 -2.0667
# 3 52.6714 24.4280 136.8832 36.1722 -27.5227 -21.3262
# 4 24.9342 4.3209 36.1722 22.0394 -9.6867 -11.5526
# 5 -19.9108 -7.8094 -27.5227 -9.6867 55.7942 4.7121
# 6 -25.1513 -2.0667 -21.3262 -11.5526 4.7121 23.8004
#
#
#
# Elastic Compliance Matrix: (Units=1/GPa)
#
#
# Indices 1 2 3 4 5 6 
#
# 1 0.011502 -0.004683 -0.000236 -0.006933 0.001464 0.007882
# 2 -0.004683 0.051293 -0.010519 0.010997 0.002660 -0.005109
# 3 -0.000236 -0.010519 0.015699 -0.021323 0.002309 0.002097
# 4 -0.006933 0.010997 -0.021323 0.099283 0.003931 0.021935
# 5 0.001464 0.002660 0.002309 0.003931 0.020496 0.001697
# 6 0.007882 -0.005109 0.002097 0.021935 0.001697 0.062092
#
#
# Mechanical properties :
#
#
# Convention : Reuss Voigt Hill
#
# Bulk Modulus (GPa) = 21.00015 53.01237 37.00626
# Shear Modulus (GPa) = 16.28064 33.55776 24.91920
#
# Velocity S-wave (km/s) = 2.51765 3.61457 3.11478
# Velocity P-wave (km/s) = 4.07768 6.16924 5.22910
#
# Compressibility (1/GPa) = 0.04761871
#
# Stress axis : x y z
#
# Youngs Moduli (GPa) = 86.94061 19.49595 63.69787
#
# Poissons Ratio (x) = 0.09130 0.01503
# Poissons Ratio (y) = 0.40713 0.67002
# Poissons Ratio (z) = 0.02051 0.20507
#
# Static dielectric constant tensor:
#      x y z
#    x 2.081370 -0.062670 -0.028760 
#    y -0.062670 2.083870 0.023290 
#    z -0.028760 0.023290 1.972810 
# 
# From -- ./inp_files/418315.got.cif
#   From: 2010.05.17/outbox.cif.g08.bks.cpg/sg2_210_cif.got.tgz:418315.got - 2010.06.03 11:33:40.
