data_PCOD9105911
_publ_section_title
;
Structure prediction by ZEFSAII (Michael W. Deem and Ramdas Pophale) SiO2 
 PCOD9105911
Probable space group: P -1
;
_chemical_formula_sum "Si O2"
_cell_formula_units_Z 16
_cell_length_a 12.080209
_cell_length_b 9.520827
_cell_length_c 8.856785
_cell_angle_alpha 101.593450
_cell_angle_beta 115.991332
_cell_angle_gamma 47.433708
_cell_volume 667.303094
_symmetry_space_group_name_H-M "P -1"
_symmetry_group_IT_number 2
_symmetry_cell_setting 'triclinic'
loop_
_space_group_symop_operation_xyz
x,y,z
-x,-y,-z
loop_
_atom_site_type_symbol
_atom_site_label
_atom_site_fract_x
_atom_site_fract_y
_atom_site_fract_z
Si Si1 0.830153 0.396073 0.633973
Si Si2 0.919719 0.270651 0.217712
Si Si3 0.368266 0.296797 0.833538
Si Si4 0.800422 0.861743 0.221882
Si Si5 0.204237 0.909128 0.489232
Si Si6 0.390657 0.533557 0.082872
Si Si7 0.031101 0.307708 0.998335
Si Si8 0.514849 0.289045 0.625676
O O1 0.805390 0.252822 0.536843
O O2 0.659731 0.603473 0.537379
O O3 0.004577 0.323889 0.662798
O O4 0.871636 0.361672 0.830302
O O5 0.970902 0.903951 0.642617
O O6 0.793978 0.276734 0.039665
O O7 0.034162 0.263288 0.163455
O O8 0.795385 0.482376 0.264871
O O9 0.316196 0.175537 0.804422
O O10 0.498542 0.219175 0.760545
O O11 0.402970 0.351712 0.025819
O O12 0.814761 0.858857 0.048895
O O13 0.763079 0.036690 0.322821
O O14 0.339949 0.852255 0.435412
O O15 0.455064 0.567567 0.273694
O O16 0.500000 0.500000 0.000000
O O17 0.000000 0.500000 0.000000
#
# Coordination Sequence:
#
# PCOD9105911 Si02
#       8
#     2   2   2   2   2   2   2   2
#     4  10  24  41  65  90 130 167 216 257 322 379
#     4  10  20  39  66  94 120 162 220 261 308 372
#     4   9  20  41  66  92 121 167 220 257 314 380
#     4  10  23  41  64  94 128 163 214 265 313 381
#     4  12  25  39  62  99 132 166 208 269 324 367
#     4   8  18  36  63  95 117 162 211 260 309 373
#     4  10  20  40  68  94 118 166 215 258 310 377
#     4  11  22  41  65  94 128 171 209 265 320 387
#
# _framework density 23.977111000000001
#
# number of rings (size 3 to 8) (size 9 to 14) (size 15 to 20)
#    1.500    0.500    1.250    2.250    0.000    5.500 
#    0.000    1.250    0.000    2.250    0.000    0.000 
#    0.000    0.000    0.000    0.000    0.000    0.000 
#
# Total GULP energy -89281.836006 kJ/mol
# GULP energy per Si atom -5580.114750 kJ/mol
# Density = 2.392254 g / cm^3
# Si number density = 23.977111 Si / 1000 Ang^3
#
#
#
# Elastic Constant Matrix: (Units=GPa)
#
#
# Indices 1 2 3 4 5 6 
#
# 1 112.2380 16.7020 19.3064 11.8331 1.5654 -22.3466
# 2 16.7020 45.8728 31.2067 -5.4743 -4.1765 -8.0069
# 3 19.3064 31.2067 60.4361 15.0581 0.6143 -6.8975
# 4 11.8331 -5.4743 15.0581 41.4563 -3.9834 -4.7737
# 5 1.5654 -4.1765 0.6143 -3.9834 40.1701 16.8165
# 6 -22.3466 -8.0069 -6.8975 -4.7737 16.8165 22.6281
#
#
#
# Elastic Compliance Matrix: (Units=1/GPa)
#
#
# Indices 1 2 3 4 5 6 
#
# 1 0.013341 -0.002991 0.000175 -0.003030 -0.008653 0.017962
# 2 -0.002991 0.043074 -0.024924 0.016587 0.004634 0.004746
# 3 0.000175 -0.024924 0.033652 -0.015824 -0.005747 0.002545
# 4 -0.003030 0.016587 -0.015824 0.033566 0.004737 0.001614
# 5 -0.008653 0.004634 -0.005747 0.004737 0.042789 -0.039458
# 6 0.017962 0.004746 0.002545 0.001614 -0.039458 0.094051
#
#
# Mechanical properties :
#
#
# Convention : Reuss Voigt Hill
#
# Bulk Modulus (GPa) = 28.91276 39.21969 34.06622
# Shear Modulus (GPa) = 15.26810 30.93967 23.10388
#
# Velocity S-wave (km/s) = 2.52618 3.59609 3.10753
# Velocity P-wave (km/s) = 4.53800 5.79958 5.20714
#
# Compressibility (1/GPa) = 0.03458681
#
# Stress axis : x y z
#
# Youngs Moduli (GPa) = 74.95779 23.21601 29.71621
#
# Poissons Ratio (x) = 0.06944 -0.00521
# Poissons Ratio (y) = 0.22419 0.74065
# Poissons Ratio (z) = -0.01315 0.57864
#
# Static dielectric constant tensor:
#      x y z
#    x 1.955520 -0.046080 -0.013470 
#    y -0.046080 1.928990 0.008580 
#    z -0.013470 0.008580 1.953490 
# 
# From -- ./inp_files/422054.got.cif
#   From: 2010.05.17/outbox.cif.g08.bks.cpg/sg2_212_cif.got.tgz:422054.got - 2010.06.03 11:33:40.
