data_PCOD9105891
_publ_section_title
;
Structure prediction by ZEFSAII (Michael W. Deem and Ramdas Pophale) SiO2 
 PCOD9105891
Probable space group: P -1
;
_chemical_formula_sum "Si O2"
_cell_formula_units_Z 16
_cell_length_a 7.059971
_cell_length_b 8.599481
_cell_length_c 13.486362
_cell_angle_alpha 98.425009
_cell_angle_beta 99.864504
_cell_angle_gamma 52.088486
_cell_volume 635.541949
_symmetry_space_group_name_H-M "P -1"
_symmetry_group_IT_number 2
_symmetry_cell_setting 'triclinic'
loop_
_space_group_symop_operation_xyz
x,y,z
-x,-y,-z
loop_
_atom_site_type_symbol
_atom_site_label
_atom_site_fract_x
_atom_site_fract_y
_atom_site_fract_z
Si Si1 0.377963 0.813031 0.005608
Si Si2 0.398727 0.036366 0.844501
Si Si3 0.089138 0.529774 0.189265
Si Si4 0.986437 0.335359 0.592907
Si Si5 0.588634 0.446466 0.264050
Si Si6 0.166871 0.609486 0.927108
Si Si7 0.722485 0.084425 0.363840
Si Si8 0.595540 0.673426 0.459382
O O1 0.378074 0.910509 0.912957
O O2 0.170948 0.781977 0.988541
O O3 0.626513 0.590565 0.016594
O O4 0.404910 0.929739 0.104926
O O5 0.430527 0.948843 0.729883
O O6 0.137836 0.251717 0.843237
O O7 0.047884 0.531749 0.304131
O O8 0.067076 0.383100 0.108372
O O9 0.340657 0.494487 0.206724
O O10 0.219182 0.279741 0.548907
O O11 0.754230 0.470028 0.517436
O O12 0.036847 0.135799 0.617853
O O13 0.737807 0.420359 0.179359
O O14 0.731770 0.244317 0.321677
O O15 0.525170 0.621744 0.347107
O O16 0.600873 0.168899 0.466838
#
# Coordination Sequence:
#
# PCOD9105891 Si02
#       8
#     2   2   2   2   2   2   2   2
#     4   9  18  38  67  88 122 167 211 261 327 378
#     4   9  19  38  65  93 123 166 209 267 320 374
#     4  10  21  40  62  91 133 163 209 263 315 377
#     4  10  22  41  64  91 131 174 210 267 310 376
#     4  12  23  40  64  96 130 170 212 260 316 385
#     4  10  20  39  66  93 121 171 209 259 328 376
#     4  11  22  38  64  97 129 169 214 260 321 377
#     4  11  23  42  64  94 132 171 217 257 317 384
#
# _framework density 25.175363999999998
#
# number of rings (size 3 to 8) (size 9 to 14) (size 15 to 20)
#    0.000    1.750    3.750    0.750    0.000    0.500 
#    2.250    7.500    0.000    0.000    0.000    0.000 
#    0.000    0.000    0.000    0.000    0.000    0.000 
#
# Total GULP energy -89613.673681 kJ/mol
# GULP energy per Si atom -5600.854605 kJ/mol
# Density = 2.511806 g / cm^3
# Si number density = 25.175364 Si / 1000 Ang^3
#
#
#
# Elastic Constant Matrix: (Units=GPa)
#
#
# Indices 1 2 3 4 5 6 
#
# 1 90.7690 18.8632 27.9254 4.3028 18.2904 11.3617
# 2 18.8632 113.8721 41.7511 10.9359 14.8122 12.6357
# 3 27.9254 41.7511 112.8562 10.6529 11.0576 14.8348
# 4 4.3028 10.9359 10.6529 30.3391 8.9538 5.2677
# 5 18.2904 14.8122 11.0576 8.9538 48.5824 6.6051
# 6 11.3617 12.6357 14.8348 5.2677 6.6051 22.3610
#
#
#
# Elastic Compliance Matrix: (Units=1/GPa)
#
#
# Indices 1 2 3 4 5 6 
#
# 1 0.013038 -0.000488 -0.002236 0.000944 -0.003889 -0.003939
# 2 -0.000488 0.010710 -0.003146 -0.001704 -0.001668 -0.002823
# 3 -0.002236 -0.003146 0.011287 -0.001826 0.000138 -0.004185
# 4 0.000944 -0.001704 -0.001826 0.036613 -0.005444 -0.005322
# 5 -0.003889 -0.001668 0.000138 -0.005444 0.023931 -0.002959
# 6 -0.003939 -0.002823 -0.004185 -0.005322 -0.002959 0.053221
#
#
# Mechanical properties :
#
#
# Convention : Reuss Voigt Hill
#
# Bulk Modulus (GPa) = 42.92624 54.95297 48.93961
# Shear Modulus (GPa) = 29.70796 35.52034 32.61415
#
# Velocity S-wave (km/s) = 3.43890 3.76029 3.60318
# Velocity P-wave (km/s) = 5.73201 6.38189 6.06566
#
# Compressibility (1/GPa) = 0.02329577
#
# Stress axis : x y z
#
# Youngs Moduli (GPa) = 76.69697 93.37126 88.59766
#
# Poissons Ratio (x) = 0.04552 0.19811
# Poissons Ratio (y) = 0.03740 0.27874
# Poissons Ratio (z) = 0.17150 0.29376
#
# Static dielectric constant tensor:
#      x y z
#    x 1.983410 0.031470 0.039690 
#    y 0.031470 2.012340 0.016170 
#    z 0.039690 0.016170 1.973660 
# 
# From -- ./inp_files/495248.got.cif
#   From: 2010.05.17/outbox.cif.g08.bks.cpg/sg2_248_cif.got.tgz:495248.got - 2010.06.03 11:33:40.
