data_PCOD9105880
_publ_section_title
;
Structure prediction by ZEFSAII (Michael W. Deem and Ramdas Pophale) SiO2 
 PCOD9105880
Probable space group: P -1
;
_chemical_formula_sum "Si O2"
_cell_formula_units_Z 16
_cell_length_a 16.078266
_cell_length_b 8.295901
_cell_length_c 9.010320
_cell_angle_alpha 50.745865
_cell_angle_beta 97.629521
_cell_angle_gamma 127.371676
_cell_volume 675.106294
_symmetry_space_group_name_H-M "P -1"
_symmetry_group_IT_number 2
_symmetry_cell_setting 'triclinic'
loop_
_space_group_symop_operation_xyz
x,y,z
-x,-y,-z
loop_
_atom_site_type_symbol
_atom_site_label
_atom_site_fract_x
_atom_site_fract_y
_atom_site_fract_z
Si Si1 0.927082 0.749513 0.744476
Si Si2 0.382334 0.901241 0.580552
Si Si3 0.237971 0.150294 0.871800
Si Si4 0.635598 0.752766 0.855630
Si Si5 0.857591 0.664012 0.087884
Si Si6 0.129384 0.787978 0.767743
Si Si7 0.286770 0.410462 0.282767
Si Si8 0.452892 0.646029 0.434232
O O1 0.796614 0.534065 0.784485
O O2 0.002544 0.671718 0.815998
O O3 0.913566 0.840522 0.847156
O O4 0.000000 0.000000 0.500000
O O5 0.349900 0.019212 0.380161
O O6 0.428402 0.056669 0.657955
O O7 0.500000 0.000000 0.500000
O O8 0.278303 0.579025 0.780006
O O9 0.132498 0.133655 0.902882
O O10 0.347935 0.446217 0.643919
O O11 0.188559 0.911958 0.872356
O O12 0.288921 0.125957 0.046414
O O13 0.670364 0.614672 0.844557
O O14 0.500000 0.500000 0.000000
O O15 0.875375 0.440949 0.190048
O O16 0.209475 0.090630 0.520329
O O17 0.392642 0.637911 0.281426
O O18 0.500000 0.500000 0.500000
#
# Coordination Sequence:
#
# PCOD9105880 Si02
#       8
#     2   2   2   2   2   2   2   2
#     4  10  23  44  70  94 128 177 225 280 347 386
#     4  12  23  38  61  97 136 176 212 267 330 396
#     4  11  23  40  67 100 132 179 223 268 330 403
#     4  12  20  38  62  94 137 172 215 264 327 391
#     4  12  22  42  70  96 136 172 223 279 333 396
#     4  10  23  44  68  95 131 174 227 278 339 391
#     4  10  20  39  66  92 129 181 217 271 331 397
#     4  11  19  38  64  92 135 178 219 256 329 399
#
# _framework density 23.699971000000001
#
# number of rings (size 3 to 8) (size 9 to 14) (size 15 to 20)
#    0.000    1.000    6.250    1.125    0.000    0.500 
#    2.250    0.625    0.000    9.000    0.000    0.000 
#    0.000    0.000    0.000    0.000    0.000    0.000 
#
# Total GULP energy -89076.898846 kJ/mol
# GULP energy per Si atom -5567.306178 kJ/mol
# Density = 2.364603 g / cm^3
# Si number density = 23.699971 Si / 1000 Ang^3
#
#
#
# Elastic Constant Matrix: (Units=GPa)
#
#
# Indices 1 2 3 4 5 6 
#
# 1 157.6174 25.5577 48.3528 34.6398 -2.6100 -4.9880
# 2 25.5577 83.7292 24.7252 16.4755 13.5404 14.5832
# 3 48.3528 24.7252 119.8326 12.3372 -4.7355 3.8231
# 4 34.6398 16.4755 12.3372 25.8864 2.4619 10.0138
# 5 -2.6100 13.5404 -4.7355 2.4619 51.6899 13.7415
# 6 -4.9880 14.5832 3.8231 10.0138 13.7415 39.0889
#
#
#
# Elastic Compliance Matrix: (Units=1/GPa)
#
#
# Indices 1 2 3 4 5 6 
#
# 1 0.010773 -0.000421 -0.002923 -0.014959 -0.000445 0.005806
# 2 -0.000421 0.015011 -0.002290 -0.006579 -0.003149 -0.002638
# 3 -0.002923 -0.002290 0.010007 0.000955 0.001678 -0.001332
# 4 -0.014959 -0.006579 0.000955 0.069165 0.002594 -0.018179
# 5 -0.000445 -0.003149 0.001678 0.002594 0.022174 -0.007506
# 6 0.005806 -0.002638 -0.001332 -0.018179 -0.007506 0.034734
#
#
# Mechanical properties :
#
#
# Convention : Reuss Voigt Hill
#
# Bulk Modulus (GPa) = 40.77759 62.05006 51.41383
# Shear Modulus (GPa) = 27.57731 40.83595 34.20663
#
# Velocity S-wave (km/s) = 3.41486 4.15545 3.80323
# Velocity P-wave (km/s) = 5.72638 7.01869 6.40521
#
# Compressibility (1/GPa) = 0.02452327
#
# Stress axis : x y z
#
# Youngs Moduli (GPa) = 92.82095 66.61627 99.92624
#
# Poissons Ratio (x) = 0.02806 0.29207
# Poissons Ratio (y) = 0.03910 0.22886
# Poissons Ratio (z) = 0.27131 0.15257
#
# Static dielectric constant tensor:
#      x y z
#    x 1.981130 -0.009030 0.032240 
#    y -0.009030 1.840130 0.023680 
#    z 0.032240 0.023680 1.979470 
# 
# From -- ./inp_files/294526.got.cif
#   From: 2010.05.17/outbox.cif.g08.bks.cpg/sg2_148_cif.got.tgz:294526.got - 2010.06.03 11:33:40.
