data_PCOD9105124
_publ_section_title
;
Structure prediction by ZEFSAII (Michael W. Deem and Ramdas Pophale) SiO2 
 PCOD9105124
Probable space group: P -1
;
_chemical_formula_sum "Si O2"
_cell_formula_units_Z 16
_cell_length_a 13.205858
_cell_length_b 12.400099
_cell_length_c 13.053396
_cell_angle_alpha 146.962919
_cell_angle_beta 39.238335
_cell_angle_gamma 138.517216
_cell_volume 705.558059
_symmetry_space_group_name_H-M "P -1"
_symmetry_group_IT_number 2
_symmetry_cell_setting 'triclinic'
loop_
_space_group_symop_operation_xyz
x,y,z
-x,-y,-z
loop_
_atom_site_type_symbol
_atom_site_label
_atom_site_fract_x
_atom_site_fract_y
_atom_site_fract_z
Si Si1 0.127575 0.500645 0.492551
Si Si2 0.284792 0.867501 0.810093
Si Si3 0.983454 0.897064 0.184222
Si Si4 0.959126 0.787088 0.469663
Si Si5 0.368134 0.008812 0.483966
Si Si6 0.862519 0.441837 0.970185
Si Si7 0.569924 0.366568 0.760463
Si Si8 0.674271 0.460669 0.316469
O O1 0.190183 0.723493 0.676375
O O2 0.068022 0.337745 0.500691
O O3 0.297457 0.478507 0.292347
O O4 0.000000 0.500000 0.500000
O O5 0.475474 0.967361 0.699318
O O6 0.303318 0.724054 0.777386
O O7 0.144115 0.973788 0.044466
O O8 0.814355 0.967079 0.374901
O O9 0.915897 0.650386 0.027951
O O10 0.049119 0.985432 0.315731
O O11 0.811309 0.664878 0.413501
O O12 0.122659 0.748602 0.259690
O O13 0.438497 0.195147 0.659161
O O14 0.339263 0.780173 0.368735
O O15 0.696569 0.417702 0.145262
O O16 0.000000 0.500000 0.000000
O O17 0.500000 0.500000 0.000000
O O18 0.500000 0.500000 0.500000
#
# Coordination Sequence:
#
# PCOD9105124 Si02
#       8
#     2   2   2   2   2   2   2   2
#     4  10  20  39  63  92 124 165 218 255 313 387
#     4  10  22  42  62  93 136 162 212 271 312 379
#     4  12  22  40  68  89 131 171 206 268 321 375
#     4  10  23  39  61  97 123 164 218 255 316 391
#     4  10  24  42  59  94 126 167 215 264 320 376
#     4  10  20  41  63  88 128 162 206 264 316 372
#     4  10  23  41  61  88 127 164 218 271 310 379
#     4  10  20  42  67  93 128 168 208 266 324 377
#
# _framework density 22.677085000000002
#
# number of rings (size 3 to 8) (size 9 to 14) (size 15 to 20)
#    0.000    1.750    3.750    1.500    3.500    3.000 
#    2.250    3.125    0.000    0.000    0.000    0.000 
#    0.000    0.000    0.000    0.000    0.000    0.000 
#
# Total GULP energy -89181.610824 kJ/mol
# GULP energy per Si atom -5573.850677 kJ/mol
# Density = 2.262547 g / cm^3
# Si number density = 22.677085 Si / 1000 Ang^3
#
#
#
# Elastic Constant Matrix: (Units=GPa)
#
#
# Indices 1 2 3 4 5 6 
#
# 1 45.5961 18.9519 37.3787 -11.9283 -2.9522 -0.1949
# 2 18.9519 81.6323 45.7617 -20.1403 1.6629 -8.3012
# 3 37.3787 45.7617 193.8516 -41.5041 24.0538 7.7002
# 4 -11.9283 -20.1403 -41.5041 41.5534 1.3882 1.0493
# 5 -2.9522 1.6629 24.0538 1.3882 35.2734 -4.0218
# 6 -0.1949 -8.3012 7.7002 1.0493 -4.0218 22.8082
#
#
#
# Elastic Compliance Matrix: (Units=1/GPa)
#
#
# Indices 1 2 3 4 5 6 
#
# 1 0.028354 -0.003280 -0.005360 0.000934 0.006367 0.001938
# 2 -0.003280 0.016229 -0.002836 0.003865 0.001532 0.006928
# 3 -0.005360 -0.002836 0.009585 0.007073 -0.007815 -0.006018
# 4 0.000934 0.003865 0.007073 0.033588 -0.006670 -0.003695
# 5 0.006367 0.001532 -0.007815 -0.006670 0.035523 0.009821
# 6 0.001938 0.006928 -0.006018 -0.003695 0.009821 0.050316
#
#
# Mechanical properties :
#
#
# Convention : Reuss Voigt Hill
#
# Bulk Modulus (GPa) = 32.03651 58.36274 45.19962
# Shear Modulus (GPa) = 24.16033 34.52617 29.34325
#
# Velocity S-wave (km/s) = 3.26760 3.90617 3.60107
# Velocity P-wave (km/s) = 5.32862 6.79239 6.10454
#
# Compressibility (1/GPa) = 0.03121439
#
# Stress axis : x y z
#
# Youngs Moduli (GPa) = 35.26850 61.61993 104.33163
#
# Poissons Ratio (x) = 0.20213 0.55920
# Poissons Ratio (y) = 0.11569 0.29592
# Poissons Ratio (z) = 0.18903 0.17478
#
# Static dielectric constant tensor:
#      x y z
#    x 1.632850 0.406760 -1.347820 
#    y 0.406760 1.318040 2.033170 
#    z -1.347820 2.033170 -4.967110 
# 
# From -- ./inp_files/534516.got.cif
#   From: 2010.05.17/outbox.cif.g08.bks.cpg/sg2_268_cif.got.tgz:534516.got - 2010.06.03 11:33:40.
