data_PCOD9105431
_publ_section_title
;
Structure prediction by ZEFSAII (Michael W. Deem and Ramdas Pophale) SiO2 
 PCOD9105431
Probable space group: P -1
;
_chemical_formula_sum "Si O2"
_cell_formula_units_Z 12
_cell_length_a 9.083268
_cell_length_b 5.281657
_cell_length_c 12.790137
_cell_angle_alpha 113.331089
_cell_angle_beta 95.969126
_cell_angle_gamma 56.389668
_cell_volume 463.878357
_symmetry_space_group_name_H-M "P -1"
_symmetry_group_IT_number 2
_symmetry_cell_setting 'triclinic'
loop_
_space_group_symop_operation_xyz
x,y,z
-x,-y,-z
loop_
_atom_site_type_symbol
_atom_site_label
_atom_site_fract_x
_atom_site_fract_y
_atom_site_fract_z
Si Si1 0.755199 0.649148 0.781152
Si Si2 0.559911 0.747638 0.059929
Si Si3 0.218778 0.445762 0.454863
Si Si4 0.909964 0.488804 0.155403
Si Si5 0.603376 0.309766 0.633317
Si Si6 0.817583 0.218154 0.297737
O O1 0.861435 0.553258 0.663087
O O2 0.705677 0.378009 0.744100
O O3 0.880871 0.671331 0.876374
O O4 0.563718 0.997664 0.814742
O O5 0.768897 0.547815 0.066881
O O6 0.500000 0.500000 0.000000
O O7 0.500000 0.000000 0.000000
O O8 0.356406 0.531598 0.435574
O O9 0.108541 0.708491 0.580296
O O10 0.312166 0.074707 0.442659
O O11 0.893377 0.275148 0.208344
O O12 0.845017 0.863496 0.244370
O O13 0.395180 0.505260 0.673038
#
# Coordination Sequence:
#
# PCOD9105431 Si02
#       6
#     2   2   2   2   2   2
#     4  10  27  44  71 101 145 172 226 283 336 396
#     4  12  28  50  76  97 129 174 231 292 353 404
#     4  10  22  37  69 101 143 188 222 264 325 399
#     4  12  27  44  71 104 138 177 226 280 337 405
#     4  10  20  39  64  94 140 188 223 270 318 387
#     4  12  22  41  68 104 143 188 224 260 328 410
#
# _framework density 25.868848
#
# number of rings (size 3 to 8) (size 9 to 14) (size 15 to 20)
#    1.000    0.000    1.667    5.000    4.667    2.667 
#    0.000    0.000    0.000    0.000    0.000    0.000 
#    0.000    0.000    0.000    0.000    0.000    0.000 
#
# Total GULP energy -67116.882794 kJ/mol
# GULP energy per Si atom -5593.073566 kJ/mol
# Density = 2.580997 g / cm^3
# Si number density = 25.868848 Si / 1000 Ang^3
#
#
#
# Elastic Constant Matrix: (Units=GPa)
#
#
# Indices 1 2 3 4 5 6 
#
# 1 127.7673 48.8795 19.7324 -25.1382 12.8378 -0.8568
# 2 48.8795 82.2409 16.8235 16.2648 14.6825 29.3759
# 3 19.7324 16.8235 53.9529 -15.5497 2.8875 15.0591
# 4 -25.1382 16.2648 -15.5497 36.5252 0.3495 15.7043
# 5 12.8378 14.6825 2.8875 0.3495 32.7752 3.5985
# 6 -0.8568 29.3759 15.0591 15.7043 3.5985 50.0122
#
#
#
# Elastic Compliance Matrix: (Units=1/GPa)
#
#
# Indices 1 2 3 4 5 6 
#
# 1 0.016888 -0.015175 0.003361 0.018818 -0.000569 0.002322
# 2 -0.015175 0.031994 -0.009074 -0.025058 -0.006445 -0.007988
# 3 0.003361 -0.009074 0.030175 0.024062 0.001078 -0.011332
# 4 0.018818 -0.025058 0.024062 0.067554 0.002507 -0.013598
# 5 -0.000569 -0.006445 0.001078 0.002507 0.033471 0.000256
# 6 0.002322 -0.007988 -0.011332 -0.013598 0.000256 0.032391
#
#
# Mechanical properties :
#
#
# Convention : Reuss Voigt Hill
#
# Bulk Modulus (GPa) = 26.82220 48.31464 37.56842
# Shear Modulus (GPa) = 18.74940 35.76424 27.25682
#
# Velocity S-wave (km/s) = 2.69511 3.72226 3.24953
# Velocity P-wave (km/s) = 4.48061 6.09844 5.35102
#
# Compressibility (1/GPa) = 0.03728256
#
# Stress axis : x y z
#
# Youngs Moduli (GPa) = 59.21313 31.25573 33.14021
#
# Poissons Ratio (x) = 0.47429 -0.11138
# Poissons Ratio (y) = 0.89853 0.30070
# Poissons Ratio (z) = -0.19901 0.28360
#
# Static dielectric constant tensor:
#      x y z
#    x 2.059800 -0.066490 0.029420 
#    y -0.066490 1.997450 -0.070520 
#    z 0.029420 -0.070520 2.213980 
# 
# From -- ./inp_files/340233.got.cif
#   From: 2010.05.17/outbox.cif.g08.bks.cpg/sg2_171_cif.got.tgz:340233.got - 2010.06.03 11:33:40.
