data_PCOD9105138
_publ_section_title
;
Structure prediction by ZEFSAII (Michael W. Deem and Ramdas Pophale) SiO2 
 PCOD9105138
Probable space group: P -1
;
_chemical_formula_sum "Si O2"
_cell_formula_units_Z 16
_cell_length_a 10.629698
_cell_length_b 12.740253
_cell_length_c 6.755209
_cell_angle_alpha 76.966498
_cell_angle_beta 116.825477
_cell_angle_gamma 130.283503
_cell_volume 619.819047
_symmetry_space_group_name_H-M "P -1"
_symmetry_group_IT_number 2
_symmetry_cell_setting 'triclinic'
loop_
_space_group_symop_operation_xyz
x,y,z
-x,-y,-z
loop_
_atom_site_type_symbol
_atom_site_label
_atom_site_fract_x
_atom_site_fract_y
_atom_site_fract_z
Si Si1 0.808979 0.947038 0.122470
Si Si2 0.870200 0.043058 0.664439
Si Si3 0.016444 0.756175 0.828528
Si Si4 0.425610 0.667659 0.050840
Si Si5 0.789244 0.234854 0.648350
Si Si6 0.396969 0.422545 0.255013
Si Si7 0.482306 0.236410 0.491664
Si Si8 0.032456 0.543958 0.770838
O O1 0.601127 0.819027 0.054074
O O2 0.892263 0.088693 0.239564
O O3 0.843150 0.997762 0.897450
O O4 0.929274 0.899159 0.268867
O O5 0.716271 0.894309 0.523854
O O6 0.827476 0.148429 0.582490
O O7 0.984578 0.647139 0.691907
O O8 0.820365 0.684652 0.818675
O O9 0.155353 0.776373 0.084581
O O10 0.437197 0.543865 0.093383
O O11 0.408023 0.677134 0.272333
O O12 0.243069 0.624779 0.847198
O O13 0.586692 0.182658 0.507563
O O14 0.915974 0.399375 0.634693
O O15 0.500000 0.500000 0.500000
O O16 0.462098 0.331635 0.298687
O O17 0.000000 0.500000 0.000000
#
# Coordination Sequence:
#
# PCOD9105138 Si02
#       8
#     2   2   2   2   2   2   2   2
#     4  10  23  39  60  91 122 160 207 246 297 365
#     4  10  22  41  59  82 129 172 192 235 315 370
#     4  10  17  36  59  85 119 163 190 246 302 361
#     4  11  21  36  63 100 115 149 212 262 292 343
#     4  10  19  35  64  85 116 164 207 227 299 380
#     4  10  19  33  58  89 122 152 195 249 304 350
#     4  11  20  37  63  91 120 157 203 249 305 360
#     4  10  16  33  60  89 118 151 198 246 301 349
#
# _framework density 25.813986
#
# number of rings (size 3 to 8) (size 9 to 14) (size 15 to 20)
#    0.000    1.750    6.250    1.125    0.000    1.000 
#    0.000    2.500    0.000    1.500    0.000    0.000 
#    0.000    0.000    0.000    0.000    0.000    0.000 
#
# Total GULP energy -89574.299487 kJ/mol
# GULP energy per Si atom -5598.393718 kJ/mol
# Density = 2.575523 g / cm^3
# Si number density = 25.813986 Si / 1000 Ang^3
#
#
#
# Elastic Constant Matrix: (Units=GPa)
#
#
# Indices 1 2 3 4 5 6 
#
# 1 104.5439 52.7632 30.1610 -7.6790 36.2563 -18.8711
# 2 52.7632 156.0672 14.0991 -5.3111 14.2203 -2.8799
# 3 30.1610 14.0991 83.8435 -1.7997 14.0544 1.7148
# 4 -7.6790 -5.3111 -1.7997 45.3622 -0.6641 1.8635
# 5 36.2563 14.2203 14.0544 -0.6641 44.2280 4.7237
# 6 -18.8711 -2.8799 1.7148 1.8635 4.7237 61.8728
#
#
#
# Elastic Compliance Matrix: (Units=1/GPa)
#
#
# Indices 1 2 3 4 5 6 
#
# 1 0.019148 -0.004684 -0.003908 0.002063 -0.013634 0.006709
# 2 -0.004684 0.007834 0.000162 0.000200 0.001399 -0.001181
# 3 -0.003908 0.000162 0.013499 -0.000061 -0.000981 -0.001482
# 4 0.002063 0.000200 -0.000061 0.022391 -0.001407 0.000073
# 5 -0.013634 0.001399 -0.000981 -0.001407 0.034338 -0.006645
# 6 0.006709 -0.001181 -0.001482 0.000073 -0.006645 0.018700
#
#
# Mechanical properties :
#
#
# Convention : Reuss Voigt Hill
#
# Bulk Modulus (GPa) = 42.33675 59.83347 51.08511
# Shear Modulus (GPa) = 35.55084 46.78801 41.16942
#
# Velocity S-wave (km/s) = 3.71508 4.26197 3.99789
# Velocity P-wave (km/s) = 5.90244 6.88827 6.41432
#
# Compressibility (1/GPa) = 0.02362014
#
# Stress axis : x y z
#
# Youngs Moduli (GPa) = 52.22501 127.64773 74.07974
#
# Poissons Ratio (x) = 0.59792 0.28949
# Poissons Ratio (y) = 0.24463 -0.01197
# Poissons Ratio (z) = 0.20409 -0.02063
#
# Static dielectric constant tensor:
#      x y z
#    x 2.072660 -0.030460 -0.149500 
#    y -0.030460 2.009740 -0.028240 
#    z -0.149500 -0.028240 2.098600 
# 
# From -- ./inp_files/186960.got.cif
#   From: 2010.05.17/outbox.cif.g08.bks.cpg/sg2_94_cif.got.tgz:186960.got - 2010.06.03 11:33:40.
