data_PCOD9105590
_publ_section_title
;
Structure prediction by ZEFSAII (Michael W. Deem and Ramdas Pophale) SiO2 
 PCOD9105590
Probable space group: P -1
;
_chemical_formula_sum "Si O2"
_cell_formula_units_Z 16
_cell_length_a 9.291670
_cell_length_b 8.498466
_cell_length_c 12.713909
_cell_angle_alpha 99.994938
_cell_angle_beta 51.442904
_cell_angle_gamma 95.759167
_cell_volume 773.123628
_symmetry_space_group_name_H-M "P -1"
_symmetry_group_IT_number 2
_symmetry_cell_setting 'triclinic'
loop_
_space_group_symop_operation_xyz
x,y,z
-x,-y,-z
loop_
_atom_site_type_symbol
_atom_site_label
_atom_site_fract_x
_atom_site_fract_y
_atom_site_fract_z
Si Si1 0.808206 0.435346 0.622987
Si Si2 0.167194 0.197975 0.741041
Si Si3 0.165808 0.840854 0.755770
Si Si4 0.769902 0.920996 0.877414
Si Si5 0.073836 0.891752 0.358345
Si Si6 0.811718 0.242736 0.025049
Si Si7 0.540237 0.630139 0.908975
Si Si8 0.449329 0.645830 0.464216
O O1 0.841044 0.270888 0.652859
O O2 0.709864 0.565723 0.755818
O O3 0.673391 0.405305 0.583800
O O4 0.000000 0.500000 0.500000
O O5 0.359073 0.283113 0.653724
O O6 0.087071 0.154543 0.656721
O O7 0.193673 0.031279 0.771117
O O8 0.002512 0.290113 0.887066
O O9 0.170734 0.763648 0.859145
O O10 0.324274 0.769172 0.601928
O O11 0.962471 0.825158 0.796778
O O12 0.602171 0.800807 0.946338
O O13 0.787285 0.006542 0.765729
O O14 0.771632 0.063499 0.978251
O O15 0.000000 0.000000 0.500000
O O16 0.641037 0.347892 0.076241
O O17 0.500000 0.500000 0.000000
O O18 0.500000 0.500000 0.500000
#
# Coordination Sequence:
#
# PCOD9105590 Si02
#       8
#     2   2   2   2   2   2   2   2
#     4  12  25  43  64  93 129 166 206 256 313 371
#     4  10  22  41  62  90 124 158 205 260 307 362
#     4  10  21  41  66  91 119 158 206 258 307 364
#     4  10  22  41  64  91 123 161 208 260 308 365
#     4  10  20  39  65  91 121 166 208 254 309 367
#     4  10  22  42  65  91 121 161 206 256 307 369
#     4  12  25  41  62  93 127 165 207 255 310 371
#     4  12  25  40  60  92 127 165 203 253 311 369
#
# _framework density 20.695264999999999
#
# number of rings (size 3 to 8) (size 9 to 14) (size 15 to 20)
#    0.000    1.500    0.000    8.250    0.000    5.000 
#    0.000    1.875    0.000    0.000    0.000    0.000 
#    0.000    0.000    0.000    0.000    0.000    0.000 
#
# Total GULP energy -89500.350407 kJ/mol
# GULP energy per Si atom -5593.771900 kJ/mol
# Density = 2.064816 g / cm^3
# Si number density = 20.695265 Si / 1000 Ang^3
#
#
#
# Elastic Constant Matrix: (Units=GPa)
#
#
# Indices 1 2 3 4 5 6 
#
# 1 124.4556 44.3805 55.0546 -31.5604 -9.4063 -14.1846
# 2 44.3805 59.8740 23.5751 -15.0733 -3.8864 -19.3372
# 3 55.0546 23.5751 107.8672 -7.5625 -10.4296 7.2240
# 4 -31.5604 -15.0733 -7.5625 40.3915 -5.7488 -3.1928
# 5 -9.4063 -3.8864 -10.4296 -5.7488 39.9236 -1.7385
# 6 -14.1846 -19.3372 7.2240 -3.1928 -1.7385 40.0058
#
#
#
# Elastic Compliance Matrix: (Units=1/GPa)
#
#
# Indices 1 2 3 4 5 6 
#
# 1 0.016203 -0.004721 -0.006541 0.010607 0.003422 0.005640
# 2 -0.004721 0.028015 -0.003864 0.007410 0.002250 0.013254
# 3 -0.006541 -0.003864 0.013679 -0.004442 0.000712 -0.006981
# 4 0.010607 0.007410 -0.004442 0.037006 0.007887 0.011441
# 5 0.003422 0.002250 0.000712 0.007887 0.027569 0.004000
# 6 0.005640 0.013254 -0.006981 0.011441 0.004000 0.035750
#
#
# Mechanical properties :
#
#
# Convention : Reuss Voigt Hill
#
# Bulk Modulus (GPa) = 36.17388 59.80189 47.98789
# Shear Modulus (GPa) = 25.29226 35.34331 30.31778
#
# Velocity S-wave (km/s) = 3.49969 4.13703 3.83163
# Velocity P-wave (km/s) = 5.81787 7.19578 6.54320
#
# Compressibility (1/GPa) = 0.02764425
#
# Stress axis : x y z
#
# Youngs Moduli (GPa) = 61.71535 35.69574 73.10602
#
# Poissons Ratio (x) = 0.16852 0.47822
# Poissons Ratio (y) = 0.29135 0.28247
# Poissons Ratio (z) = 0.40371 0.13792
#
# Static dielectric constant tensor:
#      x y z
#    x 1.720780 0.011590 -0.020550 
#    y 0.011590 1.748060 0.013080 
#    z -0.020550 0.013080 1.743130 
# 
# From -- ./inp_files/261811.got.cif
#   From: 2010.05.17/outbox.cif.g08.bks.cpg/sg2_131_cif.got.tgz:261811.got - 2010.06.03 11:33:40.
