data_PCOD9105443
_publ_section_title
;
Structure prediction by ZEFSAII (Michael W. Deem and Ramdas Pophale) SiO2 
 PCOD9105443
Probable space group: P -1
;
_chemical_formula_sum "Si O2"
_cell_formula_units_Z 16
_cell_length_a 7.154183
_cell_length_b 8.976624
_cell_length_c 12.999168
_cell_angle_alpha 128.790452
_cell_angle_beta 99.970537
_cell_angle_gamma 72.200188
_cell_volume 619.349854
_symmetry_space_group_name_H-M "P -1"
_symmetry_group_IT_number 2
_symmetry_cell_setting 'triclinic'
loop_
_space_group_symop_operation_xyz
x,y,z
-x,-y,-z
loop_
_atom_site_type_symbol
_atom_site_label
_atom_site_fract_x
_atom_site_fract_y
_atom_site_fract_z
Si Si1 0.269685 0.061266 0.539203
Si Si2 0.172419 0.214334 0.823640
Si Si3 0.695156 0.700716 0.703372
Si Si4 0.767420 0.572403 0.427526
Si Si5 0.255852 0.582595 0.071206
Si Si6 0.337474 0.639800 0.316584
Si Si7 0.213378 0.909827 0.033983
Si Si8 0.729378 0.175206 0.216352
O O1 0.247846 0.123979 0.682444
O O2 0.163478 0.253137 0.546166
O O3 0.500000 0.000000 0.500000
O O4 0.207181 0.860468 0.422363
O O5 0.953719 0.356605 0.862890
O O6 0.161940 0.037123 0.822148
O O7 0.299246 0.355760 0.942740
O O8 0.778452 0.601598 0.561992
O O9 0.748880 0.537900 0.728128
O O10 0.457881 0.756734 0.698150
O O11 0.737848 0.908305 0.823939
O O12 0.539189 0.613316 0.387956
O O13 0.846549 0.344309 0.303340
O O14 0.392303 0.618500 0.192210
O O15 0.235188 0.726518 0.033884
O O16 0.342263 0.841746 0.914177
O O17 0.000000 0.000000 0.000000
#
# Coordination Sequence:
#
# PCOD9105443 Si02
#       8
#     2   2   2   2   2   2   2   2
#     4  10  20  39  64  95 128 164 216 275 322 375
#     4  11  23  41  66  93 133 180 216 269 329 393
#     4  11  23  42  70  98 131 174 218 271 329 388
#     4  10  21  41  67 100 133 164 218 274 325 385
#     4  11  25  42  63  93 136 177 219 263 333 400
#     4  10  21  40  67  98 132 172 215 269 329 391
#     4  12  25  44  64  94 134 171 221 269 323 391
#     4  11  21  42  69  97 130 173 222 268 327 388
#
# _framework density 25.833541
#
# number of rings (size 3 to 8) (size 9 to 14) (size 15 to 20)
#    0.000    1.250    1.250    6.375    1.750    2.500 
#    0.000    6.250    0.000    0.000    0.000    0.000 
#    0.000    0.000    0.000    0.000    0.000    0.000 
#
# Total GULP energy -89630.758494 kJ/mol
# GULP energy per Si atom -5601.922406 kJ/mol
# Density = 2.577474 g / cm^3
# Si number density = 25.833541 Si / 1000 Ang^3
#
#
#
# Elastic Constant Matrix: (Units=GPa)
#
#
# Indices 1 2 3 4 5 6 
#
# 1 51.3059 -1.5002 9.1822 0.4109 -6.1062 -3.9767
# 2 -1.5002 190.0192 74.6701 10.6499 7.0394 13.0081
# 3 9.1822 74.6701 195.8182 4.7541 -6.7610 14.0564
# 4 0.4109 10.6499 4.7541 63.1025 9.0777 2.8928
# 5 -6.1062 7.0394 -6.7610 9.0777 43.3171 0.5839
# 6 -3.9767 13.0081 14.0564 2.8928 0.5839 26.4733
#
#
#
# Elastic Compliance Matrix: (Units=1/GPa)
#
#
# Indices 1 2 3 4 5 6 
#
# 1 0.020323 0.000335 -0.001227 -0.000649 0.002707 0.003550
# 2 0.000335 0.006390 -0.002353 -0.000651 -0.001198 -0.001743
# 3 -0.001227 -0.002353 0.006278 -0.000139 0.001251 -0.002374
# 4 -0.000649 -0.000651 -0.000139 0.016534 -0.003453 -0.001434
# 5 0.002707 -0.001198 0.001251 -0.003453 0.024578 0.000167
# 6 0.003550 -0.001743 -0.002374 -0.001434 0.000167 0.040577
#
#
# Mechanical properties :
#
#
# Convention : Reuss Voigt Hill
#
# Bulk Modulus (GPa) = 37.73100 66.87193 52.30147
# Shear Modulus (GPa) = 38.46047 50.23132 44.34590
#
# Velocity S-wave (km/s) = 3.86266 4.41434 4.14768
# Velocity P-wave (km/s) = 5.87628 7.20582 6.57474
#
# Compressibility (1/GPa) = 0.02650340
#
# Stress axis : x y z
#
# Youngs Moduli (GPa) = 49.20580 156.49335 159.27424
#
# Poissons Ratio (x) = -0.05250 0.19535
# Poissons Ratio (y) = -0.01651 0.37475
# Poissons Ratio (z) = 0.06035 0.36821
#
# Static dielectric constant tensor:
#      x y z
#    x 2.195850 -0.021300 -0.007480 
#    y -0.021300 2.024700 0.043310 
#    z -0.007480 0.043310 2.027530 
# 
# From -- ./inp_files/383533.got.cif
#   From: 2010.05.17/outbox.cif.g08.bks.cpg/sg2_192_cif.got.tgz:383533.got - 2010.06.03 11:33:40.
