data_PCOD9105671
_publ_section_title
;
Structure prediction by ZEFSAII (Michael W. Deem and Ramdas Pophale) SiO2 
 PCOD9105671
Probable space group: P -1
;
_chemical_formula_sum "Si O2"
_cell_formula_units_Z 14
_cell_length_a 9.000479
_cell_length_b 15.568270
_cell_length_c 8.384776
_cell_angle_alpha 107.770379
_cell_angle_beta 63.084904
_cell_angle_gamma 147.461737
_cell_volume 556.280418
_symmetry_space_group_name_H-M "P -1"
_symmetry_group_IT_number 2
_symmetry_cell_setting 'triclinic'
loop_
_space_group_symop_operation_xyz
x,y,z
-x,-y,-z
loop_
_atom_site_type_symbol
_atom_site_label
_atom_site_fract_x
_atom_site_fract_y
_atom_site_fract_z
Si Si1 0.788868 0.539424 0.338013
Si Si2 0.857681 0.243989 0.387277
Si Si3 0.634822 0.461714 0.890487
Si Si4 0.632289 0.285375 0.973945
Si Si5 0.159259 0.039655 0.284156
Si Si6 0.270950 0.022984 0.723575
Si Si7 0.276833 0.298064 0.667650
O O1 0.472521 0.359169 0.451825
O O2 0.732503 0.598846 0.284752
O O3 0.949449 0.651136 0.484794
O O4 0.027742 0.583290 0.163467
O O5 0.526410 0.130069 0.522825
O O6 0.027323 0.372589 0.238178
O O7 0.846803 0.132446 0.291400
O O8 0.584243 0.368205 0.000631
O O9 0.460881 0.344864 0.754902
O O10 0.500000 0.500000 0.000000
O O11 0.438835 0.135598 0.861557
O O12 0.501968 0.202054 0.161795
O O13 0.985117 0.022954 0.229263
O O14 0.052039 0.887851 0.253575
O O15 0.000000 0.000000 0.500000
#
# Coordination Sequence:
#
# PCOD9105671 Si02
#       7
#     2   2   2   2   2   2   2
#     4   9  21  42  64  94 130 169 210 260 324 384
#     4   9  20  36  65  94 129 165 211 268 312 379
#     4  11  23  39  63  96 127 168 218 267 313 373
#     4  11  24  41  68  94 126 168 225 262 308 392
#     4  12  25  40  63  92 131 168 214 268 324 373
#     4  10  20  39  65  94 125 168 217 260 316 378
#     4  10  22  41  65  91 131 172 200 268 330 370
#
# _framework density 25.167164
#
# number of rings (size 3 to 8) (size 9 to 14) (size 15 to 20)
#    0.000    1.714    1.429    2.143    4.000    4.571 
#    2.571    1.429    0.000    0.000    0.000    0.000 
#    0.000    0.000    0.000    0.000    0.000    0.000 
#
# Total GULP energy -78360.393470 kJ/mol
# GULP energy per Si atom -5597.170962 kJ/mol
# Density = 2.510988 g / cm^3
# Si number density = 25.167164 Si / 1000 Ang^3
#
#
#
# Elastic Constant Matrix: (Units=GPa)
#
#
# Indices 1 2 3 4 5 6 
#
# 1 71.3545 22.7344 39.3833 -12.9372 -4.6842 0.1998
# 2 22.7344 115.1758 64.7867 -30.5887 6.2085 -27.5720
# 3 39.3833 64.7867 127.5867 -35.4981 -8.8607 -24.5306
# 4 -12.9372 -30.5887 -35.4981 60.0788 -2.3462 4.0280
# 5 -4.6842 6.2085 -8.8607 -2.3462 38.4979 2.0327
# 6 0.1998 -27.5720 -24.5306 4.0280 2.0327 29.5453
#
#
#
# Elastic Compliance Matrix: (Units=1/GPa)
#
#
# Indices 1 2 3 4 5 6 
#
# 1 0.017945 -0.002076 -0.005717 -0.000047 0.001564 -0.006907
# 2 -0.002076 0.015264 -0.004286 0.003935 -0.004012 0.010439
# 3 -0.005717 -0.004286 0.014825 0.004977 0.003318 0.007440
# 4 -0.000047 0.003935 0.004977 0.021318 0.001551 0.004791
# 5 0.001564 -0.004012 0.003318 0.001551 0.027836 -0.003126
# 6 -0.006907 0.010439 0.007440 0.004791 -0.003126 0.049374
#
#
# Mechanical properties :
#
#
# Convention : Reuss Voigt Hill
#
# Bulk Modulus (GPa) = 41.88809 63.10284 52.49547
# Shear Modulus (GPa) = 27.98293 38.10525 33.04409
#
# Velocity S-wave (km/s) = 3.33811 3.89535 3.62744
# Velocity P-wave (km/s) = 5.61581 6.73495 6.20068
#
# Compressibility (1/GPa) = 0.02387313
#
# Stress axis : x y z
#
# Youngs Moduli (GPa) = 55.72490 65.51482 67.45441
#
# Poissons Ratio (x) = 0.13604 0.38566
# Poissons Ratio (y) = 0.11571 0.28914
# Poissons Ratio (z) = 0.31860 0.28083
#
# Static dielectric constant tensor:
#      x y z
#    x 1.913420 0.047710 0.000660 
#    y 0.047710 2.061750 0.063150 
#    z 0.000660 0.063150 2.013700 
# 
# From -- ./inp_files/158480.got.cif
#   From: 2010.05.17/outbox.cif.g08.bks.cpg/sg2_80_cif.got.tgz:158480.got - 2010.06.03 11:33:40.
