data_PCOD9105910
_publ_section_title
;
Structure prediction by ZEFSAII (Michael W. Deem and Ramdas Pophale) SiO2 
 PCOD9105910
Probable space group: P -1
;
_chemical_formula_sum "Si O2"
_cell_formula_units_Z 16
_cell_length_a 13.594639
_cell_length_b 9.989566
_cell_length_c 7.720590
_cell_angle_alpha 132.498163
_cell_angle_beta 113.405966
_cell_angle_gamma 89.549404
_cell_volume 654.754508
_symmetry_space_group_name_H-M "P -1"
_symmetry_group_IT_number 2
_symmetry_cell_setting 'triclinic'
loop_
_space_group_symop_operation_xyz
x,y,z
-x,-y,-z
loop_
_atom_site_type_symbol
_atom_site_label
_atom_site_fract_x
_atom_site_fract_y
_atom_site_fract_z
Si Si1 0.390627 0.071938 0.642083
Si Si2 0.230290 0.277988 0.816692
Si Si3 0.251652 0.512459 0.387595
Si Si4 0.912675 0.997550 0.786825
Si Si5 0.628331 0.128672 0.043122
Si Si6 0.739056 0.352386 0.982127
Si Si7 0.995076 0.447986 0.246589
Si Si8 0.332695 0.210079 0.382401
O O1 0.303047 0.140125 0.748050
O O2 0.416135 0.201586 0.593164
O O3 0.327575 0.843520 0.344085
O O4 0.506289 0.106812 0.857894
O O5 0.110679 0.142678 0.517913
O O6 0.228899 0.375691 0.083830
O O7 0.301120 0.467935 0.912713
O O8 0.343182 0.738159 0.649532
O O9 0.308726 0.396729 0.456652
O O10 0.127995 0.533952 0.352957
O O11 0.790021 0.922978 0.732610
O O12 0.956910 0.222006 0.966465
O O13 0.000000 0.000000 0.000000
O O14 0.721966 0.270384 0.093176
O O15 0.640900 0.920198 0.863047
O O16 0.874769 0.465584 0.122527
O O17 0.000000 0.500000 0.500000
#
# Coordination Sequence:
#
# PCOD9105910 Si02
#       8
#     2   2   2   2   2   2   2   2
#     4  10  23  43  68  93 121 166 223 276 313 366
#     4  11  26  42  60  97 136 170 209 255 331 386
#     4  12  26  40  61  99 136 170 204 260 328 390
#     4  11  19  39  66  93 123 169 211 264 309 372
#     4  11  22  42  68  96 121 162 227 272 314 369
#     4  11  21  42  68  91 125 166 218 268 314 374
#     4  12  21  39  68  96 127 161 215 263 313 381
#     4  10  20  39  66  94 120 161 220 265 316 367
#
# _framework density 24.436640000000001
#
# number of rings (size 3 to 8) (size 9 to 14) (size 15 to 20)
#    0.000    1.000    6.250    3.750    0.000    5.500 
#    0.000    1.250    0.000    0.000    0.000    0.000 
#    0.000    0.000    0.000    0.000    0.000    0.000 
#
# Total GULP energy -89218.279714 kJ/mol
# GULP energy per Si atom -5576.142482 kJ/mol
# Density = 2.438102 g / cm^3
# Si number density = 24.436640 Si / 1000 Ang^3
#
#
#
# Elastic Constant Matrix: (Units=GPa)
#
#
# Indices 1 2 3 4 5 6 
#
# 1 70.2364 8.8937 55.0993 -11.3460 3.7372 -19.2873
# 2 8.8937 52.3763 23.1149 -3.2714 5.1827 -6.9465
# 3 55.0993 23.1149 198.2321 -10.7994 -16.2310 -15.7790
# 4 -11.3460 -3.2714 -10.7994 36.5438 0.2528 -7.5988
# 5 3.7372 5.1827 -16.2310 0.2528 33.1611 -10.0471
# 6 -19.2873 -6.9465 -15.7790 -7.5988 -10.0471 24.5750
#
#
#
# Elastic Compliance Matrix: (Units=1/GPa)
#
#
# Indices 1 2 3 4 5 6 
#
# 1 0.025313 0.001203 -0.004870 0.010836 0.000779 0.020748
# 2 0.001203 0.021121 -0.002554 0.002512 -0.003278 0.004711
# 3 -0.004870 -0.002554 0.007407 0.000976 0.005389 0.002716
# 4 0.010836 0.002512 0.000976 0.036047 0.005647 0.023296
# 5 0.000779 -0.003278 0.005389 0.005647 0.039557 0.021063
# 6 0.020748 0.004711 0.002716 0.023296 0.021063 0.075866
#
#
# Mechanical properties :
#
#
# Convention : Reuss Voigt Hill
#
# Bulk Modulus (GPa) = 24.15570 55.00673 39.58121
# Shear Modulus (GPa) = 21.59336 34.43845 28.01590
#
# Velocity S-wave (km/s) = 2.97584 3.75813 3.38963
# Velocity P-wave (km/s) = 4.65983 6.43352 5.61713
#
# Compressibility (1/GPa) = 0.04139809
#
# Stress axis : x y z
#
# Youngs Moduli (GPa) = 39.50584 47.34514 135.01359
#
# Poissons Ratio (x) = -0.05694 0.65755
# Poissons Ratio (y) = -0.04751 0.34480
# Poissons Ratio (z) = 0.19240 0.12091
#
# Static dielectric constant tensor:
#      x y z
#    x 2.048780 0.012040 -0.029340 
#    y 0.012040 2.064800 -0.149790 
#    z -0.029340 -0.149790 1.998100 
# 
# From -- ./inp_files/308860.got.cif
#   From: 2010.05.17/outbox.cif.g08.bks.cpg/sg2_155_cif.got.tgz:308860.got - 2010.06.03 11:33:40.
