data_PCOD9105844
_publ_section_title
;
Structure prediction by ZEFSAII (Michael W. Deem and Ramdas Pophale) SiO2 
 PCOD9105844
Probable space group: P -1
;
_chemical_formula_sum "Si O2"
_cell_formula_units_Z 16
_cell_length_a 8.898669
_cell_length_b 13.364167
_cell_length_c 16.381432
_cell_angle_alpha 26.215859
_cell_angle_beta 99.287693
_cell_angle_gamma 113.464150
_cell_volume 691.134359
_symmetry_space_group_name_H-M "P -1"
_symmetry_group_IT_number 2
_symmetry_cell_setting 'triclinic'
loop_
_space_group_symop_operation_xyz
x,y,z
-x,-y,-z
loop_
_atom_site_type_symbol
_atom_site_label
_atom_site_fract_x
_atom_site_fract_y
_atom_site_fract_z
Si Si1 0.317200 0.337913 0.547158
Si Si2 0.259020 0.185655 0.375057
Si Si3 0.671411 0.766123 0.006125
Si Si4 0.369592 0.160213 0.230922
Si Si5 0.298379 0.833216 0.147138
Si Si6 0.360980 0.007471 0.662999
Si Si7 0.020218 0.779105 0.026697
Si Si8 0.929993 0.512385 0.894122
O O1 0.500000 0.500000 0.500000
O O2 0.251525 0.534559 0.381441
O O3 0.382060 0.262349 0.526129
O O4 0.151879 0.066335 0.778129
O O5 0.251204 0.072524 0.366938
O O6 0.235540 0.977644 0.595947
O O7 0.123655 0.284049 0.289021
O O8 0.469681 0.467659 0.202531
O O9 0.725035 0.888728 0.829076
O O10 0.829522 0.728062 0.076305
O O11 0.677452 0.985786 0.904986
O O12 0.480087 0.017784 0.341518
O O13 0.500000 0.500000 0.000000
O O14 0.143214 0.794439 0.100560
O O15 0.500000 0.000000 0.000000
O O16 0.278400 0.778438 0.895529
O O17 0.976230 0.549315 0.124053
O O18 0.000000 0.500000 0.000000
#
# Coordination Sequence:
#
# PCOD9105844 Si02
#       8
#     2   2   2   2   2   2   2   2
#     4  11  23  40  66  93 126 171 218 261 318 385
#     4  11  23  41  67  94 128 173 217 261 324 386
#     4  11  23  43  65  94 133 168 211 269 325 377
#     4  10  20  39  66  90 126 167 210 262 325 376
#     4  12  23  43  68  91 127 169 215 264 318 384
#     4  11  22  40  65  97 122 168 222 259 318 386
#     4  11  25  41  63  97 130 166 216 267 320 377
#     4  11  23  42  67  92 132 171 214 267 316 381
#
# _framework density 23.150348000000001
#
# number of rings (size 3 to 8) (size 9 to 14) (size 15 to 20)
#    0.000    1.000    3.750    4.500    1.750    1.000 
#    2.250    0.000    0.000    0.000    0.000    0.000 
#    0.000    0.000    0.000    0.000    0.000    0.000 
#
# Total GULP energy -89459.043127 kJ/mol
# GULP energy per Si atom -5591.190195 kJ/mol
# Density = 2.309766 g / cm^3
# Si number density = 23.150348 Si / 1000 Ang^3
#
#
#
# Elastic Constant Matrix: (Units=GPa)
#
#
# Indices 1 2 3 4 5 6 
#
# 1 116.3726 29.9599 32.3515 -9.3830 40.3112 7.3713
# 2 29.9599 145.0657 32.1346 4.9403 23.9256 -12.3181
# 3 32.3515 32.1346 146.6192 11.0772 28.7494 -3.2436
# 4 -9.3830 4.9403 11.0772 33.9411 3.0766 10.7500
# 5 40.3112 23.9256 28.7494 3.0766 33.0430 1.6162
# 6 7.3713 -12.3181 -3.2436 10.7500 1.6162 53.8271
#
#
#
# Elastic Compliance Matrix: (Units=1/GPa)
#
#
# Indices 1 2 3 4 5 6 
#
# 1 0.016646 -0.000597 -0.000229 0.007659 -0.020226 -0.003352
# 2 -0.000597 0.008163 -0.000581 -0.001487 -0.004654 0.002352
# 3 -0.000229 -0.000581 0.008488 -0.002510 -0.006506 0.001107
# 4 0.007659 -0.001487 -0.002510 0.036121 -0.009031 -0.008483
# 5 -0.020226 -0.004654 -0.006506 -0.009031 0.064752 0.001172
# 6 -0.003352 0.002352 0.001107 -0.008483 0.001172 0.021301
#
#
# Mechanical properties :
#
#
# Convention : Reuss Voigt Hill
#
# Bulk Modulus (GPa) = 32.80350 66.32773 49.56562
# Shear Modulus (GPa) = 29.68318 45.06966 37.37642
#
# Velocity S-wave (km/s) = 3.58466 4.41707 4.02245
# Velocity P-wave (km/s) = 5.59764 7.39777 6.55975
#
# Compressibility (1/GPa) = 0.03048455
#
# Stress axis : x y z
#
# Youngs Moduli (GPa) = 60.07314 122.50091 117.81480
#
# Poissons Ratio (x) = 0.07311 0.02699
# Poissons Ratio (y) = 0.03585 0.06839
# Poissons Ratio (z) = 0.01376 0.07111
#
# Static dielectric constant tensor:
#      x y z
#    x 1.848740 0.043300 -0.079670 
#    y 0.043300 1.898920 -0.129400 
#    z -0.079670 -0.129400 2.071080 
# 
# From -- ./inp_files/499759.got.cif
#   From: 2010.05.17/outbox.cif.g08.bks.cpg/sg2_250_cif.got.tgz:499759.got - 2010.06.03 11:33:40.
