data_PCOD9105685
_publ_section_title
;
Structure prediction by ZEFSAII (Michael W. Deem and Ramdas Pophale) SiO2 
 PCOD9105685
Probable space group: P -1
;
_chemical_formula_sum "Si O2"
_cell_formula_units_Z 14
_cell_length_a 14.000096
_cell_length_b 8.882775
_cell_length_c 14.892877
_cell_angle_alpha 147.796456
_cell_angle_beta 138.431485
_cell_angle_gamma 46.251474
_cell_volume 645.902411
_symmetry_space_group_name_H-M "P -1"
_symmetry_group_IT_number 2
_symmetry_cell_setting 'triclinic'
loop_
_space_group_symop_operation_xyz
x,y,z
-x,-y,-z
loop_
_atom_site_type_symbol
_atom_site_label
_atom_site_fract_x
_atom_site_fract_y
_atom_site_fract_z
Si Si1 0.333883 0.851051 0.498877
Si Si2 0.799050 0.067118 0.149542
Si Si3 0.377471 0.470352 0.640867
Si Si4 0.002142 0.829774 0.008226
Si Si5 0.524192 0.796402 0.764213
Si Si6 0.021949 0.821966 0.334467
Si Si7 0.674344 0.114561 0.695258
O O1 0.435731 0.954335 0.698357
O O2 0.385347 0.507618 0.357667
O O3 0.347760 0.953871 0.459869
O O4 0.166585 0.905209 0.434905
O O5 0.891520 0.901691 0.211899
O O6 0.896931 0.003201 0.096870
O O7 0.749476 0.391599 0.311916
O O8 0.644699 0.961706 0.973021
O O9 0.409887 0.705667 0.709975
O O10 0.535687 0.357214 0.740512
O O11 0.332367 0.192283 0.419501
O O12 0.170988 0.788711 0.137342
O O13 0.958276 0.518203 0.807550
O O14 0.000000 0.000000 0.000000
O O15 0.000000 0.000000 0.500000
#
# Coordination Sequence:
#
# PCOD9105685 Si02
#       7
#     2   2   2   2   2   2   2
#     4  10  20  39  65  94 133 179 226 272 341 408
#     4  12  24  45  73 101 144 178 241 285 350 407
#     4  10  23  40  69 101 133 185 222 293 340 421
#     4  12  28  45  71 102 145 187 232 290 350 414
#     4  10  21  38  69  98 132 177 233 279 338 412
#     4  12  25  43  70 105 139 184 235 283 343 416
#     4  10  23  45  66  97 146 180 227 284 363 403
#
# _framework density 21.675101999999999
#
# number of rings (size 3 to 8) (size 9 to 14) (size 15 to 20)
#    0.000    1.143    2.857    3.429    4.000    5.143 
#    0.000    1.429    0.000    0.000    0.000    0.000 
#    0.000    0.000    0.000    0.000    0.000    0.000 
#
# Total GULP energy -78228.871182 kJ/mol
# GULP energy per Si atom -5587.776513 kJ/mol
# Density = 2.162577 g / cm^3
# Si number density = 21.675102 Si / 1000 Ang^3
#
#
#
# Elastic Constant Matrix: (Units=GPa)
#
#
# Indices 1 2 3 4 5 6 
#
# 1 114.4330 36.2904 23.0883 1.4421 -16.6237 -8.0043
# 2 36.2904 86.7104 21.8034 -9.5266 -14.5777 4.4805
# 3 23.0883 21.8034 47.6974 -18.2436 -11.2181 1.5163
# 4 1.4421 -9.5266 -18.2436 37.7441 -10.4787 -10.0398
# 5 -16.6237 -14.5777 -11.2181 -10.4787 33.7699 -0.4052
# 6 -8.0043 4.4805 1.5163 -10.0398 -0.4052 35.3127
#
#
#
# Elastic Compliance Matrix: (Units=1/GPa)
#
#
# Indices 1 2 3 4 5 6 
#
# 1 0.011250 -0.003703 -0.004233 -0.002196 0.001883 0.002599
# 2 -0.003703 0.015022 -0.002413 0.003753 0.005006 -0.001517
# 3 -0.004233 -0.002413 0.036531 0.022887 0.016166 0.004471
# 4 -0.002196 0.003753 0.022887 0.048243 0.023256 0.012026
# 5 0.001883 0.005006 0.016166 0.023256 0.045361 0.006230
# 6 0.002599 -0.001517 0.004471 0.012026 0.006230 0.032399
#
#
# Mechanical properties :
#
#
# Convention : Reuss Voigt Hill
#
# Bulk Modulus (GPa) = 23.74994 45.68943 34.71968
# Shear Modulus (GPa) = 22.36741 32.54259 27.45500
#
# Velocity S-wave (km/s) = 3.21587 3.87897 3.56288
# Velocity P-wave (km/s) = 4.97696 6.41770 5.74269
#
# Compressibility (1/GPa) = 0.04210538
#
# Stress axis : x y z
#
# Youngs Moduli (GPa) = 88.88779 66.57068 27.37365
#
# Poissons Ratio (x) = 0.24652 0.11587
# Poissons Ratio (y) = 0.32916 0.06605
# Poissons Ratio (z) = 0.37624 0.16064
#
# Static dielectric constant tensor:
#      x y z
#    x 1.825720 0.034090 -0.011730 
#    y 0.034090 1.816690 -0.007970 
#    z -0.011730 -0.007970 1.809890 
# 
# From -- ./inp_files/190118.got.cif
#   From: 2010.05.17/outbox.cif.g08.bks.cpg/sg2_96_cif.got.tgz:190118.got - 2010.06.03 11:33:40.
