data_PCOD9105644
_publ_section_title
;
Structure prediction by ZEFSAII (Michael W. Deem and Ramdas Pophale) SiO2 
 PCOD9105644
Probable space group: P -1
;
_chemical_formula_sum "Si O2"
_cell_formula_units_Z 15
_cell_length_a 5.481986
_cell_length_b 28.632471
_cell_length_c 14.188414
_cell_angle_alpha 17.094452
_cell_angle_beta 122.119207
_cell_angle_gamma 117.831137
_cell_volume 546.748778
_symmetry_space_group_name_H-M "P -1"
_symmetry_group_IT_number 2
_symmetry_cell_setting 'triclinic'
loop_
_space_group_symop_operation_xyz
x,y,z
-x,-y,-z
loop_
_atom_site_type_symbol
_atom_site_label
_atom_site_fract_x
_atom_site_fract_y
_atom_site_fract_z
Si Si1 0.709553 0.917941 0.331182
Si Si2 0.159837 0.093908 0.073531
Si Si3 0.482870 0.565485 0.179456
Si Si4 0.390313 0.607850 0.861932
Si Si5 0.271333 0.101554 0.407806
Si Si6 0.500000 0.500000 0.500000
Si Si7 0.835485 0.847053 0.245776
Si Si8 0.996820 0.286091 0.835429
O O1 0.576949 0.756022 0.605502
O O2 0.770603 0.936518 0.418739
O O3 0.024029 0.935463 0.321519
O O4 0.490819 0.073273 0.945702
O O5 0.454275 0.030295 0.312430
O O6 0.205461 0.181569 0.818115
O O7 0.951871 0.214908 0.862294
O O8 0.285522 0.578333 0.208581
O O9 0.721436 0.416436 0.557219
O O10 0.421666 0.533210 0.118847
O O11 0.617991 0.726817 0.890319
O O12 0.049162 0.691591 0.625636
O O13 0.500000 0.500000 0.000000
O O14 0.033400 0.147247 0.189786
O O15 0.286174 0.365748 0.729214
O O16 0.000000 0.000000 0.000000
#
# Coordination Sequence:
#
# PCOD9105644 Si02
#       8
#     2   2   2   2   2   1   2   2
#     4   9  21  39  62  87 122 162 195 247 308 357
#     4  11  22  38  61  90 119 156 202 248 304 362
#     4  10  22  40  63  91 123 162 205 250 303 363
#     4  10  20  39  65  93 124 158 206 256 298 360
#     4   9  20  38  59  88 122 157 199 247 298 365
#     4  10  22  42  64  84 120 166 200 246 304 352
#     4   9  20  40  60  84 122 158 199 249 299 363
#     4  11  23  39  61  90 123 157 205 254 300 363
#
# _framework density 27.434905000000001
#
# number of rings (size 3 to 8) (size 9 to 14) (size 15 to 20)
#    0.000    2.133    0.000    3.600    0.000   11.200 
#    0.000    4.000    0.000   14.400    0.000    0.000 
#    0.000    0.000    0.000    0.000    0.000    0.000 
#
# Total GULP energy -83565.062483 kJ/mol
# GULP energy per Si atom -5571.004166 kJ/mol
# Density = 2.737246 g / cm^3
# Si number density = 27.434905 Si / 1000 Ang^3
#
#
#
# Elastic Constant Matrix: (Units=GPa)
#
#
# Indices 1 2 3 4 5 6 
#
# 1 52.8862 18.6220 9.6208 9.8645 -25.1095 14.7344
# 2 18.6220 146.6054 33.7615 10.0682 -2.5237 -21.0919
# 3 9.6208 33.7615 110.9845 31.0083 -2.3791 -3.5562
# 4 9.8645 10.0682 31.0083 51.4603 -4.0258 -8.2527
# 5 -25.1095 -2.5237 -2.3791 -4.0258 41.7974 11.5777
# 6 14.7344 -21.0919 -3.5562 -8.2527 11.5777 52.2853
#
#
#
# Elastic Compliance Matrix: (Units=1/GPa)
#
#
# Indices 1 2 3 4 5 6 
#
# 1 0.046549 -0.008605 0.001101 -0.009350 0.033654 -0.025442
# 2 -0.008605 0.009380 -0.002589 0.002108 -0.006723 0.007854
# 3 0.001101 -0.002589 0.011596 -0.006914 0.001021 -0.001883
# 4 -0.009350 0.002108 -0.006914 0.025873 -0.005708 0.008363
# 5 0.033654 -0.006723 0.001021 -0.005708 0.049915 -0.024080
# 6 -0.025442 0.007854 -0.001883 0.008363 -0.024080 0.035988
#
#
# Mechanical properties :
#
#
# Convention : Reuss Voigt Hill
#
# Bulk Modulus (GPa) = 21.12442 48.27608 34.70025
# Shear Modulus (GPa) = 23.22721 45.67339 34.45030
#
# Velocity S-wave (km/s) = 2.91285 4.08461 3.54745
# Velocity P-wave (km/s) = 4.36228 6.31508 5.42723
#
# Compressibility (1/GPa) = 0.04733858
#
# Stress axis : x y z
#
# Youngs Moduli (GPa) = 21.48284 106.61331 86.24013
#
# Poissons Ratio (x) = 0.91742 -0.09496
# Poissons Ratio (y) = 0.18486 0.22325
# Poissons Ratio (z) = -0.02366 0.27599
#
# Static dielectric constant tensor:
#      x y z
#    x 1.337710 0.839770 -0.349700 
#    y 0.839770 1.535060 0.373640 
#    z -0.349700 0.373640 1.985510 
# 
# From -- ./inp_files/486281.got.cif
#   From: 2010.05.17/outbox.cif.g08.bks.cpg/sg2_244_cif.got.tgz:486281.got - 2010.06.03 11:33:40.
