data_PCOD9105740
_publ_section_title
;
Structure prediction by ZEFSAII (Michael W. Deem and Ramdas Pophale) SiO2 
 PCOD9105740
Probable space group: P -1
;
_chemical_formula_sum "Si O2"
_cell_formula_units_Z 14
_cell_length_a 9.248923
_cell_length_b 12.075269
_cell_length_c 13.189979
_cell_angle_alpha 146.930129
_cell_angle_beta 44.979358
_cell_angle_gamma 126.837786
_cell_volume 568.089412
_symmetry_space_group_name_H-M "P -1"
_symmetry_group_IT_number 2
_symmetry_cell_setting 'triclinic'
loop_
_space_group_symop_operation_xyz
x,y,z
-x,-y,-z
loop_
_atom_site_type_symbol
_atom_site_label
_atom_site_fract_x
_atom_site_fract_y
_atom_site_fract_z
Si Si1 0.761383 0.967340 0.623549
Si Si2 0.518916 0.348420 0.010464
Si Si3 0.415098 0.506906 0.384614
Si Si4 0.715263 0.951459 0.404393
Si Si5 0.731892 0.275740 0.194757
Si Si6 0.183651 0.393045 0.059223
Si Si7 0.862726 0.851680 0.702562
O O1 0.630111 0.163720 0.866865
O O2 0.683641 0.910199 0.506989
O O3 0.766155 0.846761 0.633437
O O4 0.000000 0.000000 0.500000
O O5 0.682909 0.412214 0.891372
O O6 0.480084 0.518320 0.244410
O O7 0.306760 0.301650 0.022629
O O8 0.590783 0.390196 0.271418
O O9 0.365078 0.701860 0.627678
O O10 0.220141 0.350460 0.358124
O O11 0.500000 0.000000 0.500000
O O12 0.799395 0.753249 0.157309
O O13 0.894500 0.116407 0.412507
O O14 0.944158 0.403247 0.199862
O O15 0.781953 0.049964 0.956427
#
# Coordination Sequence:
#
# PCOD9105740 Si02
#       7
#     2   2   2   2   2   2   2
#     4  10  21  37  64  94 122 163 209 254 317 363
#     4  11  23  42  63  94 126 169 205 259 320 373
#     4  11  24  42  65  91 130 167 210 258 321 373
#     4  10  20  39  65  97 122 163 214 256 313 374
#     4  10  23  41  63  94 125 166 213 259 309 377
#     4  10  24  42  63  90 131 161 214 263 306 376
#     4  10  22  42  63  92 130 166 204 265 314 376
#
# _framework density 24.644009
#
# number of rings (size 3 to 8) (size 9 to 14) (size 15 to 20)
#    0.000    1.714    2.857    0.429    4.000    3.429 
#    0.000    4.286    0.000    0.000    0.000    0.000 
#    0.000    0.000    0.000    0.000    0.000    0.000 
#
# Total GULP energy -78249.827117 kJ/mol
# GULP energy per Si atom -5589.273365 kJ/mol
# Density = 2.458792 g / cm^3
# Si number density = 24.644009 Si / 1000 Ang^3
#
#
#
# Elastic Constant Matrix: (Units=GPa)
#
#
# Indices 1 2 3 4 5 6 
#
# 1 111.7023 35.9506 33.1385 -18.4007 5.5868 22.3233
# 2 35.9506 73.1477 16.1007 -20.2326 -7.2894 18.2367
# 3 33.1385 16.1007 167.3123 -23.5138 24.8334 -0.1456
# 4 -18.4007 -20.2326 -23.5138 34.7958 -2.0562 3.6185
# 5 5.5868 -7.2894 24.8334 -2.0562 39.5886 -8.5416
# 6 22.3233 18.2367 -0.1456 3.6185 -8.5416 36.0521
#
#
#
# Elastic Compliance Matrix: (Units=1/GPa)
#
#
# Indices 1 2 3 4 5 6 
#
# 1 0.012722 -0.003126 -0.001103 0.004765 -0.003050 -0.007502
# 2 -0.003126 0.021042 -0.000252 0.011546 0.003103 -0.009133
# 3 -0.001103 -0.000252 0.007465 0.004115 -0.004497 -0.000638
# 4 0.004765 0.011546 0.004115 0.042041 -0.001842 -0.013430
# 5 -0.003050 0.003103 -0.004497 -0.001842 0.030659 0.007750
# 6 -0.007502 -0.009133 -0.000638 -0.013430 0.007750 0.040184
#
#
# Mechanical properties :
#
#
# Convention : Reuss Voigt Hill
#
# Bulk Modulus (GPa) = 30.99017 58.06020 44.52518
# Shear Modulus (GPa) = 28.76362 39.88546 34.32454
#
# Velocity S-wave (km/s) = 3.42009 4.02738 3.73609
# Velocity P-wave (km/s) = 5.31022 6.72585 6.05952
#
# Compressibility (1/GPa) = 0.03226830
#
# Stress axis : x y z
#
# Youngs Moduli (GPa) = 78.60240 47.52335 133.96063
#
# Poissons Ratio (x) = 0.14854 0.14779
# Poissons Ratio (y) = 0.24568 0.03372
# Poissons Ratio (z) = 0.08672 0.01196
#
# Static dielectric constant tensor:
#      x y z
#    x 1.931340 0.044300 0.007020 
#    y 0.044300 1.933290 0.024340 
#    z 0.007020 0.024340 1.985130 
# 
# From -- ./inp_files/153885.got.cif
#   From: 2010.05.17/outbox.cif.g08.bks.cpg/sg2_77_cif.got.tgz:153885.got - 2010.06.03 11:33:40.
