data_PCOD9105170
_publ_section_title
;
Structure prediction by ZEFSAII (Michael W. Deem and Ramdas Pophale) SiO2 
 PCOD9105170
Probable space group: P -1
;
_chemical_formula_sum "Si O2"
_cell_formula_units_Z 16
_cell_length_a 8.108599
_cell_length_b 11.177460
_cell_length_c 14.208974
_cell_angle_alpha 137.592531
_cell_angle_beta 88.769036
_cell_angle_gamma 115.288567
_cell_volume 688.012641
_symmetry_space_group_name_H-M "P -1"
_symmetry_group_IT_number 2
_symmetry_cell_setting 'triclinic'
loop_
_space_group_symop_operation_xyz
x,y,z
-x,-y,-z
loop_
_atom_site_type_symbol
_atom_site_label
_atom_site_fract_x
_atom_site_fract_y
_atom_site_fract_z
Si Si1 0.883364 0.821908 0.316897
Si Si2 0.502939 0.003037 0.388032
Si Si3 0.741381 0.462984 0.237862
Si Si4 0.283358 0.166904 0.019761
Si Si5 0.257566 0.185779 0.426192
Si Si6 0.086508 0.562764 0.428571
Si Si7 0.151735 0.221945 0.246779
Si Si8 0.568541 0.423754 0.867043
O O1 0.866288 0.609698 0.228872
O O2 0.653660 0.745950 0.277692
O O3 0.000000 0.000000 0.500000
O O4 0.017654 0.958377 0.305064
O O5 0.387468 0.102168 0.409265
O O6 0.741396 0.174676 0.445729
O O7 0.500000 0.000000 0.500000
O O8 0.379368 0.743955 0.206522
O O9 0.519824 0.251858 0.077864
O O10 0.704448 0.614985 0.393186
O O11 0.892539 0.447286 0.291966
O O12 0.210138 0.134534 0.109444
O O13 0.297111 0.367183 0.082970
O O14 0.100667 0.945283 0.838770
O O15 0.273252 0.250998 0.355767
O O16 0.204443 0.455090 0.351631
O O17 0.000000 0.500000 0.500000
O O18 0.500000 0.500000 0.000000
#
# Coordination Sequence:
#
# PCOD9105170 Si02
#       8
#     2   2   2   2   2   2   2   2
#     4   9  18  36  62  90 122 167 214 270 320 379
#     4  12  25  43  69 104 133 173 225 281 332 390
#     4  10  20  39  63  94 124 172 219 273 326 383
#     4  10  24  43  65  90 135 177 210 269 338 395
#     4  11  21  38  67  92 130 170 225 266 322 392
#     4  12  25  39  67  99 131 167 223 273 319 390
#     4  11  24  43  62  94 136 177 215 266 333 398
#     4  11  23  42  69  95 131 168 222 275 331 384
#
# _framework density 23.255386999999999
#
# number of rings (size 3 to 8) (size 9 to 14) (size 15 to 20)
#    0.000    1.250    1.250    6.750    3.500    1.500 
#    0.000    7.500    0.000    0.000    0.000    0.000 
#    0.000    0.000    0.000    0.000    0.000    0.000 
#
# Total GULP energy -89299.125053 kJ/mol
# GULP energy per Si atom -5581.195316 kJ/mol
# Density = 2.320246 g / cm^3
# Si number density = 23.255387 Si / 1000 Ang^3
#
#
#
# Elastic Constant Matrix: (Units=GPa)
#
#
# Indices 1 2 3 4 5 6 
#
# 1 51.5083 33.4949 6.3223 1.7739 -2.3742 -22.6405
# 2 33.4949 112.7384 27.7086 1.6682 5.2147 -12.5774
# 3 6.3223 27.7086 60.7055 7.3460 -0.7992 -0.3534
# 4 1.7739 1.6682 7.3460 38.3243 8.7410 3.4569
# 5 -2.3742 5.2147 -0.7992 8.7410 32.7106 7.7482
# 6 -22.6405 -12.5774 -0.3534 3.4569 7.7482 46.9500
#
#
#
# Elastic Compliance Matrix: (Units=1/GPa)
#
#
# Indices 1 2 3 4 5 6 
#
# 1 0.029913 -0.007725 0.000811 -0.002589 0.001188 0.012356
# 2 -0.007725 0.012550 -0.005146 0.001502 -0.003088 -0.000003
# 3 0.000811 -0.005146 0.019253 -0.004021 0.002658 -0.000985
# 4 -0.002589 0.001502 -0.004021 0.028859 -0.007833 -0.001709
# 5 0.001188 -0.003088 0.002658 -0.007833 0.034578 -0.005364
# 6 0.012356 -0.000003 -0.000985 -0.001709 -0.005364 0.028261
#
#
# Mechanical properties :
#
#
# Convention : Reuss Voigt Hill
#
# Bulk Modulus (GPa) = 26.59767 40.00042 33.29904
# Shear Modulus (GPa) = 26.30650 34.09208 30.19929
#
# Velocity S-wave (km/s) = 3.36698 3.83297 3.60751
# Velocity P-wave (km/s) = 5.15533 6.06851 5.63046
#
# Compressibility (1/GPa) = 0.03759728
#
# Stress axis : x y z
#
# Youngs Moduli (GPa) = 33.43003 79.67905 51.93886
#
# Poissons Ratio (x) = 0.61551 -0.04215
# Poissons Ratio (y) = 0.25824 0.26730
# Poissons Ratio (z) = -0.02713 0.41006
#
# Static dielectric constant tensor:
#      x y z
#    x 1.954630 0.008820 0.011650 
#    y 0.008820 1.924330 0.043260 
#    z 0.011650 0.043260 1.933010 
# 
# From -- ./inp_files/495740.got.cif
#   From: 2010.05.17/outbox.cif.g08.bks.cpg/sg2_248_cif.got.tgz:495740.got - 2010.06.03 11:33:40.
