data_PCOD9105768
_publ_section_title
;
Structure prediction by ZEFSAII (Michael W. Deem and Ramdas Pophale) SiO2 
 PCOD9105768
Probable space group: P -1
;
_chemical_formula_sum "Si O2"
_cell_formula_units_Z 14
_cell_length_a 9.592293
_cell_length_b 9.354167
_cell_length_c 10.136049
_cell_angle_alpha 57.601631
_cell_angle_beta 47.264204
_cell_angle_gamma 61.708240
_cell_volume 555.027377
_symmetry_space_group_name_H-M "P -1"
_symmetry_group_IT_number 2
_symmetry_cell_setting 'triclinic'
loop_
_space_group_symop_operation_xyz
x,y,z
-x,-y,-z
loop_
_atom_site_type_symbol
_atom_site_label
_atom_site_fract_x
_atom_site_fract_y
_atom_site_fract_z
Si Si1 0.227891 0.771164 0.246897
Si Si2 0.168872 0.129186 0.072270
Si Si3 0.174505 0.133460 0.385363
Si Si4 0.234192 0.792367 0.667914
Si Si5 0.571821 0.526549 0.588839
Si Si6 0.097086 0.460205 0.789562
Si Si7 0.273888 0.490354 0.149332
O O1 0.407151 0.654200 0.262495
O O2 0.178411 0.640456 0.234620
O O3 0.047164 0.827042 0.435625
O O4 0.286449 0.940349 0.060938
O O5 0.185706 0.136548 0.217336
O O6 0.947867 0.116269 0.177077
O O7 0.193665 0.299080 0.895356
O O8 0.261268 0.296854 0.296112
O O9 0.268754 0.945157 0.472410
O O10 0.428931 0.690125 0.655460
O O11 0.141273 0.636582 0.738260
O O12 0.500000 0.500000 0.500000
O O13 0.788459 0.557830 0.412862
O O14 0.869075 0.476830 0.902262
O O15 0.500000 0.500000 0.000000
#
# Coordination Sequence:
#
# PCOD9105768 Si02
#       7
#     2   2   2   2   2   2   2
#     4  11  24  45  69  99 136 185 221 271 336 409
#     4  11  22  40  75 102 133 173 223 286 339 383
#     4  11  22  46  72 100 132 180 227 276 332 402
#     4  10  21  39  72 101 128 166 230 282 326 391
#     4  10  20  39  66 100 129 167 225 275 326 392
#     4  11  23  41  69 101 139 172 219 287 341 384
#     4  12  28  44  67  97 145 182 222 269 343 407
#
# _framework density 25.223980000000001
#
# number of rings (size 3 to 8) (size 9 to 14) (size 15 to 20)
#    0.000    1.143    2.857    5.143    2.000    2.857 
#    0.000    5.000    0.000    0.000    0.000    0.000 
#    0.000    0.000    0.000    0.000    0.000    0.000 
#
# Total GULP energy -78123.617315 kJ/mol
# GULP energy per Si atom -5580.258380 kJ/mol
# Density = 2.516657 g / cm^3
# Si number density = 25.223980 Si / 1000 Ang^3
#
#
#
# Elastic Constant Matrix: (Units=GPa)
#
#
# Indices 1 2 3 4 5 6 
#
# 1 104.1747 48.6337 35.7723 -23.4505 -1.7326 -19.4057
# 2 48.6337 144.3118 57.6890 -56.7758 21.5829 -19.7422
# 3 35.7723 57.6890 101.4197 -52.6564 6.8467 -12.4097
# 4 -23.4505 -56.7758 -52.6564 67.4168 -16.1983 9.3277
# 5 -1.7326 21.5829 6.8467 -16.1983 36.1372 -6.8207
# 6 -19.4057 -19.7422 -12.4097 9.3277 -6.8207 57.3354
#
#
#
# Elastic Compliance Matrix: (Units=1/GPa)
#
#
# Indices 1 2 3 4 5 6 
#
# 1 0.012652 -0.003406 -0.002292 0.000224 0.003746 0.003023
# 2 -0.003406 0.012117 -0.001985 0.006366 -0.003966 0.001082
# 3 -0.002292 -0.001985 0.018082 0.012340 0.003341 0.000844
# 4 0.000224 0.006366 0.012340 0.031792 0.008263 0.000750
# 5 0.003746 -0.003966 0.003341 0.008263 0.033917 0.003316
# 6 0.003023 0.001082 0.000844 0.000750 0.003316 0.019292
#
#
# Mechanical properties :
#
#
# Convention : Reuss Voigt Hill
#
# Bulk Modulus (GPa) = 36.38403 70.45513 53.41958
# Shear Modulus (GPa) = 32.81244 46.03197 39.42221
#
# Velocity S-wave (km/s) = 3.61063 4.27655 3.95762
# Velocity P-wave (km/s) = 5.64251 7.23724 6.48905
#
# Compressibility (1/GPa) = 0.02748458
#
# Stress axis : x y z
#
# Youngs Moduli (GPa) = 79.03724 82.53013 55.30282
#
# Poissons Ratio (x) = 0.28112 0.12674
# Poissons Ratio (y) = 0.26922 0.10980
# Poissons Ratio (z) = 0.18113 0.16385
#
# Static dielectric constant tensor:
#      x y z
#    x 2.077340 -0.056420 -0.015730 
#    y -0.056420 2.108860 0.063470 
#    z -0.015730 0.063470 2.138150 
# 
# From -- ./inp_files/418818.got.cif
#   From: 2010.05.17/outbox.cif.g08.bks.cpg/sg2_210_cif.got.tgz:418818.got - 2010.06.03 11:33:40.
