data_PCOD9105421
_publ_section_title
;
Structure prediction by ZEFSAII (Michael W. Deem and Ramdas Pophale) SiO2 
 PCOD9105421
Probable space group: P -1
;
_chemical_formula_sum "Si O2"
_cell_formula_units_Z 16
_cell_length_a 19.646104
_cell_length_b 9.463285
_cell_length_c 11.960719
_cell_angle_alpha 142.868164
_cell_angle_beta 143.759228
_cell_angle_gamma 35.946509
_cell_volume 701.835523
_symmetry_space_group_name_H-M "P -1"
_symmetry_group_IT_number 2
_symmetry_cell_setting 'triclinic'
loop_
_space_group_symop_operation_xyz
x,y,z
-x,-y,-z
loop_
_atom_site_type_symbol
_atom_site_label
_atom_site_fract_x
_atom_site_fract_y
_atom_site_fract_z
Si Si1 0.247082 0.079052 0.988612
Si Si2 0.267251 0.877917 0.363725
Si Si3 0.024683 0.827220 0.769539
Si Si4 0.819405 0.400241 0.394379
Si Si5 0.158473 0.180821 0.186068
Si Si6 0.543206 0.705493 0.139238
Si Si7 0.183269 0.457247 0.950102
Si Si8 0.620546 0.893144 0.172496
O O1 0.225536 0.140791 0.130187
O O2 0.403338 0.964160 0.105055
O O3 0.166844 0.331522 0.963717
O O4 0.199931 0.854898 0.761870
O O5 0.248654 0.982660 0.277980
O O6 0.371654 0.919188 0.601688
O O7 0.275146 0.591317 0.188425
O O8 0.128695 0.066148 0.358808
O O9 0.100795 0.663840 0.657543
O O10 0.081856 0.663122 0.856084
O O11 0.049859 0.082746 0.963916
O O12 0.884912 0.522429 0.641746
O O13 0.670673 0.639158 0.340008
O O14 0.611244 0.655916 0.077118
O O15 0.500000 0.500000 0.000000
O O16 0.258379 0.205087 0.810566
O O17 0.500000 0.000000 0.000000
#
# Coordination Sequence:
#
# PCOD9105421 Si02
#       8
#     2   2   2   2   2   2   2   2
#     4  10  23  38  61  97 138 171 213 266 326 379
#     4  11  25  43  68  97 125 174 224 259 325 384
#     4  10  22  42  69  94 126 172 222 270 311 383
#     4  10  20  40  66  95 128 174 228 259 316 385
#     4  10  20  39  64  94 130 168 221 259 310 391
#     4  10  20  40  63  92 128 172 213 260 314 390
#     4  11  22  41  66  96 138 164 210 273 325 370
#     4  12  24  44  66  98 132 164 214 275 324 381
#
# _framework density 22.797363000000001
#
# number of rings (size 3 to 8) (size 9 to 14) (size 15 to 20)
#    0.000    1.500    3.750    1.500    1.750    5.000 
#    0.000    5.625    0.000    6.750    0.000    0.000 
#    0.000    0.000    0.000    0.000    0.000    0.000 
#
# Total GULP energy -89197.273288 kJ/mol
# GULP energy per Si atom -5574.829581 kJ/mol
# Density = 2.274548 g / cm^3
# Si number density = 22.797363 Si / 1000 Ang^3
#
#
#
# Elastic Constant Matrix: (Units=GPa)
#
#
# Indices 1 2 3 4 5 6 
#
# 1 102.9094 31.0363 42.3008 -6.0871 -6.0599 17.4200
# 2 31.0363 87.3434 50.5506 -2.4987 4.2102 17.6862
# 3 42.3008 50.5506 144.3291 7.7710 -10.6508 13.9464
# 4 -6.0871 -2.4987 7.7710 35.7939 -4.7139 7.1244
# 5 -6.0599 4.2102 -10.6508 -4.7139 23.4377 4.2035
# 6 17.4200 17.6862 13.9464 7.1244 4.2035 39.7084
#
#
#
# Elastic Compliance Matrix: (Units=1/GPa)
#
#
# Indices 1 2 3 4 5 6 
#
# 1 0.012690 -0.002237 -0.002360 0.004063 0.004311 -0.004927
# 2 -0.002237 0.016380 -0.005111 0.002143 -0.004621 -0.004414
# 3 -0.002360 -0.005111 0.009877 -0.002285 0.004374 -0.000210
# 4 0.004063 0.002143 -0.002285 0.031958 0.007574 -0.008470
# 5 0.004311 -0.004621 0.004374 0.007574 0.049552 -0.007974
# 6 -0.004927 -0.004414 -0.000210 -0.008470 -0.007974 0.031749
#
#
# Mechanical properties :
#
#
# Convention : Reuss Voigt Hill
#
# Bulk Modulus (GPa) = 51.20380 64.70637 57.95508
# Shear Modulus (GPa) = 28.06892 33.83429 30.95161
#
# Velocity S-wave (km/s) = 3.51270 3.85662 3.68867
# Velocity P-wave (km/s) = 6.24190 6.94811 6.60445
#
# Compressibility (1/GPa) = 0.01952980
#
# Stress axis : x y z
#
# Youngs Moduli (GPa) = 78.79951 61.04995 101.24894
#
# Poissons Ratio (x) = 0.13658 0.23898
# Poissons Ratio (y) = 0.17629 0.51750
# Poissons Ratio (z) = 0.18599 0.31203
#
# Static dielectric constant tensor:
#      x y z
#    x 1.895220 -0.026260 -0.008800 
#    y -0.026260 1.875840 0.133720 
#    z -0.008800 0.133720 1.603930 
# 
# From -- ./inp_files/470216.got.cif
#   From: 2010.05.17/outbox.cif.g08.bks.cpg/sg2_236_cif.got.tgz:470216.got - 2010.06.03 11:33:40.
