data_PCOD9105281
_publ_section_title
;
Structure prediction by ZEFSAII (Michael W. Deem and Ramdas Pophale) SiO2 
 PCOD9105281
Probable space group: P -1
;
_chemical_formula_sum "Si O2"
_cell_formula_units_Z 14
_cell_length_a 11.791787
_cell_length_b 8.317636
_cell_length_c 15.594502
_cell_angle_alpha 132.273877
_cell_angle_beta 145.566338
_cell_angle_gamma 39.026548
_cell_volume 542.390691
_symmetry_space_group_name_H-M "P -1"
_symmetry_group_IT_number 2
_symmetry_cell_setting 'triclinic'
loop_
_space_group_symop_operation_xyz
x,y,z
-x,-y,-z
loop_
_atom_site_type_symbol
_atom_site_label
_atom_site_fract_x
_atom_site_fract_y
_atom_site_fract_z
Si Si1 0.226409 0.871713 0.496755
Si Si2 0.928931 0.617096 0.203065
Si Si3 0.494904 0.042136 0.623470
Si Si4 0.831140 0.866273 0.934280
Si Si5 0.514212 0.164844 0.176817
Si Si6 0.779262 0.368479 0.337418
Si Si7 0.013408 0.209781 0.242098
O O1 0.134822 0.680750 0.357963
O O2 0.379742 0.875443 0.514405
O O3 0.373113 0.822152 0.656718
O O4 0.990807 0.159347 0.455166
O O5 0.917815 0.478334 0.231466
O O6 0.689215 0.888032 0.144798
O O7 0.991115 0.410046 0.094522
O O8 0.632740 0.015784 0.790245
O O9 0.296109 0.340226 0.595516
O O10 0.703000 0.933550 0.644285
O O11 0.719550 0.822430 0.933775
O O12 0.944849 0.029782 0.085496
O O13 0.546485 0.358799 0.208240
O O14 0.887051 0.266634 0.274695
#
# Coordination Sequence:
#
# PCOD9105281 Si02
#       7
#     2   2   2   2   2   2   2
#     4  10  22  42  65  90 122 161 203 245 307 370
#     4  10  20  39  64  88 119 159 201 247 297 358
#     4  10  22  40  64  91 123 159 198 253 305 355
#     4  10  23  42  63  89 120 165 210 242 294 364
#     4  10  23  42  65  89 121 164 201 247 306 362
#     4  11  23  39  61  94 126 157 197 252 309 356
#     4  11  24  40  62  92 123 160 208 249 295 359
#
# _framework density 25.811651000000001
#
# number of rings (size 3 to 8) (size 9 to 14) (size 15 to 20)
#    0.000    1.714    0.000    5.571    0.000   13.143 
#    0.000    9.286    0.000    0.857    0.000    0.000 
#    0.000    0.000    0.000    0.000    0.000    0.000 
#
# Total GULP energy -78512.237109 kJ/mol
# GULP energy per Si atom -5608.016936 kJ/mol
# Density = 2.575290 g / cm^3
# Si number density = 25.811651 Si / 1000 Ang^3
#
#
#
# Elastic Constant Matrix: (Units=GPa)
#
#
# Indices 1 2 3 4 5 6 
#
# 1 188.9434 15.7269 53.6538 20.0147 27.7186 7.0653
# 2 15.7269 72.1168 33.9109 13.1564 -10.9070 11.2217
# 3 53.6538 33.9109 134.1113 29.2319 24.6081 9.2609
# 4 20.0147 13.1564 29.2319 40.9167 -6.2064 2.5103
# 5 27.7186 -10.9070 24.6081 -6.2064 41.1897 13.5784
# 6 7.0653 11.2217 9.2609 2.5103 13.5784 37.4421
#
#
#
# Elastic Compliance Matrix: (Units=1/GPa)
#
#
# Indices 1 2 3 4 5 6 
#
# 1 0.006720 -0.001678 -0.000641 -0.003243 -0.005615 0.001647
# 2 -0.001678 0.020765 -0.006918 0.001812 0.014148 -0.009448
# 3 -0.000641 -0.006918 0.013385 -0.009088 -0.012039 0.003859
# 4 -0.003243 0.001812 -0.009088 0.034563 0.015106 -0.005479
# 5 -0.005615 0.014148 -0.012039 0.015106 0.047331 -0.018380
# 6 0.001647 -0.009448 0.003859 -0.005479 -0.018380 0.035307
#
#
# Mechanical properties :
#
#
# Convention : Reuss Voigt Hill
#
# Bulk Modulus (GPa) = 44.64926 66.86162 55.75544
# Shear Modulus (GPa) = 27.17237 43.36836 35.27036
#
# Velocity S-wave (km/s) = 3.24808 4.10345 3.70056
# Velocity P-wave (km/s) = 5.60378 6.95780 6.31717
#
# Compressibility (1/GPa) = 0.02239679
#
# Stress axis : x y z
#
# Youngs Moduli (GPa) = 148.81193 48.15890 74.70783
#
# Poissons Ratio (x) = 0.08082 0.04786
# Poissons Ratio (y) = 0.24974 0.51681
# Poissons Ratio (z) = 0.09534 0.33315
#
# Static dielectric constant tensor:
#      x y z
#    x 2.034280 0.032870 -0.042560 
#    y 0.032870 2.000270 -0.116450 
#    z -0.042560 -0.116450 2.075090 
# 
# From -- ./inp_files/415907.got.cif
#   From: 2010.05.17/outbox.cif.g08.bks.cpg/sg2_208_cif.got.tgz:415907.got - 2010.06.03 11:33:40.
